# generated using pymatgen
data_Tb3Ho5CdInNi2
_symmetry_space_group_name_H-M   'P 1'
_cell_length_a   9.55285329
_cell_length_b   9.55705871
_cell_length_c   9.54896492
_cell_angle_alpha   59.99888518
_cell_angle_beta   60.04261913
_cell_angle_gamma   60.11680420
_symmetry_Int_Tables_number   1
_chemical_formula_structural   Tb3Ho5CdInNi2
_chemical_formula_sum   'Tb6 Ho10 Cd2 In2 Ni4'
_cell_volume   617.18709473
_cell_formula_units_Z   2
loop_
 _symmetry_equiv_pos_site_id
 _symmetry_equiv_pos_as_xyz
  1  'x, y, z'
loop_
 _atom_site_type_symbol
 _atom_site_label
 _atom_site_symmetry_multiplicity
 _atom_site_fract_x
 _atom_site_fract_y
 _atom_site_fract_z
 _atom_site_occupancy
  Tb  Tb0  1  0.347809  0.348235  0.348019  1
  Tb  Tb1  1  0.348235  0.347809  0.955934  1
  Tb  Tb2  1  0.349915  0.952201  0.348793  1
  Tb  Tb3  1  0.952201  0.349915  0.349090  1
  Tb  Tb4  1  0.812200  0.188639  0.187997  1
  Tb  Tb5  1  0.188639  0.812200  0.811162  1
  Ho  Ho6  1  0.189290  0.811423  0.188604  1
  Ho  Ho7  1  0.811423  0.189290  0.810681  1
  Ho  Ho8  1  0.188023  0.188023  0.811977  1
  Ho  Ho9  1  0.810169  0.810169  0.189831  1
  Ho  Ho10  1  0.937611  0.564478  0.564198  1
  Ho  Ho11  1  0.564478  0.937611  0.933712  1
  Ho  Ho12  1  0.564335  0.937698  0.563997  1
  Ho  Ho13  1  0.937698  0.564335  0.933971  1
  Ho  Ho14  1  0.564816  0.564816  0.935184  1
  Ho  Ho15  1  0.937488  0.937488  0.562512  1
  Cd  Cd16  1  0.580255  0.254059  0.583038  1
  Cd  Cd17  1  0.254059  0.580255  0.582649  1
  In  In18  1  0.581778  0.581490  0.583355  1
  In  In19  1  0.581490  0.581778  0.253378  1
  Ni  Ni20  1  0.142120  0.141412  0.143194  1
  Ni  Ni21  1  0.141412  0.142120  0.573275  1
  Ni  Ni22  1  0.140881  0.573673  0.143059  1
  Ni  Ni23  1  0.573673  0.140881  0.142389  1
