# generated using pymatgen
data_TbDy4Hf3(Co4P3)4
_symmetry_space_group_name_H-M   'P 1'
_cell_length_a   12.28991900
_cell_length_b   12.28991769
_cell_length_c   3.71256700
_cell_angle_alpha   90.00000000
_cell_angle_beta   90.00000000
_cell_angle_gamma   119.99999006
_symmetry_Int_Tables_number   1
_chemical_formula_structural   TbDy4Hf3(Co4P3)4
_chemical_formula_sum   'Tb1 Dy4 Hf3 Co16 P12'
_cell_volume   485.62716267
_cell_formula_units_Z   1
loop_
 _symmetry_equiv_pos_site_id
 _symmetry_equiv_pos_as_xyz
  1  'x, y, z'
loop_
 _atom_site_type_symbol
 _atom_site_label
 _atom_site_symmetry_multiplicity
 _atom_site_fract_x
 _atom_site_fract_y
 _atom_site_fract_z
 _atom_site_occupancy
  Tb  Tb0  1  0.666667  0.333333  0.000000  1
  Dy  Dy1  1  0.333333  0.666667  0.000000  1
  Dy  Dy2  1  0.182582  0.182566  0.500000  1
  Dy  Dy3  1  0.817434  0.000017  0.500000  1
  Dy  Dy4  1  0.999983  0.817418  0.500000  1
  Hf  Hf5  1  0.558938  0.559010  0.000000  1
  Hf  Hf6  1  0.440990  0.999928  0.000000  1
  Hf  Hf7  1  0.000072  0.441062  0.000000  1
  Co  Co8  1  0.822021  0.195628  0.000000  1
  Co  Co9  1  0.804372  0.626393  0.000000  1
  Co  Co10  1  0.373607  0.177979  0.000000  1
  Co  Co11  1  0.195693  0.821905  0.000000  1
  Co  Co12  1  0.626212  0.804307  0.000000  1
  Co  Co13  1  0.178095  0.373788  0.000000  1
  Co  Co14  1  0.644106  0.124000  0.500000  1
  Co  Co15  1  0.876000  0.520106  0.500000  1
  Co  Co16  1  0.479894  0.355894  0.500000  1
  Co  Co17  1  0.124381  0.644151  0.500000  1
  Co  Co18  1  0.519770  0.875619  0.500000  1
  Co  Co19  1  0.355849  0.480230  0.500000  1
  Co  Co20  1  0.721217  0.721233  0.500000  1
  Co  Co21  1  0.278767  0.999984  0.500000  1
  Co  Co22  1  0.000016  0.278783  0.500000  1
  Co  Co23  1  0.000000  0.000000  0.000000  1
  P  P24  1  0.352106  0.352050  0.000000  1
  P  P25  1  0.647950  0.000056  0.000000  1
  P  P26  1  0.999944  0.647894  0.000000  1
  P  P27  1  0.829175  0.307451  0.500000  1
  P  P28  1  0.692549  0.521724  0.500000  1
  P  P29  1  0.478276  0.170825  0.500000  1
  P  P30  1  0.307538  0.828657  0.500000  1
  P  P31  1  0.521119  0.692462  0.500000  1
  P  P32  1  0.171343  0.478881  0.500000  1
  P  P33  1  0.821788  0.821783  0.000000  1
  P  P34  1  0.178217  0.000005  0.000000  1
  P  P35  1  0.999995  0.178212  0.000000  1
