# generated using pymatgen
data_LiNd6Y10Cd3Pt4
_symmetry_space_group_name_H-M   'P 1'
_cell_length_a   9.81873973
_cell_length_b   9.81873976
_cell_length_c   9.81873929
_cell_angle_alpha   60.04604198
_cell_angle_beta   60.04604483
_cell_angle_gamma   60.04604717
_symmetry_Int_Tables_number   1
_chemical_formula_structural   LiNd6Y10Cd3Pt4
_chemical_formula_sum   'Li1 Nd6 Y10 Cd3 Pt4'
_cell_volume   670.04695910
_cell_formula_units_Z   1
loop_
 _symmetry_equiv_pos_site_id
 _symmetry_equiv_pos_as_xyz
  1  'x, y, z'
loop_
 _atom_site_type_symbol
 _atom_site_label
 _atom_site_symmetry_multiplicity
 _atom_site_fract_x
 _atom_site_fract_y
 _atom_site_fract_z
 _atom_site_occupancy
  Li  Li0  1  0.571599  0.571599  0.571599  1
  Nd  Nd1  1  0.937219  0.563006  0.563006  1
  Nd  Nd2  1  0.561465  0.937989  0.937989  1
  Nd  Nd3  1  0.563006  0.937219  0.563006  1
  Nd  Nd4  1  0.937989  0.561465  0.937989  1
  Nd  Nd5  1  0.563006  0.563006  0.937219  1
  Nd  Nd6  1  0.937989  0.937989  0.561465  1
  Y  Y7  1  0.350528  0.350528  0.350528  1
  Y  Y8  1  0.349974  0.349974  0.949704  1
  Y  Y9  1  0.349974  0.949704  0.349974  1
  Y  Y10  1  0.949704  0.349974  0.349974  1
  Y  Y11  1  0.811360  0.190281  0.190281  1
  Y  Y12  1  0.185132  0.813708  0.813708  1
  Y  Y13  1  0.190281  0.811360  0.190281  1
  Y  Y14  1  0.813708  0.185132  0.813708  1
  Y  Y15  1  0.190281  0.190281  0.811360  1
  Y  Y16  1  0.813708  0.813708  0.185132  1
  Cd  Cd17  1  0.581200  0.581200  0.259337  1
  Cd  Cd18  1  0.581200  0.259337  0.581200  1
  Cd  Cd19  1  0.259337  0.581200  0.581200  1
  Pt  Pt20  1  0.143135  0.143135  0.143135  1
  Pt  Pt21  1  0.143223  0.143223  0.571762  1
  Pt  Pt22  1  0.143223  0.571762  0.143223  1
  Pt  Pt23  1  0.571762  0.143223  0.143223  1
