# generated using pymatgen
data_Sr4Mn2O7
_symmetry_space_group_name_H-M   'P 1'
_cell_length_a   5.56707500
_cell_length_b   6.91165474
_cell_length_c   10.88789800
_cell_angle_alpha   66.73603348
_cell_angle_beta   90.00000000
_cell_angle_gamma   90.00000000
_symmetry_Int_Tables_number   1
_chemical_formula_structural   Sr4Mn2O7
_chemical_formula_sum   'Sr8 Mn4 O14'
_cell_volume   384.87923872
_cell_formula_units_Z   2
loop_
 _symmetry_equiv_pos_site_id
 _symmetry_equiv_pos_as_xyz
  1  'x, y, z'
loop_
 _atom_site_type_symbol
 _atom_site_label
 _atom_site_symmetry_multiplicity
 _atom_site_fract_x
 _atom_site_fract_y
 _atom_site_fract_z
 _atom_site_occupancy
  Sr  Sr0  1  0.762706  0.295648  0.554439  1
  Sr  Sr1  1  0.726291  0.705332  0.203225  1
  Sr  Sr2  1  0.737294  0.295648  0.054439  1
  Sr  Sr3  1  0.226291  0.294668  0.296775  1
  Sr  Sr4  1  0.237294  0.704352  0.445561  1
  Sr  Sr5  1  0.773709  0.705332  0.703225  1
  Sr  Sr6  1  0.273709  0.294668  0.796775  1
  Sr  Sr7  1  0.262706  0.704352  0.945561  1
  Mn  Mn8  1  0.748367  0.999095  0.375319  1
  Mn  Mn9  1  0.251633  0.000905  0.624681  1
  Mn  Mn10  1  0.751633  0.999095  0.875319  1
  Mn  Mn11  1  0.248367  0.000905  0.124681  1
  O  O12  1  0.723811  0.311918  0.310182  1
  O  O13  1  0.734718  0.686479  0.465890  1
  O  O14  1  0.469971  0.997111  0.276987  1
  O  O15  1  0.000000  0.000000  0.500000  1
  O  O16  1  0.500000  0.000000  0.000000  1
  O  O17  1  0.969971  0.002889  0.223013  1
  O  O18  1  0.265282  0.313521  0.534110  1
  O  O19  1  0.530029  0.002889  0.723013  1
  O  O20  1  0.223811  0.688082  0.189818  1
  O  O21  1  0.765282  0.686479  0.965890  1
  O  O22  1  0.776189  0.311918  0.810182  1
  O  O23  1  0.234718  0.313521  0.034110  1
  O  O24  1  0.276189  0.688082  0.689818  1
  O  O25  1  0.030029  0.997111  0.776987  1
