# generated using pymatgen
data_Sm2Ga6PtAu5
_symmetry_space_group_name_H-M   'P 1'
_cell_length_a   4.42588200
_cell_length_b   7.14806000
_cell_length_c   8.69823600
_cell_angle_alpha   90.00000000
_cell_angle_beta   90.00000000
_cell_angle_gamma   90.00000000
_symmetry_Int_Tables_number   1
_chemical_formula_structural   Sm2Ga6PtAu5
_chemical_formula_sum   'Sm2 Ga6 Pt1 Au5'
_cell_volume   275.18148304
_cell_formula_units_Z   1
loop_
 _symmetry_equiv_pos_site_id
 _symmetry_equiv_pos_as_xyz
  1  'x, y, z'
loop_
 _atom_site_type_symbol
 _atom_site_label
 _atom_site_symmetry_multiplicity
 _atom_site_fract_x
 _atom_site_fract_y
 _atom_site_fract_z
 _atom_site_occupancy
  Sm  Sm0  1  0.500000  0.000000  0.755002  1
  Sm  Sm1  1  0.000000  0.500000  0.246684  1
  Ga  Ga2  1  0.000000  0.307555  0.892268  1
  Ga  Ga3  1  0.500000  0.207467  0.104727  1
  Ga  Ga4  1  0.000000  0.692445  0.892268  1
  Ga  Ga5  1  0.000000  0.000000  0.371976  1
  Ga  Ga6  1  0.500000  0.792533  0.104727  1
  Ga  Ga7  1  0.500000  0.500000  0.635688  1
  Pt  Pt8  1  0.500000  0.500000  0.936328  1
  Au  Au9  1  0.000000  0.743151  0.602388  1
  Au  Au10  1  0.500000  0.754982  0.396896  1
  Au  Au11  1  0.000000  0.000000  0.061763  1
  Au  Au12  1  0.500000  0.245018  0.396896  1
  Au  Au13  1  0.000000  0.256849  0.602388  1
