# generated using pymatgen
data_YbHo7Re(B8Os)3
_symmetry_space_group_name_H-M   'P 1'
_cell_length_a   3.64925500
_cell_length_b   9.14177647
_cell_length_c   11.52408311
_cell_angle_alpha   89.97852739
_cell_angle_beta   90.00000000
_cell_angle_gamma   90.00000000
_symmetry_Int_Tables_number   1
_chemical_formula_structural   YbHo7Re(B8Os)3
_chemical_formula_sum   'Yb1 Ho7 Re1 B24 Os3'
_cell_volume   384.45114677
_cell_formula_units_Z   1
loop_
 _symmetry_equiv_pos_site_id
 _symmetry_equiv_pos_as_xyz
  1  'x, y, z'
loop_
 _atom_site_type_symbol
 _atom_site_label
 _atom_site_symmetry_multiplicity
 _atom_site_fract_x
 _atom_site_fract_y
 _atom_site_fract_z
 _atom_site_occupancy
  Yb  Yb0  1  0.000000  0.323812  0.413792  1
  Ho  Ho1  1  0.000000  0.677589  0.587512  1
  Ho  Ho2  1  0.000000  0.823362  0.084645  1
  Ho  Ho3  1  0.000000  0.176517  0.913234  1
  Ho  Ho4  1  0.000000  0.943116  0.370134  1
  Ho  Ho5  1  0.000000  0.057768  0.628637  1
  Ho  Ho6  1  0.000000  0.442003  0.130314  1
  Ho  Ho7  1  0.000000  0.556554  0.871738  1
  Re  Re8  1  0.000000  0.862651  0.821246  1
  B  B9  1  0.500000  0.553392  0.432970  1
  B  B10  1  0.500000  0.446400  0.567095  1
  B  B11  1  0.500000  0.052998  0.066775  1
  B  B12  1  0.500000  0.947051  0.933138  1
  B  B13  1  0.500000  0.748325  0.418814  1
  B  B14  1  0.500000  0.252232  0.581253  1
  B  B15  1  0.500000  0.247450  0.081119  1
  B  B16  1  0.500000  0.751136  0.919456  1
  B  B17  1  0.500000  0.791226  0.265503  1
  B  B18  1  0.500000  0.209530  0.734127  1
  B  B19  1  0.500000  0.290157  0.234289  1
  B  B20  1  0.500000  0.708362  0.765725  1
  B  B21  1  0.500000  0.631159  0.186355  1
  B  B22  1  0.500000  0.368709  0.814506  1
  B  B23  1  0.500000  0.131158  0.313903  1
  B  B24  1  0.500000  0.868965  0.685027  1
  B  B25  1  0.500000  0.983182  0.211827  1
  B  B26  1  0.500000  0.018208  0.787302  1
  B  B27  1  0.500000  0.483270  0.288582  1
  B  B28  1  0.500000  0.516801  0.712545  1
  B  B29  1  0.500000  0.603488  0.029743  1
  B  B30  1  0.500000  0.395125  0.971523  1
  B  B31  1  0.500000  0.101411  0.471310  1
  B  B32  1  0.500000  0.897815  0.527835  1
  Os  Os33  1  0.000000  0.639373  0.320583  1
  Os  Os34  1  0.000000  0.362669  0.679222  1
  Os  Os35  1  0.000000  0.137039  0.178219  1
