# generated using pymatgen
data_Dy5Bi2Te
_symmetry_space_group_name_H-M   'P 1'
_cell_length_a   8.18660900
_cell_length_b   9.45094300
_cell_length_c   11.94744100
_cell_angle_alpha   90.00000000
_cell_angle_beta   90.00000000
_cell_angle_gamma   90.00000000
_symmetry_Int_Tables_number   1
_chemical_formula_structural   Dy5Bi2Te
_chemical_formula_sum   'Dy20 Bi8 Te4'
_cell_volume   924.38754868
_cell_formula_units_Z   4
loop_
 _symmetry_equiv_pos_site_id
 _symmetry_equiv_pos_as_xyz
  1  'x, y, z'
loop_
 _atom_site_type_symbol
 _atom_site_label
 _atom_site_symmetry_multiplicity
 _atom_site_fract_x
 _atom_site_fract_y
 _atom_site_fract_z
 _atom_site_occupancy
  Dy  Dy0  1  0.353470  0.750000  0.213196  1
  Dy  Dy1  1  0.853470  0.750000  0.286804  1
  Dy  Dy2  1  0.646530  0.250000  0.786804  1
  Dy  Dy3  1  0.146530  0.250000  0.713196  1
  Dy  Dy4  1  0.689775  0.561986  0.057276  1
  Dy  Dy5  1  0.189775  0.938014  0.442724  1
  Dy  Dy6  1  0.310225  0.061986  0.942724  1
  Dy  Dy7  1  0.810225  0.438014  0.557276  1
  Dy  Dy8  1  0.310225  0.438014  0.942724  1
  Dy  Dy9  1  0.810225  0.061986  0.557276  1
  Dy  Dy10  1  0.689775  0.938014  0.057276  1
  Dy  Dy11  1  0.189775  0.561986  0.442724  1
  Dy  Dy12  1  0.476240  0.250000  0.488484  1
  Dy  Dy13  1  0.976240  0.250000  0.011516  1
  Dy  Dy14  1  0.523760  0.750000  0.511516  1
  Dy  Dy15  1  0.023760  0.750000  0.988484  1
  Dy  Dy16  1  0.318652  0.250000  0.217759  1
  Dy  Dy17  1  0.818652  0.250000  0.282241  1
  Dy  Dy18  1  0.681348  0.750000  0.782241  1
  Dy  Dy19  1  0.181348  0.750000  0.717759  1
  Bi  Bi20  1  0.568191  0.995687  0.325134  1
  Bi  Bi21  1  0.068191  0.504313  0.174866  1
  Bi  Bi22  1  0.431809  0.495687  0.674866  1
  Bi  Bi23  1  0.931809  0.004313  0.825134  1
  Bi  Bi24  1  0.431809  0.004313  0.674866  1
  Bi  Bi25  1  0.931809  0.495687  0.825134  1
  Bi  Bi26  1  0.568191  0.504313  0.325134  1
  Bi  Bi27  1  0.068191  0.995687  0.174866  1
  Te  Te28  1  0.407193  0.750000  0.957055  1
  Te  Te29  1  0.907193  0.750000  0.542945  1
  Te  Te30  1  0.592807  0.250000  0.042945  1
  Te  Te31  1  0.092807  0.250000  0.457055  1
