# generated using pymatgen
data_Pr7Lu(Si3Rh)4
_symmetry_space_group_name_H-M   'P 1'
_cell_length_a   8.29178700
_cell_length_b   8.28202779
_cell_length_c   8.35802800
_cell_angle_alpha   90.00000000
_cell_angle_beta   90.00000000
_cell_angle_gamma   120.03947823
_symmetry_Int_Tables_number   1
_chemical_formula_structural   Pr7Lu(Si3Rh)4
_chemical_formula_sum   'Pr7 Lu1 Si12 Rh4'
_cell_volume   496.87411308
_cell_formula_units_Z   1
loop_
 _symmetry_equiv_pos_site_id
 _symmetry_equiv_pos_as_xyz
  1  'x, y, z'
loop_
 _atom_site_type_symbol
 _atom_site_label
 _atom_site_symmetry_multiplicity
 _atom_site_fract_x
 _atom_site_fract_y
 _atom_site_fract_z
 _atom_site_occupancy
  Pr  Pr0  1  0.000038  0.000074  0.250000  1
  Pr  Pr1  1  0.999786  0.999566  0.750000  1
  Pr  Pr2  1  0.495182  0.505010  0.250000  1
  Pr  Pr3  1  0.496834  0.993666  0.250000  1
  Pr  Pr4  1  0.009830  0.505010  0.250000  1
  Pr  Pr5  1  0.506603  0.493283  0.750000  1
  Pr  Pr6  1  0.986682  0.493282  0.750000  1
  Lu  Lu7  1  0.503762  0.007535  0.750000  1
  Si  Si8  1  0.831676  0.165169  0.506723  1
  Si  Si9  1  0.833667  0.667334  0.500619  1
  Si  Si10  1  0.333496  0.165170  0.506722  1
  Si  Si11  1  0.831676  0.165169  0.993277  1
  Si  Si12  1  0.833667  0.667334  0.999381  1
  Si  Si13  1  0.333496  0.165170  0.993278  1
  Si  Si14  1  0.168504  0.833687  0.000184  1
  Si  Si15  1  0.665182  0.833686  0.000184  1
  Si  Si16  1  0.167519  0.335036  0.001172  1
  Si  Si17  1  0.168504  0.833687  0.499816  1
  Si  Si18  1  0.665182  0.833686  0.499816  1
  Si  Si19  1  0.167519  0.335036  0.498828  1
  Rh  Rh20  1  0.665433  0.330872  0.484307  1
  Rh  Rh21  1  0.665433  0.330872  0.015693  1
  Rh  Rh22  1  0.335164  0.670330  0.966683  1
  Rh  Rh23  1  0.335164  0.670330  0.533317  1
