# generated using pymatgen
data_Nd2(SnPd3)3
_symmetry_space_group_name_H-M   'P 1'
_cell_length_a   8.10178202
_cell_length_b   8.10178250
_cell_length_c   9.45970900
_cell_angle_alpha   90.00000000
_cell_angle_beta   90.00000000
_cell_angle_gamma   120.34088279
_symmetry_Int_Tables_number   1
_chemical_formula_structural   Nd2(SnPd3)3
_chemical_formula_sum   'Nd4 Sn6 Pd18'
_cell_volume   535.87992234
_cell_formula_units_Z   2
loop_
 _symmetry_equiv_pos_site_id
 _symmetry_equiv_pos_as_xyz
  1  'x, y, z'
loop_
 _atom_site_type_symbol
 _atom_site_label
 _atom_site_symmetry_multiplicity
 _atom_site_fract_x
 _atom_site_fract_y
 _atom_site_fract_z
 _atom_site_occupancy
  Nd  Nd0  1  0.330248  0.013945  0.750000  1
  Nd  Nd1  1  0.669752  0.986055  0.250000  1
  Nd  Nd2  1  0.013945  0.330248  0.750000  1
  Nd  Nd3  1  0.986055  0.669752  0.250000  1
  Sn  Sn4  1  0.000000  0.000000  0.500000  1
  Sn  Sn5  1  0.678364  0.321636  0.000000  1
  Sn  Sn6  1  0.321636  0.678364  0.500000  1
  Sn  Sn7  1  0.321636  0.678364  0.000000  1
  Sn  Sn8  1  0.000000  0.000000  0.000000  1
  Sn  Sn9  1  0.678364  0.321636  0.500000  1
  Pd  Pd10  1  0.334357  0.334357  0.959104  1
  Pd  Pd11  1  0.450769  0.646748  0.750000  1
  Pd  Pd12  1  0.549231  0.353252  0.250000  1
  Pd  Pd13  1  0.646748  0.450769  0.750000  1
  Pd  Pd14  1  0.003801  0.338203  0.083780  1
  Pd  Pd15  1  0.996199  0.661797  0.583780  1
  Pd  Pd16  1  0.338203  0.003801  0.416220  1
  Pd  Pd17  1  0.661797  0.996199  0.916220  1
  Pd  Pd18  1  0.996199  0.661797  0.916220  1
  Pd  Pd19  1  0.003801  0.338203  0.416220  1
  Pd  Pd20  1  0.661797  0.996199  0.583780  1
  Pd  Pd21  1  0.859247  0.859247  0.750000  1
  Pd  Pd22  1  0.334357  0.334357  0.540896  1
  Pd  Pd23  1  0.665643  0.665643  0.040896  1
  Pd  Pd24  1  0.338203  0.003801  0.083780  1
  Pd  Pd25  1  0.665643  0.665643  0.459104  1
  Pd  Pd26  1  0.140753  0.140753  0.250000  1
  Pd  Pd27  1  0.353252  0.549231  0.250000  1
