# generated using pymatgen
data_Ce2Y2Al18Ir5Pt
_symmetry_space_group_name_H-M   'P 1'
_cell_length_a   7.61031531
_cell_length_b   7.60738486
_cell_length_c   9.48328002
_cell_angle_alpha   90.00541622
_cell_angle_beta   90.00219790
_cell_angle_gamma   119.63466171
_symmetry_Int_Tables_number   1
_chemical_formula_structural   Ce2Y2Al18Ir5Pt
_chemical_formula_sum   'Ce2 Y2 Al18 Ir5 Pt1'
_cell_volume   477.21524123
_cell_formula_units_Z   1
loop_
 _symmetry_equiv_pos_site_id
 _symmetry_equiv_pos_as_xyz
  1  'x, y, z'
loop_
 _atom_site_type_symbol
 _atom_site_label
 _atom_site_symmetry_multiplicity
 _atom_site_fract_x
 _atom_site_fract_y
 _atom_site_fract_z
 _atom_site_occupancy
  Ce  Ce0  1  0.996201  0.670509  0.250858  1
  Ce  Ce1  1  0.004629  0.329622  0.749242  1
  Y  Y2  1  0.670925  0.995045  0.250345  1
  Y  Y3  1  0.329210  0.005022  0.749631  1
  Al  Al4  1  0.129726  0.128123  0.250215  1
  Al  Al5  1  0.870931  0.871213  0.749762  1
  Al  Al6  1  0.003550  0.333489  0.076726  1
  Al  Al7  1  0.002191  0.669836  0.923672  1
  Al  Al8  1  0.999284  0.666575  0.575373  1
  Al  Al9  1  0.337047  0.001810  0.426062  1
  Al  Al10  1  0.000752  0.333098  0.424040  1
  Al  Al11  1  0.663269  0.998113  0.574212  1
  Al  Al12  1  0.663348  0.995144  0.924498  1
  Al  Al13  1  0.333065  0.998778  0.075233  1
  Al  Al14  1  0.334349  0.332837  0.551610  1
  Al  Al15  1  0.665672  0.667102  0.448501  1
  Al  Al16  1  0.665093  0.669458  0.053580  1
  Al  Al17  1  0.331967  0.333664  0.946614  1
  Al  Al18  1  0.341940  0.548952  0.250337  1
  Al  Al19  1  0.658365  0.452670  0.747541  1
  Al  Al20  1  0.545974  0.339882  0.252381  1
  Al  Al21  1  0.452564  0.660152  0.749671  1
  Ir  Ir22  1  0.327571  0.671327  0.000113  1
  Ir  Ir23  1  0.327503  0.671214  0.499937  1
  Ir  Ir24  1  0.672857  0.328362  0.499985  1
  Ir  Ir25  1  0.999728  0.000070  0.000043  1
  Ir  Ir26  1  0.000039  0.999907  0.499944  1
  Pt  Pt27  1  0.672250  0.328024  0.999875  1
