# generated using pymatgen
data_RbErSiS4
_symmetry_space_group_name_H-M   'P 1'
_cell_length_a   6.67330300
_cell_length_b   6.39616598
_cell_length_c   9.01995146
_cell_angle_alpha   72.38518124
_cell_angle_beta   90.00000000
_cell_angle_gamma   90.00000000
_symmetry_Int_Tables_number   1
_chemical_formula_structural   RbErSiS4
_chemical_formula_sum   'Rb2 Er2 Si2 S8'
_cell_volume   366.95170043
_cell_formula_units_Z   2
loop_
 _symmetry_equiv_pos_site_id
 _symmetry_equiv_pos_as_xyz
  1  'x, y, z'
loop_
 _atom_site_type_symbol
 _atom_site_label
 _atom_site_symmetry_multiplicity
 _atom_site_fract_x
 _atom_site_fract_y
 _atom_site_fract_z
 _atom_site_occupancy
  Rb  Rb0  1  0.977403  0.730751  0.065180  1
  Rb  Rb1  1  0.477403  0.269249  0.934820  1
  Er  Er2  1  0.500486  0.229633  0.452463  1
  Er  Er3  1  0.000486  0.770367  0.547537  1
  Si  Si4  1  0.462344  0.779431  0.332590  1
  Si  Si5  1  0.962344  0.220569  0.667410  1
  S  S6  1  0.467560  0.580625  0.183468  1
  S  S7  1  0.231041  0.022215  0.290048  1
  S  S8  1  0.727010  0.976913  0.310653  1
  S  S9  1  0.901158  0.424550  0.437474  1
  S  S10  1  0.401158  0.575450  0.562526  1
  S  S11  1  0.227010  0.023087  0.689347  1
  S  S12  1  0.731041  0.977785  0.709952  1
  S  S13  1  0.967560  0.419375  0.816532  1
