# generated using pymatgen
data_La2Nd3Hf2ThSb10
_symmetry_space_group_name_H-M   'P 1'
_cell_length_a   9.55091600
_cell_length_b   9.55590014
_cell_length_c   6.35791800
_cell_angle_alpha   90.00000000
_cell_angle_beta   90.00000000
_cell_angle_gamma   119.98275478
_symmetry_Int_Tables_number   1
_chemical_formula_structural   La2Nd3Hf2ThSb10
_chemical_formula_sum   'La2 Nd3 Hf2 Th1 Sb10'
_cell_volume   502.61752277
_cell_formula_units_Z   1
loop_
 _symmetry_equiv_pos_site_id
 _symmetry_equiv_pos_as_xyz
  1  'x, y, z'
loop_
 _atom_site_type_symbol
 _atom_site_label
 _atom_site_symmetry_multiplicity
 _atom_site_fract_x
 _atom_site_fract_y
 _atom_site_fract_z
 _atom_site_occupancy
  La  La0  1  0.383216  0.383255  0.250000  1
  La  La1  1  0.999961  0.616745  0.250000  1
  Nd  Nd2  1  0.616963  0.616010  0.750000  1
  Nd  Nd3  1  0.380663  0.000000  0.750000  1
  Nd  Nd4  1  0.000953  0.383990  0.750000  1
  Hf  Hf5  1  0.000749  0.000000  0.998117  1
  Hf  Hf6  1  0.000749  0.000000  0.501883  1
  Th  Th7  1  0.615516  0.000000  0.250000  1
  Sb  Sb8  1  0.336990  0.670319  0.503219  1
  Sb  Sb9  1  0.666672  0.329681  0.996781  1
  Sb  Sb10  1  0.666672  0.329681  0.503219  1
  Sb  Sb11  1  0.336990  0.670319  0.996781  1
  Sb  Sb12  1  0.736533  0.000000  0.750000  1
  Sb  Sb13  1  0.737760  0.741010  0.250000  1
  Sb  Sb14  1  0.996751  0.258990  0.250000  1
  Sb  Sb15  1  0.999140  0.737713  0.750000  1
  Sb  Sb16  1  0.262296  0.000000  0.250000  1
  Sb  Sb17  1  0.261426  0.262287  0.750000  1
