# generated using pymatgen
data_Tb2YEr3NiI10
_symmetry_space_group_name_H-M   'P 1'
_cell_length_a   7.68626017
_cell_length_b   9.63713287
_cell_length_c   9.72439318
_cell_angle_alpha   106.92946066
_cell_angle_beta   96.63367068
_cell_angle_gamma   104.36982809
_symmetry_Int_Tables_number   1
_chemical_formula_structural   Tb2YEr3NiI10
_chemical_formula_sum   'Tb2 Y1 Er3 Ni1 I10'
_cell_volume   653.69605729
_cell_formula_units_Z   1
loop_
 _symmetry_equiv_pos_site_id
 _symmetry_equiv_pos_as_xyz
  1  'x, y, z'
loop_
 _atom_site_type_symbol
 _atom_site_label
 _atom_site_symmetry_multiplicity
 _atom_site_fract_x
 _atom_site_fract_y
 _atom_site_fract_z
 _atom_site_occupancy
  Tb  Tb0  1  0.884655  0.957518  0.235353  1
  Tb  Tb1  1  0.113582  0.041405  0.763928  1
  Y  Y2  1  0.339260  0.120131  0.160244  1
  Er  Er3  1  0.032522  0.723163  0.917594  1
  Er  Er4  1  0.966488  0.276383  0.081651  1
  Er  Er5  1  0.665160  0.881091  0.841568  1
  Ni  Ni6  1  0.999164  0.000186  0.999646  1
  I  I7  1  0.656685  0.552753  0.728000  1
  I  I8  1  0.341573  0.449462  0.271690  1
  I  I9  1  0.741702  0.914412  0.540886  1
  I  I10  1  0.256173  0.084563  0.460085  1
  I  I11  1  0.086352  0.375927  0.822429  1
  I  I12  1  0.912428  0.623591  0.176836  1
  I  I13  1  0.452998  0.811704  0.091273  1
  I  I14  1  0.547385  0.186199  0.906462  1
  I  I15  1  0.233818  0.744934  0.660532  1
  I  I16  1  0.770055  0.256578  0.341823  1
