# generated using pymatgen
data_Sm2Cd2Ga6CoNi
_symmetry_space_group_name_H-M   'P 1'
_cell_length_a   4.22155101
_cell_length_b   6.54028600
_cell_length_c   8.26302694
_cell_angle_alpha   90.00000000
_cell_angle_beta   104.80014796
_cell_angle_gamma   90.00000000
_symmetry_Int_Tables_number   1
_chemical_formula_structural   Sm2Cd2Ga6CoNi
_chemical_formula_sum   'Sm2 Cd2 Ga6 Co1 Ni1'
_cell_volume   220.57424544
_cell_formula_units_Z   1
loop_
 _symmetry_equiv_pos_site_id
 _symmetry_equiv_pos_as_xyz
  1  'x, y, z'
loop_
 _atom_site_type_symbol
 _atom_site_label
 _atom_site_symmetry_multiplicity
 _atom_site_fract_x
 _atom_site_fract_y
 _atom_site_fract_z
 _atom_site_occupancy
  Sm  Sm0  1  0.874753  0.750000  0.749505  1
  Sm  Sm1  1  0.125299  0.250000  0.250598  1
  Cd  Cd2  1  0.499911  0.499835  0.999822  1
  Cd  Cd3  1  0.499911  0.000165  0.999822  1
  Ga  Ga4  1  0.074538  0.750000  0.149079  1
  Ga  Ga5  1  0.926128  0.250000  0.852255  1
  Ga  Ga6  1  0.688582  0.551489  0.377164  1
  Ga  Ga7  1  0.311203  0.450688  0.622407  1
  Ga  Ga8  1  0.688582  0.948511  0.377164  1
  Ga  Ga9  1  0.311203  0.049312  0.622407  1
  Co  Co10  1  0.221621  0.750000  0.443242  1
  Ni  Ni11  1  0.778266  0.250000  0.556534  1
