# generated using pymatgen
data_UFe5Si2Tc5
_symmetry_space_group_name_H-M   'P 1'
_cell_length_a   4.71711054
_cell_length_b   6.54340765
_cell_length_c   6.54340700
_cell_angle_alpha   100.84078170
_cell_angle_beta   111.12767655
_cell_angle_gamma   68.87231846
_symmetry_Int_Tables_number   1
_chemical_formula_structural   UFe5Si2Tc5
_chemical_formula_sum   'U1 Fe5 Si2 Tc5'
_cell_volume   175.33539575
_cell_formula_units_Z   1
loop_
 _symmetry_equiv_pos_site_id
 _symmetry_equiv_pos_as_xyz
  1  'x, y, z'
loop_
 _atom_site_type_symbol
 _atom_site_label
 _atom_site_symmetry_multiplicity
 _atom_site_fract_x
 _atom_site_fract_y
 _atom_site_fract_z
 _atom_site_occupancy
  U  U0  1  0.000000  0.991187  0.991187  1
  Fe  Fe1  1  0.500000  0.814822  0.814822  1
  Fe  Fe2  1  0.502436  0.997079  0.504578  1
  Fe  Fe3  1  0.005063  0.997079  0.504578  1
  Fe  Fe4  1  0.497564  0.504578  0.997079  1
  Fe  Fe5  1  0.994937  0.504578  0.997079  1
  Si  Si6  1  0.271883  0.226783  0.770550  1
  Si  Si7  1  0.728117  0.770550  0.226783  1
  Tc  Tc8  1  0.637382  0.365820  0.640584  1
  Tc  Tc9  1  0.362618  0.640584  0.365820  1
  Tc  Tc10  1  0.000000  0.350791  0.350791  1
  Tc  Tc11  1  0.000000  0.649743  0.649743  1
  Tc  Tc12  1  0.500000  0.186404  0.186404  1
