# generated using pymatgen
data_Pr8Hg2OsPt
_symmetry_space_group_name_H-M   'P 1'
_cell_length_a   10.02532026
_cell_length_b   10.02531969
_cell_length_c   10.10275100
_cell_angle_alpha   59.74417231
_cell_angle_beta   59.74417421
_cell_angle_gamma   59.76378681
_symmetry_Int_Tables_number   1
_chemical_formula_structural   Pr8Hg2OsPt
_chemical_formula_sum   'Pr16 Hg4 Os2 Pt2'
_cell_volume   713.93005347
_cell_formula_units_Z   2
loop_
 _symmetry_equiv_pos_site_id
 _symmetry_equiv_pos_as_xyz
  1  'x, y, z'
loop_
 _atom_site_type_symbol
 _atom_site_label
 _atom_site_symmetry_multiplicity
 _atom_site_fract_x
 _atom_site_fract_y
 _atom_site_fract_z
 _atom_site_occupancy
  Pr  Pr0  1  0.349524  0.349524  0.354878  1
  Pr  Pr1  1  0.349524  0.349524  0.946074  1
  Pr  Pr2  1  0.345157  0.954031  0.350406  1
  Pr  Pr3  1  0.954031  0.345157  0.350406  1
  Pr  Pr4  1  0.813994  0.189377  0.192757  1
  Pr  Pr5  1  0.189377  0.813994  0.803872  1
  Pr  Pr6  1  0.189377  0.813994  0.192757  1
  Pr  Pr7  1  0.813994  0.189377  0.803872  1
  Pr  Pr8  1  0.189638  0.189638  0.810362  1
  Pr  Pr9  1  0.805399  0.805399  0.194601  1
  Pr  Pr10  1  0.939155  0.555928  0.564681  1
  Pr  Pr11  1  0.555928  0.939155  0.940235  1
  Pr  Pr12  1  0.555928  0.939155  0.564681  1
  Pr  Pr13  1  0.939155  0.555928  0.940235  1
  Pr  Pr14  1  0.561738  0.561738  0.938262  1
  Pr  Pr15  1  0.939010  0.939010  0.560990  1
  Hg  Hg16  1  0.583670  0.583670  0.583514  1
  Hg  Hg17  1  0.583670  0.583670  0.249146  1
  Hg  Hg18  1  0.584321  0.247878  0.583899  1
  Hg  Hg19  1  0.247878  0.584321  0.583899  1
  Os  Os20  1  0.144316  0.144316  0.135991  1
  Os  Os21  1  0.144316  0.144316  0.575377  1
  Pt  Pt22  1  0.146796  0.574103  0.139550  1
  Pt  Pt23  1  0.574103  0.146796  0.139550  1
