# generated using pymatgen
data_DyHg3(Pt2O7)2
_symmetry_space_group_name_H-M   'P 1'
_cell_length_a   7.34625741
_cell_length_b   7.34625751
_cell_length_c   7.34625832
_cell_angle_alpha   59.41511206
_cell_angle_beta   59.41511252
_cell_angle_gamma   59.41511675
_symmetry_Int_Tables_number   1
_chemical_formula_structural   DyHg3(Pt2O7)2
_chemical_formula_sum   'Dy1 Hg3 Pt4 O14'
_cell_volume   276.60802840
_cell_formula_units_Z   1
loop_
 _symmetry_equiv_pos_site_id
 _symmetry_equiv_pos_as_xyz
  1  'x, y, z'
loop_
 _atom_site_type_symbol
 _atom_site_label
 _atom_site_symmetry_multiplicity
 _atom_site_fract_x
 _atom_site_fract_y
 _atom_site_fract_z
 _atom_site_occupancy
  Dy  Dy0  1  0.125000  0.125000  0.125000  1
  Hg  Hg1  1  0.625000  0.125000  0.125000  1
  Hg  Hg2  1  0.125000  0.625000  0.125000  1
  Hg  Hg3  1  0.125000  0.125000  0.625000  1
  Pt  Pt4  1  0.625000  0.625000  0.125000  1
  Pt  Pt5  1  0.625000  0.625000  0.625000  1
  Pt  Pt6  1  0.625000  0.125000  0.625000  1
  Pt  Pt7  1  0.125000  0.625000  0.625000  1
  O  O8  1  0.723773  0.292826  0.292826  1
  O  O9  1  0.703530  0.294420  0.703530  1
  O  O10  1  0.996417  0.996417  0.996417  1
  O  O11  1  0.292826  0.723773  0.292826  1
  O  O12  1  0.703530  0.703530  0.294420  1
  O  O13  1  0.955580  0.546470  0.546470  1
  O  O14  1  0.294420  0.703530  0.703530  1
  O  O15  1  0.253583  0.253583  0.253583  1
  O  O16  1  0.957174  0.526227  0.957174  1
  O  O17  1  0.546470  0.955580  0.546470  1
  O  O18  1  0.546470  0.546470  0.955580  1
  O  O19  1  0.957174  0.957174  0.526227  1
  O  O20  1  0.526227  0.957174  0.957174  1
  O  O21  1  0.292826  0.292826  0.723773  1
