# generated using pymatgen
data_Ho20FeBi8Ir3
_symmetry_space_group_name_H-M   'P 1'
_cell_length_a   7.95506691
_cell_length_b   8.93909400
_cell_length_c   12.45468166
_cell_angle_alpha   90.00000000
_cell_angle_beta   89.87280823
_cell_angle_gamma   90.00000000
_symmetry_Int_Tables_number   1
_chemical_formula_structural   Ho20FeBi8Ir3
_chemical_formula_sum   'Ho20 Fe1 Bi8 Ir3'
_cell_volume   885.66381696
_cell_formula_units_Z   1
loop_
 _symmetry_equiv_pos_site_id
 _symmetry_equiv_pos_as_xyz
  1  'x, y, z'
loop_
 _atom_site_type_symbol
 _atom_site_label
 _atom_site_symmetry_multiplicity
 _atom_site_fract_x
 _atom_site_fract_y
 _atom_site_fract_z
 _atom_site_occupancy
  Ho  Ho0  1  0.838229  0.750000  0.791611  1
  Ho  Ho1  1  0.160736  0.250000  0.207175  1
  Ho  Ho2  1  0.339641  0.250000  0.707362  1
  Ho  Ho3  1  0.656616  0.750000  0.299747  1
  Ho  Ho4  1  0.382031  0.750000  0.688005  1
  Ho  Ho5  1  0.623886  0.250000  0.306741  1
  Ho  Ho6  1  0.875238  0.250000  0.806994  1
  Ho  Ho7  1  0.123195  0.750000  0.193189  1
  Ho  Ho8  1  0.944992  0.750000  0.502490  1
  Ho  Ho9  1  0.056582  0.250000  0.497974  1
  Ho  Ho10  1  0.447224  0.250000  0.998509  1
  Ho  Ho11  1  0.555793  0.750000  0.002764  1
  Ho  Ho12  1  0.672042  0.033787  0.562778  1
  Ho  Ho13  1  0.324503  0.953297  0.435439  1
  Ho  Ho14  1  0.175805  0.957400  0.933538  1
  Ho  Ho15  1  0.324503  0.546703  0.435439  1
  Ho  Ho16  1  0.824904  0.043459  0.066314  1
  Ho  Ho17  1  0.672042  0.466213  0.562778  1
  Ho  Ho18  1  0.824904  0.456541  0.066314  1
  Ho  Ho19  1  0.175805  0.542600  0.933538  1
  Fe  Fe20  1  0.572614  0.750000  0.510104  1
  Bi  Bi21  1  0.567123  0.491528  0.827027  1
  Bi  Bi22  1  0.432724  0.509294  0.173446  1
  Bi  Bi23  1  0.067944  0.508706  0.672641  1
  Bi  Bi24  1  0.432724  0.990706  0.173446  1
  Bi  Bi25  1  0.932064  0.491233  0.327741  1
  Bi  Bi26  1  0.567123  0.008472  0.827027  1
  Bi  Bi27  1  0.932064  0.008767  0.327741  1
  Bi  Bi28  1  0.067944  0.991294  0.672641  1
  Ir  Ir29  1  0.427840  0.250000  0.490883  1
  Ir  Ir30  1  0.072812  0.250000  0.990090  1
  Ir  Ir31  1  0.928355  0.750000  0.008514  1
