# generated using pymatgen
data_DyEr2Mg3InAgPb
_symmetry_space_group_name_H-M   'P 1'
_cell_length_a   7.52984400
_cell_length_b   7.52984373
_cell_length_c   4.57718500
_cell_angle_alpha   90.00000000
_cell_angle_beta   90.00000000
_cell_angle_gamma   120.13161951
_symmetry_Int_Tables_number   1
_chemical_formula_structural   DyEr2Mg3InAgPb
_chemical_formula_sum   'Dy1 Er2 Mg3 In1 Ag1 Pb1'
_cell_volume   224.45201666
_cell_formula_units_Z   1
loop_
 _symmetry_equiv_pos_site_id
 _symmetry_equiv_pos_as_xyz
  1  'x, y, z'
loop_
 _atom_site_type_symbol
 _atom_site_label
 _atom_site_symmetry_multiplicity
 _atom_site_fract_x
 _atom_site_fract_y
 _atom_site_fract_z
 _atom_site_occupancy
  Dy  Dy0  1  0.420863  0.414403  0.500000  1
  Er  Er1  1  0.586320  0.007747  0.500000  1
  Er  Er2  1  0.993922  0.579355  0.500000  1
  Mg  Mg3  1  0.766897  0.761280  0.000000  1
  Mg  Mg4  1  0.238322  0.005969  0.000000  1
  Mg  Mg5  1  0.994469  0.232301  0.000000  1
  In  In6  1  0.668168  0.333193  0.000000  1
  Ag  Ag7  1  0.998177  0.998076  0.500000  1
  Pb  Pb8  1  0.332863  0.667676  0.000000  1
