# generated using pymatgen
data_Ta2VAsO10
_symmetry_space_group_name_H-M   'P 1'
_cell_length_a   5.59122900
_cell_length_b   11.91865265
_cell_length_c   7.00365459
_cell_angle_alpha   89.10267268
_cell_angle_beta   90.00000000
_cell_angle_gamma   90.00000000
_symmetry_Int_Tables_number   1
_chemical_formula_structural   Ta2VAsO10
_chemical_formula_sum   'Ta4 V2 As2 O20'
_cell_volume   466.66571912
_cell_formula_units_Z   2
loop_
 _symmetry_equiv_pos_site_id
 _symmetry_equiv_pos_as_xyz
  1  'x, y, z'
loop_
 _atom_site_type_symbol
 _atom_site_label
 _atom_site_symmetry_multiplicity
 _atom_site_fract_x
 _atom_site_fract_y
 _atom_site_fract_z
 _atom_site_occupancy
  Ta  Ta0  1  0.750000  0.938207  0.846096  1
  Ta  Ta1  1  0.250000  0.061793  0.153904  1
  Ta  Ta2  1  0.250000  0.555584  0.336572  1
  Ta  Ta3  1  0.750000  0.444416  0.663428  1
  V  V4  1  0.750000  0.157177  0.468135  1
  V  V5  1  0.250000  0.842823  0.531865  1
  As  As6  1  0.250000  0.348887  0.973260  1
  As  As7  1  0.750000  0.651113  0.026740  1
  O  O8  1  0.750000  0.793659  0.991348  1
  O  O9  1  0.250000  0.206341  0.008652  1
  O  O10  1  0.250000  0.702197  0.463371  1
  O  O11  1  0.750000  0.297803  0.536629  1
  O  O12  1  0.501549  0.870187  0.664780  1
  O  O13  1  0.498451  0.129813  0.335220  1
  O  O14  1  0.497310  0.617221  0.148244  1
  O  O15  1  0.001549  0.129813  0.335220  1
  O  O16  1  0.502690  0.382779  0.851756  1
  O  O17  1  0.998451  0.870187  0.664780  1
  O  O18  1  0.997310  0.382779  0.851756  1
  O  O19  1  0.002690  0.617221  0.148244  1
  O  O20  1  0.750000  0.589736  0.808280  1
  O  O21  1  0.250000  0.410264  0.191720  1
  O  O22  1  0.250000  0.928242  0.326445  1
  O  O23  1  0.750000  0.071758  0.673555  1
  O  O24  1  0.000000  0.000000  0.000000  1
  O  O25  1  0.000000  0.500000  0.500000  1
  O  O26  1  0.500000  0.000000  0.000000  1
  O  O27  1  0.500000  0.500000  0.500000  1
