# generated using pymatgen
data_Nd16ZnGa5Co2
_symmetry_space_group_name_H-M   'P 1'
_cell_length_a   10.42711200
_cell_length_b   10.43678395
_cell_length_c   7.09440332
_cell_angle_alpha   89.93858374
_cell_angle_beta   90.00000000
_cell_angle_gamma   119.96935551
_symmetry_Int_Tables_number   1
_chemical_formula_structural   Nd16ZnGa5Co2
_chemical_formula_sum   'Nd16 Zn1 Ga5 Co2'
_cell_volume   668.82258522
_cell_formula_units_Z   1
loop_
 _symmetry_equiv_pos_site_id
 _symmetry_equiv_pos_as_xyz
  1  'x, y, z'
loop_
 _atom_site_type_symbol
 _atom_site_label
 _atom_site_symmetry_multiplicity
 _atom_site_fract_x
 _atom_site_fract_y
 _atom_site_fract_z
 _atom_site_occupancy
  Nd  Nd0  1  0.828504  0.657009  0.481544  1
  Nd  Nd1  1  0.342295  0.170605  0.490640  1
  Nd  Nd2  1  0.828310  0.170605  0.490640  1
  Nd  Nd3  1  0.170189  0.340378  0.988266  1
  Nd  Nd4  1  0.661588  0.828425  0.991490  1
  Nd  Nd5  1  0.166837  0.828425  0.991490  1
  Nd  Nd6  1  0.667464  0.334928  0.175996  1
  Nd  Nd7  1  0.333679  0.667359  0.677256  1
  Nd  Nd8  1  0.537898  0.075795  0.791945  1
  Nd  Nd9  1  0.922698  0.462317  0.789954  1
  Nd  Nd10  1  0.539620  0.462317  0.789954  1
  Nd  Nd11  1  0.462118  0.924237  0.288541  1
  Nd  Nd12  1  0.079016  0.538915  0.290647  1
  Nd  Nd13  1  0.459898  0.538915  0.290647  1
  Nd  Nd14  1  0.998938  0.997875  0.773492  1
  Nd  Nd15  1  0.002816  0.005632  0.277736  1
  Zn  Zn16  1  0.834473  0.668945  0.041846  1
  Ga  Ga17  1  0.328475  0.163298  0.039169  1
  Ga  Ga18  1  0.834824  0.163298  0.039169  1
  Ga  Ga19  1  0.163914  0.327829  0.541618  1
  Ga  Ga20  1  0.672535  0.835645  0.539568  1
  Ga  Ga21  1  0.163109  0.835645  0.539568  1
  Co  Co22  1  0.666273  0.332545  0.552131  1
  Co  Co23  1  0.334528  0.669057  0.052935  1
