# generated using pymatgen
data_Al3Ni3Pt2
_symmetry_space_group_name_H-M   'P 1'
_cell_length_a   5.21269257
_cell_length_b   5.21269194
_cell_length_c   3.84681400
_cell_angle_alpha   90.00000000
_cell_angle_beta   90.00000000
_cell_angle_gamma   95.12712453
_symmetry_Int_Tables_number   1
_chemical_formula_structural   Al3Ni3Pt2
_chemical_formula_sum   'Al3 Ni3 Pt2'
_cell_volume   104.10802453
_cell_formula_units_Z   1
loop_
 _symmetry_equiv_pos_site_id
 _symmetry_equiv_pos_as_xyz
  1  'x, y, z'
loop_
 _atom_site_type_symbol
 _atom_site_label
 _atom_site_symmetry_multiplicity
 _atom_site_fract_x
 _atom_site_fract_y
 _atom_site_fract_z
 _atom_site_occupancy
  Al  Al0  1  0.714466  0.285534  0.500000  1
  Al  Al1  1  0.285534  0.714466  0.500000  1
  Al  Al2  1  0.000000  0.000000  0.000000  1
  Ni  Ni3  1  0.777521  0.777521  0.500000  1
  Ni  Ni4  1  0.222479  0.222479  0.500000  1
  Ni  Ni5  1  0.500000  0.500000  0.000000  1
  Pt  Pt6  1  0.500000  0.000000  0.000000  1
  Pt  Pt7  1  0.000000  0.500000  0.000000  1
