# generated using pymatgen
data_DyHoTi2(ClO3)2
_symmetry_space_group_name_H-M   'P 1'
_cell_length_a   5.31047220
_cell_length_b   5.31047272
_cell_length_c   9.88588446
_cell_angle_alpha   105.44720902
_cell_angle_beta   105.44721080
_cell_angle_gamma   43.21097384
_symmetry_Int_Tables_number   1
_chemical_formula_structural   DyHoTi2(ClO3)2
_chemical_formula_sum   'Dy1 Ho1 Ti2 Cl2 O6'
_cell_volume   182.88522327
_cell_formula_units_Z   1
loop_
 _symmetry_equiv_pos_site_id
 _symmetry_equiv_pos_as_xyz
  1  'x, y, z'
loop_
 _atom_site_type_symbol
 _atom_site_label
 _atom_site_symmetry_multiplicity
 _atom_site_fract_x
 _atom_site_fract_y
 _atom_site_fract_z
 _atom_site_occupancy
  Dy  Dy0  1  0.223046  0.223046  0.204630  1
  Ho  Ho1  1  0.776837  0.776837  0.794015  1
  Ti  Ti2  1  0.618160  0.618160  0.428901  1
  Ti  Ti3  1  0.382066  0.382066  0.571868  1
  Cl  Cl4  1  0.885247  0.885247  0.093694  1
  Cl  Cl5  1  0.114744  0.114744  0.904315  1
  O  O6  1  0.649216  0.649216  0.250528  1
  O  O7  1  0.422684  0.422684  0.375543  1
  O  O8  1  0.169069  0.169069  0.434637  1
  O  O9  1  0.831385  0.831385  0.566672  1
  O  O10  1  0.577727  0.577727  0.625478  1
  O  O11  1  0.349818  0.349818  0.749721  1
