# generated using pymatgen
data_Cu2Tc6GeO24
_symmetry_space_group_name_H-M   'P 1'
_cell_length_a   9.68762467
_cell_length_b   9.68762483
_cell_length_c   9.68762400
_cell_angle_alpha   56.07746852
_cell_angle_beta   56.07746789
_cell_angle_gamma   56.07747354
_symmetry_Int_Tables_number   1
_chemical_formula_structural   Cu2Tc6GeO24
_chemical_formula_sum   'Cu2 Tc6 Ge1 O24'
_cell_volume   584.48914394
_cell_formula_units_Z   1
loop_
 _symmetry_equiv_pos_site_id
 _symmetry_equiv_pos_as_xyz
  1  'x, y, z'
loop_
 _atom_site_type_symbol
 _atom_site_label
 _atom_site_symmetry_multiplicity
 _atom_site_fract_x
 _atom_site_fract_y
 _atom_site_fract_z
 _atom_site_occupancy
  Cu  Cu0  1  0.358223  0.358223  0.358223  1
  Cu  Cu1  1  0.642594  0.642594  0.642594  1
  Tc  Tc2  1  0.478802  0.741053  0.035151  1
  Tc  Tc3  1  0.741053  0.035151  0.478802  1
  Tc  Tc4  1  0.035151  0.478802  0.741053  1
  Tc  Tc5  1  0.957068  0.550137  0.239186  1
  Tc  Tc6  1  0.239186  0.957068  0.550137  1
  Tc  Tc7  1  0.550137  0.239186  0.957068  1
  Ge  Ge8  1  0.850825  0.850825  0.850825  1
  O  O9  1  0.510574  0.280936  0.132019  1
  O  O10  1  0.132019  0.510574  0.280936  1
  O  O11  1  0.332345  0.955270  0.990983  1
  O  O12  1  0.280936  0.132019  0.510574  1
  O  O13  1  0.691367  0.722830  0.005961  1
  O  O14  1  0.385504  0.605903  0.248900  1
  O  O15  1  0.605903  0.248900  0.385504  1
  O  O16  1  0.955270  0.990983  0.332345  1
  O  O17  1  0.248900  0.385504  0.605903  1
  O  O18  1  0.978001  0.700100  0.009894  1
  O  O19  1  0.963226  0.350499  0.281933  1
  O  O20  1  0.281933  0.963226  0.350499  1
  O  O21  1  0.722830  0.005961  0.691367  1
  O  O22  1  0.005961  0.691367  0.722830  1
  O  O23  1  0.990983  0.332345  0.955270  1
  O  O24  1  0.754748  0.645504  0.384143  1
  O  O25  1  0.009894  0.978001  0.700100  1
  O  O26  1  0.384143  0.754748  0.645504  1
  O  O27  1  0.645504  0.384143  0.754748  1
  O  O28  1  0.350499  0.281933  0.963226  1
  O  O29  1  0.660810  0.888691  0.519181  1
  O  O30  1  0.700100  0.009894  0.978001  1
  O  O31  1  0.888691  0.519181  0.660810  1
  O  O32  1  0.519181  0.660810  0.888691  1
