# generated using pymatgen
data_Ta12Mn12CN3
_symmetry_space_group_name_H-M   'P 1'
_cell_length_a   8.04669560
_cell_length_b   8.04669561
_cell_length_c   8.04669300
_cell_angle_alpha   59.93798494
_cell_angle_beta   59.93798045
_cell_angle_gamma   59.93799133
_symmetry_Int_Tables_number   1
_chemical_formula_structural   Ta12Mn12CN3
_chemical_formula_sum   'Ta12 Mn12 C1 N3'
_cell_volume   367.89703310
_cell_formula_units_Z   1
loop_
 _symmetry_equiv_pos_site_id
 _symmetry_equiv_pos_as_xyz
  1  'x, y, z'
loop_
 _atom_site_type_symbol
 _atom_site_label
 _atom_site_symmetry_multiplicity
 _atom_site_fract_x
 _atom_site_fract_y
 _atom_site_fract_z
 _atom_site_occupancy
  Ta  Ta0  1  0.554707  0.554707  0.945279  1
  Ta  Ta1  1  0.944928  0.944928  0.554594  1
  Ta  Ta2  1  0.695293  0.695293  0.304721  1
  Ta  Ta3  1  0.304721  0.695293  0.695293  1
  Ta  Ta4  1  0.695406  0.305072  0.305072  1
  Ta  Ta5  1  0.305072  0.305072  0.695406  1
  Ta  Ta6  1  0.554707  0.945279  0.554707  1
  Ta  Ta7  1  0.305072  0.695406  0.305072  1
  Ta  Ta8  1  0.944928  0.554594  0.944928  1
  Ta  Ta9  1  0.945279  0.554707  0.554707  1
  Ta  Ta10  1  0.695293  0.304721  0.695293  1
  Ta  Ta11  1  0.554594  0.944928  0.944928  1
  Mn  Mn12  1  0.125000  0.125000  0.625000  1
  Mn  Mn13  1  0.232614  0.922867  0.922867  1
  Mn  Mn14  1  0.922867  0.232614  0.922867  1
  Mn  Mn15  1  0.327386  0.327386  0.327386  1
  Mn  Mn16  1  0.327133  0.017386  0.327133  1
  Mn  Mn17  1  0.327133  0.327133  0.017386  1
  Mn  Mn18  1  0.017386  0.327133  0.327133  1
  Mn  Mn19  1  0.922614  0.922614  0.922614  1
  Mn  Mn20  1  0.125000  0.625000  0.125000  1
  Mn  Mn21  1  0.625000  0.125000  0.125000  1
  Mn  Mn22  1  0.125000  0.125000  0.125000  1
  Mn  Mn23  1  0.922867  0.922867  0.232614  1
  C  C24  1  0.625000  0.625000  0.625000  1
  N  N25  1  0.625000  0.625000  0.125000  1
  N  N26  1  0.125000  0.625000  0.625000  1
  N  N27  1  0.625000  0.125000  0.625000  1
