# generated using pymatgen
data_ZrNp(SbO5)2
_symmetry_space_group_name_H-M   'P 1'
_cell_length_a   5.45509569
_cell_length_b   5.45509631
_cell_length_c   7.47782000
_cell_angle_alpha   70.02986816
_cell_angle_beta   70.02986284
_cell_angle_gamma   72.83343223
_symmetry_Int_Tables_number   1
_chemical_formula_structural   ZrNp(SbO5)2
_chemical_formula_sum   'Zr1 Np1 Sb2 O10'
_cell_volume   192.51411162
_cell_formula_units_Z   1
loop_
 _symmetry_equiv_pos_site_id
 _symmetry_equiv_pos_as_xyz
  1  'x, y, z'
loop_
 _atom_site_type_symbol
 _atom_site_label
 _atom_site_symmetry_multiplicity
 _atom_site_fract_x
 _atom_site_fract_y
 _atom_site_fract_z
 _atom_site_occupancy
  Zr  Zr0  1  0.463735  0.536265  0.750000  1
  Np  Np1  1  0.527648  0.472352  0.250000  1
  Sb  Sb2  1  0.006010  0.014281  0.991926  1
  Sb  Sb3  1  0.985719  0.993990  0.508074  1
  O  O4  1  0.226838  0.272891  0.864646  1
  O  O5  1  0.766906  0.716119  0.127110  1
  O  O6  1  0.727109  0.773162  0.635354  1
  O  O7  1  0.283881  0.233094  0.372890  1
  O  O8  1  0.110829  0.889171  0.750000  1
  O  O9  1  0.907862  0.092138  0.250000  1
  O  O10  1  0.677648  0.286745  0.970474  1
  O  O11  1  0.302303  0.699740  0.043625  1
  O  O12  1  0.300260  0.697697  0.456375  1
  O  O13  1  0.713255  0.322352  0.529526  1
