# generated using pymatgen
data_Ho3Th(ScRh)4
_symmetry_space_group_name_H-M   'P 1'
_cell_length_a   4.30432100
_cell_length_b   7.14416253
_cell_length_c   8.71534151
_cell_angle_alpha   92.74562763
_cell_angle_beta   90.00000000
_cell_angle_gamma   90.00000000
_symmetry_Int_Tables_number   1
_chemical_formula_structural   Ho3Th(ScRh)4
_chemical_formula_sum   'Ho3 Th1 Sc4 Rh4'
_cell_volume   267.69579585
_cell_formula_units_Z   1
loop_
 _symmetry_equiv_pos_site_id
 _symmetry_equiv_pos_as_xyz
  1  'x, y, z'
loop_
 _atom_site_type_symbol
 _atom_site_label
 _atom_site_symmetry_multiplicity
 _atom_site_fract_x
 _atom_site_fract_y
 _atom_site_fract_z
 _atom_site_occupancy
  Ho  Ho0  1  0.750000  0.481853  0.821450  1
  Ho  Ho1  1  0.750000  0.981312  0.669661  1
  Ho  Ho2  1  0.250000  0.015396  0.328608  1
  Th  Th3  1  0.250000  0.520448  0.182142  1
  Sc  Sc4  1  0.250000  0.644437  0.571319  1
  Sc  Sc5  1  0.750000  0.350013  0.440449  1
  Sc  Sc6  1  0.750000  0.873996  0.063579  1
  Sc  Sc7  1  0.250000  0.137258  0.928085  1
  Rh  Rh8  1  0.250000  0.750948  0.906936  1
  Rh  Rh9  1  0.750000  0.258032  0.096861  1
  Rh  Rh10  1  0.750000  0.732807  0.386423  1
  Rh  Rh11  1  0.250000  0.253500  0.604486  1
