# generated using pymatgen
data_Y7Ho13(Bi2Ir)4
_symmetry_space_group_name_H-M   'P 1'
_cell_length_a   7.99299872
_cell_length_b   8.97048500
_cell_length_c   12.53104771
_cell_angle_alpha   90.00000000
_cell_angle_beta   90.07520479
_cell_angle_gamma   90.00000000
_symmetry_Int_Tables_number   1
_chemical_formula_structural   Y7Ho13(Bi2Ir)4
_chemical_formula_sum   'Y7 Ho13 Bi8 Ir4'
_cell_volume   898.48881858
_cell_formula_units_Z   1
loop_
 _symmetry_equiv_pos_site_id
 _symmetry_equiv_pos_as_xyz
  1  'x, y, z'
loop_
 _atom_site_type_symbol
 _atom_site_label
 _atom_site_symmetry_multiplicity
 _atom_site_fract_x
 _atom_site_fract_y
 _atom_site_fract_z
 _atom_site_occupancy
  Y  Y0  1  0.839088  0.750000  0.792908  1
  Y  Y1  1  0.161323  0.250000  0.207688  1
  Y  Y2  1  0.339109  0.250000  0.707516  1
  Y  Y3  1  0.661547  0.750000  0.292261  1
  Y  Y4  1  0.374442  0.750000  0.693189  1
  Y  Y5  1  0.625516  0.250000  0.306765  1
  Y  Y6  1  0.874400  0.250000  0.806704  1
  Ho  Ho7  1  0.123726  0.750000  0.191462  1
  Ho  Ho8  1  0.945879  0.750000  0.501413  1
  Ho  Ho9  1  0.054147  0.250000  0.498467  1
  Ho  Ho10  1  0.446005  0.250000  0.998851  1
  Ho  Ho11  1  0.553962  0.750000  0.001555  1
  Ho  Ho12  1  0.674972  0.042236  0.565455  1
  Ho  Ho13  1  0.324747  0.957407  0.434177  1
  Ho  Ho14  1  0.175416  0.957690  0.934856  1
  Ho  Ho15  1  0.324747  0.542593  0.434177  1
  Ho  Ho16  1  0.825277  0.042312  0.065818  1
  Ho  Ho17  1  0.674972  0.457764  0.565455  1
  Ho  Ho18  1  0.825277  0.457688  0.065818  1
  Ho  Ho19  1  0.175416  0.542310  0.934856  1
  Bi  Bi20  1  0.566502  0.491474  0.827920  1
  Bi  Bi21  1  0.432923  0.509082  0.172079  1
  Bi  Bi22  1  0.066252  0.508635  0.672259  1
  Bi  Bi23  1  0.432923  0.990918  0.172079  1
  Bi  Bi24  1  0.933999  0.491793  0.327649  1
  Bi  Bi25  1  0.566502  0.008526  0.827920  1
  Bi  Bi26  1  0.933999  0.008207  0.327649  1
  Bi  Bi27  1  0.066252  0.991365  0.672259  1
  Ir  Ir28  1  0.572104  0.750000  0.509080  1
  Ir  Ir29  1  0.427686  0.250000  0.490733  1
  Ir  Ir30  1  0.071965  0.250000  0.990912  1
  Ir  Ir31  1  0.928924  0.750000  0.010072  1
