# generated using pymatgen
data_LaAl2GaAu3
_symmetry_space_group_name_H-M   'P 1'
_cell_length_a   4.48642200
_cell_length_b   7.15405153
_cell_length_c   8.71252386
_cell_angle_alpha   91.43733135
_cell_angle_beta   90.00000000
_cell_angle_gamma   90.00000000
_symmetry_Int_Tables_number   1
_chemical_formula_structural   LaAl2GaAu3
_chemical_formula_sum   'La2 Al4 Ga2 Au6'
_cell_volume   279.55000061
_cell_formula_units_Z   2
loop_
 _symmetry_equiv_pos_site_id
 _symmetry_equiv_pos_as_xyz
  1  'x, y, z'
loop_
 _atom_site_type_symbol
 _atom_site_label
 _atom_site_symmetry_multiplicity
 _atom_site_fract_x
 _atom_site_fract_y
 _atom_site_fract_z
 _atom_site_occupancy
  La  La0  1  0.500000  0.005249  0.744072  1
  La  La1  1  0.000000  0.494751  0.255928  1
  Al  Al2  1  0.000000  0.691274  0.891075  1
  Al  Al3  1  0.000000  0.993704  0.379190  1
  Al  Al4  1  0.500000  0.808726  0.108925  1
  Al  Al5  1  0.500000  0.506296  0.620810  1
  Ga  Ga6  1  0.000000  0.297584  0.893689  1
  Ga  Ga7  1  0.500000  0.202416  0.106311  1
  Au  Au8  1  0.000000  0.720553  0.600461  1
  Au  Au9  1  0.500000  0.779447  0.399539  1
  Au  Au10  1  0.500000  0.508692  0.934696  1
  Au  Au11  1  0.000000  0.991308  0.065304  1
  Au  Au12  1  0.500000  0.217800  0.402877  1
  Au  Au13  1  0.000000  0.282200  0.597123  1
