# generated using pymatgen
data_CaEr6Co6Sn23
_symmetry_space_group_name_H-M   'P 1'
_cell_length_a   9.69504000
_cell_length_b   9.69504006
_cell_length_c   9.93470900
_cell_angle_alpha   90.00000000
_cell_angle_beta   90.00000000
_cell_angle_gamma   119.99999980
_symmetry_Int_Tables_number   1
_chemical_formula_structural   CaEr6Co6Sn23
_chemical_formula_sum   'Ca1 Er6 Co6 Sn23'
_cell_volume   808.69544393
_cell_formula_units_Z   1
loop_
 _symmetry_equiv_pos_site_id
 _symmetry_equiv_pos_as_xyz
  1  'x, y, z'
loop_
 _atom_site_type_symbol
 _atom_site_label
 _atom_site_symmetry_multiplicity
 _atom_site_fract_x
 _atom_site_fract_y
 _atom_site_fract_z
 _atom_site_occupancy
  Ca  Ca0  1  0.000000  0.000000  0.000000  1
  Er  Er1  1  0.479464  0.520536  0.305884  1
  Er  Er2  1  0.520536  0.479464  0.694116  1
  Er  Er3  1  0.479464  0.958929  0.305884  1
  Er  Er4  1  0.520536  0.041071  0.694116  1
  Er  Er5  1  0.041071  0.520536  0.305884  1
  Er  Er6  1  0.958929  0.479464  0.694116  1
  Co  Co7  1  0.831332  0.168668  0.198677  1
  Co  Co8  1  0.168668  0.831332  0.801323  1
  Co  Co9  1  0.831332  0.662664  0.198677  1
  Co  Co10  1  0.168668  0.337336  0.801323  1
  Co  Co11  1  0.337336  0.168668  0.198677  1
  Co  Co12  1  0.662664  0.831332  0.801323  1
  Sn  Sn13  1  0.117980  0.882020  0.274622  1
  Sn  Sn14  1  0.882020  0.117980  0.725378  1
  Sn  Sn15  1  0.117980  0.235960  0.274622  1
  Sn  Sn16  1  0.882020  0.764040  0.725378  1
  Sn  Sn17  1  0.764040  0.882020  0.274622  1
  Sn  Sn18  1  0.235960  0.117980  0.725378  1
  Sn  Sn19  1  0.780860  0.219140  0.452007  1
  Sn  Sn20  1  0.219140  0.780860  0.547993  1
  Sn  Sn21  1  0.780860  0.561721  0.452007  1
  Sn  Sn22  1  0.219140  0.438279  0.547993  1
  Sn  Sn23  1  0.438279  0.219140  0.452007  1
  Sn  Sn24  1  0.561721  0.780860  0.547993  1
  Sn  Sn25  1  0.346194  0.000000  0.000000  1
  Sn  Sn26  1  0.653806  0.000000  0.000000  1
  Sn  Sn27  1  0.000000  0.346194  0.000000  1
  Sn  Sn28  1  0.000000  0.653806  0.000000  1
  Sn  Sn29  1  0.653806  0.653806  0.000000  1
  Sn  Sn30  1  0.346194  0.346194  0.000000  1
  Sn  Sn31  1  0.333333  0.666667  0.120090  1
  Sn  Sn32  1  0.666667  0.333333  0.879910  1
  Sn  Sn33  1  0.333333  0.666667  0.816834  1
  Sn  Sn34  1  0.666667  0.333333  0.183166  1
  Sn  Sn35  1  0.000000  0.000000  0.500000  1
