# generated using pymatgen
data_CeHo6Er
_symmetry_space_group_name_H-M   'P 1'
_cell_length_a   7.08177500
_cell_length_b   7.08177470
_cell_length_c   5.62192700
_cell_angle_alpha   90.00000000
_cell_angle_beta   90.00000000
_cell_angle_gamma   119.99999671
_symmetry_Int_Tables_number   1
_chemical_formula_structural   CeHo6Er
_chemical_formula_sum   'Ce1 Ho6 Er1'
_cell_volume   244.17437158
_cell_formula_units_Z   1
loop_
 _symmetry_equiv_pos_site_id
 _symmetry_equiv_pos_as_xyz
  1  'x, y, z'
loop_
 _atom_site_type_symbol
 _atom_site_label
 _atom_site_symmetry_multiplicity
 _atom_site_fract_x
 _atom_site_fract_y
 _atom_site_fract_z
 _atom_site_occupancy
  Ce  Ce0  1  0.333333  0.666667  0.750000  1
  Ho  Ho1  1  0.167533  0.335067  0.250000  1
  Ho  Ho2  1  0.664933  0.832467  0.250000  1
  Ho  Ho3  1  0.167533  0.832467  0.250000  1
  Ho  Ho4  1  0.833973  0.667945  0.750000  1
  Ho  Ho5  1  0.332055  0.166027  0.750000  1
  Ho  Ho6  1  0.833973  0.166027  0.750000  1
  Er  Er7  1  0.666667  0.333333  0.250000  1
