# generated using pymatgen
data_Ho4Co9P12Rh11
_symmetry_space_group_name_H-M   'P 1'
_cell_length_a   3.77667600
_cell_length_b   10.61183260
_cell_length_c   12.18313447
_cell_angle_alpha   89.83721924
_cell_angle_beta   90.00000000
_cell_angle_gamma   90.00000000
_symmetry_Int_Tables_number   1
_chemical_formula_structural   Ho4Co9P12Rh11
_chemical_formula_sum   'Ho4 Co9 P12 Rh11'
_cell_volume   488.26703442
_cell_formula_units_Z   1
loop_
 _symmetry_equiv_pos_site_id
 _symmetry_equiv_pos_as_xyz
  1  'x, y, z'
loop_
 _atom_site_type_symbol
 _atom_site_label
 _atom_site_symmetry_multiplicity
 _atom_site_fract_x
 _atom_site_fract_y
 _atom_site_fract_z
 _atom_site_occupancy
  Ho  Ho0  1  0.250000  0.583157  0.707679  1
  Ho  Ho1  1  0.250000  0.913003  0.211464  1
  Ho  Ho2  1  0.750000  0.419746  0.291766  1
  Ho  Ho3  1  0.750000  0.082539  0.791310  1
  Co  Co4  1  0.750000  0.723573  0.320643  1
  Co  Co5  1  0.250000  0.883544  0.696093  1
  Co  Co6  1  0.250000  0.619700  0.197571  1
  Co  Co7  1  0.750000  0.112318  0.303349  1
  Co  Co8  1  0.750000  0.385098  0.802548  1
  Co  Co9  1  0.250000  0.463725  0.932704  1
  Co  Co10  1  0.250000  0.034956  0.431613  1
  Co  Co11  1  0.750000  0.537610  0.068374  1
  Co  Co12  1  0.750000  0.963892  0.565904  1
  P  P13  1  0.250000  0.431467  0.111376  1
  P  P14  1  0.250000  0.069480  0.610194  1
  P  P15  1  0.750000  0.569875  0.889755  1
  P  P16  1  0.750000  0.921926  0.387770  1
  P  P17  1  0.250000  0.273858  0.871145  1
  P  P18  1  0.250000  0.225720  0.371432  1
  P  P19  1  0.750000  0.725299  0.137609  1
  P  P20  1  0.750000  0.774487  0.628883  1
  P  P21  1  0.250000  0.606539  0.377844  1
  P  P22  1  0.250000  0.899087  0.882292  1
  P  P23  1  0.750000  0.401829  0.616994  1
  P  P24  1  0.750000  0.098825  0.119326  1
  Rh  Rh25  1  0.250000  0.713886  0.990719  1
  Rh  Rh26  1  0.250000  0.787131  0.486277  1
  Rh  Rh27  1  0.750000  0.284380  0.009430  1
  Rh  Rh28  1  0.750000  0.216358  0.507777  1
  Rh  Rh29  1  0.250000  0.411308  0.478231  1
  Rh  Rh30  1  0.250000  0.090300  0.980196  1
  Rh  Rh31  1  0.750000  0.594811  0.517243  1
  Rh  Rh32  1  0.750000  0.906179  0.023528  1
  Rh  Rh33  1  0.250000  0.225872  0.180941  1
  Rh  Rh34  1  0.250000  0.274235  0.679804  1
  Rh  Rh35  1  0.750000  0.774290  0.820214  1
