# generated using pymatgen
data_Y3Al2(SiAu)2
_symmetry_space_group_name_H-M   'P 1'
_cell_length_a   4.29823800
_cell_length_b   7.07545302
_cell_length_c   6.90529975
_cell_angle_alpha   120.81852167
_cell_angle_beta   90.00000000
_cell_angle_gamma   90.00000000
_symmetry_Int_Tables_number   1
_chemical_formula_structural   Y3Al2(SiAu)2
_chemical_formula_sum   'Y3 Al2 Si2 Au2'
_cell_volume   180.35011087
_cell_formula_units_Z   1
loop_
 _symmetry_equiv_pos_site_id
 _symmetry_equiv_pos_as_xyz
  1  'x, y, z'
loop_
 _atom_site_type_symbol
 _atom_site_label
 _atom_site_symmetry_multiplicity
 _atom_site_fract_x
 _atom_site_fract_y
 _atom_site_fract_z
 _atom_site_occupancy
  Y  Y0  1  0.000000  0.428418  0.000000  1
  Y  Y1  1  0.000000  0.580934  0.584760  1
  Y  Y2  1  0.000000  0.996175  0.415240  1
  Al  Al3  1  0.500000  0.240434  0.237174  1
  Al  Al4  1  0.500000  0.003260  0.762826  1
  Si  Si5  1  0.500000  0.666966  0.342432  1
  Si  Si6  1  0.500000  0.324533  0.657568  1
  Au  Au7  1  0.000000  0.023788  0.000000  1
  Au  Au8  1  0.500000  0.735590  0.000000  1
