# generated using pymatgen
data_Nd3Co7ReNiP6
_symmetry_space_group_name_H-M   'P 1'
_cell_length_a   3.81045200
_cell_length_b   10.65693000
_cell_length_c   12.42067000
_cell_angle_alpha   90.00000000
_cell_angle_beta   90.00000000
_cell_angle_gamma   90.00000000
_symmetry_Int_Tables_number   1
_chemical_formula_structural   Nd3Co7ReNiP6
_chemical_formula_sum   'Nd6 Co14 Re2 Ni2 P12'
_cell_volume   504.37509246
_cell_formula_units_Z   2
loop_
 _symmetry_equiv_pos_site_id
 _symmetry_equiv_pos_as_xyz
  1  'x, y, z'
loop_
 _atom_site_type_symbol
 _atom_site_label
 _atom_site_symmetry_multiplicity
 _atom_site_fract_x
 _atom_site_fract_y
 _atom_site_fract_z
 _atom_site_occupancy
  Nd  Nd0  1  0.000000  0.500000  0.521047  1
  Nd  Nd1  1  0.500000  0.000000  0.478953  1
  Nd  Nd2  1  0.500000  0.816547  0.205287  1
  Nd  Nd3  1  0.500000  0.183453  0.205287  1
  Nd  Nd4  1  0.000000  0.683453  0.794713  1
  Nd  Nd5  1  0.000000  0.316547  0.794713  1
  Co  Co6  1  0.000000  0.500000  0.988313  1
  Co  Co7  1  0.500000  0.000000  0.011687  1
  Co  Co8  1  0.500000  0.332156  0.992361  1
  Co  Co9  1  0.500000  0.667844  0.992361  1
  Co  Co10  1  0.000000  0.167844  0.007639  1
  Co  Co11  1  0.000000  0.832156  0.007639  1
  Co  Co12  1  0.500000  0.298378  0.429140  1
  Co  Co13  1  0.500000  0.701622  0.429140  1
  Co  Co14  1  0.000000  0.201622  0.570860  1
  Co  Co15  1  0.000000  0.798378  0.570860  1
  Co  Co16  1  0.500000  0.881915  0.712010  1
  Co  Co17  1  0.500000  0.118085  0.712010  1
  Co  Co18  1  0.000000  0.618085  0.287990  1
  Co  Co19  1  0.000000  0.381915  0.287990  1
  Re  Re20  1  0.500000  0.500000  0.153674  1
  Re  Re21  1  0.000000  0.000000  0.846326  1
  Ni  Ni22  1  0.500000  0.500000  0.703142  1
  Ni  Ni23  1  0.000000  0.000000  0.296858  1
  P  P24  1  0.500000  0.500000  0.886495  1
  P  P25  1  0.000000  0.000000  0.113505  1
  P  P26  1  0.500000  0.500000  0.342965  1
  P  P27  1  0.000000  0.000000  0.657035  1
  P  P28  1  0.500000  0.304754  0.613076  1
  P  P29  1  0.500000  0.695246  0.613076  1
  P  P30  1  0.000000  0.195246  0.386924  1
  P  P31  1  0.000000  0.804754  0.386924  1
  P  P32  1  0.500000  0.847860  0.895497  1
  P  P33  1  0.500000  0.152140  0.895497  1
  P  P34  1  0.000000  0.652140  0.104503  1
  P  P35  1  0.000000  0.347860  0.104503  1
