# generated using pymatgen
data_GaCoH8
_symmetry_space_group_name_H-M   'P 1'
_cell_length_a   4.10222662
_cell_length_b   2.52842271
_cell_length_c   12.46314151
_cell_angle_alpha   102.37386974
_cell_angle_beta   92.14436122
_cell_angle_gamma   89.96931915
_symmetry_Int_Tables_number   1
_chemical_formula_structural   GaCoH8
_chemical_formula_sum   'Ga1 Co1 H8'
_cell_volume   126.17468298
_cell_formula_units_Z   1
loop_
 _symmetry_equiv_pos_site_id
 _symmetry_equiv_pos_as_xyz
  1  'x, y, z'
loop_
 _atom_site_type_symbol
 _atom_site_label
 _atom_site_symmetry_multiplicity
 _atom_site_fract_x
 _atom_site_fract_y
 _atom_site_fract_z
 _atom_site_occupancy
  Ga  Ga0  1  0.195641  0.160145  0.610918  1
  Co  Co1  1  0.695591  0.657082  0.611005  1
  H  H2  1  0.287773  0.268960  0.940226  1
  H  H3  1  0.543799  0.349680  0.303777  1
  H  H4  1  0.703148  0.250536  0.701170  1
  H  H5  1  0.823873  0.895518  0.060895  1
  H  H6  1  0.690472  0.058146  0.520850  1
  H  H7  1  0.398477  0.251681  0.893258  1
  H  H8  1  0.623068  0.407647  0.254410  1
  H  H9  1  0.960664  0.857200  0.099756  1
