# generated using pymatgen
data_Tm7Sc(Si3Pt)4
_symmetry_space_group_name_H-M   'P 1'
_cell_length_a   8.13164300
_cell_length_b   8.14187749
_cell_length_c   7.72927500
_cell_angle_alpha   90.00000000
_cell_angle_beta   90.00000000
_cell_angle_gamma   119.95842280
_symmetry_Int_Tables_number   1
_chemical_formula_structural   Tm7Sc(Si3Pt)4
_chemical_formula_sum   'Tm7 Sc1 Si12 Pt4'
_cell_volume   443.35749800
_cell_formula_units_Z   1
loop_
 _symmetry_equiv_pos_site_id
 _symmetry_equiv_pos_as_xyz
  1  'x, y, z'
loop_
 _atom_site_type_symbol
 _atom_site_label
 _atom_site_symmetry_multiplicity
 _atom_site_fract_x
 _atom_site_fract_y
 _atom_site_fract_z
 _atom_site_occupancy
  Tm  Tm0  1  0.487639  0.975280  0.750000  1
  Tm  Tm1  1  0.973394  0.485794  0.250000  1
  Tm  Tm2  1  0.025140  0.512835  0.750000  1
  Tm  Tm3  1  0.512401  0.485794  0.250000  1
  Tm  Tm4  1  0.487694  0.512835  0.750000  1
  Tm  Tm5  1  0.000128  0.000256  0.250000  1
  Tm  Tm6  1  0.000050  0.000099  0.750000  1
  Sc  Sc7  1  0.512220  0.024440  0.250000  1
  Si  Si8  1  0.165399  0.330797  0.003492  1
  Si  Si9  1  0.834988  0.669977  0.996898  1
  Si  Si10  1  0.669214  0.835129  0.004474  1
  Si  Si11  1  0.834988  0.669977  0.503102  1
  Si  Si12  1  0.331194  0.164358  0.999813  1
  Si  Si13  1  0.165399  0.330797  0.496508  1
  Si  Si14  1  0.165916  0.835129  0.004474  1
  Si  Si15  1  0.331194  0.164358  0.500187  1
  Si  Si16  1  0.833163  0.164358  0.999813  1
  Si  Si17  1  0.669214  0.835129  0.495526  1
  Si  Si18  1  0.833163  0.164358  0.500187  1
  Si  Si19  1  0.165916  0.835129  0.495526  1
  Pt  Pt20  1  0.334261  0.668524  0.045246  1
  Pt  Pt21  1  0.666531  0.333061  0.959425  1
  Pt  Pt22  1  0.666531  0.333061  0.540575  1
  Pt  Pt23  1  0.334261  0.668524  0.454754  1
