# generated using pymatgen
data_Ho3Er8TmIr4
_symmetry_space_group_name_H-M   'P 1'
_cell_length_a   6.35506239
_cell_length_b   7.21256512
_cell_length_c   9.09896432
_cell_angle_alpha   90.01787337
_cell_angle_beta   90.02454792
_cell_angle_gamma   90.01059369
_symmetry_Int_Tables_number   1
_chemical_formula_structural   Ho3Er8TmIr4
_chemical_formula_sum   'Ho3 Er8 Tm1 Ir4'
_cell_volume   417.06280437
_cell_formula_units_Z   1
loop_
 _symmetry_equiv_pos_site_id
 _symmetry_equiv_pos_as_xyz
  1  'x, y, z'
loop_
 _atom_site_type_symbol
 _atom_site_label
 _atom_site_symmetry_multiplicity
 _atom_site_fract_x
 _atom_site_fract_y
 _atom_site_fract_z
 _atom_site_occupancy
  Ho  Ho0  1  0.872077  0.533546  0.249926  1
  Ho  Ho1  1  0.628268  0.033889  0.249885  1
  Ho  Ho2  1  0.128148  0.466349  0.750127  1
  Er  Er3  1  0.328380  0.677603  0.061818  1
  Er  Er4  1  0.172160  0.177039  0.437974  1
  Er  Er5  1  0.671729  0.322417  0.562278  1
  Er  Er6  1  0.827803  0.822891  0.937976  1
  Er  Er7  1  0.671727  0.322279  0.938042  1
  Er  Er8  1  0.827590  0.822810  0.562271  1
  Er  Er9  1  0.328408  0.677474  0.438054  1
  Er  Er10  1  0.371421  0.966196  0.750125  1
  Tm  Tm11  1  0.171949  0.176965  0.061907  1
  Ir  Ir12  1  0.044477  0.884092  0.249802  1
  Ir  Ir13  1  0.454958  0.383554  0.249677  1
  Ir  Ir14  1  0.956789  0.116010  0.750210  1
  Ir  Ir15  1  0.544114  0.616887  0.749928  1
