# generated using pymatgen
data_NdDy2Ag(Ir2O7)2
_symmetry_space_group_name_H-M   'P 1'
_cell_length_a   7.19711319
_cell_length_b   7.37886967
_cell_length_c   7.37886965
_cell_angle_alpha   59.87660072
_cell_angle_beta   59.24277664
_cell_angle_gamma   59.24276462
_symmetry_Int_Tables_number   1
_chemical_formula_structural   NdDy2Ag(Ir2O7)2
_chemical_formula_sum   'Nd1 Dy2 Ag1 Ir4 O14'
_cell_volume   273.62713803
_cell_formula_units_Z   1
loop_
 _symmetry_equiv_pos_site_id
 _symmetry_equiv_pos_as_xyz
  1  'x, y, z'
loop_
 _atom_site_type_symbol
 _atom_site_label
 _atom_site_symmetry_multiplicity
 _atom_site_fract_x
 _atom_site_fract_y
 _atom_site_fract_z
 _atom_site_occupancy
  Nd  Nd0  1  0.125000  0.125000  0.125000  1
  Dy  Dy1  1  0.125000  0.625000  0.125000  1
  Dy  Dy2  1  0.125000  0.125000  0.625000  1
  Ag  Ag3  1  0.625000  0.125000  0.125000  1
  Ir  Ir4  1  0.125000  0.625000  0.625000  1
  Ir  Ir5  1  0.625000  0.125000  0.625000  1
  Ir  Ir6  1  0.625000  0.625000  0.125000  1
  Ir  Ir7  1  0.625000  0.625000  0.625000  1
  O  O8  1  0.711800  0.688606  0.300551  1
  O  O9  1  0.285982  0.292433  0.704778  1
  O  O10  1  0.711800  0.300551  0.688606  1
  O  O11  1  0.285982  0.704778  0.292433  1
  O  O12  1  0.287049  0.710427  0.710427  1
  O  O13  1  0.701903  0.300408  0.300408  1
  O  O14  1  0.538200  0.561394  0.949449  1
  O  O15  1  0.964018  0.957567  0.545222  1
  O  O16  1  0.538200  0.949449  0.561394  1
  O  O17  1  0.964018  0.545222  0.957567  1
  O  O18  1  0.962951  0.539573  0.539573  1
  O  O19  1  0.548097  0.949592  0.949592  1
  O  O20  1  0.249423  0.255694  0.255694  1
  O  O21  1  0.000577  0.994306  0.994306  1
