# generated using pymatgen
data_ErZr(NpPd6)2
_symmetry_space_group_name_H-M   'P 1'
_cell_length_a   5.80882000
_cell_length_b   5.80882027
_cell_length_c   9.51035700
_cell_angle_alpha   90.00000000
_cell_angle_beta   90.00000000
_cell_angle_gamma   119.99999845
_symmetry_Int_Tables_number   1
_chemical_formula_structural   ErZr(NpPd6)2
_chemical_formula_sum   'Er1 Zr1 Np2 Pd12'
_cell_volume   277.90945126
_cell_formula_units_Z   1
loop_
 _symmetry_equiv_pos_site_id
 _symmetry_equiv_pos_as_xyz
  1  'x, y, z'
loop_
 _atom_site_type_symbol
 _atom_site_label
 _atom_site_symmetry_multiplicity
 _atom_site_fract_x
 _atom_site_fract_y
 _atom_site_fract_z
 _atom_site_occupancy
  Er  Er0  1  0.000000  0.000000  0.500000  1
  Zr  Zr1  1  0.000000  0.000000  0.000000  1
  Np  Np2  1  0.333333  0.666667  0.251224  1
  Np  Np3  1  0.666667  0.333333  0.748776  1
  Pd  Pd4  1  0.500000  0.500000  0.500000  1
  Pd  Pd5  1  0.500000  0.000000  0.500000  1
  Pd  Pd6  1  0.000000  0.500000  0.500000  1
  Pd  Pd7  1  0.500000  0.500000  0.000000  1
  Pd  Pd8  1  0.500000  0.000000  0.000000  1
  Pd  Pd9  1  0.000000  0.500000  0.000000  1
  Pd  Pd10  1  0.829386  0.170614  0.246143  1
  Pd  Pd11  1  0.829386  0.658770  0.246143  1
  Pd  Pd12  1  0.341230  0.170614  0.246143  1
  Pd  Pd13  1  0.170614  0.829386  0.753857  1
  Pd  Pd14  1  0.170614  0.341230  0.753857  1
  Pd  Pd15  1  0.658770  0.829386  0.753857  1
