# generated using pymatgen
data_CeYTm3ZnRu4
_symmetry_space_group_name_H-M   'P 1'
_cell_length_a   3.40636100
_cell_length_b   3.40636100
_cell_length_c   17.34954300
_cell_angle_alpha   90.00000000
_cell_angle_beta   90.00000000
_cell_angle_gamma   90.00000000
_symmetry_Int_Tables_number   1
_chemical_formula_structural   CeYTm3ZnRu4
_chemical_formula_sum   'Ce1 Y1 Tm3 Zn1 Ru4'
_cell_volume   201.31187010
_cell_formula_units_Z   1
loop_
 _symmetry_equiv_pos_site_id
 _symmetry_equiv_pos_as_xyz
  1  'x, y, z'
loop_
 _atom_site_type_symbol
 _atom_site_label
 _atom_site_symmetry_multiplicity
 _atom_site_fract_x
 _atom_site_fract_y
 _atom_site_fract_z
 _atom_site_occupancy
  Ce  Ce0  1  0.000000  0.000000  0.000715  1
  Y  Y1  1  0.000000  0.000000  0.801448  1
  Tm  Tm2  1  0.000000  0.000000  0.198811  1
  Tm  Tm3  1  0.000000  0.000000  0.386864  1
  Tm  Tm4  1  0.000000  0.000000  0.612231  1
  Zn  Zn5  1  0.500000  0.500000  0.500407  1
  Ru  Ru6  1  0.500000  0.500000  0.091571  1
  Ru  Ru7  1  0.500000  0.500000  0.296296  1
  Ru  Ru8  1  0.500000  0.500000  0.701274  1
  Ru  Ru9  1  0.500000  0.500000  0.910382  1
