# generated using pymatgen
data_Yb2Dy4Si24Os5Ru3
_symmetry_space_group_name_H-M   'P 1'
_cell_length_a   10.14273854
_cell_length_b   10.14273787
_cell_length_c   8.15217686
_cell_angle_alpha   89.97960252
_cell_angle_beta   89.97960125
_cell_angle_gamma   132.60750729
_symmetry_Int_Tables_number   1
_chemical_formula_structural   Yb2Dy4Si24Os5Ru3
_chemical_formula_sum   'Yb2 Dy4 Si24 Os5 Ru3'
_cell_volume   617.25784859
_cell_formula_units_Z   1
loop_
 _symmetry_equiv_pos_site_id
 _symmetry_equiv_pos_as_xyz
  1  'x, y, z'
loop_
 _atom_site_type_symbol
 _atom_site_label
 _atom_site_symmetry_multiplicity
 _atom_site_fract_x
 _atom_site_fract_y
 _atom_site_fract_z
 _atom_site_occupancy
  Yb  Yb0  1  0.499465  0.499465  0.499909  1
  Yb  Yb1  1  0.999851  0.999851  0.999514  1
  Dy  Dy2  1  0.501058  0.001107  0.750095  1
  Dy  Dy3  1  0.998776  0.499208  0.249953  1
  Dy  Dy4  1  0.499208  0.998776  0.249953  1
  Dy  Dy5  1  0.001107  0.501058  0.750095  1
  Si  Si6  1  0.797228  0.202845  0.500115  1
  Si  Si7  1  0.297137  0.702873  0.000114  1
  Si  Si8  1  0.202845  0.797228  0.500115  1
  Si  Si9  1  0.702873  0.297137  0.000114  1
  Si  Si10  1  0.332991  0.332991  0.832999  1
  Si  Si11  1  0.667216  0.667216  0.167263  1
  Si  Si12  1  0.166332  0.166332  0.330960  1
  Si  Si13  1  0.830941  0.830941  0.666474  1
  Si  Si14  1  0.122782  0.890780  0.730683  1
  Si  Si15  1  0.109668  0.878400  0.269648  1
  Si  Si16  1  0.608985  0.377576  0.230250  1
  Si  Si17  1  0.623118  0.391224  0.769861  1
  Si  Si18  1  0.878400  0.109668  0.269648  1
  Si  Si19  1  0.890780  0.122782  0.730683  1
  Si  Si20  1  0.391224  0.623118  0.769861  1
  Si  Si21  1  0.377576  0.608985  0.230250  1
  Si  Si22  1  0.346871  0.115193  0.506581  1
  Si  Si23  1  0.884646  0.653611  0.494129  1
  Si  Si24  1  0.385355  0.153862  0.006874  1
  Si  Si25  1  0.846277  0.615140  0.993451  1
  Si  Si26  1  0.653611  0.884646  0.494129  1
  Si  Si27  1  0.115193  0.346871  0.506581  1
  Si  Si28  1  0.615140  0.846277  0.993451  1
  Si  Si29  1  0.153862  0.385355  0.006874  1
  Os  Os30  1  0.671913  0.328155  0.499867  1
  Os  Os31  1  0.171875  0.828206  0.000072  1
  Os  Os32  1  0.328155  0.671913  0.499867  1
  Os  Os33  1  0.828206  0.171875  0.000072  1
  Os  Os34  1  0.126036  0.126036  0.626028  1
  Ru  Ru35  1  0.873483  0.873483  0.373622  1
  Ru  Ru36  1  0.373984  0.373984  0.125840  1
  Ru  Ru37  1  0.625830  0.625830  0.874007  1
