# generated using pymatgen
data_CaAl4CdBr16
_symmetry_space_group_name_H-M   'P 1'
_cell_length_a   10.51837097
_cell_length_b   10.51837112
_cell_length_c   12.57786800
_cell_angle_alpha   55.83463936
_cell_angle_beta   55.83463880
_cell_angle_gamma   49.23060237
_symmetry_Int_Tables_number   1
_chemical_formula_structural   CaAl4CdBr16
_chemical_formula_sum   'Ca1 Al4 Cd1 Br16'
_cell_volume   828.78196770
_cell_formula_units_Z   1
loop_
 _symmetry_equiv_pos_site_id
 _symmetry_equiv_pos_as_xyz
  1  'x, y, z'
loop_
 _atom_site_type_symbol
 _atom_site_label
 _atom_site_symmetry_multiplicity
 _atom_site_fract_x
 _atom_site_fract_y
 _atom_site_fract_z
 _atom_site_occupancy
  Ca  Ca0  1  0.003514  0.996486  0.750000  1
  Al  Al1  1  0.162940  0.662542  0.529906  1
  Al  Al2  1  0.337458  0.837060  0.970094  1
  Al  Al3  1  0.836969  0.335816  0.462555  1
  Al  Al4  1  0.664184  0.163031  0.037445  1
  Cd  Cd5  1  0.002259  0.997741  0.250000  1
  Br  Br6  1  0.306739  0.378478  0.538817  1
  Br  Br7  1  0.621522  0.693261  0.961183  1
  Br  Br8  1  0.689708  0.623523  0.446931  1
  Br  Br9  1  0.376477  0.310292  0.053069  1
  Br  Br10  1  0.874088  0.820093  0.521284  1
  Br  Br11  1  0.179907  0.125912  0.978716  1
  Br  Br12  1  0.123594  0.188740  0.469780  1
  Br  Br13  1  0.811260  0.876406  0.030220  1
  Br  Br14  1  0.152149  0.660734  0.723095  1
  Br  Br15  1  0.339266  0.847851  0.776905  1
  Br  Br16  1  0.851471  0.326236  0.272882  1
  Br  Br17  1  0.673764  0.148529  0.227118  1
  Br  Br18  1  0.293164  0.829433  0.332924  1
  Br  Br19  1  0.170567  0.706836  0.167076  1
  Br  Br20  1  0.703761  0.174761  0.662351  1
  Br  Br21  1  0.825239  0.296239  0.837649  1
