# generated using pymatgen
data_Er4Zn4Pd3Ru
_symmetry_space_group_name_H-M   'P 1'
_cell_length_a   3.98439500
_cell_length_b   7.04313674
_cell_length_c   8.24617716
_cell_angle_alpha   89.72818255
_cell_angle_beta   90.00000000
_cell_angle_gamma   90.00000000
_symmetry_Int_Tables_number   1
_chemical_formula_structural   Er4Zn4Pd3Ru
_chemical_formula_sum   'Er4 Zn4 Pd3 Ru1'
_cell_volume   231.40688723
_cell_formula_units_Z   1
loop_
 _symmetry_equiv_pos_site_id
 _symmetry_equiv_pos_as_xyz
  1  'x, y, z'
loop_
 _atom_site_type_symbol
 _atom_site_label
 _atom_site_symmetry_multiplicity
 _atom_site_fract_x
 _atom_site_fract_y
 _atom_site_fract_z
 _atom_site_occupancy
  Er  Er0  1  0.750000  0.446095  0.178389  1
  Er  Er1  1  0.750000  0.950902  0.313887  1
  Er  Er2  1  0.250000  0.540988  0.816878  1
  Er  Er3  1  0.250000  0.056312  0.692962  1
  Zn  Zn4  1  0.750000  0.873207  0.935519  1
  Zn  Zn5  1  0.750000  0.367265  0.567352  1
  Zn  Zn6  1  0.250000  0.133593  0.060288  1
  Zn  Zn7  1  0.250000  0.630386  0.435074  1
  Pd  Pd8  1  0.750000  0.752493  0.621541  1
  Pd  Pd9  1  0.250000  0.747228  0.122953  1
  Pd  Pd10  1  0.250000  0.246346  0.376853  1
  Ru  Ru11  1  0.750000  0.255184  0.878304  1
