# generated using pymatgen
data_LiSm2Si3Ag
_symmetry_space_group_name_H-M   'P 1'
_cell_length_a   9.42785020
_cell_length_b   9.42785023
_cell_length_c   6.85093380
_cell_angle_alpha   89.70659242
_cell_angle_beta   90.29340664
_cell_angle_gamma   153.33462952
_symmetry_Int_Tables_number   1
_chemical_formula_structural   LiSm2Si3Ag
_chemical_formula_sum   'Li2 Sm4 Si6 Ag2'
_cell_volume   273.27606550
_cell_formula_units_Z   2
loop_
 _symmetry_equiv_pos_site_id
 _symmetry_equiv_pos_as_xyz
  1  'x, y, z'
loop_
 _atom_site_type_symbol
 _atom_site_label
 _atom_site_symmetry_multiplicity
 _atom_site_fract_x
 _atom_site_fract_y
 _atom_site_fract_z
 _atom_site_occupancy
  Li  Li0  1  0.188561  0.811439  0.057511  1
  Li  Li1  1  0.811439  0.188561  0.942489  1
  Sm  Sm2  1  0.552244  0.447756  0.250882  1
  Sm  Sm3  1  0.447756  0.552244  0.749118  1
  Sm  Sm4  1  0.345686  0.654314  0.241834  1
  Sm  Sm5  1  0.654314  0.345686  0.758166  1
  Si  Si6  1  0.941612  0.058388  0.071880  1
  Si  Si7  1  0.058388  0.941612  0.928120  1
  Si  Si8  1  0.057543  0.942457  0.579057  1
  Si  Si9  1  0.942457  0.057543  0.420943  1
  Si  Si10  1  0.720883  0.279117  0.240426  1
  Si  Si11  1  0.279117  0.720883  0.759574  1
  Ag  Ag12  1  0.813462  0.186538  0.566560  1
  Ag  Ag13  1  0.186538  0.813462  0.433440  1
