# generated using pymatgen
data_Nd6Cd4Pt13
_symmetry_space_group_name_H-M   'P 1'
_cell_length_a   8.56242761
_cell_length_b   8.56242865
_cell_length_c   8.56242800
_cell_angle_alpha   109.47122146
_cell_angle_beta   109.47122393
_cell_angle_gamma   109.47121487
_symmetry_Int_Tables_number   1
_chemical_formula_structural   Nd6Cd4Pt13
_chemical_formula_sum   'Nd6 Cd4 Pt13'
_cell_volume   483.24673534
_cell_formula_units_Z   1
loop_
 _symmetry_equiv_pos_site_id
 _symmetry_equiv_pos_as_xyz
  1  'x, y, z'
loop_
 _atom_site_type_symbol
 _atom_site_label
 _atom_site_symmetry_multiplicity
 _atom_site_fract_x
 _atom_site_fract_y
 _atom_site_fract_z
 _atom_site_occupancy
  Nd  Nd0  1  0.298835  0.000000  0.298835  1
  Nd  Nd1  1  0.701165  0.000000  0.701165  1
  Nd  Nd2  1  0.298835  0.298835  0.000000  1
  Nd  Nd3  1  0.701165  0.701165  0.000000  1
  Nd  Nd4  1  0.000000  0.298835  0.298835  1
  Nd  Nd5  1  0.000000  0.701165  0.701165  1
  Cd  Cd6  1  0.500000  0.000000  0.000000  1
  Cd  Cd7  1  0.000000  0.000000  0.500000  1
  Cd  Cd8  1  0.000000  0.500000  0.000000  1
  Cd  Cd9  1  0.500000  0.500000  0.500000  1
  Pt  Pt10  1  0.000000  0.000000  0.000000  1
  Pt  Pt11  1  0.341779  0.000000  0.658221  1
  Pt  Pt12  1  0.658221  0.000000  0.341779  1
  Pt  Pt13  1  0.341779  0.683557  0.341779  1
  Pt  Pt14  1  0.658221  0.316443  0.658221  1
  Pt  Pt15  1  0.658221  0.341779  0.000000  1
  Pt  Pt16  1  0.341779  0.658221  0.000000  1
  Pt  Pt17  1  0.341779  0.341779  0.683557  1
  Pt  Pt18  1  0.658221  0.658221  0.316443  1
  Pt  Pt19  1  0.000000  0.658221  0.341779  1
  Pt  Pt20  1  0.000000  0.341779  0.658221  1
  Pt  Pt21  1  0.683557  0.341779  0.341779  1
  Pt  Pt22  1  0.316443  0.658221  0.658221  1
