# generated using pymatgen
data_NbHg4Sb3O14
_symmetry_space_group_name_H-M   'P 1'
_cell_length_a   7.45054454
_cell_length_b   7.45054430
_cell_length_c   7.52157290
_cell_angle_alpha   60.31189394
_cell_angle_beta   60.31189608
_cell_angle_gamma   60.00000055
_symmetry_Int_Tables_number   1
_chemical_formula_structural   NbHg4Sb3O14
_chemical_formula_sum   'Nb1 Hg4 Sb3 O14'
_cell_volume   296.62043967
_cell_formula_units_Z   1
loop_
 _symmetry_equiv_pos_site_id
 _symmetry_equiv_pos_as_xyz
  1  'x, y, z'
loop_
 _atom_site_type_symbol
 _atom_site_label
 _atom_site_symmetry_multiplicity
 _atom_site_fract_x
 _atom_site_fract_y
 _atom_site_fract_z
 _atom_site_occupancy
  Nb  Nb0  1  0.625000  0.625000  0.125000  1
  Hg  Hg1  1  0.125000  0.125000  0.625000  1
  Hg  Hg2  1  0.125000  0.625000  0.125000  1
  Hg  Hg3  1  0.625000  0.125000  0.125000  1
  Hg  Hg4  1  0.125000  0.125000  0.125000  1
  Sb  Sb5  1  0.625000  0.125000  0.625000  1
  Sb  Sb6  1  0.125000  0.625000  0.625000  1
  Sb  Sb7  1  0.625000  0.625000  0.625000  1
  O  O8  1  0.252145  0.252145  0.243564  1
  O  O9  1  0.997855  0.997855  0.006436  1
  O  O10  1  0.552310  0.946903  0.553885  1
  O  O11  1  0.308374  0.689607  0.312413  1
  O  O12  1  0.560393  0.560393  0.937587  1
  O  O13  1  0.946903  0.552310  0.553885  1
  O  O14  1  0.560393  0.941626  0.937587  1
  O  O15  1  0.946903  0.946903  0.553885  1
  O  O16  1  0.941626  0.560393  0.937587  1
  O  O17  1  0.689607  0.308374  0.312413  1
  O  O18  1  0.303097  0.697690  0.696115  1
  O  O19  1  0.697690  0.303097  0.696115  1
  O  O20  1  0.303097  0.303097  0.696115  1
  O  O21  1  0.689607  0.689607  0.312413  1
