# generated using pymatgen
data_FeSb6(SO8)2
_symmetry_space_group_name_H-M   'P 1'
_cell_length_a   5.71184615
_cell_length_b   7.84617583
_cell_length_c   9.46373752
_cell_angle_alpha   96.63005168
_cell_angle_beta   93.65084443
_cell_angle_gamma   109.24533024
_symmetry_Int_Tables_number   1
_chemical_formula_structural   FeSb6(SO8)2
_chemical_formula_sum   'Fe1 Sb6 S2 O16'
_cell_volume   395.40106921
_cell_formula_units_Z   1
loop_
 _symmetry_equiv_pos_site_id
 _symmetry_equiv_pos_as_xyz
  1  'x, y, z'
loop_
 _atom_site_type_symbol
 _atom_site_label
 _atom_site_symmetry_multiplicity
 _atom_site_fract_x
 _atom_site_fract_y
 _atom_site_fract_z
 _atom_site_occupancy
  Fe  Fe0  1  0.000000  0.500000  0.500000  1
  Sb  Sb1  1  0.693164  0.521182  0.780784  1
  Sb  Sb2  1  0.306836  0.478818  0.219216  1
  Sb  Sb3  1  0.643931  0.832166  0.517623  1
  Sb  Sb4  1  0.356069  0.167834  0.482377  1
  Sb  Sb5  1  0.328801  0.856928  0.801294  1
  Sb  Sb6  1  0.671199  0.143072  0.198706  1
  S  S7  1  0.137629  0.216722  0.856475  1
  S  S8  1  0.862371  0.783278  0.143525  1
  O  O9  1  0.027924  0.660168  0.692161  1
  O  O10  1  0.972076  0.339832  0.307839  1
  O  O11  1  0.545405  0.699305  0.702297  1
  O  O12  1  0.454595  0.300695  0.297703  1
  O  O13  1  0.066534  0.022902  0.777508  1
  O  O14  1  0.933466  0.977098  0.222492  1
  O  O15  1  0.667036  0.371034  0.581127  1
  O  O16  1  0.332964  0.628966  0.418873  1
  O  O17  1  0.327574  0.241763  0.978570  1
  O  O18  1  0.672426  0.758237  0.021430  1
  O  O19  1  0.443259  0.969167  0.622639  1
  O  O20  1  0.556741  0.030833  0.377361  1
  O  O21  1  0.253385  0.343511  0.750296  1
  O  O22  1  0.746615  0.656489  0.249704  1
  O  O23  1  0.912255  0.249027  0.900187  1
  O  O24  1  0.087745  0.750973  0.099813  1
