# generated using pymatgen
data_Ti4NbSiSn3
_symmetry_space_group_name_H-M   'P 1'
_cell_length_a   8.25778000
_cell_length_b   8.25777891
_cell_length_c   5.54889300
_cell_angle_alpha   90.00000000
_cell_angle_beta   90.00000000
_cell_angle_gamma   120.00000437
_symmetry_Int_Tables_number   1
_chemical_formula_structural   Ti4NbSiSn3
_chemical_formula_sum   'Ti8 Nb2 Si2 Sn6'
_cell_volume   327.69025205
_cell_formula_units_Z   2
loop_
 _symmetry_equiv_pos_site_id
 _symmetry_equiv_pos_as_xyz
  1  'x, y, z'
loop_
 _atom_site_type_symbol
 _atom_site_label
 _atom_site_symmetry_multiplicity
 _atom_site_fract_x
 _atom_site_fract_y
 _atom_site_fract_z
 _atom_site_occupancy
  Ti  Ti0  1  0.333333  0.666667  0.500000  1
  Ti  Ti1  1  0.666667  0.333333  0.500000  1
  Ti  Ti2  1  0.741278  0.741278  0.749331  1
  Ti  Ti3  1  0.258722  0.000000  0.749331  1
  Ti  Ti4  1  0.000000  0.258722  0.749331  1
  Ti  Ti5  1  0.258722  0.258722  0.250669  1
  Ti  Ti6  1  0.741278  0.000000  0.250669  1
  Ti  Ti7  1  0.000000  0.741278  0.250669  1
  Nb  Nb8  1  0.666667  0.333333  0.000000  1
  Nb  Nb9  1  0.333333  0.666667  0.000000  1
  Si  Si10  1  0.000000  0.000000  0.000000  1
  Si  Si11  1  0.000000  0.000000  0.500000  1
  Sn  Sn12  1  0.393068  0.393068  0.747715  1
  Sn  Sn13  1  0.606932  0.000000  0.747715  1
  Sn  Sn14  1  0.000000  0.606932  0.747715  1
  Sn  Sn15  1  0.606932  0.606932  0.252285  1
  Sn  Sn16  1  0.393068  0.000000  0.252285  1
  Sn  Sn17  1  0.000000  0.393068  0.252285  1
