# generated using pymatgen
data_Dy9Tm3(GaCo2)2
_symmetry_space_group_name_H-M   'P 1'
_cell_length_a   8.26281188
_cell_length_b   8.26302858
_cell_length_c   8.26309879
_cell_angle_alpha   112.01333564
_cell_angle_beta   109.34092287
_cell_angle_gamma   107.08145272
_symmetry_Int_Tables_number   1
_chemical_formula_structural   Dy9Tm3(GaCo2)2
_chemical_formula_sum   'Dy9 Tm3 Ga2 Co4'
_cell_volume   433.57451227
_cell_formula_units_Z   1
loop_
 _symmetry_equiv_pos_site_id
 _symmetry_equiv_pos_as_xyz
  1  'x, y, z'
loop_
 _atom_site_type_symbol
 _atom_site_label
 _atom_site_symmetry_multiplicity
 _atom_site_fract_x
 _atom_site_fract_y
 _atom_site_fract_z
 _atom_site_occupancy
  Dy  Dy0  1  0.673137  0.485869  0.812602  1
  Dy  Dy1  1  0.563818  0.261941  0.301280  1
  Dy  Dy2  1  0.960707  0.261956  0.698165  1
  Dy  Dy3  1  0.435426  0.738576  0.697707  1
  Dy  Dy4  1  0.040896  0.738601  0.303113  1
  Dy  Dy5  1  0.180213  0.219000  0.399672  1
  Dy  Dy6  1  0.819195  0.781084  0.599364  1
  Dy  Dy7  1  0.819399  0.218937  0.038796  1
  Dy  Dy8  1  0.181682  0.781108  0.961856  1
  Tm  Tm9  1  0.326818  0.512617  0.185890  1
  Tm  Tm10  1  0.326135  0.140059  0.813847  1
  Tm  Tm11  1  0.673151  0.860281  0.187135  1
  Ga  Ga12  1  0.499671  0.999276  0.499601  1
  Ga  Ga13  1  0.999986  0.499914  0.499935  1
  Co  Co14  1  0.660849  0.499887  0.161737  1
  Co  Co15  1  0.338143  0.499903  0.839084  1
  Co  Co16  1  0.115747  0.115591  0.999983  1
  Co  Co17  1  0.885025  0.885398  0.000230  1
