# generated using pymatgen
data_Er10Ga3ReBi2
_symmetry_space_group_name_H-M   'P 1'
_cell_length_a   8.68767924
_cell_length_b   8.78697059
_cell_length_c   7.94712200
_cell_angle_alpha   62.31345810
_cell_angle_beta   63.58859656
_cell_angle_gamma   54.09793884
_symmetry_Int_Tables_number   1
_chemical_formula_structural   Er10Ga3ReBi2
_chemical_formula_sum   'Er10 Ga3 Re1 Bi2'
_cell_volume   422.40083763
_cell_formula_units_Z   1
loop_
 _symmetry_equiv_pos_site_id
 _symmetry_equiv_pos_as_xyz
  1  'x, y, z'
loop_
 _atom_site_type_symbol
 _atom_site_label
 _atom_site_symmetry_multiplicity
 _atom_site_fract_x
 _atom_site_fract_y
 _atom_site_fract_z
 _atom_site_occupancy
  Er  Er0  1  0.796507  0.479310  0.520690  1
  Er  Er1  1  0.462791  0.805685  0.194315  1
  Er  Er2  1  0.297804  0.984123  0.714076  1
  Er  Er3  1  0.996003  0.285924  0.015877  1
  Er  Er4  1  0.194315  0.537209  0.462791  1
  Er  Er5  1  0.520690  0.203493  0.796507  1
  Er  Er6  1  0.714076  0.003997  0.297804  1
  Er  Er7  1  0.015877  0.702196  0.996003  1
  Er  Er8  1  0.488392  0.511608  0.005365  1
  Er  Er9  1  0.005365  0.994635  0.488392  1
  Ga  Ga10  1  0.866420  0.133580  0.866420  1
  Ga  Ga11  1  0.643264  0.356736  0.362527  1
  Ga  Ga12  1  0.362527  0.637473  0.643264  1
  Re  Re13  1  0.125707  0.874293  0.125707  1
  Bi  Bi14  1  0.755130  0.744870  0.755130  1
  Bi  Bi15  1  0.255130  0.244870  0.255130  1
