# generated using pymatgen
data_Nb3Fe6Si2Tc
_symmetry_space_group_name_H-M   'P 1'
_cell_length_a   4.80462707
_cell_length_b   4.80559712
_cell_length_c   7.81773801
_cell_angle_alpha   90.00357272
_cell_angle_beta   89.99885756
_cell_angle_gamma   119.99212088
_symmetry_Int_Tables_number   1
_chemical_formula_structural   Nb3Fe6Si2Tc
_chemical_formula_sum   'Nb3 Fe6 Si2 Tc1'
_cell_volume   156.33393553
_cell_formula_units_Z   1
loop_
 _symmetry_equiv_pos_site_id
 _symmetry_equiv_pos_as_xyz
  1  'x, y, z'
loop_
 _atom_site_type_symbol
 _atom_site_label
 _atom_site_symmetry_multiplicity
 _atom_site_fract_x
 _atom_site_fract_y
 _atom_site_fract_z
 _atom_site_occupancy
  Nb  Nb0  1  0.333418  0.666738  0.450998  1
  Nb  Nb1  1  0.333334  0.666628  0.071364  1
  Nb  Nb2  1  0.666661  0.333355  0.920140  1
  Fe  Fe3  1  0.170326  0.340674  0.751492  1
  Fe  Fe4  1  0.170398  0.829648  0.751511  1
  Fe  Fe5  1  0.659507  0.829775  0.751516  1
  Fe  Fe6  1  0.829012  0.658028  0.249938  1
  Fe  Fe7  1  0.829062  0.170927  0.249902  1
  Fe  Fe8  1  0.342033  0.171039  0.249940  1
  Si  Si9  1  0.999805  0.999999  0.501847  1
  Si  Si10  1  0.999824  0.999959  0.001027  1
  Tc  Tc11  1  0.666619  0.333230  0.550325  1
