# generated using pymatgen
data_Lu6Si24OsRu7
_symmetry_space_group_name_H-M   'P 1'
_cell_length_a   10.08339072
_cell_length_b   10.08339228
_cell_length_c   8.08279900
_cell_angle_alpha   89.99486154
_cell_angle_beta   89.99486398
_cell_angle_gamma   132.71461103
_symmetry_Int_Tables_number   1
_chemical_formula_structural   Lu6Si24OsRu7
_chemical_formula_sum   'Lu6 Si24 Os1 Ru7'
_cell_volume   603.82303467
_cell_formula_units_Z   1
loop_
 _symmetry_equiv_pos_site_id
 _symmetry_equiv_pos_as_xyz
  1  'x, y, z'
loop_
 _atom_site_type_symbol
 _atom_site_label
 _atom_site_symmetry_multiplicity
 _atom_site_fract_x
 _atom_site_fract_y
 _atom_site_fract_z
 _atom_site_occupancy
  Lu  Lu0  1  0.500034  0.499966  0.500000  1
  Lu  Lu1  1  0.000015  0.999985  0.000000  1
  Lu  Lu2  1  0.502549  0.002727  0.750205  1
  Lu  Lu3  1  0.997273  0.497451  0.249795  1
  Lu  Lu4  1  0.497587  0.997403  0.249741  1
  Lu  Lu5  1  0.002597  0.502413  0.750259  1
  Si  Si6  1  0.795889  0.204111  0.500000  1
  Si  Si7  1  0.295108  0.704892  0.000000  1
  Si  Si8  1  0.204849  0.795151  0.500000  1
  Si  Si9  1  0.704954  0.295046  0.000000  1
  Si  Si10  1  0.332154  0.332294  0.833298  1
  Si  Si11  1  0.667706  0.667846  0.166702  1
  Si  Si12  1  0.167299  0.167054  0.332501  1
  Si  Si13  1  0.832946  0.832701  0.667499  1
  Si  Si14  1  0.122080  0.887928  0.729096  1
  Si  Si15  1  0.112072  0.877920  0.270904  1
  Si  Si16  1  0.612259  0.378180  0.227264  1
  Si  Si17  1  0.621820  0.387741  0.772736  1
  Si  Si18  1  0.877257  0.111225  0.270470  1
  Si  Si19  1  0.888775  0.122743  0.729530  1
  Si  Si20  1  0.387684  0.622236  0.771594  1
  Si  Si21  1  0.377764  0.612316  0.228406  1
  Si  Si22  1  0.344360  0.111024  0.505415  1
  Si  Si23  1  0.888976  0.655640  0.494585  1
  Si  Si24  1  0.387558  0.153883  0.004907  1
  Si  Si25  1  0.846117  0.612442  0.995093  1
  Si  Si26  1  0.653713  0.887468  0.493701  1
  Si  Si27  1  0.112532  0.346287  0.506299  1
  Si  Si28  1  0.612232  0.845876  0.994974  1
  Si  Si29  1  0.154124  0.387768  0.005026  1
  Os  Os30  1  0.670167  0.329833  0.500000  1
  Ru  Ru31  1  0.170131  0.829869  0.000000  1
  Ru  Ru32  1  0.329794  0.670206  0.500000  1
  Ru  Ru33  1  0.829841  0.170159  0.000000  1
  Ru  Ru34  1  0.127652  0.127961  0.627587  1
  Ru  Ru35  1  0.872039  0.872348  0.372413  1
  Ru  Ru36  1  0.373344  0.373253  0.128273  1
  Ru  Ru37  1  0.626747  0.626656  0.871727  1
