# generated using pymatgen
data_Ta24Si7P
_symmetry_space_group_name_H-M   'P 1'
_cell_length_a   10.23384915
_cell_length_b   10.20137499
_cell_length_c   5.20350307
_cell_angle_alpha   89.96543537
_cell_angle_beta   89.93517366
_cell_angle_gamma   90.03655713
_symmetry_Int_Tables_number   1
_chemical_formula_structural   Ta24Si7P
_chemical_formula_sum   'Ta24 Si7 P1'
_cell_volume   543.24169130
_cell_formula_units_Z   1
loop_
 _symmetry_equiv_pos_site_id
 _symmetry_equiv_pos_as_xyz
  1  'x, y, z'
loop_
 _atom_site_type_symbol
 _atom_site_label
 _atom_site_symmetry_multiplicity
 _atom_site_fract_x
 _atom_site_fract_y
 _atom_site_fract_z
 _atom_site_occupancy
  Ta  Ta0  1  0.517783  0.646374  0.273424  1
  Ta  Ta1  1  0.399632  0.085856  0.029795  1
  Ta  Ta2  1  0.713410  0.811790  0.512088  1
  Ta  Ta3  1  0.899937  0.587274  0.470894  1
  Ta  Ta4  1  0.855116  0.014457  0.772998  1
  Ta  Ta5  1  0.017942  0.145707  0.226601  1
  Ta  Ta6  1  0.787859  0.689306  0.984911  1
  Ta  Ta7  1  0.286592  0.187473  0.514040  1
  Ta  Ta8  1  0.688189  0.213234  0.013271  1
  Ta  Ta9  1  0.413660  0.899506  0.530315  1
  Ta  Ta10  1  0.812429  0.286767  0.486969  1
  Ta  Ta11  1  0.353800  0.518551  0.726464  1
  Ta  Ta12  1  0.646455  0.482390  0.726428  1
  Ta  Ta13  1  0.144202  0.979276  0.772511  1
  Ta  Ta14  1  0.213131  0.312319  0.986199  1
  Ta  Ta15  1  0.914545  0.400310  0.970359  1
  Ta  Ta16  1  0.313141  0.786656  0.015122  1
  Ta  Ta17  1  0.600061  0.914355  0.029668  1
  Ta  Ta18  1  0.085713  0.602152  0.969532  1
  Ta  Ta19  1  0.099391  0.414488  0.470146  1
  Ta  Ta20  1  0.982373  0.853526  0.227468  1
  Ta  Ta21  1  0.186196  0.713910  0.487800  1
  Ta  Ta22  1  0.482078  0.354303  0.273613  1
  Ta  Ta23  1  0.586275  0.099944  0.529964  1
  Si  Si24  1  0.205185  0.971039  0.278752  1
  Si  Si25  1  0.794926  0.029127  0.278883  1
  Si  Si26  1  0.470850  0.294982  0.779559  1
  Si  Si27  1  0.294234  0.529789  0.220511  1
  Si  Si28  1  0.029079  0.204765  0.720904  1
  Si  Si29  1  0.705588  0.471495  0.220558  1
  Si  Si30  1  0.529593  0.705181  0.779546  1
  P  P31  1  0.970632  0.793700  0.720706  1
