# generated using pymatgen
data_Sr4TcW3O16
_symmetry_space_group_name_H-M   'P 1'
_cell_length_a   5.10851284
_cell_length_b   5.63291290
_cell_length_c   13.05226000
_cell_angle_alpha   90.00000000
_cell_angle_beta   90.00000000
_cell_angle_gamma   90.01876854
_symmetry_Int_Tables_number   1
_chemical_formula_structural   Sr4TcW3O16
_chemical_formula_sum   'Sr4 Tc1 W3 O16'
_cell_volume   375.58930580
_cell_formula_units_Z   1
loop_
 _symmetry_equiv_pos_site_id
 _symmetry_equiv_pos_as_xyz
  1  'x, y, z'
loop_
 _atom_site_type_symbol
 _atom_site_label
 _atom_site_symmetry_multiplicity
 _atom_site_fract_x
 _atom_site_fract_y
 _atom_site_fract_z
 _atom_site_occupancy
  Sr  Sr0  1  0.750000  0.000000  0.656676  1
  Sr  Sr1  1  0.250000  0.500000  0.846158  1
  Sr  Sr2  1  0.250000  0.000000  0.343009  1
  Sr  Sr3  1  0.750000  0.500000  0.154483  1
  Tc  Tc4  1  0.750000  0.000000  0.920464  1
  W  W5  1  0.750000  0.500000  0.423633  1
  W  W6  1  0.250000  0.000000  0.076589  1
  W  W7  1  0.250000  0.500000  0.577850  1
  O  O8  1  0.124672  0.290330  0.674108  1
  O  O9  1  0.635067  0.214397  0.826979  1
  O  O10  1  0.864933  0.785603  0.826979  1
  O  O11  1  0.375328  0.709670  0.674108  1
  O  O12  1  0.879831  0.707636  0.328158  1
  O  O13  1  0.384628  0.794896  0.172459  1
  O  O14  1  0.115372  0.205104  0.172459  1
  O  O15  1  0.620169  0.292364  0.328158  1
  O  O16  1  0.556732  0.310072  0.543991  1
  O  O17  1  0.045505  0.188592  0.957158  1
  O  O18  1  0.454495  0.811408  0.957158  1
  O  O19  1  0.943268  0.689928  0.543991  1
  O  O20  1  0.443768  0.690904  0.458323  1
  O  O21  1  0.954696  0.802756  0.039394  1
  O  O22  1  0.545304  0.197244  0.039394  1
  O  O23  1  0.056232  0.309096  0.458323  1
