# generated using pymatgen
data_Th2Ga4CuNi
_symmetry_space_group_name_H-M   'P 1'
_cell_length_a   8.87258198
_cell_length_b   8.87258297
_cell_length_c   4.21502600
_cell_angle_alpha   90.00000000
_cell_angle_beta   90.00000000
_cell_angle_gamma   152.23836448
_symmetry_Int_Tables_number   1
_chemical_formula_structural   Th2Ga4CuNi
_chemical_formula_sum   'Th2 Ga4 Cu1 Ni1'
_cell_volume   154.55905540
_cell_formula_units_Z   1
loop_
 _symmetry_equiv_pos_site_id
 _symmetry_equiv_pos_as_xyz
  1  'x, y, z'
loop_
 _atom_site_type_symbol
 _atom_site_label
 _atom_site_symmetry_multiplicity
 _atom_site_fract_x
 _atom_site_fract_y
 _atom_site_fract_z
 _atom_site_occupancy
  Th  Th0  1  0.608730  0.391270  0.250000  1
  Th  Th1  1  0.391012  0.608988  0.750000  1
  Ga  Ga2  1  0.962371  0.037629  0.250000  1
  Ga  Ga3  1  0.039952  0.960048  0.750000  1
  Ga  Ga4  1  0.249623  0.750377  0.250000  1
  Ga  Ga5  1  0.746989  0.253011  0.750000  1
  Cu  Cu6  1  0.824377  0.175623  0.250000  1
  Ni  Ni7  1  0.176946  0.823054  0.750000  1
