# generated using pymatgen
data_CsSm(ReH9)2
_symmetry_space_group_name_H-M   'P 1'
_cell_length_a   5.35350957
_cell_length_b   5.35363528
_cell_length_c   9.73403163
_cell_angle_alpha   93.35538457
_cell_angle_beta   86.63849419
_cell_angle_gamma   125.33348001
_symmetry_Int_Tables_number   1
_chemical_formula_structural   CsSm(ReH9)2
_chemical_formula_sum   'Cs1 Sm1 Re2 H18'
_cell_volume   227.10009919
_cell_formula_units_Z   1
loop_
 _symmetry_equiv_pos_site_id
 _symmetry_equiv_pos_as_xyz
  1  'x, y, z'
loop_
 _atom_site_type_symbol
 _atom_site_label
 _atom_site_symmetry_multiplicity
 _atom_site_fract_x
 _atom_site_fract_y
 _atom_site_fract_z
 _atom_site_occupancy
  Cs  Cs0  1  0.000000  0.000000  0.000000  1
  Sm  Sm1  1  0.000000  0.000000  0.500000  1
  Re  Re2  1  0.335256  0.664437  0.698361  1
  Re  Re3  1  0.664744  0.335563  0.301639  1
  H  H4  1  0.389338  0.610506  0.526161  1
  H  H5  1  0.610662  0.389494  0.473839  1
  H  H6  1  0.410192  0.589598  0.847806  1
  H  H7  1  0.589808  0.410402  0.152194  1
  H  H8  1  0.466237  0.956356  0.815271  1
  H  H9  1  0.956631  0.466482  0.184703  1
  H  H10  1  0.587989  0.012760  0.632368  1
  H  H11  1  0.012963  0.588204  0.367646  1
  H  H12  1  0.533763  0.043644  0.184729  1
  H  H13  1  0.043369  0.533518  0.815297  1
  H  H14  1  0.412011  0.987240  0.367632  1
  H  H15  1  0.987037  0.411796  0.632354  1
  H  H16  1  0.691218  0.730642  0.696515  1
  H  H17  1  0.730875  0.691468  0.303463  1
  H  H18  1  0.308782  0.269358  0.303485  1
  H  H19  1  0.269125  0.308532  0.696537  1
  H  H20  1  0.158120  0.841787  0.675225  1
  H  H21  1  0.841880  0.158213  0.324775  1
