# generated using pymatgen
data_Mn2AlB2Rh5
_symmetry_space_group_name_H-M   'P 1'
_cell_length_a   9.32554800
_cell_length_b   9.32554800
_cell_length_c   2.92928500
_cell_angle_alpha   90.00000000
_cell_angle_beta   90.00000000
_cell_angle_gamma   90.00000000
_symmetry_Int_Tables_number   1
_chemical_formula_structural   Mn2AlB2Rh5
_chemical_formula_sum   'Mn4 Al2 B4 Rh10'
_cell_volume   254.74774674
_cell_formula_units_Z   2
loop_
 _symmetry_equiv_pos_site_id
 _symmetry_equiv_pos_as_xyz
  1  'x, y, z'
loop_
 _atom_site_type_symbol
 _atom_site_label
 _atom_site_symmetry_multiplicity
 _atom_site_fract_x
 _atom_site_fract_y
 _atom_site_fract_z
 _atom_site_occupancy
  Mn  Mn0  1  0.823222  0.323222  0.000000  1
  Mn  Mn1  1  0.323222  0.176778  0.000000  1
  Mn  Mn2  1  0.676778  0.823222  0.000000  1
  Mn  Mn3  1  0.176778  0.676778  0.000000  1
  Al  Al4  1  0.000000  0.000000  0.000000  1
  Al  Al5  1  0.500000  0.500000  0.000000  1
  B  B6  1  0.626743  0.126743  0.000000  1
  B  B7  1  0.126743  0.373257  0.000000  1
  B  B8  1  0.873257  0.626743  0.000000  1
  B  B9  1  0.373257  0.873257  0.000000  1
  Rh  Rh10  1  0.070911  0.214187  0.500000  1
  Rh  Rh11  1  0.214187  0.929089  0.500000  1
  Rh  Rh12  1  0.785813  0.070911  0.500000  1
  Rh  Rh13  1  0.929089  0.785813  0.500000  1
  Rh  Rh14  1  0.429089  0.714187  0.500000  1
  Rh  Rh15  1  0.570911  0.285813  0.500000  1
  Rh  Rh16  1  0.714187  0.570911  0.500000  1
  Rh  Rh17  1  0.285813  0.429089  0.500000  1
  Rh  Rh18  1  0.500000  0.000000  0.500000  1
  Rh  Rh19  1  0.000000  0.500000  0.500000  1
