# generated using pymatgen
data_LaGd4(FeB3)2
_symmetry_space_group_name_H-M   'P 1'
_cell_length_a   5.44244926
_cell_length_b   5.44244888
_cell_length_c   8.35255144
_cell_angle_alpha   70.98621646
_cell_angle_beta   70.98621746
_cell_angle_gamma   59.99999917
_symmetry_Int_Tables_number   1
_chemical_formula_structural   LaGd4(FeB3)2
_chemical_formula_sum   'La1 Gd4 Fe2 B6'
_cell_volume   198.51927951
_cell_formula_units_Z   1
loop_
 _symmetry_equiv_pos_site_id
 _symmetry_equiv_pos_as_xyz
  1  'x, y, z'
loop_
 _atom_site_type_symbol
 _atom_site_label
 _atom_site_symmetry_multiplicity
 _atom_site_fract_x
 _atom_site_fract_y
 _atom_site_fract_z
 _atom_site_occupancy
  La  La0  1  0.000000  0.000000  0.000000  1
  Gd  Gd1  1  0.749225  0.749225  0.752325  1
  Gd  Gd2  1  0.250775  0.250775  0.247675  1
  Gd  Gd3  1  0.583219  0.583219  0.250343  1
  Gd  Gd4  1  0.416781  0.416781  0.749657  1
  Fe  Fe5  1  0.884212  0.884212  0.347362  1
  Fe  Fe6  1  0.115788  0.115788  0.652638  1
  B  B7  1  0.500000  0.167150  0.500000  1
  B  B8  1  0.832850  0.500000  0.500000  1
  B  B9  1  0.167150  0.832850  0.500000  1
  B  B10  1  0.167150  0.500000  0.500000  1
  B  B11  1  0.832850  0.167150  0.500000  1
  B  B12  1  0.500000  0.832850  0.500000  1
