# generated using pymatgen
data_Ac2ZnSn4
_symmetry_space_group_name_H-M   'P 1'
_cell_length_a   4.67105600
_cell_length_b   4.74847697
_cell_length_c   9.78238437
_cell_angle_alpha   75.95371932
_cell_angle_beta   90.00000000
_cell_angle_gamma   90.00000000
_symmetry_Int_Tables_number   1
_chemical_formula_structural   Ac2ZnSn4
_chemical_formula_sum   'Ac2 Zn1 Sn4'
_cell_volume   210.48959711
_cell_formula_units_Z   1
loop_
 _symmetry_equiv_pos_site_id
 _symmetry_equiv_pos_as_xyz
  1  'x, y, z'
loop_
 _atom_site_type_symbol
 _atom_site_label
 _atom_site_symmetry_multiplicity
 _atom_site_fract_x
 _atom_site_fract_y
 _atom_site_fract_z
 _atom_site_occupancy
  Ac  Ac0  1  0.250000  0.895779  0.208443  1
  Ac  Ac1  1  0.750000  0.103970  0.792059  1
  Zn  Zn2  1  0.250000  0.677222  0.645558  1
  Sn  Sn3  1  0.250000  0.256524  0.486952  1
  Sn  Sn4  1  0.750000  0.756757  0.486485  1
  Sn  Sn5  1  0.250000  0.538061  0.923878  1
  Sn  Sn6  1  0.750000  0.444687  0.110625  1
