# generated using pymatgen
data_La6HgOsI6
_symmetry_space_group_name_H-M   'P 1'
_cell_length_a   11.34175855
_cell_length_b   11.34175886
_cell_length_c   11.03185893
_cell_angle_alpha   109.31792458
_cell_angle_beta   109.31792813
_cell_angle_gamma   110.88286073
_symmetry_Int_Tables_number   1
_chemical_formula_structural   La6HgOsI6
_chemical_formula_sum   'La12 Hg2 Os2 I12'
_cell_volume   1077.05845327
_cell_formula_units_Z   2
loop_
 _symmetry_equiv_pos_site_id
 _symmetry_equiv_pos_as_xyz
  1  'x, y, z'
loop_
 _atom_site_type_symbol
 _atom_site_label
 _atom_site_symmetry_multiplicity
 _atom_site_fract_x
 _atom_site_fract_y
 _atom_site_fract_z
 _atom_site_occupancy
  La  La0  1  0.462573  0.492827  0.222606  1
  La  La1  1  0.770221  0.239968  0.277394  1
  La  La2  1  0.777622  0.035408  0.494600  1
  La  La3  1  0.216978  0.459191  0.494600  1
  La  La4  1  0.260032  0.729779  0.222606  1
  La  La5  1  0.040809  0.283022  0.005400  1
  La  La6  1  0.007173  0.037427  0.277394  1
  La  La7  1  0.464592  0.722378  0.005400  1
  La  La8  1  0.489438  0.239438  0.478875  1
  La  La9  1  0.019091  0.480909  0.750000  1
  La  La10  1  0.260562  0.010562  0.021125  1
  La  La11  1  0.230909  0.269091  0.750000  1
  Hg  Hg12  1  0.249682  0.250318  0.250000  1
  Hg  Hg13  1  0.500318  0.999682  0.250000  1
  Os  Os14  1  0.001677  0.251677  0.503353  1
  Os  Os15  1  0.248323  0.498323  0.996647  1
  I  I16  1  0.252094  0.760542  0.743621  1
  I  I17  1  0.516921  0.508473  0.756379  1
  I  I18  1  0.989542  0.745055  0.996491  1
  I  I19  1  0.739458  0.247906  0.756379  1
  I  I20  1  0.991527  0.983079  0.743621  1
  I  I21  1  0.248565  0.993052  0.503509  1
  I  I22  1  0.754945  0.510458  0.503509  1
  I  I23  1  0.506948  0.251435  0.996491  1
  I  I24  1  0.757755  0.742245  0.250000  1
  I  I25  1  0.744248  0.994248  0.988497  1
  I  I26  1  0.992245  0.507755  0.250000  1
  I  I27  1  0.505752  0.755752  0.511503  1
