# generated using pymatgen
data_La5CoSiGe
_symmetry_space_group_name_H-M   'P 1'
_cell_length_a   8.00389200
_cell_length_b   8.82014600
_cell_length_c   12.32432600
_cell_angle_alpha   90.00000000
_cell_angle_beta   90.00000000
_cell_angle_gamma   90.00000000
_symmetry_Int_Tables_number   1
_chemical_formula_structural   La5CoSiGe
_chemical_formula_sum   'La20 Co4 Si4 Ge4'
_cell_volume   870.04190694
_cell_formula_units_Z   4
loop_
 _symmetry_equiv_pos_site_id
 _symmetry_equiv_pos_as_xyz
  1  'x, y, z'
loop_
 _atom_site_type_symbol
 _atom_site_label
 _atom_site_symmetry_multiplicity
 _atom_site_fract_x
 _atom_site_fract_y
 _atom_site_fract_z
 _atom_site_occupancy
  La  La0  1  0.160288  0.752715  0.211982  1
  La  La1  1  0.660288  0.247285  0.288018  1
  La  La2  1  0.839712  0.252715  0.788018  1
  La  La3  1  0.339712  0.747285  0.711982  1
  La  La4  1  0.454165  0.749943  0.997973  1
  La  La5  1  0.954165  0.250057  0.502027  1
  La  La6  1  0.545835  0.249943  0.002027  1
  La  La7  1  0.045835  0.750057  0.497973  1
  La  La8  1  0.638851  0.752170  0.295593  1
  La  La9  1  0.138851  0.247830  0.204407  1
  La  La10  1  0.361149  0.252170  0.704407  1
  La  La11  1  0.861149  0.747830  0.795593  1
  La  La12  1  0.816287  0.969672  0.069350  1
  La  La13  1  0.316287  0.030328  0.430650  1
  La  La14  1  0.183713  0.469672  0.930650  1
  La  La15  1  0.683713  0.530328  0.569350  1
  La  La16  1  0.179984  0.031093  0.932120  1
  La  La17  1  0.679984  0.968907  0.567880  1
  La  La18  1  0.820016  0.531093  0.067880  1
  La  La19  1  0.320016  0.468907  0.432120  1
  Co  Co20  1  0.421572  0.750062  0.481425  1
  Co  Co21  1  0.921572  0.249938  0.018575  1
  Co  Co22  1  0.578428  0.250062  0.518575  1
  Co  Co23  1  0.078428  0.749938  0.981425  1
  Si  Si24  1  0.933245  0.995837  0.330343  1
  Si  Si25  1  0.433245  0.004163  0.169657  1
  Si  Si26  1  0.066755  0.495837  0.669657  1
  Si  Si27  1  0.566755  0.504163  0.830343  1
  Ge  Ge28  1  0.067860  0.004125  0.672458  1
  Ge  Ge29  1  0.567860  0.995875  0.827542  1
  Ge  Ge30  1  0.932140  0.504125  0.327542  1
  Ge  Ge31  1  0.432140  0.495875  0.172458  1
