# generated using pymatgen
data_Ho16Tl3InPdRh3
_symmetry_space_group_name_H-M   'P 1'
_cell_length_a   9.64456896
_cell_length_b   9.64662422
_cell_length_c   9.64456900
_cell_angle_alpha   60.00705085
_cell_angle_beta   60.00000328
_cell_angle_gamma   60.00705174
_symmetry_Int_Tables_number   1
_chemical_formula_structural   Ho16Tl3InPdRh3
_chemical_formula_sum   'Ho16 Tl3 In1 Pd1 Rh3'
_cell_volume   634.55942683
_cell_formula_units_Z   1
loop_
 _symmetry_equiv_pos_site_id
 _symmetry_equiv_pos_as_xyz
  1  'x, y, z'
loop_
 _atom_site_type_symbol
 _atom_site_label
 _atom_site_symmetry_multiplicity
 _atom_site_fract_x
 _atom_site_fract_y
 _atom_site_fract_z
 _atom_site_occupancy
  Ho  Ho0  1  0.188117  0.187906  0.811989  1
  Ho  Ho1  1  0.602776  0.595898  0.198550  1
  Ho  Ho2  1  0.438199  0.066257  0.438199  1
  Ho  Ho3  1  0.438399  0.437740  0.061930  1
  Ho  Ho4  1  0.811989  0.187906  0.811989  1
  Ho  Ho5  1  0.188374  0.809902  0.188374  1
  Ho  Ho6  1  0.438199  0.066257  0.057345  1
  Ho  Ho7  1  0.188374  0.809902  0.813350  1
  Ho  Ho8  1  0.061930  0.437740  0.061930  1
  Ho  Ho9  1  0.813350  0.809902  0.188374  1
  Ho  Ho10  1  0.198550  0.595898  0.602776  1
  Ho  Ho11  1  0.061930  0.437740  0.438399  1
  Ho  Ho12  1  0.057345  0.066257  0.438199  1
  Ho  Ho13  1  0.811989  0.187906  0.188117  1
  Ho  Ho14  1  0.599179  0.202464  0.599179  1
  Ho  Ho15  1  0.602776  0.595898  0.602776  1
  Tl  Tl16  1  0.835662  0.835008  0.835662  1
  Tl  Tl17  1  0.835662  0.835008  0.493669  1
  Tl  Tl18  1  0.493669  0.835008  0.835662  1
  In  In19  1  0.833924  0.498229  0.833924  1
  Pd  Pd20  1  0.393186  0.820440  0.393186  1
  Rh  Rh21  1  0.392525  0.393580  0.392525  1
  Rh  Rh22  1  0.821370  0.393580  0.392525  1
  Rh  Rh23  1  0.392525  0.393580  0.821370  1
