# generated using pymatgen
data_LaTh(Si2Pd)2
_symmetry_space_group_name_H-M   'P 1'
_cell_length_a   8.75972488
_cell_length_b   8.75972581
_cell_length_c   4.25639400
_cell_angle_alpha   90.00000000
_cell_angle_beta   90.00000000
_cell_angle_gamma   151.47932730
_symmetry_Int_Tables_number   1
_chemical_formula_structural   LaTh(Si2Pd)2
_chemical_formula_sum   'La1 Th1 Si4 Pd2'
_cell_volume   155.94597752
_cell_formula_units_Z   1
loop_
 _symmetry_equiv_pos_site_id
 _symmetry_equiv_pos_as_xyz
  1  'x, y, z'
loop_
 _atom_site_type_symbol
 _atom_site_label
 _atom_site_symmetry_multiplicity
 _atom_site_fract_x
 _atom_site_fract_y
 _atom_site_fract_z
 _atom_site_occupancy
  La  La0  1  0.603111  0.396889  0.250000  1
  Th  Th1  1  0.395527  0.604473  0.750000  1
  Si  Si2  1  0.964504  0.035496  0.250000  1
  Si  Si3  1  0.034117  0.965883  0.750000  1
  Si  Si4  1  0.251093  0.748907  0.250000  1
  Si  Si5  1  0.749701  0.250299  0.750000  1
  Pd  Pd6  1  0.822335  0.177665  0.250000  1
  Pd  Pd7  1  0.179612  0.820388  0.750000  1
