# generated using pymatgen
data_SrTh5Ir18
_symmetry_space_group_name_H-M   'P 1'
_cell_length_a   5.38835800
_cell_length_b   5.38835721
_cell_length_c   17.75247800
_cell_angle_alpha   90.00000000
_cell_angle_beta   90.00000000
_cell_angle_gamma   120.00000485
_symmetry_Int_Tables_number   1
_chemical_formula_structural   SrTh5Ir18
_chemical_formula_sum   'Sr1 Th5 Ir18'
_cell_volume   446.37762231
_cell_formula_units_Z   1
loop_
 _symmetry_equiv_pos_site_id
 _symmetry_equiv_pos_as_xyz
  1  'x, y, z'
loop_
 _atom_site_type_symbol
 _atom_site_label
 _atom_site_symmetry_multiplicity
 _atom_site_fract_x
 _atom_site_fract_y
 _atom_site_fract_z
 _atom_site_occupancy
  Sr  Sr0  1  0.333333  0.666667  0.538791  1
  Th  Th1  1  0.333333  0.666667  0.956322  1
  Th  Th2  1  0.666667  0.333333  0.042884  1
  Th  Th3  1  0.666667  0.333333  0.461008  1
  Th  Th4  1  0.333333  0.666667  0.743306  1
  Th  Th5  1  0.666667  0.333333  0.251873  1
  Ir  Ir6  1  0.166482  0.833518  0.372082  1
  Ir  Ir7  1  0.166482  0.332964  0.372082  1
  Ir  Ir8  1  0.667036  0.833518  0.372082  1
  Ir  Ir9  1  0.833564  0.166436  0.628949  1
  Ir  Ir10  1  0.833564  0.667126  0.628949  1
  Ir  Ir11  1  0.332874  0.166436  0.628949  1
  Ir  Ir12  1  0.832933  0.167067  0.872974  1
  Ir  Ir13  1  0.832933  0.665864  0.872974  1
  Ir  Ir14  1  0.334136  0.167067  0.872974  1
  Ir  Ir15  1  0.167182  0.832818  0.127093  1
  Ir  Ir16  1  0.167182  0.334366  0.127093  1
  Ir  Ir17  1  0.665634  0.832818  0.127093  1
  Ir  Ir18  1  0.333333  0.666667  0.249827  1
  Ir  Ir19  1  0.666667  0.333333  0.750670  1
  Ir  Ir20  1  0.000000  0.000000  0.249631  1
  Ir  Ir21  1  0.000000  0.000000  0.751044  1
  Ir  Ir22  1  0.000000  0.000000  0.501039  1
  Ir  Ir23  1  0.000000  0.000000  0.000311  1
