# generated using pymatgen
data_Dy3Zn4InPt4
_symmetry_space_group_name_H-M   'P 1'
_cell_length_a   4.18787200
_cell_length_b   6.87341193
_cell_length_c   8.06223469
_cell_angle_alpha   92.39378543
_cell_angle_beta   90.00000000
_cell_angle_gamma   90.00000000
_symmetry_Int_Tables_number   1
_chemical_formula_structural   Dy3Zn4InPt4
_chemical_formula_sum   'Dy3 Zn4 In1 Pt4'
_cell_volume   231.86866530
_cell_formula_units_Z   1
loop_
 _symmetry_equiv_pos_site_id
 _symmetry_equiv_pos_as_xyz
  1  'x, y, z'
loop_
 _atom_site_type_symbol
 _atom_site_label
 _atom_site_symmetry_multiplicity
 _atom_site_fract_x
 _atom_site_fract_y
 _atom_site_fract_z
 _atom_site_occupancy
  Dy  Dy0  1  0.750000  0.467155  0.830200  1
  Dy  Dy1  1  0.750000  0.960833  0.681125  1
  Dy  Dy2  1  0.250000  0.033534  0.309794  1
  Zn  Zn3  1  0.250000  0.637494  0.557846  1
  Zn  Zn4  1  0.750000  0.365286  0.442278  1
  Zn  Zn5  1  0.750000  0.861563  0.059203  1
  Zn  Zn6  1  0.250000  0.139275  0.938533  1
  In  In7  1  0.250000  0.538271  0.178585  1
  Pt  Pt8  1  0.250000  0.756813  0.876347  1
  Pt  Pt9  1  0.750000  0.244212  0.126241  1
  Pt  Pt10  1  0.750000  0.738599  0.372300  1
  Pt  Pt11  1  0.250000  0.256965  0.627549  1
