# generated using pymatgen
data_Np4Al18FePd5
_symmetry_space_group_name_H-M   'P 1'
_cell_length_a   7.62994050
_cell_length_b   7.62994037
_cell_length_c   9.48835388
_cell_angle_alpha   89.98294796
_cell_angle_beta   89.98295507
_cell_angle_gamma   119.57122340
_symmetry_Int_Tables_number   1
_chemical_formula_structural   Np4Al18FePd5
_chemical_formula_sum   'Np4 Al18 Fe1 Pd5'
_cell_volume   480.42321548
_cell_formula_units_Z   1
loop_
 _symmetry_equiv_pos_site_id
 _symmetry_equiv_pos_as_xyz
  1  'x, y, z'
loop_
 _atom_site_type_symbol
 _atom_site_label
 _atom_site_symmetry_multiplicity
 _atom_site_fract_x
 _atom_site_fract_y
 _atom_site_fract_z
 _atom_site_occupancy
  Np  Np0  1  0.994600  0.668348  0.246213  1
  Np  Np1  1  0.005400  0.331652  0.753787  1
  Np  Np2  1  0.668348  0.994600  0.246213  1
  Np  Np3  1  0.331652  0.005400  0.753787  1
  Al  Al4  1  0.123109  0.123109  0.243487  1
  Al  Al5  1  0.876891  0.876891  0.756513  1
  Al  Al6  1  0.999556  0.325972  0.074266  1
  Al  Al7  1  0.000444  0.674028  0.925734  1
  Al  Al8  1  0.000270  0.665562  0.576203  1
  Al  Al9  1  0.334438  0.999730  0.423797  1
  Al  Al10  1  0.999730  0.334438  0.423797  1
  Al  Al11  1  0.665562  0.000270  0.576203  1
  Al  Al12  1  0.674028  0.000444  0.925734  1
  Al  Al13  1  0.325972  0.999556  0.074266  1
  Al  Al14  1  0.332215  0.332215  0.558914  1
  Al  Al15  1  0.667785  0.667786  0.441086  1
  Al  Al16  1  0.675448  0.675449  0.051906  1
  Al  Al17  1  0.324552  0.324552  0.948094  1
  Al  Al18  1  0.340424  0.546305  0.249263  1
  Al  Al19  1  0.659576  0.453695  0.750737  1
  Al  Al20  1  0.546305  0.340424  0.249263  1
  Al  Al21  1  0.453695  0.659576  0.750737  1
  Fe  Fe22  1  0.000000  0.000000  0.000000  1
  Pd  Pd23  1  0.671161  0.328839  0.000000  1
  Pd  Pd24  1  0.328839  0.671161  0.000000  1
  Pd  Pd25  1  0.329531  0.670469  0.500000  1
  Pd  Pd26  1  0.670469  0.329531  0.500000  1
  Pd  Pd27  1  0.000000  0.000000  0.500000  1
