# generated using pymatgen
data_Na3Ca3AlP4
_symmetry_space_group_name_H-M   'P 1'
_cell_length_a   9.20815000
_cell_length_b   9.20814879
_cell_length_c   7.03240300
_cell_angle_alpha   90.00000000
_cell_angle_beta   90.00000000
_cell_angle_gamma   119.99999717
_symmetry_Int_Tables_number   1
_chemical_formula_structural   Na3Ca3AlP4
_chemical_formula_sum   'Na6 Ca6 Al2 P8'
_cell_volume   516.39152742
_cell_formula_units_Z   2
loop_
 _symmetry_equiv_pos_site_id
 _symmetry_equiv_pos_as_xyz
  1  'x, y, z'
loop_
 _atom_site_type_symbol
 _atom_site_label
 _atom_site_symmetry_multiplicity
 _atom_site_fract_x
 _atom_site_fract_y
 _atom_site_fract_z
 _atom_site_occupancy
  Na  Na0  1  0.136800  0.863200  0.172880  1
  Na  Na1  1  0.273602  0.136800  0.672880  1
  Na  Na2  1  0.863200  0.726398  0.672880  1
  Na  Na3  1  0.136800  0.273602  0.172880  1
  Na  Na4  1  0.726398  0.863200  0.172880  1
  Na  Na5  1  0.863200  0.136800  0.672880  1
  Ca  Ca6  1  0.474303  0.948606  0.500619  1
  Ca  Ca7  1  0.525697  0.051394  0.000619  1
  Ca  Ca8  1  0.948606  0.474303  0.000619  1
  Ca  Ca9  1  0.474303  0.525697  0.500619  1
  Ca  Ca10  1  0.525697  0.474303  0.000619  1
  Ca  Ca11  1  0.051394  0.525697  0.500619  1
  Al  Al12  1  0.333333  0.666667  0.877750  1
  Al  Al13  1  0.666667  0.333333  0.377750  1
  P  P14  1  0.191792  0.808208  0.772411  1
  P  P15  1  0.383585  0.191792  0.272411  1
  P  P16  1  0.808208  0.616415  0.272411  1
  P  P17  1  0.191792  0.383585  0.772411  1
  P  P18  1  0.616415  0.808208  0.772411  1
  P  P19  1  0.808208  0.191792  0.272411  1
  P  P20  1  0.333333  0.666667  0.225199  1
  P  P21  1  0.666667  0.333333  0.725199  1
