# generated using pymatgen
data_HoSc15(In3Os)2
_symmetry_space_group_name_H-M   'P 1'
_cell_length_a   9.83930400
_cell_length_b   9.83930381
_cell_length_c   6.58250500
_cell_angle_alpha   90.00000000
_cell_angle_beta   90.00000000
_cell_angle_gamma   120.00000064
_symmetry_Int_Tables_number   1
_chemical_formula_structural   HoSc15(In3Os)2
_chemical_formula_sum   'Ho1 Sc15 In6 Os2'
_cell_volume   551.88752348
_cell_formula_units_Z   1
loop_
 _symmetry_equiv_pos_site_id
 _symmetry_equiv_pos_as_xyz
  1  'x, y, z'
loop_
 _atom_site_type_symbol
 _atom_site_label
 _atom_site_symmetry_multiplicity
 _atom_site_fract_x
 _atom_site_fract_y
 _atom_site_fract_z
 _atom_site_occupancy
  Ho  Ho0  1  0.000000  0.000000  0.992282  1
  Sc  Sc1  1  0.529424  0.058848  0.504887  1
  Sc  Sc2  1  0.941152  0.470576  0.504887  1
  Sc  Sc3  1  0.529424  0.470576  0.504887  1
  Sc  Sc4  1  0.470634  0.941270  0.004859  1
  Sc  Sc5  1  0.058730  0.529366  0.004859  1
  Sc  Sc6  1  0.470634  0.529366  0.004859  1
  Sc  Sc7  1  0.179185  0.358368  0.714357  1
  Sc  Sc8  1  0.641632  0.820815  0.714357  1
  Sc  Sc9  1  0.179185  0.820815  0.714357  1
  Sc  Sc10  1  0.820674  0.641348  0.217268  1
  Sc  Sc11  1  0.358652  0.179326  0.217268  1
  Sc  Sc12  1  0.820674  0.179326  0.217268  1
  Sc  Sc13  1  0.666667  0.333333  0.882881  1
  Sc  Sc14  1  0.333333  0.666667  0.385260  1
  Sc  Sc15  1  0.000000  0.000000  0.492282  1
  In  In16  1  0.836012  0.672023  0.748074  1
  In  In17  1  0.327977  0.163988  0.748074  1
  In  In18  1  0.836012  0.163988  0.748074  1
  In  In19  1  0.163804  0.327607  0.252602  1
  In  In20  1  0.672393  0.836196  0.252602  1
  In  In21  1  0.163804  0.836196  0.252602  1
  Os  Os22  1  0.666667  0.333333  0.288871  1
  Os  Os23  1  0.333333  0.666667  0.790329  1
