# generated using pymatgen
data_CaY2Ni6B2Rh
_symmetry_space_group_name_H-M   'P 1'
_cell_length_a   7.88228986
_cell_length_b   7.88229005
_cell_length_c   7.88228787
_cell_angle_alpha   37.75307150
_cell_angle_beta   37.75308214
_cell_angle_gamma   37.75307289
_symmetry_Int_Tables_number   1
_chemical_formula_structural   CaY2Ni6B2Rh
_chemical_formula_sum   'Ca1 Y2 Ni6 B2 Rh1'
_cell_volume   164.71627754
_cell_formula_units_Z   1
loop_
 _symmetry_equiv_pos_site_id
 _symmetry_equiv_pos_as_xyz
  1  'x, y, z'
loop_
 _atom_site_type_symbol
 _atom_site_label
 _atom_site_symmetry_multiplicity
 _atom_site_fract_x
 _atom_site_fract_y
 _atom_site_fract_z
 _atom_site_occupancy
  Ca  Ca0  1  0.354839  0.354839  0.354839  1
  Y  Y1  1  0.645792  0.645792  0.645792  1
  Y  Y2  1  0.498824  0.498824  0.498824  1
  Ni  Ni3  1  0.569131  0.061600  0.061600  1
  Ni  Ni4  1  0.061600  0.061600  0.569131  1
  Ni  Ni5  1  0.061600  0.569131  0.061600  1
  Ni  Ni6  1  0.938154  0.431299  0.938154  1
  Ni  Ni7  1  0.938154  0.938154  0.431299  1
  Ni  Ni8  1  0.431299  0.938154  0.938154  1
  B  B9  1  0.831944  0.831944  0.831944  1
  B  B10  1  0.168505  0.168505  0.168505  1
  Rh  Rh11  1  0.000158  0.000158  0.000158  1
