# generated using pymatgen
data_La10Nd6Cd4Ir3Au
_symmetry_space_group_name_H-M   'P 1'
_cell_length_a   10.11334121
_cell_length_b   10.11334094
_cell_length_c   10.11334136
_cell_angle_alpha   60.23151051
_cell_angle_beta   60.23149967
_cell_angle_gamma   60.23151274
_symmetry_Int_Tables_number   1
_chemical_formula_structural   La10Nd6Cd4Ir3Au
_chemical_formula_sum   'La10 Nd6 Cd4 Ir3 Au1'
_cell_volume   735.25710841
_cell_formula_units_Z   1
loop_
 _symmetry_equiv_pos_site_id
 _symmetry_equiv_pos_as_xyz
  1  'x, y, z'
loop_
 _atom_site_type_symbol
 _atom_site_label
 _atom_site_symmetry_multiplicity
 _atom_site_fract_x
 _atom_site_fract_y
 _atom_site_fract_z
 _atom_site_occupancy
  La  La0  1  0.345135  0.345135  0.345135  1
  La  La1  1  0.355764  0.355764  0.947510  1
  La  La2  1  0.355764  0.947510  0.355764  1
  La  La3  1  0.947510  0.355764  0.355764  1
  La  La4  1  0.798066  0.192245  0.192245  1
  La  La5  1  0.190415  0.809176  0.809176  1
  La  La6  1  0.192245  0.798066  0.192245  1
  La  La7  1  0.809176  0.190415  0.809176  1
  La  La8  1  0.192245  0.192245  0.798066  1
  La  La9  1  0.809176  0.809176  0.190415  1
  Nd  Nd10  1  0.938299  0.565239  0.565239  1
  Nd  Nd11  1  0.565004  0.937072  0.937072  1
  Nd  Nd12  1  0.565239  0.938299  0.565239  1
  Nd  Nd13  1  0.937072  0.565004  0.937072  1
  Nd  Nd14  1  0.565239  0.565239  0.938299  1
  Nd  Nd15  1  0.937072  0.937072  0.565004  1
  Cd  Cd16  1  0.581211  0.581211  0.581211  1
  Cd  Cd17  1  0.580004  0.580004  0.258184  1
  Cd  Cd18  1  0.580004  0.258184  0.580004  1
  Cd  Cd19  1  0.258184  0.580004  0.580004  1
  Ir  Ir20  1  0.139855  0.139855  0.574325  1
  Ir  Ir21  1  0.139855  0.574325  0.139855  1
  Ir  Ir22  1  0.574325  0.139855  0.139855  1
  Au  Au23  1  0.143142  0.143142  0.143142  1
