# generated using pymatgen
data_Dy18Ho2Si15Ag
_symmetry_space_group_name_H-M   'P 1'
_cell_length_a   7.46320247
_cell_length_b   7.70056377
_cell_length_c   14.66001916
_cell_angle_alpha   89.83765003
_cell_angle_beta   89.44500583
_cell_angle_gamma   90.17613111
_symmetry_Int_Tables_number   1
_chemical_formula_structural   Dy18Ho2Si15Ag
_chemical_formula_sum   'Dy18 Ho2 Si15 Ag1'
_cell_volume   842.47704418
_cell_formula_units_Z   1
loop_
 _symmetry_equiv_pos_site_id
 _symmetry_equiv_pos_as_xyz
  1  'x, y, z'
loop_
 _atom_site_type_symbol
 _atom_site_label
 _atom_site_symmetry_multiplicity
 _atom_site_fract_x
 _atom_site_fract_y
 _atom_site_fract_z
 _atom_site_occupancy
  Dy  Dy0  1  0.848522  0.488740  0.749591  1
  Dy  Dy1  1  0.349810  0.011694  0.750007  1
  Dy  Dy2  1  0.975825  0.822944  0.101425  1
  Dy  Dy3  1  0.471323  0.683863  0.401119  1
  Dy  Dy4  1  0.520717  0.314883  0.898733  1
  Dy  Dy5  1  0.030029  0.182481  0.598570  1
  Dy  Dy6  1  0.030093  0.176211  0.899800  1
  Dy  Dy7  1  0.529630  0.316257  0.598427  1
  Dy  Dy8  1  0.473399  0.682833  0.100858  1
  Dy  Dy9  1  0.969334  0.816751  0.399998  1
  Dy  Dy10  1  0.675599  0.825606  0.876165  1
  Dy  Dy11  1  0.181726  0.680187  0.621644  1
  Dy  Dy12  1  0.820364  0.323986  0.124239  1
  Dy  Dy13  1  0.317731  0.178255  0.377301  1
  Dy  Dy14  1  0.322862  0.178683  0.123637  1
  Dy  Dy15  1  0.819268  0.320520  0.377320  1
  Dy  Dy16  1  0.182176  0.676004  0.877733  1
  Dy  Dy17  1  0.681825  0.820961  0.622270  1
  Ho  Ho18  1  0.648309  0.991004  0.249978  1
  Ho  Ho19  1  0.150173  0.511337  0.248133  1
  Si  Si20  1  0.766171  0.629098  0.251599  1
  Si  Si21  1  0.266905  0.872519  0.251264  1
  Si  Si22  1  0.734091  0.125881  0.748707  1
  Si  Si23  1  0.231310  0.373459  0.747513  1
  Si  Si24  1  0.021573  0.104727  0.250435  1
  Si  Si25  1  0.523111  0.396288  0.252227  1
  Si  Si26  1  0.475467  0.604143  0.748118  1
  Si  Si27  1  0.977027  0.892662  0.748545  1
  Si  Si28  1  0.354712  0.971524  0.540173  1
  Si  Si29  1  0.650120  0.028420  0.041591  1
  Si  Si30  1  0.146524  0.470544  0.459843  1
  Si  Si31  1  0.158308  0.471053  0.042640  1
  Si  Si32  1  0.645560  0.028563  0.459117  1
  Si  Si33  1  0.351414  0.969194  0.961236  1
  Si  Si34  1  0.855344  0.529663  0.538985  1
  Ag  Ag35  1  0.843643  0.529058  0.961062  1
