# generated using pymatgen
data_CaGdBO4
_symmetry_space_group_name_H-M   'P 1'
_cell_length_a   3.66047800
_cell_length_b   9.85583900
_cell_length_c   10.54021200
_cell_angle_alpha   90.00000000
_cell_angle_beta   90.00000000
_cell_angle_gamma   90.00000000
_symmetry_Int_Tables_number   1
_chemical_formula_structural   CaGdBO4
_chemical_formula_sum   'Ca4 Gd4 B4 O16'
_cell_volume   380.26009084
_cell_formula_units_Z   4
loop_
 _symmetry_equiv_pos_site_id
 _symmetry_equiv_pos_as_xyz
  1  'x, y, z'
loop_
 _atom_site_type_symbol
 _atom_site_label
 _atom_site_symmetry_multiplicity
 _atom_site_fract_x
 _atom_site_fract_y
 _atom_site_fract_z
 _atom_site_occupancy
  Ca  Ca0  1  0.250000  0.678810  0.082826  1
  Ca  Ca1  1  0.750000  0.321190  0.917174  1
  Ca  Ca2  1  0.750000  0.178810  0.417174  1
  Ca  Ca3  1  0.250000  0.821190  0.582826  1
  Gd  Gd4  1  0.250000  0.085950  0.117152  1
  Gd  Gd5  1  0.750000  0.914050  0.882848  1
  Gd  Gd6  1  0.750000  0.585950  0.382848  1
  Gd  Gd7  1  0.250000  0.414050  0.617152  1
  B  B8  1  0.250000  0.368884  0.194979  1
  B  B9  1  0.750000  0.631116  0.805021  1
  B  B10  1  0.750000  0.868884  0.305021  1
  B  B11  1  0.250000  0.131116  0.694979  1
  O  O12  1  0.250000  0.501445  0.240225  1
  O  O13  1  0.750000  0.498555  0.759775  1
  O  O14  1  0.750000  0.001445  0.259775  1
  O  O15  1  0.250000  0.998555  0.740225  1
  O  O16  1  0.250000  0.257447  0.277485  1
  O  O17  1  0.750000  0.742553  0.722515  1
  O  O18  1  0.750000  0.757447  0.222515  1
  O  O19  1  0.250000  0.242553  0.777485  1
  O  O20  1  0.250000  0.342965  0.064487  1
  O  O21  1  0.750000  0.657035  0.935513  1
  O  O22  1  0.750000  0.842965  0.435513  1
  O  O23  1  0.250000  0.157035  0.564487  1
  O  O24  1  0.250000  0.610798  0.502703  1
  O  O25  1  0.750000  0.389202  0.497297  1
  O  O26  1  0.750000  0.110798  0.997297  1
  O  O27  1  0.250000  0.889202  0.002703  1
