# generated using pymatgen
data_Tb3Ho3Al24GaOs7
_symmetry_space_group_name_H-M   'P 1'
_cell_length_a   8.86833571
_cell_length_b   8.86757893
_cell_length_c   9.55546960
_cell_angle_alpha   90.11310777
_cell_angle_beta   89.86363437
_cell_angle_gamma   119.87353191
_symmetry_Int_Tables_number   1
_chemical_formula_structural   Tb3Ho3Al24GaOs7
_chemical_formula_sum   'Tb3 Ho3 Al24 Ga1 Os7'
_cell_volume   651.59912139
_cell_formula_units_Z   1
loop_
 _symmetry_equiv_pos_site_id
 _symmetry_equiv_pos_as_xyz
  1  'x, y, z'
loop_
 _atom_site_type_symbol
 _atom_site_label
 _atom_site_symmetry_multiplicity
 _atom_site_fract_x
 _atom_site_fract_y
 _atom_site_fract_z
 _atom_site_occupancy
  Tb  Tb0  1  0.191301  0.384715  0.245866  1
  Tb  Tb1  1  0.808529  0.615138  0.754113  1
  Tb  Tb2  1  0.615300  0.808737  0.245918  1
  Ho  Ho3  1  0.385747  0.191437  0.753831  1
  Ho  Ho4  1  0.194549  0.805356  0.255235  1
  Ho  Ho5  1  0.805205  0.194639  0.744762  1
  Al  Al6  1  0.327136  0.672881  0.021683  1
  Al  Al7  1  0.672529  0.327085  0.978007  1
  Al  Al8  1  0.665819  0.333714  0.518391  1
  Al  Al9  1  0.333857  0.666089  0.481878  1
  Al  Al10  1  0.162537  0.325445  0.572351  1
  Al  Al11  1  0.837620  0.674425  0.427832  1
  Al  Al12  1  0.674447  0.837544  0.572304  1
  Al  Al13  1  0.852522  0.678725  0.081852  1
  Al  Al14  1  0.325540  0.162369  0.428059  1
  Al  Al15  1  0.147649  0.321165  0.917967  1
  Al  Al16  1  0.163123  0.837231  0.575978  1
  Al  Al17  1  0.321222  0.147452  0.081614  1
  Al  Al18  1  0.837000  0.163046  0.424158  1
  Al  Al19  1  0.678762  0.852578  0.918068  1
  Al  Al20  1  0.836707  0.163206  0.076904  1
  Al  Al21  1  0.163390  0.837071  0.922921  1
  Al  Al22  1  0.561640  0.121346  0.249398  1
  Al  Al23  1  0.438215  0.879029  0.750544  1
  Al  Al24  1  0.878619  0.438324  0.249458  1
  Al  Al25  1  0.121403  0.561669  0.750541  1
  Al  Al26  1  0.565644  0.434350  0.258049  1
  Al  Al27  1  0.434220  0.565179  0.742100  1
  Al  Al28  1  0.999148  0.000918  0.250752  1
  Al  Al29  1  0.001478  0.999433  0.749272  1
  Ga  Ga30  1  0.499923  0.499938  0.999950  1
  Os  Os31  1  0.499835  0.000203  0.999655  1
  Os  Os32  1  0.999864  0.499896  0.999934  1
  Os  Os33  1  0.499886  0.000140  0.500263  1
  Os  Os34  1  0.999808  0.499900  0.500097  1
  Os  Os35  1  0.499857  0.499637  0.500279  1
  Os  Os36  1  0.999979  0.999977  0.999946  1
  Os  Os37  1  0.999988  0.000011  0.500067  1
