# generated using pymatgen
data_CaTb4In5
_symmetry_space_group_name_H-M   'P 1'
_cell_length_a   3.66390900
_cell_length_b   3.66390900
_cell_length_c   20.29926500
_cell_angle_alpha   90.00000000
_cell_angle_beta   90.00000000
_cell_angle_gamma   90.00000000
_symmetry_Int_Tables_number   1
_chemical_formula_structural   CaTb4In5
_chemical_formula_sum   'Ca1 Tb4 In5'
_cell_volume   272.50198515
_cell_formula_units_Z   1
loop_
 _symmetry_equiv_pos_site_id
 _symmetry_equiv_pos_as_xyz
  1  'x, y, z'
loop_
 _atom_site_type_symbol
 _atom_site_label
 _atom_site_symmetry_multiplicity
 _atom_site_fract_x
 _atom_site_fract_y
 _atom_site_fract_z
 _atom_site_occupancy
  Ca  Ca0  1  0.000000  0.000000  0.000000  1
  Tb  Tb1  1  0.000000  0.000000  0.201686  1
  Tb  Tb2  1  0.000000  0.000000  0.400960  1
  Tb  Tb3  1  0.000000  0.000000  0.599040  1
  Tb  Tb4  1  0.000000  0.000000  0.798314  1
  In  In5  1  0.500000  0.500000  0.101943  1
  In  In6  1  0.500000  0.500000  0.300902  1
  In  In7  1  0.500000  0.500000  0.500000  1
  In  In8  1  0.500000  0.500000  0.699098  1
  In  In9  1  0.500000  0.500000  0.898057  1
