# generated using pymatgen
data_Ca2Dy(B3Ir4)2
_symmetry_space_group_name_H-M   'P 1'
_cell_length_a   9.93841457
_cell_length_b   9.08084073
_cell_length_c   5.63673400
_cell_angle_alpha   81.31280184
_cell_angle_beta   64.58578948
_cell_angle_gamma   34.10141581
_symmetry_Int_Tables_number   1
_chemical_formula_structural   Ca2Dy(B3Ir4)2
_chemical_formula_sum   'Ca2 Dy1 B6 Ir8'
_cell_volume   235.71287499
_cell_formula_units_Z   1
loop_
 _symmetry_equiv_pos_site_id
 _symmetry_equiv_pos_as_xyz
  1  'x, y, z'
loop_
 _atom_site_type_symbol
 _atom_site_label
 _atom_site_symmetry_multiplicity
 _atom_site_fract_x
 _atom_site_fract_y
 _atom_site_fract_z
 _atom_site_occupancy
  Ca  Ca0  1  0.318365  0.318365  0.681635  1
  Ca  Ca1  1  0.681635  0.681635  0.318365  1
  Dy  Dy2  1  0.500000  0.500000  0.500000  1
  B  B3  1  0.670672  0.983816  0.016184  1
  B  B4  1  0.983816  0.670672  0.329328  1
  B  B5  1  0.329328  0.016184  0.983816  1
  B  B6  1  0.016184  0.329328  0.670672  1
  B  B7  1  0.167421  0.832579  0.167421  1
  B  B8  1  0.832579  0.167421  0.832579  1
  Ir  Ir9  1  0.585030  0.585030  0.914970  1
  Ir  Ir10  1  0.913607  0.913607  0.086393  1
  Ir  Ir11  1  0.414970  0.414970  0.085030  1
  Ir  Ir12  1  0.085030  0.085030  0.414970  1
  Ir  Ir13  1  0.914970  0.914970  0.585030  1
  Ir  Ir14  1  0.250000  0.250000  0.250000  1
  Ir  Ir15  1  0.086393  0.086393  0.913607  1
  Ir  Ir16  1  0.750000  0.750000  0.750000  1
