# generated using pymatgen
data_LiGa2(Sb2Pd)4
_symmetry_space_group_name_H-M   'P 1'
_cell_length_a   20.30622550
_cell_length_b   20.30622411
_cell_length_c   6.63672000
_cell_angle_alpha   69.72811766
_cell_angle_beta   69.72811611
_cell_angle_gamma   8.12736825
_symmetry_Int_Tables_number   1
_chemical_formula_structural   LiGa2(Sb2Pd)4
_chemical_formula_sum   'Li1 Ga2 Sb8 Pd4'
_cell_volume   362.79592425
_cell_formula_units_Z   1
loop_
 _symmetry_equiv_pos_site_id
 _symmetry_equiv_pos_as_xyz
  1  'x, y, z'
loop_
 _atom_site_type_symbol
 _atom_site_label
 _atom_site_symmetry_multiplicity
 _atom_site_fract_x
 _atom_site_fract_y
 _atom_site_fract_z
 _atom_site_occupancy
  Li  Li0  1  0.024309  0.024309  0.991396  1
  Ga  Ga1  1  0.091381  0.091381  0.676042  1
  Ga  Ga2  1  0.471082  0.471082  0.804563  1
  Sb  Sb3  1  0.673818  0.673818  0.689439  1
  Sb  Sb4  1  0.275391  0.275391  0.714965  1
  Sb  Sb5  1  0.877708  0.877708  0.725847  1
  Sb  Sb6  1  0.540659  0.540659  0.463512  1
  Sb  Sb7  1  0.128957  0.128957  0.219867  1
  Sb  Sb8  1  0.729851  0.729851  0.240401  1
  Sb  Sb9  1  0.331796  0.331796  0.262140  1
  Sb  Sb10  1  0.942619  0.942619  0.241180  1
  Pd  Pd11  1  0.586750  0.586750  0.014681  1
  Pd  Pd12  1  0.201667  0.201667  0.965894  1
  Pd  Pd13  1  0.804738  0.804738  0.984386  1
  Pd  Pd14  1  0.404993  0.404993  0.005682  1
