# generated using pymatgen
data_Ba4SiAs2Se11
_symmetry_space_group_name_H-M   'P 1'
_cell_length_a   13.77223098
_cell_length_b   9.42811402
_cell_length_c   8.95226800
_cell_angle_alpha   90.00000000
_cell_angle_beta   90.00000000
_cell_angle_gamma   110.01627717
_symmetry_Int_Tables_number   1
_chemical_formula_structural   Ba4SiAs2Se11
_chemical_formula_sum   'Ba8 Si2 As4 Se22'
_cell_volume   1092.20230644
_cell_formula_units_Z   2
loop_
 _symmetry_equiv_pos_site_id
 _symmetry_equiv_pos_as_xyz
  1  'x, y, z'
loop_
 _atom_site_type_symbol
 _atom_site_label
 _atom_site_symmetry_multiplicity
 _atom_site_fract_x
 _atom_site_fract_y
 _atom_site_fract_z
 _atom_site_occupancy
  Ba  Ba0  1  0.424089  0.460742  0.004792  1
  Ba  Ba1  1  0.424089  0.963347  0.004792  1
  Ba  Ba2  1  0.917030  0.212771  0.255799  1
  Ba  Ba3  1  0.917030  0.704259  0.255799  1
  Ba  Ba4  1  0.575910  0.036653  0.504792  1
  Ba  Ba5  1  0.575910  0.539257  0.504792  1
  Ba  Ba6  1  0.082970  0.295741  0.755799  1
  Ba  Ba7  1  0.082970  0.787229  0.755799  1
  Si  Si8  1  0.162741  0.081371  0.090805  1
  Si  Si9  1  0.837259  0.918629  0.590805  1
  As  As10  1  0.291207  0.145604  0.405894  1
  As  As11  1  0.299490  0.649746  0.441812  1
  As  As12  1  0.708793  0.854397  0.905894  1
  As  As13  1  0.700510  0.350254  0.941812  1
  Se  Se14  1  0.993494  0.996747  0.018082  1
  Se  Se15  1  0.674719  0.129046  0.099196  1
  Se  Se16  1  0.674719  0.545675  0.099196  1
  Se  Se17  1  0.109641  0.554821  0.110344  1
  Se  Se18  1  0.205719  0.290200  0.245689  1
  Se  Se19  1  0.205719  0.915520  0.245689  1
  Se  Se20  1  0.456883  0.728442  0.287891  1
  Se  Se21  1  0.459348  0.229675  0.290776  1
  Se  Se22  1  0.745725  0.872862  0.373562  1
  Se  Se23  1  0.765622  0.382811  0.408568  1
  Se  Se24  1  0.055151  0.527575  0.477714  1
  Se  Se25  1  0.006506  0.003254  0.518082  1
  Se  Se26  1  0.325281  0.454325  0.599196  1
  Se  Se27  1  0.325281  0.870955  0.599196  1
  Se  Se28  1  0.890358  0.445179  0.610344  1
  Se  Se29  1  0.794280  0.084480  0.745689  1
  Se  Se30  1  0.794280  0.709800  0.745689  1
  Se  Se31  1  0.543117  0.271559  0.787891  1
  Se  Se32  1  0.540652  0.770326  0.790776  1
  Se  Se33  1  0.254275  0.127138  0.873562  1
  Se  Se34  1  0.234378  0.617189  0.908568  1
  Se  Se35  1  0.944849  0.472426  0.977714  1
