# generated using pymatgen
data_Er4Ga18IrPd3Ru2
_symmetry_space_group_name_H-M   'P 1'
_cell_length_a   7.61556507
_cell_length_b   7.61556395
_cell_length_c   9.51851630
_cell_angle_alpha   89.97917153
_cell_angle_beta   89.97917688
_cell_angle_gamma   120.04555786
_symmetry_Int_Tables_number   1
_chemical_formula_structural   Er4Ga18IrPd3Ru2
_chemical_formula_sum   'Er4 Ga18 Ir1 Pd3 Ru2'
_cell_volume   477.86411897
_cell_formula_units_Z   1
loop_
 _symmetry_equiv_pos_site_id
 _symmetry_equiv_pos_as_xyz
  1  'x, y, z'
loop_
 _atom_site_type_symbol
 _atom_site_label
 _atom_site_symmetry_multiplicity
 _atom_site_fract_x
 _atom_site_fract_y
 _atom_site_fract_z
 _atom_site_occupancy
  Er  Er0  1  0.996783  0.668536  0.750705  1
  Er  Er1  1  0.003157  0.331620  0.248766  1
  Er  Er2  1  0.668380  0.996843  0.751234  1
  Er  Er3  1  0.331464  0.003217  0.249295  1
  Ga  Ga4  1  0.129747  0.127287  0.750244  1
  Ga  Ga5  1  0.872713  0.870253  0.249756  1
  Ga  Ga6  1  0.003159  0.337527  0.581606  1
  Ga  Ga7  1  0.005193  0.665246  0.418815  1
  Ga  Ga8  1  0.003323  0.663263  0.079409  1
  Ga  Ga9  1  0.336737  0.996677  0.920591  1
  Ga  Ga10  1  0.000562  0.338974  0.919652  1
  Ga  Ga11  1  0.661026  0.999438  0.080348  1
  Ga  Ga12  1  0.662473  0.996841  0.418394  1
  Ga  Ga13  1  0.334754  0.994807  0.581185  1
  Ga  Ga14  1  0.335255  0.337420  0.067377  1
  Ga  Ga15  1  0.662580  0.664745  0.932623  1
  Ga  Ga16  1  0.662259  0.666697  0.570881  1
  Ga  Ga17  1  0.333303  0.337741  0.429119  1
  Ga  Ga18  1  0.336566  0.548966  0.750721  1
  Ga  Ga19  1  0.665378  0.456430  0.248170  1
  Ga  Ga20  1  0.543570  0.334622  0.751830  1
  Ga  Ga21  1  0.451034  0.663434  0.249279  1
  Ir  Ir22  1  0.671728  0.328272  0.000000  1
  Pd  Pd23  1  0.671166  0.328834  0.500000  1
  Pd  Pd24  1  0.000783  0.999217  0.500000  1
  Pd  Pd25  1  0.999525  0.000475  0.000000  1
  Ru  Ru26  1  0.329089  0.670911  0.500000  1
  Ru  Ru27  1  0.328294  0.671706  0.000000  1
