# generated using pymatgen
data_EuY6Er13Pb16
_symmetry_space_group_name_H-M   'P 1'
_cell_length_a   8.18066384
_cell_length_b   8.25210866
_cell_length_c   15.57821100
_cell_angle_alpha   90.01044947
_cell_angle_beta   90.03842988
_cell_angle_gamma   89.97955231
_symmetry_Int_Tables_number   1
_chemical_formula_structural   EuY6Er13Pb16
_chemical_formula_sum   'Eu1 Y6 Er13 Pb16'
_cell_volume   1051.64929342
_cell_formula_units_Z   1
loop_
 _symmetry_equiv_pos_site_id
 _symmetry_equiv_pos_as_xyz
  1  'x, y, z'
loop_
 _atom_site_type_symbol
 _atom_site_label
 _atom_site_symmetry_multiplicity
 _atom_site_fract_x
 _atom_site_fract_y
 _atom_site_fract_z
 _atom_site_occupancy
  Eu  Eu0  1  0.031169  0.178583  0.904621  1
  Y  Y1  1  0.033723  0.177160  0.598497  1
  Y  Y2  1  0.465281  0.676018  0.400706  1
  Y  Y3  1  0.965209  0.822049  0.099415  1
  Y  Y4  1  0.465802  0.677190  0.099601  1
  Y  Y5  1  0.965040  0.823583  0.400504  1
  Y  Y6  1  0.533548  0.322628  0.596837  1
  Er  Er7  1  0.374421  0.843624  0.878025  1
  Er  Er8  1  0.874950  0.656789  0.619442  1
  Er  Er9  1  0.624767  0.157240  0.377895  1
  Er  Er10  1  0.126533  0.342730  0.121302  1
  Er  Er11  1  0.625334  0.158363  0.122657  1
  Er  Er12  1  0.125024  0.342530  0.378560  1
  Er  Er13  1  0.375726  0.843073  0.621141  1
  Er  Er14  1  0.875699  0.656860  0.878808  1
  Er  Er15  1  0.535489  0.325183  0.901066  1
  Er  Er16  1  0.208006  0.505488  0.749795  1
  Er  Er17  1  0.708806  0.994961  0.750182  1
  Er  Er18  1  0.792375  0.495185  0.249171  1
  Er  Er19  1  0.292543  0.004874  0.250816  1
  Pb  Pb20  1  0.290044  0.031516  0.046577  1
  Pb  Pb21  1  0.783927  0.463465  0.456163  1
  Pb  Pb22  1  0.716167  0.964033  0.542340  1
  Pb  Pb23  1  0.219482  0.539395  0.957591  1
  Pb  Pb24  1  0.709129  0.958707  0.958954  1
  Pb  Pb25  1  0.216134  0.536088  0.542570  1
  Pb  Pb26  1  0.283998  0.035826  0.457283  1
  Pb  Pb27  1  0.782080  0.465486  0.043429  1
  Pb  Pb28  1  0.570352  0.625882  0.749319  1
  Pb  Pb29  1  0.069691  0.872385  0.747683  1
  Pb  Pb30  1  0.429948  0.373520  0.250938  1
  Pb  Pb31  1  0.930854  0.127020  0.249853  1
  Pb  Pb32  1  0.350003  0.154761  0.749522  1
  Pb  Pb33  1  0.841731  0.348247  0.747883  1
  Pb  Pb34  1  0.653846  0.845669  0.250694  1
  Pb  Pb35  1  0.153170  0.653886  0.250156  1
