# generated using pymatgen
data_Tb7Er3(SiPb3)2
_symmetry_space_group_name_H-M   'P 1'
_cell_length_a   9.33372300
_cell_length_b   9.33372342
_cell_length_c   6.53715400
_cell_angle_alpha   90.00000000
_cell_angle_beta   90.00000000
_cell_angle_gamma   119.99999498
_symmetry_Int_Tables_number   1
_chemical_formula_structural   Tb7Er3(SiPb3)2
_chemical_formula_sum   'Tb7 Er3 Si2 Pb6'
_cell_volume   493.20696975
_cell_formula_units_Z   1
loop_
 _symmetry_equiv_pos_site_id
 _symmetry_equiv_pos_as_xyz
  1  'x, y, z'
loop_
 _atom_site_type_symbol
 _atom_site_label
 _atom_site_symmetry_multiplicity
 _atom_site_fract_x
 _atom_site_fract_y
 _atom_site_fract_z
 _atom_site_occupancy
  Tb  Tb0  1  0.249373  0.000091  0.250397  1
  Tb  Tb1  1  0.750718  0.000091  0.749603  1
  Tb  Tb2  1  0.999909  0.249282  0.250397  1
  Tb  Tb3  1  0.999909  0.750627  0.749603  1
  Tb  Tb4  1  0.750718  0.750627  0.250397  1
  Tb  Tb5  1  0.249373  0.249282  0.749603  1
  Tb  Tb6  1  0.333333  0.666667  0.500000  1
  Er  Er7  1  0.333333  0.666667  0.000000  1
  Er  Er8  1  0.666667  0.333333  0.000000  1
  Er  Er9  1  0.666667  0.333333  0.500000  1
  Si  Si10  1  0.000000  0.000000  0.000000  1
  Si  Si11  1  0.000000  0.000000  0.500000  1
  Pb  Pb12  1  0.606154  0.000645  0.249761  1
  Pb  Pb13  1  0.394491  0.000645  0.750239  1
  Pb  Pb14  1  0.999355  0.605509  0.249761  1
  Pb  Pb15  1  0.999355  0.393846  0.750239  1
  Pb  Pb16  1  0.394491  0.393846  0.249761  1
  Pb  Pb17  1  0.606154  0.605509  0.750239  1
