# generated using pymatgen
data_Ta3Co6Si2Rh
_symmetry_space_group_name_H-M   'P 1'
_cell_length_a   4.83090600
_cell_length_b   4.83090572
_cell_length_c   7.46018400
_cell_angle_alpha   90.00000000
_cell_angle_beta   90.00000000
_cell_angle_gamma   120.00000189
_symmetry_Int_Tables_number   1
_chemical_formula_structural   Ta3Co6Si2Rh
_chemical_formula_sum   'Ta3 Co6 Si2 Rh1'
_cell_volume   150.77776861
_cell_formula_units_Z   1
loop_
 _symmetry_equiv_pos_site_id
 _symmetry_equiv_pos_as_xyz
  1  'x, y, z'
loop_
 _atom_site_type_symbol
 _atom_site_label
 _atom_site_symmetry_multiplicity
 _atom_site_fract_x
 _atom_site_fract_y
 _atom_site_fract_z
 _atom_site_occupancy
  Ta  Ta0  1  0.666667  0.333333  0.547926  1
  Ta  Ta1  1  0.666667  0.333333  0.931330  1
  Ta  Ta2  1  0.333333  0.666667  0.083285  1
  Co  Co3  1  0.831833  0.168167  0.245617  1
  Co  Co4  1  0.831833  0.663668  0.245617  1
  Co  Co5  1  0.336332  0.168167  0.245617  1
  Co  Co6  1  0.172148  0.827852  0.753263  1
  Co  Co7  1  0.172148  0.344295  0.753263  1
  Co  Co8  1  0.655705  0.827852  0.753263  1
  Si  Si9  1  0.000000  0.000000  0.502396  1
  Si  Si10  1  0.000000  0.000000  0.994005  1
  Rh  Rh11  1  0.333333  0.666667  0.444416  1
