# generated using pymatgen
data_Zr6Ga6PtRh5
_symmetry_space_group_name_H-M   'P 1'
_cell_length_a   7.21182400
_cell_length_b   7.21182418
_cell_length_c   6.99056200
_cell_angle_alpha   90.00000000
_cell_angle_beta   90.00000000
_cell_angle_gamma   119.99999917
_symmetry_Int_Tables_number   1
_chemical_formula_structural   Zr6Ga6PtRh5
_chemical_formula_sum   'Zr6 Ga6 Pt1 Rh5'
_cell_volume   314.87122738
_cell_formula_units_Z   1
loop_
 _symmetry_equiv_pos_site_id
 _symmetry_equiv_pos_as_xyz
  1  'x, y, z'
loop_
 _atom_site_type_symbol
 _atom_site_label
 _atom_site_symmetry_multiplicity
 _atom_site_fract_x
 _atom_site_fract_y
 _atom_site_fract_z
 _atom_site_occupancy
  Zr  Zr0  1  0.394160  0.404001  0.747990  1
  Zr  Zr1  1  0.009841  0.605840  0.747990  1
  Zr  Zr2  1  0.595999  0.990159  0.747990  1
  Zr  Zr3  1  0.610767  0.017526  0.252684  1
  Zr  Zr4  1  0.982474  0.593241  0.252684  1
  Zr  Zr5  1  0.406759  0.389233  0.252684  1
  Ga  Ga6  1  0.267476  0.003619  0.999883  1
  Ga  Ga7  1  0.736143  0.732524  0.999883  1
  Ga  Ga8  1  0.996381  0.263857  0.999883  1
  Ga  Ga9  1  0.730479  0.733638  0.500135  1
  Ga  Ga10  1  0.266362  0.996841  0.500135  1
  Ga  Ga11  1  0.003159  0.269521  0.500135  1
  Pt  Pt12  1  0.333333  0.666667  0.020539  1
  Rh  Rh13  1  0.666667  0.333333  0.980474  1
  Rh  Rh14  1  0.000000  0.000000  0.747931  1
  Rh  Rh15  1  0.666667  0.333333  0.518356  1
  Rh  Rh16  1  0.333333  0.666667  0.478849  1
  Rh  Rh17  1  0.000000  0.000000  0.251770  1
