# generated using pymatgen
data_Lu3Sc5(Ga3Pt)4
_symmetry_space_group_name_H-M   'P 1'
_cell_length_a   8.69296801
_cell_length_b   8.69296892
_cell_length_c   6.78386700
_cell_angle_alpha   90.00000000
_cell_angle_beta   90.00000000
_cell_angle_gamma   119.99597834
_symmetry_Int_Tables_number   1
_chemical_formula_structural   Lu3Sc5(Ga3Pt)4
_chemical_formula_sum   'Lu3 Sc5 Ga12 Pt4'
_cell_volume   443.97831949
_cell_formula_units_Z   1
loop_
 _symmetry_equiv_pos_site_id
 _symmetry_equiv_pos_as_xyz
  1  'x, y, z'
loop_
 _atom_site_type_symbol
 _atom_site_label
 _atom_site_symmetry_multiplicity
 _atom_site_fract_x
 _atom_site_fract_y
 _atom_site_fract_z
 _atom_site_occupancy
  Lu  Lu0  1  0.479837  0.959572  0.750000  1
  Lu  Lu1  1  0.479947  0.520053  0.750000  1
  Lu  Lu2  1  0.040428  0.520163  0.750000  1
  Sc  Sc3  1  0.000110  0.999890  0.250000  1
  Sc  Sc4  1  0.999883  0.000117  0.750000  1
  Sc  Sc5  1  0.520882  0.041875  0.250000  1
  Sc  Sc6  1  0.520763  0.479237  0.250000  1
  Sc  Sc7  1  0.958125  0.479118  0.250000  1
  Ga  Ga8  1  0.165013  0.330146  0.050473  1
  Ga  Ga9  1  0.165233  0.834767  0.449522  1
  Ga  Ga10  1  0.669854  0.834987  0.449527  1
  Ga  Ga11  1  0.669854  0.834987  0.050473  1
  Ga  Ga12  1  0.165233  0.834767  0.050478  1
  Ga  Ga13  1  0.835088  0.670044  0.954585  1
  Ga  Ga14  1  0.834865  0.165135  0.954599  1
  Ga  Ga15  1  0.329956  0.164912  0.954585  1
  Ga  Ga16  1  0.165013  0.330146  0.449527  1
  Ga  Ga17  1  0.329956  0.164912  0.545415  1
  Ga  Ga18  1  0.835088  0.670044  0.545415  1
  Ga  Ga19  1  0.834865  0.165135  0.545401  1
  Pt  Pt20  1  0.333448  0.666552  0.031882  1
  Pt  Pt21  1  0.333448  0.666552  0.468118  1
  Pt  Pt22  1  0.666557  0.333443  0.977346  1
  Pt  Pt23  1  0.666557  0.333443  0.522654  1
