# generated using pymatgen
data_PrNd5(CI3)2
_symmetry_space_group_name_H-M   'P 1'
_cell_length_a   4.03963300
_cell_length_b   9.02302158
_cell_length_c   12.21191488
_cell_angle_alpha   92.59653820
_cell_angle_beta   90.00000000
_cell_angle_gamma   90.00000000
_symmetry_Int_Tables_number   1
_chemical_formula_structural   PrNd5(CI3)2
_chemical_formula_sum   'Pr1 Nd5 C2 I6'
_cell_volume   444.66358025
_cell_formula_units_Z   1
loop_
 _symmetry_equiv_pos_site_id
 _symmetry_equiv_pos_as_xyz
  1  'x, y, z'
loop_
 _atom_site_type_symbol
 _atom_site_label
 _atom_site_symmetry_multiplicity
 _atom_site_fract_x
 _atom_site_fract_y
 _atom_site_fract_z
 _atom_site_occupancy
  Pr  Pr0  1  0.250000  0.914216  0.602702  1
  Nd  Nd1  1  0.750000  0.084776  0.397900  1
  Nd  Nd2  1  0.250000  0.886148  0.179635  1
  Nd  Nd3  1  0.750000  0.114033  0.820192  1
  Nd  Nd4  1  0.250000  0.299255  0.616455  1
  Nd  Nd5  1  0.750000  0.701194  0.383416  1
  C  C6  1  0.250000  0.880693  0.383139  1
  C  C7  1  0.750000  0.120747  0.615885  1
  I  I8  1  0.250000  0.855980  0.876011  1
  I  I9  1  0.750000  0.144046  0.124613  1
  I  I10  1  0.250000  0.378651  0.873930  1
  I  I11  1  0.750000  0.621351  0.126130  1
  I  I12  1  0.250000  0.382386  0.364835  1
  I  I13  1  0.750000  0.616524  0.635156  1
