# generated using pymatgen
data_Tm12TlCo4Cu
_symmetry_space_group_name_H-M   'P 1'
_cell_length_a   8.18625871
_cell_length_b   8.18625826
_cell_length_c   8.18625800
_cell_angle_alpha   111.06802357
_cell_angle_beta   110.97981393
_cell_angle_gamma   106.40857543
_symmetry_Int_Tables_number   1
_chemical_formula_structural   Tm12TlCo4Cu
_chemical_formula_sum   'Tm12 Tl1 Co4 Cu1'
_cell_volume   421.41385523
_cell_formula_units_Z   1
loop_
 _symmetry_equiv_pos_site_id
 _symmetry_equiv_pos_as_xyz
  1  'x, y, z'
loop_
 _atom_site_type_symbol
 _atom_site_label
 _atom_site_symmetry_multiplicity
 _atom_site_fract_x
 _atom_site_fract_y
 _atom_site_fract_z
 _atom_site_occupancy
  Tm  Tm0  1  0.419683  0.220177  0.199506  1
  Tm  Tm1  1  0.580317  0.779823  0.800494  1
  Tm  Tm2  1  0.020673  0.220177  0.800494  1
  Tm  Tm3  1  0.979327  0.779823  0.199506  1
  Tm  Tm4  1  0.185338  0.288148  0.473486  1
  Tm  Tm5  1  0.814662  0.711852  0.526514  1
  Tm  Tm6  1  0.185338  0.711852  0.897189  1
  Tm  Tm7  1  0.814662  0.288148  0.102811  1
  Tm  Tm8  1  0.315447  0.620129  0.304683  1
  Tm  Tm9  1  0.684553  0.379871  0.695317  1
  Tm  Tm10  1  0.315447  0.010765  0.695317  1
  Tm  Tm11  1  0.684553  0.989235  0.304683  1
  Tl  Tl12  1  0.500000  0.500000  0.000000  1
  Co  Co13  1  0.374991  0.000000  0.374991  1
  Co  Co14  1  0.625009  0.000000  0.625009  1
  Co  Co15  1  0.113450  0.613450  0.500000  1
  Co  Co16  1  0.886550  0.386550  0.500000  1
  Cu  Cu17  1  0.000000  0.000000  0.000000  1
