# generated using pymatgen
data_Na2Sr2IrO6
_symmetry_space_group_name_H-M   'P 1'
_cell_length_a   6.79177089
_cell_length_b   6.79177108
_cell_length_c   6.79139949
_cell_angle_alpha   89.07286048
_cell_angle_beta   89.07286026
_cell_angle_gamma   90.34085035
_symmetry_Int_Tables_number   1
_chemical_formula_structural   Na2Sr2IrO6
_chemical_formula_sum   'Na4 Sr4 Ir2 O12'
_cell_volume   313.18664952
_cell_formula_units_Z   2
loop_
 _symmetry_equiv_pos_site_id
 _symmetry_equiv_pos_as_xyz
  1  'x, y, z'
loop_
 _atom_site_type_symbol
 _atom_site_label
 _atom_site_symmetry_multiplicity
 _atom_site_fract_x
 _atom_site_fract_y
 _atom_site_fract_z
 _atom_site_occupancy
  Na  Na0  1  0.744717  0.255283  0.000000  1
  Na  Na1  1  0.252161  0.747839  0.500000  1
  Na  Na2  1  0.746353  0.602931  0.355405  1
  Na  Na3  1  0.397069  0.253647  0.644595  1
  Sr  Sr4  1  0.108133  0.891867  0.000000  1
  Sr  Sr5  1  0.607962  0.746503  0.855856  1
  Sr  Sr6  1  0.889899  0.110101  0.500000  1
  Sr  Sr7  1  0.253497  0.392038  0.144144  1
  Ir  Ir8  1  0.500292  0.998263  0.254812  1
  Ir  Ir9  1  0.001737  0.499708  0.745188  1
  O  O10  1  0.573472  0.270526  0.306179  1
  O  O11  1  0.445486  0.072845  0.978026  1
  O  O12  1  0.775410  0.943963  0.175756  1
  O  O13  1  0.276722  0.576738  0.804837  1
  O  O14  1  0.947784  0.780984  0.679737  1
  O  O15  1  0.073377  0.449019  0.471166  1
  O  O16  1  0.423262  0.723278  0.195163  1
  O  O17  1  0.550981  0.926623  0.528834  1
  O  O18  1  0.219016  0.052216  0.320263  1
  O  O19  1  0.729474  0.426528  0.693821  1
  O  O20  1  0.056037  0.224590  0.824244  1
  O  O21  1  0.927155  0.554514  0.021974  1
