# generated using pymatgen
data_LaFe2(CoB2)2
_symmetry_space_group_name_H-M   'P 1'
_cell_length_a   7.11170100
_cell_length_b   7.11170100
_cell_length_c   3.80736200
_cell_angle_alpha   90.00000000
_cell_angle_beta   90.00000000
_cell_angle_gamma   90.00000000
_symmetry_Int_Tables_number   1
_chemical_formula_structural   LaFe2(CoB2)2
_chemical_formula_sum   'La2 Fe4 Co4 B8'
_cell_volume   192.56224889
_cell_formula_units_Z   2
loop_
 _symmetry_equiv_pos_site_id
 _symmetry_equiv_pos_as_xyz
  1  'x, y, z'
loop_
 _atom_site_type_symbol
 _atom_site_label
 _atom_site_symmetry_multiplicity
 _atom_site_fract_x
 _atom_site_fract_y
 _atom_site_fract_z
 _atom_site_occupancy
  La  La0  1  0.000000  0.000000  0.000360  1
  La  La1  1  0.500000  0.500000  0.500360  1
  Fe  Fe2  1  0.386532  0.132337  0.896577  1
  Fe  Fe3  1  0.613468  0.867663  0.896577  1
  Fe  Fe4  1  0.367663  0.886532  0.396577  1
  Fe  Fe5  1  0.632337  0.113468  0.396577  1
  Co  Co6  1  0.114217  0.362478  0.605559  1
  Co  Co7  1  0.885783  0.637522  0.605559  1
  Co  Co8  1  0.137522  0.614217  0.105559  1
  Co  Co9  1  0.862478  0.385783  0.105559  1
  B  B10  1  0.795171  0.664049  0.102503  1
  B  B11  1  0.204829  0.335951  0.102503  1
  B  B12  1  0.835951  0.295171  0.602503  1
  B  B13  1  0.164049  0.704829  0.602503  1
  B  B14  1  0.700057  0.836793  0.395181  1
  B  B15  1  0.299943  0.163207  0.395181  1
  B  B16  1  0.663207  0.200057  0.895181  1
  B  B17  1  0.336793  0.799943  0.895181  1
