# generated using pymatgen
data_Tl2Ni(SeO3)2
_symmetry_space_group_name_H-M   'P 1'
_cell_length_a   5.59962891
_cell_length_b   7.07860995
_cell_length_c   9.04428100
_cell_angle_alpha   72.86971195
_cell_angle_beta   89.69390625
_cell_angle_gamma   89.26184845
_symmetry_Int_Tables_number   1
_chemical_formula_structural   Tl2Ni(SeO3)2
_chemical_formula_sum   'Tl4 Ni2 Se4 O12'
_cell_volume   342.56092474
_cell_formula_units_Z   2
loop_
 _symmetry_equiv_pos_site_id
 _symmetry_equiv_pos_as_xyz
  1  'x, y, z'
loop_
 _atom_site_type_symbol
 _atom_site_label
 _atom_site_symmetry_multiplicity
 _atom_site_fract_x
 _atom_site_fract_y
 _atom_site_fract_z
 _atom_site_occupancy
  Tl  Tl0  1  0.000806  0.613052  0.806624  1
  Tl  Tl1  1  0.500805  0.113048  0.306624  1
  Tl  Tl2  1  0.999194  0.386949  0.193376  1
  Tl  Tl3  1  0.499195  0.886953  0.693376  1
  Ni  Ni4  1  0.500000  0.500000  0.500000  1
  Ni  Ni5  1  0.000000  0.000000  0.000000  1
  Se  Se6  1  0.999080  0.271649  0.635688  1
  Se  Se7  1  0.499077  0.771642  0.135690  1
  Se  Se8  1  0.000920  0.728351  0.364312  1
  Se  Se9  1  0.500923  0.228358  0.864310  1
  O  O10  1  0.241442  0.726249  0.484237  1
  O  O11  1  0.741444  0.226253  0.984245  1
  O  O12  1  0.758559  0.273752  0.515763  1
  O  O13  1  0.258556  0.773748  0.015755  1
  O  O14  1  0.242850  0.274405  0.516539  1
  O  O15  1  0.742851  0.774398  0.016531  1
  O  O16  1  0.757150  0.725595  0.483461  1
  O  O17  1  0.257149  0.225602  0.983468  1
  O  O18  1  0.998708  0.967947  0.241690  1
  O  O19  1  0.498708  0.467953  0.741697  1
  O  O20  1  0.001292  0.032054  0.758311  1
  O  O21  1  0.501292  0.532047  0.258304  1
