# generated using pymatgen
data_TbHo15MgAg3Ir4
_symmetry_space_group_name_H-M   'P 1'
_cell_length_a   9.54247268
_cell_length_b   9.56849166
_cell_length_c   9.54454900
_cell_angle_alpha   60.08273550
_cell_angle_beta   59.99279855
_cell_angle_gamma   60.03880427
_symmetry_Int_Tables_number   1
_chemical_formula_structural   TbHo15MgAg3Ir4
_chemical_formula_sum   'Tb1 Ho15 Mg1 Ag3 Ir4'
_cell_volume   616.76442298
_cell_formula_units_Z   1
loop_
 _symmetry_equiv_pos_site_id
 _symmetry_equiv_pos_as_xyz
  1  'x, y, z'
loop_
 _atom_site_type_symbol
 _atom_site_label
 _atom_site_symmetry_multiplicity
 _atom_site_fract_x
 _atom_site_fract_y
 _atom_site_fract_z
 _atom_site_occupancy
  Tb  Tb0  1  0.934982  0.937773  0.563622  1
  Ho  Ho1  1  0.350405  0.348836  0.348359  1
  Ho  Ho2  1  0.350405  0.348836  0.952399  1
  Ho  Ho3  1  0.350416  0.953005  0.348289  1
  Ho  Ho4  1  0.940596  0.353770  0.352816  1
  Ho  Ho5  1  0.809437  0.189209  0.189996  1
  Ho  Ho6  1  0.186310  0.812586  0.813238  1
  Ho  Ho7  1  0.186310  0.812586  0.187865  1
  Ho  Ho8  1  0.809437  0.189209  0.811358  1
  Ho  Ho9  1  0.186491  0.187406  0.813052  1
  Ho  Ho10  1  0.809198  0.810397  0.190203  1
  Ho  Ho11  1  0.934505  0.562951  0.563417  1
  Ho  Ho12  1  0.563107  0.936481  0.936757  1
  Ho  Ho13  1  0.563107  0.936481  0.563654  1
  Ho  Ho14  1  0.934505  0.562951  0.939128  1
  Ho  Ho15  1  0.562819  0.564338  0.936421  1
  Mg  Mg16  1  0.286158  0.571343  0.571249  1
  Ag  Ag17  1  0.582434  0.584364  0.583812  1
  Ag  Ag18  1  0.582434  0.584364  0.249391  1
  Ag  Ag19  1  0.582121  0.249968  0.583956  1
  Ir  Ir20  1  0.140111  0.143968  0.142569  1
  Ir  Ir21  1  0.140111  0.143968  0.573351  1
  Ir  Ir22  1  0.140473  0.573078  0.143225  1
  Ir  Ir23  1  0.574128  0.142131  0.141870  1
