# generated using pymatgen
data_Pr10In(SnRu2)3
_symmetry_space_group_name_H-M   'P 1'
_cell_length_a   8.75218760
_cell_length_b   8.75218784
_cell_length_c   8.75218800
_cell_angle_alpha   109.42205415
_cell_angle_beta   109.42205472
_cell_angle_gamma   109.42204918
_symmetry_Int_Tables_number   1
_chemical_formula_structural   Pr10In(SnRu2)3
_chemical_formula_sum   'Pr10 In1 Sn3 Ru6'
_cell_volume   517.03039092
_cell_formula_units_Z   1
loop_
 _symmetry_equiv_pos_site_id
 _symmetry_equiv_pos_as_xyz
  1  'x, y, z'
loop_
 _atom_site_type_symbol
 _atom_site_label
 _atom_site_symmetry_multiplicity
 _atom_site_fract_x
 _atom_site_fract_y
 _atom_site_fract_z
 _atom_site_occupancy
  Pr  Pr0  1  0.251137  0.686615  0.438040  1
  Pr  Pr1  1  0.746754  0.812572  0.067363  1
  Pr  Pr2  1  0.438125  0.251160  0.686539  1
  Pr  Pr3  1  0.686515  0.438085  0.251116  1
  Pr  Pr4  1  0.067304  0.746628  0.812641  1
  Pr  Pr5  1  0.812665  0.067343  0.746696  1
  Pr  Pr6  1  0.204332  0.204282  0.204395  1
  Pr  Pr7  1  0.497058  0.000624  0.287204  1
  Pr  Pr8  1  0.287269  0.497235  0.000702  1
  Pr  Pr9  1  0.000613  0.287230  0.497138  1
  In  In10  1  0.592230  0.592207  0.592200  1
  Sn  Sn11  1  0.502782  0.001291  0.902947  1
  Sn  Sn12  1  0.902903  0.502751  0.001269  1
  Sn  Sn13  1  0.001278  0.902956  0.502780  1
  Ru  Ru14  1  0.251854  0.128613  0.880520  1
  Ru  Ru15  1  0.756590  0.370036  0.621452  1
  Ru  Ru16  1  0.880546  0.251923  0.128628  1
  Ru  Ru17  1  0.128577  0.880456  0.251796  1
  Ru  Ru18  1  0.621448  0.756582  0.370024  1
  Ru  Ru19  1  0.370018  0.621409  0.756549  1
