# generated using pymatgen
data_Tb12Tc2Ni2SnPt
_symmetry_space_group_name_H-M   'P 1'
_cell_length_a   8.42874886
_cell_length_b   8.42875039
_cell_length_c   8.42874875
_cell_angle_alpha   104.86113429
_cell_angle_beta   110.54403740
_cell_angle_gamma   113.11610033
_symmetry_Int_Tables_number   1
_chemical_formula_structural   Tb12Tc2Ni2SnPt
_chemical_formula_sum   'Tb12 Tc2 Ni2 Sn1 Pt1'
_cell_volume   458.49777889
_cell_formula_units_Z   1
loop_
 _symmetry_equiv_pos_site_id
 _symmetry_equiv_pos_as_xyz
  1  'x, y, z'
loop_
 _atom_site_type_symbol
 _atom_site_label
 _atom_site_symmetry_multiplicity
 _atom_site_fract_x
 _atom_site_fract_y
 _atom_site_fract_z
 _atom_site_occupancy
  Tb  Tb0  1  0.690470  0.269497  0.959966  1
  Tb  Tb1  1  0.309530  0.730503  0.040034  1
  Tb  Tb2  1  0.690470  0.730503  0.420973  1
  Tb  Tb3  1  0.309530  0.269497  0.579027  1
  Tb  Tb4  1  0.814186  0.145662  0.331476  1
  Tb  Tb5  1  0.814186  0.482710  0.668524  1
  Tb  Tb6  1  0.185814  0.854338  0.668524  1
  Tb  Tb7  1  0.185814  0.517290  0.331476  1
  Tb  Tb8  1  0.600365  0.779140  0.821226  1
  Tb  Tb9  1  0.957915  0.779140  0.178774  1
  Tb  Tb10  1  0.042085  0.220860  0.821226  1
  Tb  Tb11  1  0.399635  0.220860  0.178774  1
  Tc  Tc12  1  0.828867  0.500000  0.328867  1
  Tc  Tc13  1  0.171133  0.500000  0.671133  1
  Ni  Ni14  1  0.000000  0.116118  0.116118  1
  Ni  Ni15  1  0.000000  0.883882  0.883882  1
  Sn  Sn16  1  0.500000  0.000000  0.500000  1
  Pt  Pt17  1  0.500000  0.500000  0.000000  1
