# generated using pymatgen
data_YbZrTc2Ni10P7
_symmetry_space_group_name_H-M   'P 1'
_cell_length_a   9.01708200
_cell_length_b   9.11214749
_cell_length_c   3.64430500
_cell_angle_alpha   90.00000000
_cell_angle_beta   90.00000000
_cell_angle_gamma   119.89810831
_symmetry_Int_Tables_number   1
_chemical_formula_structural   YbZrTc2Ni10P7
_chemical_formula_sum   'Yb1 Zr1 Tc2 Ni10 P7'
_cell_volume   259.58350714
_cell_formula_units_Z   1
loop_
 _symmetry_equiv_pos_site_id
 _symmetry_equiv_pos_as_xyz
  1  'x, y, z'
loop_
 _atom_site_type_symbol
 _atom_site_label
 _atom_site_symmetry_multiplicity
 _atom_site_fract_x
 _atom_site_fract_y
 _atom_site_fract_z
 _atom_site_occupancy
  Yb  Yb0  1  0.999417  0.001505  0.000000  1
  Zr  Zr1  1  0.329626  0.663436  0.500000  1
  Tc  Tc2  1  0.879097  0.453861  0.500000  1
  Tc  Tc3  1  0.546822  0.433837  0.500000  1
  Ni  Ni4  1  0.295324  0.396469  0.000000  1
  Ni  Ni5  1  0.103406  0.705310  0.000000  1
  Ni  Ni6  1  0.388700  0.171768  0.000000  1
  Ni  Ni7  1  0.790898  0.620960  0.000000  1
  Ni  Ni8  1  0.820873  0.208297  0.000000  1
  Ni  Ni9  1  0.232814  0.947634  0.500000  1
  Ni  Ni10  1  0.056103  0.283133  0.500000  1
  Ni  Ni11  1  0.719593  0.775237  0.500000  1
  Ni  Ni12  1  0.567242  0.105449  0.500000  1
  Ni  Ni13  1  0.601311  0.895180  0.000000  1
  P  P14  1  0.667477  0.334754  0.000000  1
  P  P15  1  0.077924  0.449122  0.000000  1
  P  P16  1  0.260392  0.214844  0.500000  1
  P  P17  1  0.782552  0.045136  0.500000  1
  P  P18  1  0.959183  0.743481  0.500000  1
  P  P19  1  0.549765  0.631563  0.000000  1
  P  P20  1  0.371480  0.919023  0.000000  1
