# generated using pymatgen
data_DyY3Co4(P3Rh4)4
_symmetry_space_group_name_H-M   'P 1'
_cell_length_a   3.84863000
_cell_length_b   10.75840928
_cell_length_c   12.40664732
_cell_angle_alpha   90.02603701
_cell_angle_beta   90.00000000
_cell_angle_gamma   90.00000000
_symmetry_Int_Tables_number   1
_chemical_formula_structural   DyY3Co4(P3Rh4)4
_chemical_formula_sum   'Dy1 Y3 Co4 P12 Rh16'
_cell_volume   513.69887522
_cell_formula_units_Z   1
loop_
 _symmetry_equiv_pos_site_id
 _symmetry_equiv_pos_as_xyz
  1  'x, y, z'
loop_
 _atom_site_type_symbol
 _atom_site_label
 _atom_site_symmetry_multiplicity
 _atom_site_fract_x
 _atom_site_fract_y
 _atom_site_fract_z
 _atom_site_occupancy
  Dy  Dy0  1  0.750000  0.085292  0.791975  1
  Y  Y1  1  0.250000  0.585309  0.707962  1
  Y  Y2  1  0.250000  0.914651  0.208001  1
  Y  Y3  1  0.750000  0.414700  0.292034  1
  Co  Co4  1  0.250000  0.463954  0.934071  1
  Co  Co5  1  0.250000  0.035966  0.434176  1
  Co  Co6  1  0.750000  0.535907  0.065968  1
  Co  Co7  1  0.750000  0.964049  0.566133  1
  P  P8  1  0.250000  0.424123  0.105946  1
  P  P9  1  0.250000  0.075849  0.606137  1
  P  P10  1  0.750000  0.575891  0.894103  1
  P  P11  1  0.750000  0.924161  0.394147  1
  P  P12  1  0.250000  0.272030  0.872568  1
  P  P13  1  0.250000  0.227822  0.372623  1
  P  P14  1  0.750000  0.727835  0.127215  1
  P  P15  1  0.750000  0.772193  0.627293  1
  P  P16  1  0.250000  0.599313  0.388013  1
  P  P17  1  0.250000  0.900867  0.887923  1
  P  P18  1  0.750000  0.400758  0.611962  1
  P  P19  1  0.750000  0.099290  0.112025  1
  Rh  Rh20  1  0.250000  0.716319  0.986655  1
  Rh  Rh21  1  0.250000  0.783836  0.486824  1
  Rh  Rh22  1  0.750000  0.283584  0.013053  1
  Rh  Rh23  1  0.750000  0.215911  0.513553  1
  Rh  Rh24  1  0.250000  0.408129  0.480254  1
  Rh  Rh25  1  0.250000  0.091936  0.979942  1
  Rh  Rh26  1  0.750000  0.591976  0.519689  1
  Rh  Rh27  1  0.750000  0.908259  0.019624  1
  Rh  Rh28  1  0.250000  0.227067  0.177929  1
  Rh  Rh29  1  0.250000  0.272571  0.678333  1
  Rh  Rh30  1  0.750000  0.772860  0.821834  1
  Rh  Rh31  1  0.750000  0.727259  0.321929  1
  Rh  Rh32  1  0.250000  0.886478  0.698538  1
  Rh  Rh33  1  0.250000  0.613813  0.198454  1
  Rh  Rh34  1  0.750000  0.113791  0.301604  1
  Rh  Rh35  1  0.750000  0.386251  0.801513  1
