# generated using pymatgen
data_NaNdSnBr6
_symmetry_space_group_name_H-M   'P 1'
_cell_length_a   8.01078013
_cell_length_b   8.01076838
_cell_length_c   8.01075138
_cell_angle_alpha   56.63607599
_cell_angle_beta   56.63607101
_cell_angle_gamma   56.63620394
_symmetry_Int_Tables_number   1
_chemical_formula_structural   NaNdSnBr6
_chemical_formula_sum   'Na1 Nd1 Sn1 Br6'
_cell_volume   335.25788049
_cell_formula_units_Z   1
loop_
 _symmetry_equiv_pos_site_id
 _symmetry_equiv_pos_as_xyz
  1  'x, y, z'
loop_
 _atom_site_type_symbol
 _atom_site_label
 _atom_site_symmetry_multiplicity
 _atom_site_fract_x
 _atom_site_fract_y
 _atom_site_fract_z
 _atom_site_occupancy
  Na  Na0  1  0.670026  0.670020  0.670026  1
  Nd  Nd1  1  0.999824  0.999832  0.999836  1
  Sn  Sn2  1  0.330826  0.330825  0.330819  1
  Br  Br3  1  0.243093  0.600827  0.916891  1
  Br  Br4  1  0.600815  0.916898  0.243099  1
  Br  Br5  1  0.916900  0.243088  0.600810  1
  Br  Br6  1  0.752340  0.396765  0.089411  1
  Br  Br7  1  0.396755  0.089415  0.752344  1
  Br  Br8  1  0.089423  0.752331  0.396764  1
