# generated using pymatgen
data_Er2B8IrOs
_symmetry_space_group_name_H-M   'P 1'
_cell_length_a   3.55625800
_cell_length_b   5.94711431
_cell_length_c   11.53452038
_cell_angle_alpha   89.87922818
_cell_angle_beta   90.00000000
_cell_angle_gamma   90.00000000
_symmetry_Int_Tables_number   1
_chemical_formula_structural   Er2B8IrOs
_chemical_formula_sum   'Er4 B16 Ir2 Os2'
_cell_volume   243.94848384
_cell_formula_units_Z   2
loop_
 _symmetry_equiv_pos_site_id
 _symmetry_equiv_pos_as_xyz
  1  'x, y, z'
loop_
 _atom_site_type_symbol
 _atom_site_label
 _atom_site_symmetry_multiplicity
 _atom_site_fract_x
 _atom_site_fract_y
 _atom_site_fract_z
 _atom_site_occupancy
  Er  Er0  1  0.000000  0.629724  0.351753  1
  Er  Er1  1  0.000000  0.370276  0.648247  1
  Er  Er2  1  0.000000  0.130390  0.150164  1
  Er  Er3  1  0.000000  0.869610  0.849836  1
  B  B4  1  0.500000  0.790937  0.187972  1
  B  B5  1  0.500000  0.209063  0.812028  1
  B  B6  1  0.500000  0.289875  0.313263  1
  B  B7  1  0.500000  0.710125  0.686737  1
  B  B8  1  0.500000  0.863867  0.029735  1
  B  B9  1  0.500000  0.136133  0.970265  1
  B  B10  1  0.500000  0.364043  0.469913  1
  B  B11  1  0.500000  0.635957  0.530087  1
  B  B12  1  0.500000  0.887221  0.453434  1
  B  B13  1  0.500000  0.112779  0.546566  1
  B  B14  1  0.500000  0.387169  0.047450  1
  B  B15  1  0.500000  0.612831  0.952550  1
  B  B16  1  0.500000  0.974398  0.308213  1
  B  B17  1  0.500000  0.025602  0.691787  1
  B  B18  1  0.500000  0.475628  0.193065  1
  B  B19  1  0.500000  0.524372  0.806935  1
  Ir  Ir20  1  0.000000  0.644615  0.096611  1
  Ir  Ir21  1  0.000000  0.355385  0.903389  1
  Os  Os22  1  0.000000  0.141868  0.406119  1
  Os  Os23  1  0.000000  0.858132  0.593881  1
