# generated using pymatgen
data_Tb2Ho6In3Rh
_symmetry_space_group_name_H-M   'P 1'
_cell_length_a   10.40719500
_cell_length_b   10.40868041
_cell_length_c   7.01524400
_cell_angle_alpha   89.99934859
_cell_angle_beta   89.99929646
_cell_angle_gamma   119.99555364
_symmetry_Int_Tables_number   1
_chemical_formula_structural   Tb2Ho6In3Rh
_chemical_formula_sum   'Tb4 Ho12 In6 Rh2'
_cell_volume   658.14598338
_cell_formula_units_Z   2
loop_
 _symmetry_equiv_pos_site_id
 _symmetry_equiv_pos_as_xyz
  1  'x, y, z'
loop_
 _atom_site_type_symbol
 _atom_site_label
 _atom_site_symmetry_multiplicity
 _atom_site_fract_x
 _atom_site_fract_y
 _atom_site_fract_z
 _atom_site_occupancy
  Tb  Tb0  1  0.532466  0.064938  0.507341  1
  Tb  Tb1  1  0.935385  0.467705  0.507439  1
  Tb  Tb2  1  0.532317  0.467700  0.507448  1
  Tb  Tb3  1  0.467340  0.934678  0.007284  1
  Ho  Ho4  1  0.065809  0.532845  0.007543  1
  Ho  Ho5  1  0.467037  0.532848  0.007550  1
  Ho  Ho6  1  0.176321  0.352641  0.713780  1
  Ho  Ho7  1  0.647703  0.823655  0.713517  1
  Ho  Ho8  1  0.175952  0.823653  0.713510  1
  Ho  Ho9  1  0.823746  0.647484  0.212585  1
  Ho  Ho10  1  0.352321  0.176494  0.212870  1
  Ho  Ho11  1  0.824181  0.176495  0.212863  1
  Ho  Ho12  1  0.666839  0.333674  0.888173  1
  Ho  Ho13  1  0.333122  0.666244  0.387442  1
  Ho  Ho14  1  0.999952  0.999904  0.493171  1
  Ho  Ho15  1  0.999989  0.999995  0.993519  1
  In  In16  1  0.837523  0.675049  0.752307  1
  In  In17  1  0.324940  0.162509  0.752155  1
  In  In18  1  0.837568  0.162506  0.752158  1
  In  In19  1  0.162707  0.325405  0.251362  1
  In  In20  1  0.674910  0.837271  0.251703  1
  In  In21  1  0.162359  0.837265  0.251710  1
  Rh  Rh22  1  0.666659  0.333318  0.279868  1
  Rh  Rh23  1  0.332855  0.665724  0.780743  1
