# generated using pymatgen
data_SrBi3PtRh3O14
_symmetry_space_group_name_H-M   'P 1'
_cell_length_a   7.44531790
_cell_length_b   7.41029608
_cell_length_c   7.31529361
_cell_angle_alpha   59.35872593
_cell_angle_beta   59.41026500
_cell_angle_gamma   59.84353675
_symmetry_Int_Tables_number   1
_chemical_formula_structural   SrBi3PtRh3O14
_chemical_formula_sum   'Sr1 Bi3 Pt1 Rh3 O14'
_cell_volume   282.37439555
_cell_formula_units_Z   1
loop_
 _symmetry_equiv_pos_site_id
 _symmetry_equiv_pos_as_xyz
  1  'x, y, z'
loop_
 _atom_site_type_symbol
 _atom_site_label
 _atom_site_symmetry_multiplicity
 _atom_site_fract_x
 _atom_site_fract_y
 _atom_site_fract_z
 _atom_site_occupancy
  Sr  Sr0  1  0.125000  0.125000  0.625000  1
  Bi  Bi1  1  0.125000  0.625000  0.125000  1
  Bi  Bi2  1  0.625000  0.125000  0.125000  1
  Bi  Bi3  1  0.125000  0.125000  0.125000  1
  Pt  Pt4  1  0.625000  0.125000  0.625000  1
  Rh  Rh5  1  0.625000  0.625000  0.125000  1
  Rh  Rh6  1  0.125000  0.625000  0.625000  1
  Rh  Rh7  1  0.625000  0.625000  0.625000  1
  O  O8  1  0.258027  0.255772  0.228175  1
  O  O9  1  0.991973  0.994228  0.021825  1
  O  O10  1  0.548156  0.956307  0.538952  1
  O  O11  1  0.296626  0.705393  0.292990  1
  O  O12  1  0.545009  0.544607  0.957010  1
  O  O13  1  0.954980  0.551599  0.538440  1
  O  O14  1  0.543273  0.954354  0.959101  1
  O  O15  1  0.956583  0.956307  0.538952  1
  O  O16  1  0.953374  0.544607  0.957010  1
  O  O17  1  0.706727  0.295646  0.290899  1
  O  O18  1  0.295020  0.698401  0.711560  1
  O  O19  1  0.701844  0.293693  0.711048  1
  O  O20  1  0.293417  0.293693  0.711048  1
  O  O21  1  0.704991  0.705393  0.292990  1
