# generated using pymatgen
data_NpPa(Tl2Se3)2
_symmetry_space_group_name_H-M   'P 1'
_cell_length_a   7.67561475
_cell_length_b   7.67561525
_cell_length_c   8.27435800
_cell_angle_alpha   80.97335636
_cell_angle_beta   80.97335577
_cell_angle_gamma   120.05400617
_symmetry_Int_Tables_number   1
_chemical_formula_structural   NpPa(Tl2Se3)2
_chemical_formula_sum   'Np1 Pa1 Tl4 Se6'
_cell_volume   400.59710300
_cell_formula_units_Z   1
loop_
 _symmetry_equiv_pos_site_id
 _symmetry_equiv_pos_as_xyz
  1  'x, y, z'
loop_
 _atom_site_type_symbol
 _atom_site_label
 _atom_site_symmetry_multiplicity
 _atom_site_fract_x
 _atom_site_fract_y
 _atom_site_fract_z
 _atom_site_occupancy
  Np  Np0  1  0.167567  0.832433  0.000000  1
  Pa  Pa1  1  0.832814  0.167186  0.000000  1
  Tl  Tl2  1  0.500071  0.499929  0.000000  1
  Tl  Tl3  1  0.656724  0.343276  0.500000  1
  Tl  Tl4  1  0.343412  0.656588  0.500000  1
  Tl  Tl5  1  0.999064  0.000936  0.500000  1
  Se  Se6  1  0.801867  0.814881  0.199851  1
  Se  Se7  1  0.185119  0.198133  0.800149  1
  Se  Se8  1  0.442733  0.058207  0.207270  1
  Se  Se9  1  0.584530  0.955693  0.790973  1
  Se  Se10  1  0.941793  0.557267  0.792730  1
  Se  Se11  1  0.044307  0.415470  0.209027  1
