# generated using pymatgen
data_Ti9In14Co6Tc
_symmetry_space_group_name_H-M   'P 1'
_cell_length_a   9.17563388
_cell_length_b   9.17563488
_cell_length_c   9.17563500
_cell_angle_alpha   60.00000317
_cell_angle_beta   59.99999956
_cell_angle_gamma   60.00000540
_symmetry_Int_Tables_number   1
_chemical_formula_structural   Ti9In14Co6Tc
_chemical_formula_sum   'Ti9 In14 Co6 Tc1'
_cell_volume   546.25239994
_cell_formula_units_Z   1
loop_
 _symmetry_equiv_pos_site_id
 _symmetry_equiv_pos_as_xyz
  1  'x, y, z'
loop_
 _atom_site_type_symbol
 _atom_site_label
 _atom_site_symmetry_multiplicity
 _atom_site_fract_x
 _atom_site_fract_y
 _atom_site_fract_z
 _atom_site_occupancy
  Ti  Ti0  1  0.117842  0.646474  0.117842  1
  Ti  Ti1  1  0.353526  0.882158  0.882158  1
  Ti  Ti2  1  0.882158  0.882158  0.882158  1
  Ti  Ti3  1  0.646474  0.117842  0.117842  1
  Ti  Ti4  1  0.500000  0.500000  0.500000  1
  Ti  Ti5  1  0.882158  0.882158  0.353526  1
  Ti  Ti6  1  0.117842  0.117842  0.117842  1
  Ti  Ti7  1  0.882158  0.353526  0.882158  1
  Ti  Ti8  1  0.117842  0.117842  0.646474  1
  In  In9  1  0.500000  0.843308  0.156692  1
  In  In10  1  0.500000  0.843308  0.500000  1
  In  In11  1  0.500000  0.156692  0.500000  1
  In  In12  1  0.500000  0.500000  0.843308  1
  In  In13  1  0.156692  0.500000  0.500000  1
  In  In14  1  0.843308  0.156692  0.500000  1
  In  In15  1  0.156692  0.843308  0.500000  1
  In  In16  1  0.500000  0.156692  0.843308  1
  In  In17  1  0.156692  0.500000  0.843308  1
  In  In18  1  0.500000  0.500000  0.156692  1
  In  In19  1  0.843308  0.500000  0.500000  1
  In  In20  1  0.843308  0.500000  0.156692  1
  In  In21  1  0.250000  0.250000  0.250000  1
  In  In22  1  0.750000  0.750000  0.750000  1
  Co  Co23  1  0.784424  0.784424  0.215576  1
  Co  Co24  1  0.215576  0.784424  0.215576  1
  Co  Co25  1  0.215576  0.784424  0.784424  1
  Co  Co26  1  0.215576  0.215576  0.784424  1
  Co  Co27  1  0.784424  0.215576  0.784424  1
  Co  Co28  1  0.784424  0.215576  0.215576  1
  Tc  Tc29  1  0.000000  0.000000  0.000000  1
