# generated using pymatgen
data_Ca6Ag16Pt
_symmetry_space_group_name_H-M   'P 1'
_cell_length_a   8.73826382
_cell_length_b   8.73826348
_cell_length_c   8.73826300
_cell_angle_alpha   109.47122415
_cell_angle_beta   109.47122337
_cell_angle_gamma   109.47121869
_symmetry_Int_Tables_number   1
_chemical_formula_structural   Ca6Ag16Pt
_chemical_formula_sum   'Ca6 Ag16 Pt1'
_cell_volume   513.63367151
_cell_formula_units_Z   1
loop_
 _symmetry_equiv_pos_site_id
 _symmetry_equiv_pos_as_xyz
  1  'x, y, z'
loop_
 _atom_site_type_symbol
 _atom_site_label
 _atom_site_symmetry_multiplicity
 _atom_site_fract_x
 _atom_site_fract_y
 _atom_site_fract_z
 _atom_site_occupancy
  Ca  Ca0  1  0.281284  0.281284  0.000000  1
  Ca  Ca1  1  0.718716  0.718716  0.000000  1
  Ca  Ca2  1  0.281284  0.000000  0.281284  1
  Ca  Ca3  1  0.000000  0.281284  0.281284  1
  Ca  Ca4  1  0.718716  0.000000  0.718716  1
  Ca  Ca5  1  0.000000  0.718716  0.718716  1
  Ag  Ag6  1  0.500000  0.000000  0.000000  1
  Ag  Ag7  1  0.658182  0.341818  0.000000  1
  Ag  Ag8  1  0.000000  0.500000  0.000000  1
  Ag  Ag9  1  0.341818  0.658182  0.000000  1
  Ag  Ag10  1  0.658182  0.658182  0.316364  1
  Ag  Ag11  1  0.683634  0.341817  0.341817  1
  Ag  Ag12  1  0.341817  0.683634  0.341817  1
  Ag  Ag13  1  0.658182  0.000000  0.341818  1
  Ag  Ag14  1  0.000000  0.658182  0.341818  1
  Ag  Ag15  1  0.000000  0.000000  0.500000  1
  Ag  Ag16  1  0.500000  0.500000  0.500000  1
  Ag  Ag17  1  0.341818  0.000000  0.658182  1
  Ag  Ag18  1  0.658182  0.316364  0.658182  1
  Ag  Ag19  1  0.000000  0.341818  0.658182  1
  Ag  Ag20  1  0.316364  0.658182  0.658182  1
  Ag  Ag21  1  0.341817  0.341817  0.683634  1
  Pt  Pt22  1  0.000000  0.000000  0.000000  1
