# generated using pymatgen
data_Y2P4IrRu5
_symmetry_space_group_name_H-M   'P 1'
_cell_length_a   3.98201100
_cell_length_b   11.21334799
_cell_length_c   12.57582219
_cell_angle_alpha   89.68978823
_cell_angle_beta   90.00000000
_cell_angle_gamma   90.00000000
_symmetry_Int_Tables_number   1
_chemical_formula_structural   Y2P4IrRu5
_chemical_formula_sum   'Y6 P12 Ir3 Ru15'
_cell_volume   561.52329558
_cell_formula_units_Z   3
loop_
 _symmetry_equiv_pos_site_id
 _symmetry_equiv_pos_as_xyz
  1  'x, y, z'
loop_
 _atom_site_type_symbol
 _atom_site_label
 _atom_site_symmetry_multiplicity
 _atom_site_fract_x
 _atom_site_fract_y
 _atom_site_fract_z
 _atom_site_occupancy
  Y  Y0  1  0.000000  0.498109  0.524223  1
  Y  Y1  1  0.500000  0.001302  0.476254  1
  Y  Y2  1  0.500000  0.818082  0.204697  1
  Y  Y3  1  0.500000  0.180492  0.204242  1
  Y  Y4  1  0.000000  0.682059  0.795494  1
  Y  Y5  1  0.000000  0.318879  0.795334  1
  P  P6  1  0.500000  0.500934  0.881926  1
  P  P7  1  0.000000  0.998780  0.118396  1
  P  P8  1  0.500000  0.505955  0.341072  1
  P  P9  1  0.000000  0.000226  0.661361  1
  P  P10  1  0.500000  0.303764  0.615208  1
  P  P11  1  0.500000  0.698491  0.616997  1
  P  P12  1  0.000000  0.194665  0.384597  1
  P  P13  1  0.000000  0.802375  0.383276  1
  P  P14  1  0.500000  0.846048  0.894989  1
  P  P15  1  0.500000  0.154362  0.894838  1
  P  P16  1  0.000000  0.653727  0.105821  1
  P  P17  1  0.000000  0.343410  0.101828  1
  Ir  Ir18  1  0.500000  0.500457  0.693457  1
  Ir  Ir19  1  0.000000  0.999832  0.306668  1
  Ir  Ir20  1  0.000000  0.374304  0.283113  1
  Ru  Ru21  1  0.500000  0.499269  0.157087  1
  Ru  Ru22  1  0.000000  0.999748  0.844712  1
  Ru  Ru23  1  0.000000  0.500580  0.986803  1
  Ru  Ru24  1  0.500000  0.999387  0.013890  1
  Ru  Ru25  1  0.500000  0.331850  0.990325  1
  Ru  Ru26  1  0.500000  0.668404  0.990488  1
  Ru  Ru27  1  0.000000  0.167142  0.009312  1
  Ru  Ru28  1  0.000000  0.831130  0.010523  1
  Ru  Ru29  1  0.500000  0.300482  0.426791  1
  Ru  Ru30  1  0.500000  0.702867  0.429738  1
  Ru  Ru31  1  0.000000  0.202301  0.570628  1
  Ru  Ru32  1  0.000000  0.799083  0.571063  1
  Ru  Ru33  1  0.500000  0.879279  0.713749  1
  Ru  Ru34  1  0.500000  0.122492  0.713648  1
  Ru  Ru35  1  0.000000  0.619731  0.287451  1
