# generated using pymatgen
data_Er4Sn(PbO6)2
_symmetry_space_group_name_H-M   'P 1'
_cell_length_a   6.39047118
_cell_length_b   6.47799294
_cell_length_c   6.60543241
_cell_angle_alpha   100.28818273
_cell_angle_beta   98.09180579
_cell_angle_gamma   99.53114149
_symmetry_Int_Tables_number   1
_chemical_formula_structural   Er4Sn(PbO6)2
_chemical_formula_sum   'Er4 Sn1 Pb2 O12'
_cell_volume   261.21728345
_cell_formula_units_Z   1
loop_
 _symmetry_equiv_pos_site_id
 _symmetry_equiv_pos_as_xyz
  1  'x, y, z'
loop_
 _atom_site_type_symbol
 _atom_site_label
 _atom_site_symmetry_multiplicity
 _atom_site_fract_x
 _atom_site_fract_y
 _atom_site_fract_z
 _atom_site_occupancy
  Er  Er0  1  0.394098  0.703939  0.864253  1
  Er  Er1  1  0.696569  0.869124  0.388097  1
  Er  Er2  1  0.605902  0.296061  0.135747  1
  Er  Er3  1  0.303431  0.130876  0.611903  1
  Sn  Sn4  1  0.000000  0.000000  0.000000  1
  Pb  Pb5  1  0.854600  0.397543  0.682125  1
  Pb  Pb6  1  0.145400  0.602457  0.317875  1
  O  O7  1  0.042360  0.686050  0.900086  1
  O  O8  1  0.687318  0.932918  0.056129  1
  O  O9  1  0.922894  0.064912  0.693378  1
  O  O10  1  0.957640  0.313950  0.099914  1
  O  O11  1  0.312682  0.067082  0.943871  1
  O  O12  1  0.077106  0.935088  0.306622  1
  O  O13  1  0.581081  0.182699  0.429659  1
  O  O14  1  0.176317  0.424891  0.584217  1
  O  O15  1  0.425499  0.585303  0.174801  1
  O  O16  1  0.418919  0.817301  0.570341  1
  O  O17  1  0.823683  0.575109  0.415783  1
  O  O18  1  0.574501  0.414697  0.825199  1
