# generated using pymatgen
data_Nd3ZnAu5
_symmetry_space_group_name_H-M   'P 1'
_cell_length_a   8.65833435
_cell_length_b   8.65833435
_cell_length_c   13.67289000
_cell_angle_alpha   90.00000000
_cell_angle_beta   90.00000000
_cell_angle_gamma   127.28076936
_symmetry_Int_Tables_number   1
_chemical_formula_structural   Nd3ZnAu5
_chemical_formula_sum   'Nd12 Zn4 Au20'
_cell_volume   815.57843872
_cell_formula_units_Z   4
loop_
 _symmetry_equiv_pos_site_id
 _symmetry_equiv_pos_as_xyz
  1  'x, y, z'
loop_
 _atom_site_type_symbol
 _atom_site_label
 _atom_site_symmetry_multiplicity
 _atom_site_fract_x
 _atom_site_fract_y
 _atom_site_fract_z
 _atom_site_occupancy
  Nd  Nd0  1  0.927989  0.072011  0.250000  1
  Nd  Nd1  1  0.072011  0.927989  0.750000  1
  Nd  Nd2  1  0.320434  0.679566  0.250000  1
  Nd  Nd3  1  0.679566  0.320434  0.750000  1
  Nd  Nd4  1  0.630024  0.369976  0.461231  1
  Nd  Nd5  1  0.369976  0.630024  0.538769  1
  Nd  Nd6  1  0.630024  0.369976  0.038769  1
  Nd  Nd7  1  0.369976  0.630024  0.961231  1
  Nd  Nd8  1  0.882619  0.117381  0.951435  1
  Nd  Nd9  1  0.117381  0.882619  0.048565  1
  Nd  Nd10  1  0.882619  0.117381  0.548565  1
  Nd  Nd11  1  0.117381  0.882619  0.451435  1
  Zn  Zn12  1  0.720934  0.279066  0.250000  1
  Zn  Zn13  1  0.279066  0.720934  0.750000  1
  Zn  Zn14  1  0.532195  0.467805  0.250000  1
  Zn  Zn15  1  0.467805  0.532195  0.750000  1
  Au  Au16  1  0.322375  0.067952  0.250000  1
  Au  Au17  1  0.067952  0.322375  0.750000  1
  Au  Au18  1  0.677625  0.932048  0.750000  1
  Au  Au19  1  0.932048  0.677625  0.250000  1
  Au  Au20  1  0.569930  0.002960  0.395754  1
  Au  Au21  1  0.002960  0.569930  0.604246  1
  Au  Au22  1  0.569930  0.002960  0.104246  1
  Au  Au23  1  0.002960  0.569930  0.895754  1
  Au  Au24  1  0.430070  0.997040  0.604246  1
  Au  Au25  1  0.997040  0.430070  0.395754  1
  Au  Au26  1  0.430070  0.997040  0.895754  1
  Au  Au27  1  0.997040  0.430070  0.104246  1
  Au  Au28  1  0.686202  0.742103  0.393654  1
  Au  Au29  1  0.742103  0.686202  0.606346  1
  Au  Au30  1  0.686202  0.742103  0.106346  1
  Au  Au31  1  0.742103  0.686202  0.893654  1
  Au  Au32  1  0.313798  0.257897  0.606346  1
  Au  Au33  1  0.257897  0.313798  0.393654  1
  Au  Au34  1  0.313798  0.257897  0.893654  1
  Au  Au35  1  0.257897  0.313798  0.106346  1
