# generated using pymatgen
data_NaLa2(SnRh2)3
_symmetry_space_group_name_H-M   'P 1'
_cell_length_a   5.75231400
_cell_length_b   5.75231395
_cell_length_c   16.54021500
_cell_angle_alpha   90.00000000
_cell_angle_beta   90.00000000
_cell_angle_gamma   120.00000027
_symmetry_Int_Tables_number   1
_chemical_formula_structural   NaLa2(SnRh2)3
_chemical_formula_sum   'Na2 La4 Sn6 Rh12'
_cell_volume   473.97664977
_cell_formula_units_Z   2
loop_
 _symmetry_equiv_pos_site_id
 _symmetry_equiv_pos_as_xyz
  1  'x, y, z'
loop_
 _atom_site_type_symbol
 _atom_site_label
 _atom_site_symmetry_multiplicity
 _atom_site_fract_x
 _atom_site_fract_y
 _atom_site_fract_z
 _atom_site_occupancy
  Na  Na0  1  0.333333  0.666667  0.750000  1
  Na  Na1  1  0.666667  0.333333  0.250000  1
  La  La2  1  0.333333  0.666667  0.557047  1
  La  La3  1  0.666667  0.333333  0.442953  1
  La  La4  1  0.666667  0.333333  0.057047  1
  La  La5  1  0.333333  0.666667  0.942953  1
  Sn  Sn6  1  0.000000  0.000000  0.250000  1
  Sn  Sn7  1  0.000000  0.000000  0.750000  1
  Sn  Sn8  1  0.333333  0.666667  0.250000  1
  Sn  Sn9  1  0.666667  0.333333  0.750000  1
  Sn  Sn10  1  0.000000  0.000000  0.000000  1
  Sn  Sn11  1  0.000000  0.000000  0.500000  1
  Rh  Rh12  1  0.170907  0.341813  0.123264  1
  Rh  Rh13  1  0.829093  0.658187  0.876736  1
  Rh  Rh14  1  0.658187  0.829093  0.123264  1
  Rh  Rh15  1  0.829093  0.658187  0.623264  1
  Rh  Rh16  1  0.341813  0.170907  0.876736  1
  Rh  Rh17  1  0.170907  0.341813  0.376736  1
  Rh  Rh18  1  0.170907  0.829093  0.123264  1
  Rh  Rh19  1  0.341813  0.170907  0.623264  1
  Rh  Rh20  1  0.829093  0.170907  0.876736  1
  Rh  Rh21  1  0.658187  0.829093  0.376736  1
  Rh  Rh22  1  0.829093  0.170907  0.623264  1
  Rh  Rh23  1  0.170907  0.829093  0.376736  1
