# generated using pymatgen
data_AcGa3Ir
_symmetry_space_group_name_H-M   'P 1'
_cell_length_a   6.20635445
_cell_length_b   6.20635456
_cell_length_c   6.20635511
_cell_angle_alpha   137.91113832
_cell_angle_beta   137.91113969
_cell_angle_gamma   61.03911665
_symmetry_Int_Tables_number   1
_chemical_formula_structural   AcGa3Ir
_chemical_formula_sum   'Ac1 Ga3 Ir1'
_cell_volume   106.22182574
_cell_formula_units_Z   1
loop_
 _symmetry_equiv_pos_site_id
 _symmetry_equiv_pos_as_xyz
  1  'x, y, z'
loop_
 _atom_site_type_symbol
 _atom_site_label
 _atom_site_symmetry_multiplicity
 _atom_site_fract_x
 _atom_site_fract_y
 _atom_site_fract_z
 _atom_site_occupancy
  Ac  Ac0  1  0.012138  0.012138  0.000000  1
  Ga  Ga1  1  0.412008  0.412008  0.000000  1
  Ga  Ga2  1  0.262482  0.762482  0.500000  1
  Ga  Ga3  1  0.762482  0.262482  0.500000  1
  Ir  Ir4  1  0.644891  0.644891  0.000000  1
