# generated using pymatgen
data_Yb2Be4Si3Ge
_symmetry_space_group_name_H-M   'P 1'
_cell_length_a   3.90216300
_cell_length_b   3.90216300
_cell_length_c   9.73983700
_cell_angle_alpha   90.00000000
_cell_angle_beta   90.00000000
_cell_angle_gamma   90.00000000
_symmetry_Int_Tables_number   1
_chemical_formula_structural   Yb2Be4Si3Ge
_chemical_formula_sum   'Yb2 Be4 Si3 Ge1'
_cell_volume   148.30729102
_cell_formula_units_Z   1
loop_
 _symmetry_equiv_pos_site_id
 _symmetry_equiv_pos_as_xyz
  1  'x, y, z'
loop_
 _atom_site_type_symbol
 _atom_site_label
 _atom_site_symmetry_multiplicity
 _atom_site_fract_x
 _atom_site_fract_y
 _atom_site_fract_z
 _atom_site_occupancy
  Yb  Yb0  1  0.000000  0.499999  0.252155  1
  Yb  Yb1  1  0.499999  0.000000  0.747673  1
  Be  Be2  1  0.499999  0.000000  0.134785  1
  Be  Be3  1  0.000000  0.000000  0.497807  1
  Be  Be4  1  0.499999  0.499999  0.497807  1
  Be  Be5  1  0.000000  0.499999  0.867702  1
  Si  Si6  1  0.000000  0.000000  0.000280  1
  Si  Si7  1  0.499999  0.499999  0.000280  1
  Si  Si8  1  0.499999  0.000000  0.367041  1
  Ge  Ge9  1  0.000000  0.499999  0.634471  1
