# generated using pymatgen
data_Zr6Ti4Ga5Sb
_symmetry_space_group_name_H-M   'P 1'
_cell_length_a   8.02240200
_cell_length_b   8.01722552
_cell_length_c   5.50867300
_cell_angle_alpha   90.00000000
_cell_angle_beta   90.00000000
_cell_angle_gamma   120.02136090
_symmetry_Int_Tables_number   1
_chemical_formula_structural   Zr6Ti4Ga5Sb
_chemical_formula_sum   'Zr6 Ti4 Ga5 Sb1'
_cell_volume   306.76981517
_cell_formula_units_Z   1
loop_
 _symmetry_equiv_pos_site_id
 _symmetry_equiv_pos_as_xyz
  1  'x, y, z'
loop_
 _atom_site_type_symbol
 _atom_site_label
 _atom_site_symmetry_multiplicity
 _atom_site_fract_x
 _atom_site_fract_y
 _atom_site_fract_z
 _atom_site_occupancy
  Zr  Zr0  1  0.234833  0.000000  0.250000  1
  Zr  Zr1  1  0.245177  0.246906  0.750000  1
  Zr  Zr2  1  0.998271  0.753094  0.750000  1
  Zr  Zr3  1  0.010109  0.252088  0.250000  1
  Zr  Zr4  1  0.758021  0.747912  0.250000  1
  Zr  Zr5  1  0.759446  0.000000  0.750000  1
  Ti  Ti6  1  0.669275  0.341269  0.996508  1
  Ti  Ti7  1  0.328005  0.658731  0.503492  1
  Ti  Ti8  1  0.669275  0.341269  0.503492  1
  Ti  Ti9  1  0.328005  0.658731  0.996508  1
  Ga  Ga10  1  0.397392  0.000000  0.750000  1
  Ga  Ga11  1  0.002409  0.599910  0.250000  1
  Ga  Ga12  1  0.998067  0.398571  0.750000  1
  Ga  Ga13  1  0.599495  0.601429  0.750000  1
  Ga  Ga14  1  0.402499  0.400090  0.250000  1
  Sb  Sb15  1  0.599724  0.000000  0.250000  1
