# generated using pymatgen
data_Nd2Ga7Co2Sn
_symmetry_space_group_name_H-M   'P 1'
_cell_length_a   8.25937218
_cell_length_b   8.25937341
_cell_length_c   6.60683867
_cell_angle_alpha   90.72615417
_cell_angle_beta   89.27384738
_cell_angle_gamma   150.40922065
_symmetry_Int_Tables_number   1
_chemical_formula_structural   Nd2Ga7Co2Sn
_chemical_formula_sum   'Nd2 Ga7 Co2 Sn1'
_cell_volume   222.53755441
_cell_formula_units_Z   1
loop_
 _symmetry_equiv_pos_site_id
 _symmetry_equiv_pos_as_xyz
  1  'x, y, z'
loop_
 _atom_site_type_symbol
 _atom_site_label
 _atom_site_symmetry_multiplicity
 _atom_site_fract_x
 _atom_site_fract_y
 _atom_site_fract_z
 _atom_site_occupancy
  Nd  Nd0  1  0.383637  0.616363  0.742245  1
  Nd  Nd1  1  0.616363  0.383637  0.257755  1
  Ga  Ga2  1  0.000000  0.000000  0.500000  1
  Ga  Ga3  1  0.805591  0.194409  0.052627  1
  Ga  Ga4  1  0.194409  0.805591  0.947373  1
  Ga  Ga5  1  0.191946  0.808054  0.554721  1
  Ga  Ga6  1  0.808054  0.191946  0.445279  1
  Ga  Ga7  1  0.421272  0.578728  0.257816  1
  Ga  Ga8  1  0.578728  0.421272  0.742184  1
  Co  Co9  1  0.724239  0.275761  0.750031  1
  Co  Co10  1  0.275761  0.724239  0.249969  1
  Sn  Sn11  1  0.000000  0.000000  0.000000  1
