# generated using pymatgen
data_KNd(ReH9)2
_symmetry_space_group_name_H-M   'P 1'
_cell_length_a   5.13959703
_cell_length_b   5.13958619
_cell_length_c   9.13486070
_cell_angle_alpha   91.72483258
_cell_angle_beta   88.27533316
_cell_angle_gamma   122.45352387
_symmetry_Int_Tables_number   1
_chemical_formula_structural   KNd(ReH9)2
_chemical_formula_sum   'K1 Nd1 Re2 H18'
_cell_volume   203.49623948
_cell_formula_units_Z   1
loop_
 _symmetry_equiv_pos_site_id
 _symmetry_equiv_pos_as_xyz
  1  'x, y, z'
loop_
 _atom_site_type_symbol
 _atom_site_label
 _atom_site_symmetry_multiplicity
 _atom_site_fract_x
 _atom_site_fract_y
 _atom_site_fract_z
 _atom_site_occupancy
  K  K0  1  0.000000  0.000000  0.000000  1
  Nd  Nd1  1  0.000000  0.000000  0.500000  1
  Re  Re2  1  0.327907  0.672100  0.721018  1
  Re  Re3  1  0.672093  0.327900  0.278982  1
  H  H4  1  0.411773  0.588229  0.550974  1
  H  H5  1  0.588227  0.411771  0.449026  1
  H  H6  1  0.409980  0.590021  0.881249  1
  H  H7  1  0.590020  0.409979  0.118751  1
  H  H8  1  0.491401  0.975507  0.839476  1
  H  H9  1  0.975501  0.491385  0.160524  1
  H  H10  1  0.527436  0.006085  0.624306  1
  H  H11  1  0.006078  0.527420  0.375696  1
  H  H12  1  0.508599  0.024493  0.160524  1
  H  H13  1  0.024499  0.508615  0.839476  1
  H  H14  1  0.472564  0.993915  0.375694  1
  H  H15  1  0.993922  0.472580  0.624304  1
  H  H16  1  0.703122  0.766683  0.725226  1
  H  H17  1  0.766691  0.703121  0.274774  1
  H  H18  1  0.296878  0.233317  0.274774  1
  H  H19  1  0.233309  0.296879  0.725226  1
  H  H20  1  0.141499  0.858523  0.733059  1
  H  H21  1  0.858501  0.141477  0.266941  1
