# generated using pymatgen
data_Nb12Co8MoW3C4
_symmetry_space_group_name_H-M   'P 1'
_cell_length_a   8.21489464
_cell_length_b   8.21489461
_cell_length_c   8.21489391
_cell_angle_alpha   59.95604166
_cell_angle_beta   59.95604120
_cell_angle_gamma   59.95603546
_symmetry_Int_Tables_number   1
_chemical_formula_structural   Nb12Co8MoW3C4
_chemical_formula_sum   'Nb12 Co8 Mo1 W3 C4'
_cell_volume   391.61359498
_cell_formula_units_Z   1
loop_
 _symmetry_equiv_pos_site_id
 _symmetry_equiv_pos_as_xyz
  1  'x, y, z'
loop_
 _atom_site_type_symbol
 _atom_site_label
 _atom_site_symmetry_multiplicity
 _atom_site_fract_x
 _atom_site_fract_y
 _atom_site_fract_z
 _atom_site_occupancy
  Nb  Nb0  1  0.690832  0.309104  0.690832  1
  Nb  Nb1  1  0.940896  0.559168  0.559168  1
  Nb  Nb2  1  0.558840  0.940936  0.940936  1
  Nb  Nb3  1  0.940936  0.558840  0.940936  1
  Nb  Nb4  1  0.559168  0.559168  0.940896  1
  Nb  Nb5  1  0.940936  0.940936  0.558840  1
  Nb  Nb6  1  0.690832  0.690832  0.309104  1
  Nb  Nb7  1  0.309104  0.690832  0.690832  1
  Nb  Nb8  1  0.691160  0.309064  0.309064  1
  Nb  Nb9  1  0.309064  0.309064  0.691160  1
  Nb  Nb10  1  0.559168  0.940896  0.559168  1
  Nb  Nb11  1  0.309064  0.691160  0.309064  1
  Co  Co12  1  0.327115  0.327115  0.327115  1
  Co  Co13  1  0.230937  0.923035  0.923035  1
  Co  Co14  1  0.923035  0.230937  0.923035  1
  Co  Co15  1  0.923035  0.923035  0.230937  1
  Co  Co16  1  0.326965  0.019063  0.326965  1
  Co  Co17  1  0.326965  0.326965  0.019063  1
  Co  Co18  1  0.019063  0.326965  0.326965  1
  Co  Co19  1  0.922885  0.922885  0.922885  1
  Mo  Mo20  1  0.125000  0.125000  0.125000  1
  W  W21  1  0.625000  0.125000  0.125000  1
  W  W22  1  0.125000  0.625000  0.125000  1
  W  W23  1  0.125000  0.125000  0.625000  1
  C  C24  1  0.625000  0.625000  0.625000  1
  C  C25  1  0.125000  0.625000  0.625000  1
  C  C26  1  0.625000  0.125000  0.625000  1
  C  C27  1  0.625000  0.625000  0.125000  1
