# generated using pymatgen
data_Eu6IO12
_symmetry_space_group_name_H-M   'P 1'
_cell_length_a   6.67394510
_cell_length_b   6.67394483
_cell_length_c   6.67394410
_cell_angle_alpha   98.31466533
_cell_angle_beta   98.31466499
_cell_angle_gamma   98.31465963
_symmetry_Int_Tables_number   1
_chemical_formula_structural   Eu6IO12
_chemical_formula_sum   'Eu6 I1 O12'
_cell_volume   286.86203291
_cell_formula_units_Z   1
loop_
 _symmetry_equiv_pos_site_id
 _symmetry_equiv_pos_as_xyz
  1  'x, y, z'
loop_
 _atom_site_type_symbol
 _atom_site_label
 _atom_site_symmetry_multiplicity
 _atom_site_fract_x
 _atom_site_fract_y
 _atom_site_fract_z
 _atom_site_occupancy
  Eu  Eu0  1  0.144404  0.311422  0.605063  1
  Eu  Eu1  1  0.394937  0.855596  0.688578  1
  Eu  Eu2  1  0.688578  0.394937  0.855596  1
  Eu  Eu3  1  0.311422  0.605063  0.144404  1
  Eu  Eu4  1  0.605063  0.144404  0.311422  1
  Eu  Eu5  1  0.855596  0.688578  0.394937  1
  I  I6  1  0.000000  0.000000  0.000000  1
  O  O7  1  0.067575  0.285158  0.973046  1
  O  O8  1  0.026954  0.932425  0.714842  1
  O  O9  1  0.402075  0.565794  0.823727  1
  O  O10  1  0.176273  0.597925  0.434206  1
  O  O11  1  0.714842  0.026954  0.932425  1
  O  O12  1  0.434206  0.176273  0.597925  1
  O  O13  1  0.565794  0.823727  0.402075  1
  O  O14  1  0.285158  0.973046  0.067575  1
  O  O15  1  0.823727  0.402075  0.565794  1
  O  O16  1  0.597925  0.434206  0.176273  1
  O  O17  1  0.973046  0.067575  0.285158  1
  O  O18  1  0.932425  0.714842  0.026954  1
