# generated using pymatgen
data_Hf9NbSn8
_symmetry_space_group_name_H-M   'P 1'
_cell_length_a   8.75063800
_cell_length_b   8.75063680
_cell_length_c   5.89481700
_cell_angle_alpha   90.00000000
_cell_angle_beta   90.00000000
_cell_angle_gamma   119.99999697
_symmetry_Int_Tables_number   1
_chemical_formula_structural   Hf9NbSn8
_chemical_formula_sum   'Hf9 Nb1 Sn8'
_cell_volume   390.91321213
_cell_formula_units_Z   1
loop_
 _symmetry_equiv_pos_site_id
 _symmetry_equiv_pos_as_xyz
  1  'x, y, z'
loop_
 _atom_site_type_symbol
 _atom_site_label
 _atom_site_symmetry_multiplicity
 _atom_site_fract_x
 _atom_site_fract_y
 _atom_site_fract_z
 _atom_site_occupancy
  Hf  Hf0  1  0.666667  0.333333  0.500000  1
  Hf  Hf1  1  0.666667  0.333333  0.000000  1
  Hf  Hf2  1  0.333333  0.666667  0.500000  1
  Hf  Hf3  1  0.282466  0.999621  0.249972  1
  Hf  Hf4  1  0.282466  0.282845  0.750028  1
  Hf  Hf5  1  0.000379  0.717534  0.750028  1
  Hf  Hf6  1  0.000379  0.282845  0.249972  1
  Hf  Hf7  1  0.717155  0.717534  0.249972  1
  Hf  Hf8  1  0.717155  0.999621  0.750028  1
  Nb  Nb9  1  0.333333  0.666667  0.000000  1
  Sn  Sn10  1  0.000000  0.000000  0.000000  1
  Sn  Sn11  1  0.000000  0.000000  0.500000  1
  Sn  Sn12  1  0.612517  0.998535  0.249159  1
  Sn  Sn13  1  0.612517  0.613983  0.750841  1
  Sn  Sn14  1  0.001465  0.387483  0.750841  1
  Sn  Sn15  1  0.001465  0.613983  0.249159  1
  Sn  Sn16  1  0.386017  0.387483  0.249159  1
  Sn  Sn17  1  0.386017  0.998535  0.750841  1
