# generated using pymatgen
data_Ru(SeBr6)2
_symmetry_space_group_name_H-M   'P 1'
_cell_length_a   9.38152060
_cell_length_b   9.38151984
_cell_length_c   6.97062602
_cell_angle_alpha   72.21835794
_cell_angle_beta   72.21836064
_cell_angle_gamma   78.43556559
_symmetry_Int_Tables_number   1
_chemical_formula_structural   Ru(SeBr6)2
_chemical_formula_sum   'Ru1 Se2 Br12'
_cell_volume   552.38582299
_cell_formula_units_Z   1
loop_
 _symmetry_equiv_pos_site_id
 _symmetry_equiv_pos_as_xyz
  1  'x, y, z'
loop_
 _atom_site_type_symbol
 _atom_site_label
 _atom_site_symmetry_multiplicity
 _atom_site_fract_x
 _atom_site_fract_y
 _atom_site_fract_z
 _atom_site_occupancy
  Ru  Ru0  1  0.000000  0.000000  0.000000  1
  Se  Se1  1  0.275660  0.275660  0.733650  1
  Se  Se2  1  0.724340  0.724340  0.266350  1
  Br  Br3  1  0.958919  0.251778  0.753373  1
  Br  Br4  1  0.251778  0.958919  0.753373  1
  Br  Br5  1  0.041081  0.748222  0.246627  1
  Br  Br6  1  0.748222  0.041081  0.246627  1
  Br  Br7  1  0.213229  0.521689  0.796519  1
  Br  Br8  1  0.521689  0.213229  0.796519  1
  Br  Br9  1  0.786771  0.478311  0.203481  1
  Br  Br10  1  0.478311  0.786771  0.203481  1
  Br  Br11  1  0.124384  0.124384  0.166006  1
  Br  Br12  1  0.875616  0.875616  0.833994  1
  Br  Br13  1  0.650401  0.650401  0.643143  1
  Br  Br14  1  0.349599  0.349599  0.356857  1
