# generated using pymatgen
data_SmLu4(Sn3Os)6
_symmetry_space_group_name_H-M   'P 1'
_cell_length_a   9.85224659
_cell_length_b   9.85224655
_cell_length_c   9.85224700
_cell_angle_alpha   60.00000184
_cell_angle_beta   60.00000198
_cell_angle_gamma   60.00000506
_symmetry_Int_Tables_number   1
_chemical_formula_structural   SmLu4(Sn3Os)6
_chemical_formula_sum   'Sm1 Lu4 Sn18 Os6'
_cell_volume   676.22444632
_cell_formula_units_Z   1
loop_
 _symmetry_equiv_pos_site_id
 _symmetry_equiv_pos_as_xyz
  1  'x, y, z'
loop_
 _atom_site_type_symbol
 _atom_site_label
 _atom_site_symmetry_multiplicity
 _atom_site_fract_x
 _atom_site_fract_y
 _atom_site_fract_z
 _atom_site_occupancy
  Sm  Sm0  1  0.000000  0.000000  0.000000  1
  Lu  Lu1  1  0.372865  0.372866  0.881404  1
  Lu  Lu2  1  0.372866  0.881403  0.372865  1
  Lu  Lu3  1  0.881403  0.372866  0.372865  1
  Lu  Lu4  1  0.372866  0.372865  0.372865  1
  Sn  Sn5  1  0.593552  0.593552  0.219347  1
  Sn  Sn6  1  0.593552  0.219347  0.593552  1
  Sn  Sn7  1  0.219347  0.593552  0.593552  1
  Sn  Sn8  1  0.593552  0.593552  0.593552  1
  Sn  Sn9  1  0.750000  0.750000  0.750000  1
  Sn  Sn10  1  0.998336  0.352052  0.651278  1
  Sn  Sn11  1  0.998336  0.998336  0.651278  1
  Sn  Sn12  1  0.352052  0.998336  0.651278  1
  Sn  Sn13  1  0.998336  0.651278  0.352052  1
  Sn  Sn14  1  0.352052  0.651278  0.998336  1
  Sn  Sn15  1  0.998336  0.651278  0.998336  1
  Sn  Sn16  1  0.651278  0.998336  0.998336  1
  Sn  Sn17  1  0.651278  0.352052  0.998336  1
  Sn  Sn18  1  0.651278  0.998336  0.352052  1
  Sn  Sn19  1  0.352052  0.998336  0.998336  1
  Sn  Sn20  1  0.998336  0.998336  0.352052  1
  Sn  Sn21  1  0.998336  0.352052  0.998336  1
  Sn  Sn22  1  0.250000  0.250000  0.250000  1
  Os  Os23  1  0.256757  0.256757  0.743243  1
  Os  Os24  1  0.743243  0.256757  0.743243  1
  Os  Os25  1  0.256757  0.743243  0.743243  1
  Os  Os26  1  0.743243  0.743243  0.256757  1
  Os  Os27  1  0.256757  0.743243  0.256757  1
  Os  Os28  1  0.743243  0.256757  0.256757  1
