# generated using pymatgen
data_CeY7(Si4W3)4
_symmetry_space_group_name_H-M   'P 1'
_cell_length_a   6.78412304
_cell_length_b   6.94317941
_cell_length_c   12.94740707
_cell_angle_alpha   89.93720770
_cell_angle_beta   90.01986589
_cell_angle_gamma   90.06936334
_symmetry_Int_Tables_number   1
_chemical_formula_structural   CeY7(Si4W3)4
_chemical_formula_sum   'Ce1 Y7 Si16 W12'
_cell_volume   609.86583003
_cell_formula_units_Z   1
loop_
 _symmetry_equiv_pos_site_id
 _symmetry_equiv_pos_as_xyz
  1  'x, y, z'
loop_
 _atom_site_type_symbol
 _atom_site_label
 _atom_site_symmetry_multiplicity
 _atom_site_fract_x
 _atom_site_fract_y
 _atom_site_fract_z
 _atom_site_occupancy
  Ce  Ce0  1  0.997318  0.831297  0.594225  1
  Y  Y1  1  0.496025  0.667753  0.593263  1
  Y  Y2  1  0.995990  0.833354  0.906814  1
  Y  Y3  1  0.503764  0.332797  0.093808  1
  Y  Y4  1  0.004181  0.166162  0.406169  1
  Y  Y5  1  0.503244  0.332425  0.405748  1
  Y  Y6  1  0.003404  0.167642  0.093841  1
  Y  Y7  1  0.496685  0.667377  0.907024  1
  Si  Si8  1  0.660301  0.957381  0.452795  1
  Si  Si9  1  0.160999  0.542488  0.046831  1
  Si  Si10  1  0.339571  0.042563  0.953126  1
  Si  Si11  1  0.837340  0.454208  0.546130  1
  Si  Si12  1  0.340416  0.044244  0.545966  1
  Si  Si13  1  0.839844  0.458127  0.953047  1
  Si  Si14  1  0.660534  0.957456  0.046791  1
  Si  Si15  1  0.162109  0.541713  0.452855  1
  Si  Si16  1  0.463551  0.369846  0.749784  1
  Si  Si17  1  0.963208  0.131024  0.750585  1
  Si  Si18  1  0.536466  0.630418  0.249643  1
  Si  Si19  1  0.036670  0.869624  0.249705  1
  Si  Si20  1  0.694916  0.868898  0.750955  1
  Si  Si21  1  0.197707  0.630532  0.751173  1
  Si  Si22  1  0.303453  0.132383  0.249835  1
  Si  Si23  1  0.803097  0.367638  0.250043  1
  W  W24  1  0.666860  0.162692  0.626427  1
  W  W25  1  0.166788  0.335218  0.874699  1
  W  W26  1  0.332377  0.836667  0.125077  1
  W  W27  1  0.833237  0.664149  0.374692  1
  W  W28  1  0.333662  0.836992  0.374034  1
  W  W29  1  0.833742  0.664119  0.125331  1
  W  W30  1  0.666848  0.164782  0.875037  1
  W  W31  1  0.166891  0.337247  0.626052  1
  W  W32  1  0.834084  0.500118  0.749041  1
  W  W33  1  0.333330  0.001162  0.749071  1
  W  W34  1  0.165403  0.501688  0.250472  1
  W  W35  1  0.665985  0.997819  0.249909  1
