# generated using pymatgen
data_Sc5Al16PIr7
_symmetry_space_group_name_H-M   'P 1'
_cell_length_a   8.66975425
_cell_length_b   8.75743684
_cell_length_c   8.75743726
_cell_angle_alpha   59.33869750
_cell_angle_beta   60.33065593
_cell_angle_gamma   60.33066187
_symmetry_Int_Tables_number   1
_chemical_formula_structural   Sc5Al16PIr7
_chemical_formula_sum   'Sc5 Al16 P1 Ir7'
_cell_volume   470.06689738
_cell_formula_units_Z   1
loop_
 _symmetry_equiv_pos_site_id
 _symmetry_equiv_pos_as_xyz
  1  'x, y, z'
loop_
 _atom_site_type_symbol
 _atom_site_label
 _atom_site_symmetry_multiplicity
 _atom_site_fract_x
 _atom_site_fract_y
 _atom_site_fract_z
 _atom_site_occupancy
  Sc  Sc0  1  0.800289  0.199711  0.199711  1
  Sc  Sc1  1  0.787014  0.212986  0.782391  1
  Sc  Sc2  1  0.787014  0.782391  0.212986  1
  Sc  Sc3  1  0.217609  0.782391  0.212986  1
  Sc  Sc4  1  0.217609  0.212986  0.782391  1
  Al  Al5  1  0.871478  0.833171  0.833171  1
  Al  Al6  1  0.845787  0.821242  0.487185  1
  Al  Al7  1  0.462181  0.833171  0.833171  1
  Al  Al8  1  0.845787  0.487185  0.821242  1
  Al  Al9  1  0.178758  0.154213  0.154213  1
  Al  Al10  1  0.166829  0.128522  0.537819  1
  Al  Al11  1  0.166829  0.537819  0.128522  1
  Al  Al12  1  0.512815  0.154213  0.154213  1
  Al  Al13  1  0.611666  0.619123  0.619123  1
  Al  Al14  1  0.630438  0.617427  0.121697  1
  Al  Al15  1  0.150089  0.619123  0.619123  1
  Al  Al16  1  0.630438  0.121697  0.617427  1
  Al  Al17  1  0.382573  0.369562  0.369562  1
  Al  Al18  1  0.380877  0.388334  0.849911  1
  Al  Al19  1  0.380877  0.849911  0.388334  1
  Al  Al20  1  0.878303  0.369562  0.369562  1
  P  P21  1  0.018040  0.981960  0.981960  1
  Ir  Ir22  1  0.512811  0.487189  0.487189  1
  Ir  Ir23  1  0.011632  0.488368  0.488368  1
  Ir  Ir24  1  0.511632  0.988368  0.988368  1
  Ir  Ir25  1  0.514026  0.993715  0.485974  1
  Ir  Ir26  1  0.514026  0.485974  0.993715  1
  Ir  Ir27  1  0.006285  0.485974  0.993715  1
  Ir  Ir28  1  0.006285  0.993715  0.485974  1
