# generated using pymatgen
data_ErTm11(Si3Rh)4
_symmetry_space_group_name_H-M   'P 1'
_cell_length_a   4.19595500
_cell_length_b   10.56533993
_cell_length_c   12.19195498
_cell_angle_alpha   90.02154501
_cell_angle_beta   90.00000000
_cell_angle_gamma   90.00000000
_symmetry_Int_Tables_number   1
_chemical_formula_structural   ErTm11(Si3Rh)4
_chemical_formula_sum   'Er1 Tm11 Si12 Rh4'
_cell_volume   540.48994154
_cell_formula_units_Z   1
loop_
 _symmetry_equiv_pos_site_id
 _symmetry_equiv_pos_as_xyz
  1  'x, y, z'
loop_
 _atom_site_type_symbol
 _atom_site_label
 _atom_site_symmetry_multiplicity
 _atom_site_fract_x
 _atom_site_fract_y
 _atom_site_fract_z
 _atom_site_occupancy
  Er  Er0  1  0.750000  0.159643  0.699701  1
  Tm  Tm1  1  0.250000  0.879046  0.019979  1
  Tm  Tm2  1  0.250000  0.620931  0.519832  1
  Tm  Tm3  1  0.750000  0.121034  0.979837  1
  Tm  Tm4  1  0.750000  0.378989  0.480206  1
  Tm  Tm5  1  0.250000  0.919963  0.603635  1
  Tm  Tm6  1  0.250000  0.579709  0.103789  1
  Tm  Tm7  1  0.750000  0.079577  0.396627  1
  Tm  Tm8  1  0.750000  0.420480  0.896191  1
  Tm  Tm9  1  0.250000  0.660495  0.800174  1
  Tm  Tm10  1  0.250000  0.839923  0.300227  1
  Tm  Tm11  1  0.750000  0.338774  0.199904  1
  Si  Si12  1  0.250000  0.014174  0.822140  1
  Si  Si13  1  0.250000  0.485288  0.321986  1
  Si  Si14  1  0.750000  0.986070  0.177972  1
  Si  Si15  1  0.750000  0.514681  0.678006  1
  Si  Si16  1  0.250000  0.248921  0.841649  1
  Si  Si17  1  0.250000  0.251356  0.342180  1
  Si  Si18  1  0.750000  0.751771  0.158366  1
  Si  Si19  1  0.750000  0.748389  0.658144  1
  Si  Si20  1  0.250000  0.198384  0.542788  1
  Si  Si21  1  0.250000  0.301900  0.042612  1
  Si  Si22  1  0.750000  0.801634  0.457120  1
  Si  Si23  1  0.750000  0.698346  0.957189  1
  Rh  Rh24  1  0.250000  0.391665  0.680982  1
  Rh  Rh25  1  0.250000  0.109005  0.181219  1
  Rh  Rh26  1  0.750000  0.608707  0.318870  1
  Rh  Rh27  1  0.750000  0.891146  0.818673  1
