# generated using pymatgen
data_Er12Fe3Pb2
_symmetry_space_group_name_H-M   'P 1'
_cell_length_a   8.31392487
_cell_length_b   8.31388858
_cell_length_c   8.31392623
_cell_angle_alpha   108.59681220
_cell_angle_beta   108.59680514
_cell_angle_gamma   111.23475059
_symmetry_Int_Tables_number   1
_chemical_formula_structural   Er12Fe3Pb2
_chemical_formula_sum   'Er12 Fe3 Pb2'
_cell_volume   442.06268384
_cell_formula_units_Z   1
loop_
 _symmetry_equiv_pos_site_id
 _symmetry_equiv_pos_as_xyz
  1  'x, y, z'
loop_
 _atom_site_type_symbol
 _atom_site_label
 _atom_site_symmetry_multiplicity
 _atom_site_fract_x
 _atom_site_fract_y
 _atom_site_fract_z
 _atom_site_occupancy
  Er  Er0  1  0.192616  0.426595  0.233980  1
  Er  Er1  1  0.807384  0.573405  0.766020  1
  Er  Er2  1  0.192614  0.958634  0.766019  1
  Er  Er3  1  0.958637  0.192615  0.766021  1
  Er  Er4  1  0.807386  0.041366  0.233981  1
  Er  Er5  1  0.041363  0.807385  0.233979  1
  Er  Er6  1  0.426594  0.192615  0.233979  1
  Er  Er7  1  0.573406  0.807385  0.766021  1
  Er  Er8  1  0.307722  0.307725  0.615445  1
  Er  Er9  1  0.692278  0.692275  0.384555  1
  Er  Er10  1  0.692280  0.307725  0.000004  1
  Er  Er11  1  0.307720  0.692275  0.999996  1
  Fe  Fe12  1  0.385864  0.385867  0.000003  1
  Fe  Fe13  1  0.614136  0.614133  0.999997  1
  Fe  Fe14  1  0.000000  0.000000  0.000000  1
  Pb  Pb15  1  0.000000  0.500000  0.500000  1
  Pb  Pb16  1  0.500000  0.000000  0.500000  1
