# generated using pymatgen
data_YbPr17(TmIr6)2
_symmetry_space_group_name_H-M   'P 1'
_cell_length_a   11.30402600
_cell_length_b   11.30402600
_cell_length_c   6.55648200
_cell_angle_alpha   90.00000000
_cell_angle_beta   90.00000000
_cell_angle_gamma   90.00000000
_symmetry_Int_Tables_number   1
_chemical_formula_structural   YbPr17(TmIr6)2
_chemical_formula_sum   'Yb1 Pr17 Tm2 Ir12'
_cell_volume   837.79385141
_cell_formula_units_Z   1
loop_
 _symmetry_equiv_pos_site_id
 _symmetry_equiv_pos_as_xyz
  1  'x, y, z'
loop_
 _atom_site_type_symbol
 _atom_site_label
 _atom_site_symmetry_multiplicity
 _atom_site_fract_x
 _atom_site_fract_y
 _atom_site_fract_z
 _atom_site_occupancy
  Yb  Yb0  1  0.500000  0.500000  0.000000  1
  Pr  Pr1  1  0.287110  0.088343  0.383642  1
  Pr  Pr2  1  0.287865  0.912636  0.883092  1
  Pr  Pr3  1  0.712135  0.087364  0.883092  1
  Pr  Pr4  1  0.712890  0.911657  0.383642  1
  Pr  Pr5  1  0.587092  0.787893  0.884249  1
  Pr  Pr6  1  0.588234  0.208832  0.384019  1
  Pr  Pr7  1  0.411766  0.791168  0.384019  1
  Pr  Pr8  1  0.412908  0.212107  0.884249  1
  Pr  Pr9  1  0.208832  0.411766  0.615981  1
  Pr  Pr10  1  0.212107  0.587092  0.115751  1
  Pr  Pr11  1  0.787893  0.412908  0.115751  1
  Pr  Pr12  1  0.791168  0.588234  0.615981  1
  Pr  Pr13  1  0.912636  0.712135  0.116908  1
  Pr  Pr14  1  0.911657  0.287110  0.616358  1
  Pr  Pr15  1  0.088343  0.712890  0.616358  1
  Pr  Pr16  1  0.087364  0.287865  0.116908  1
  Pr  Pr17  1  0.500000  0.500000  0.500000  1
  Tm  Tm18  1  0.000000  0.000000  0.500000  1
  Tm  Tm19  1  0.000000  0.000000  0.000000  1
  Ir  Ir20  1  0.853945  0.146252  0.249191  1
  Ir  Ir21  1  0.853748  0.853945  0.750809  1
  Ir  Ir22  1  0.146252  0.146055  0.750809  1
  Ir  Ir23  1  0.146055  0.853748  0.249191  1
  Ir  Ir24  1  0.655139  0.345309  0.748190  1
  Ir  Ir25  1  0.654691  0.655139  0.251810  1
  Ir  Ir26  1  0.345309  0.344861  0.251810  1
  Ir  Ir27  1  0.344861  0.654691  0.748190  1
  Ir  Ir28  1  0.500000  0.000000  0.116315  1
  Ir  Ir29  1  0.500000  0.000000  0.617999  1
  Ir  Ir30  1  0.000000  0.500000  0.883685  1
  Ir  Ir31  1  0.000000  0.500000  0.382001  1
