# generated using pymatgen
data_Tb9Ho(OsRu)2
_symmetry_space_group_name_H-M   'P 1'
_cell_length_a   6.40220709
_cell_length_b   7.31041458
_cell_length_c   8.49828569
_cell_angle_alpha   96.78378323
_cell_angle_beta   112.12797201
_cell_angle_gamma   89.99999532
_symmetry_Int_Tables_number   1
_chemical_formula_structural   Tb9Ho(OsRu)2
_chemical_formula_sum   'Tb9 Ho1 Os2 Ru2'
_cell_volume   365.43983707
_cell_formula_units_Z   1
loop_
 _symmetry_equiv_pos_site_id
 _symmetry_equiv_pos_as_xyz
  1  'x, y, z'
loop_
 _atom_site_type_symbol
 _atom_site_label
 _atom_site_symmetry_multiplicity
 _atom_site_fract_x
 _atom_site_fract_y
 _atom_site_fract_z
 _atom_site_occupancy
  Tb  Tb0  1  0.978492  0.916346  0.184537  1
  Tb  Tb1  1  0.793956  0.583654  0.815463  1
  Tb  Tb2  1  0.020635  0.085376  0.813941  1
  Tb  Tb3  1  0.206695  0.414624  0.186059  1
  Tb  Tb4  1  0.640368  0.814769  0.434233  1
  Tb  Tb5  1  0.206135  0.685231  0.565767  1
  Tb  Tb6  1  0.360404  0.185570  0.566627  1
  Tb  Tb7  1  0.793777  0.314430  0.433373  1
  Tb  Tb8  1  0.424256  0.750000  0.000000  1
  Ho  Ho9  1  0.576703  0.250000  0.000000  1
  Os  Os10  1  0.823010  0.574744  0.219249  1
  Os  Os11  1  0.603763  0.925256  0.780751  1
  Ru  Ru12  1  0.175707  0.423807  0.779606  1
  Ru  Ru13  1  0.396100  0.076193  0.220394  1
