# generated using pymatgen
data_Cs4HoNbBr12
_symmetry_space_group_name_H-M   'P 1'
_cell_length_a   13.82398961
_cell_length_b   13.82398901
_cell_length_c   13.82398975
_cell_angle_alpha   132.05915324
_cell_angle_beta   132.05915707
_cell_angle_gamma   70.13561564
_symmetry_Int_Tables_number   1
_chemical_formula_structural   Cs4HoNbBr12
_chemical_formula_sum   'Cs8 Ho2 Nb2 Br24'
_cell_volume   1427.52312867
_cell_formula_units_Z   2
loop_
 _symmetry_equiv_pos_site_id
 _symmetry_equiv_pos_as_xyz
  1  'x, y, z'
loop_
 _atom_site_type_symbol
 _atom_site_label
 _atom_site_symmetry_multiplicity
 _atom_site_fract_x
 _atom_site_fract_y
 _atom_site_fract_z
 _atom_site_occupancy
  Cs  Cs0  1  0.375098  0.348436  0.471131  1
  Cs  Cs1  1  0.096034  0.624902  0.973338  1
  Cs  Cs2  1  0.877305  0.903966  0.528869  1
  Cs  Cs3  1  0.098436  0.127305  0.473338  1
  Cs  Cs4  1  0.374902  0.901564  0.028869  1
  Cs  Cs5  1  0.653966  0.625098  0.526662  1
  Cs  Cs6  1  0.651564  0.122695  0.026662  1
  Cs  Cs7  1  0.872695  0.346034  0.971131  1
  Ho  Ho8  1  0.750000  0.250000  0.500000  1
  Ho  Ho9  1  0.000000  0.000000  0.000000  1
  Nb  Nb10  1  0.250000  0.750000  0.500000  1
  Nb  Nb11  1  0.500000  0.500000  0.000000  1
  Br  Br12  1  0.021356  0.769553  0.294634  1
  Br  Br13  1  0.018281  0.253372  0.262175  1
  Br  Br14  1  0.273278  0.978644  0.748197  1
  Br  Br15  1  0.003372  0.241197  0.735091  1
  Br  Br16  1  0.137069  0.637069  0.500000  1
  Br  Br17  1  0.275081  0.523278  0.794634  1
  Br  Br18  1  0.474919  0.726722  0.705366  1
  Br  Br19  1  0.506106  0.268281  0.264909  1
  Br  Br20  1  0.476722  0.271356  0.751803  1
  Br  Br21  1  0.612931  0.612931  0.000000  1
  Br  Br22  1  0.519553  0.724919  0.248197  1
  Br  Br23  1  0.123693  0.123693  0.000000  1
  Br  Br24  1  0.876307  0.876307  0.000000  1
  Br  Br25  1  0.991197  0.756106  0.737825  1
  Br  Br26  1  0.746628  0.008803  0.764909  1
  Br  Br27  1  0.243894  0.981719  0.235091  1
  Br  Br28  1  0.728644  0.480447  0.205366  1
  Br  Br29  1  0.230447  0.525081  0.251803  1
  Br  Br30  1  0.362931  0.862931  0.500000  1
  Br  Br31  1  0.873693  0.373693  0.500000  1
  Br  Br32  1  0.387069  0.387069  0.000000  1
  Br  Br33  1  0.626307  0.126307  0.500000  1
  Br  Br34  1  0.758803  0.493894  0.762175  1
  Br  Br35  1  0.731719  0.996628  0.237825  1
