# generated using pymatgen
data_Pr3Al9Re3Os4
_symmetry_space_group_name_H-M   'P 1'
_cell_length_a   8.95162600
_cell_length_b   8.95162555
_cell_length_c   9.69005700
_cell_angle_alpha   90.00000000
_cell_angle_beta   90.00000000
_cell_angle_gamma   120.00000167
_symmetry_Int_Tables_number   1
_chemical_formula_structural   Pr3Al9Re3Os4
_chemical_formula_sum   'Pr6 Al18 Re6 Os8'
_cell_volume   672.45122994
_cell_formula_units_Z   2
loop_
 _symmetry_equiv_pos_site_id
 _symmetry_equiv_pos_as_xyz
  1  'x, y, z'
loop_
 _atom_site_type_symbol
 _atom_site_label
 _atom_site_symmetry_multiplicity
 _atom_site_fract_x
 _atom_site_fract_y
 _atom_site_fract_z
 _atom_site_occupancy
  Pr  Pr0  1  0.194599  0.389198  0.250000  1
  Pr  Pr1  1  0.805401  0.610802  0.750000  1
  Pr  Pr2  1  0.610802  0.805401  0.250000  1
  Pr  Pr3  1  0.389198  0.194599  0.750000  1
  Pr  Pr4  1  0.194599  0.805401  0.250000  1
  Pr  Pr5  1  0.805401  0.194599  0.750000  1
  Al  Al6  1  0.333333  0.666667  0.005061  1
  Al  Al7  1  0.666667  0.333333  0.994939  1
  Al  Al8  1  0.666667  0.333333  0.505061  1
  Al  Al9  1  0.333333  0.666667  0.494939  1
  Al  Al10  1  0.165761  0.331520  0.575648  1
  Al  Al11  1  0.834239  0.668480  0.424352  1
  Al  Al12  1  0.668480  0.834239  0.575648  1
  Al  Al13  1  0.834239  0.668480  0.075648  1
  Al  Al14  1  0.331520  0.165761  0.424352  1
  Al  Al15  1  0.165761  0.331520  0.924352  1
  Al  Al16  1  0.165761  0.834239  0.575648  1
  Al  Al17  1  0.331520  0.165761  0.075648  1
  Al  Al18  1  0.834239  0.165761  0.424352  1
  Al  Al19  1  0.668480  0.834239  0.924352  1
  Al  Al20  1  0.834239  0.165761  0.075648  1
  Al  Al21  1  0.165761  0.834239  0.924352  1
  Al  Al22  1  0.000000  0.000000  0.250000  1
  Al  Al23  1  0.000000  0.000000  0.750000  1
  Re  Re24  1  0.572038  0.144076  0.250000  1
  Re  Re25  1  0.427962  0.855924  0.750000  1
  Re  Re26  1  0.855924  0.427962  0.250000  1
  Re  Re27  1  0.144076  0.572038  0.750000  1
  Re  Re28  1  0.572038  0.427962  0.250000  1
  Re  Re29  1  0.427962  0.572038  0.750000  1
  Os  Os30  1  0.500000  0.000000  0.000000  1
  Os  Os31  1  0.000000  0.500000  0.000000  1
  Os  Os32  1  0.500000  0.000000  0.500000  1
  Os  Os33  1  0.500000  0.500000  0.000000  1
  Os  Os34  1  0.000000  0.500000  0.500000  1
  Os  Os35  1  0.500000  0.500000  0.500000  1
  Os  Os36  1  0.000000  0.000000  0.000000  1
  Os  Os37  1  0.000000  0.000000  0.500000  1
