# generated using pymatgen
data_CaCd3Ga4(BO4)4
_symmetry_space_group_name_H-M   'P 1'
_cell_length_a   5.92111898
_cell_length_b   8.41376886
_cell_length_c   8.72487575
_cell_angle_alpha   118.48304842
_cell_angle_beta   89.98586513
_cell_angle_gamma   89.94999408
_symmetry_Int_Tables_number   1
_chemical_formula_structural   CaCd3Ga4(BO4)4
_chemical_formula_sum   'Ca1 Cd3 Ga4 B4 O16'
_cell_volume   382.05120414
_cell_formula_units_Z   1
loop_
 _symmetry_equiv_pos_site_id
 _symmetry_equiv_pos_as_xyz
  1  'x, y, z'
loop_
 _atom_site_type_symbol
 _atom_site_label
 _atom_site_symmetry_multiplicity
 _atom_site_fract_x
 _atom_site_fract_y
 _atom_site_fract_z
 _atom_site_occupancy
  Ca  Ca0  1  0.598494  0.548505  0.818053  1
  Cd  Cd1  1  0.601442  0.452223  0.183340  1
  Cd  Cd2  1  0.099749  0.728848  0.180899  1
  Cd  Cd3  1  0.100602  0.268823  0.818302  1
  Ga  Ga4  1  0.373870  0.185188  0.406806  1
  Ga  Ga5  1  0.873240  0.219109  0.407202  1
  Ga  Ga6  1  0.873908  0.780096  0.591127  1
  Ga  Ga7  1  0.372823  0.814187  0.591169  1
  B  B8  1  0.139870  0.345563  0.210198  1
  B  B9  1  0.641384  0.864181  0.213896  1
  B  B10  1  0.639830  0.135119  0.790078  1
  B  B11  1  0.139585  0.656642  0.788713  1
  O  O12  1  0.175555  0.425403  0.106683  1
  O  O13  1  0.677517  0.682559  0.113179  1
  O  O14  1  0.333443  0.284173  0.255731  1
  O  O15  1  0.834462  0.971396  0.255740  1
  O  O16  1  0.924256  0.328590  0.264776  1
  O  O17  1  0.424471  0.935178  0.265051  1
  O  O18  1  0.618518  0.692160  0.460160  1
  O  O19  1  0.118915  0.766750  0.457375  1
  O  O20  1  0.119361  0.234126  0.541450  1
  O  O21  1  0.618654  0.305083  0.539049  1
  O  O22  1  0.424161  0.063784  0.735275  1
  O  O23  1  0.923491  0.671890  0.734403  1
  O  O24  1  0.833756  0.028439  0.743798  1
  O  O25  1  0.332233  0.719698  0.744831  1
  O  O26  1  0.673147  0.317368  0.891831  1
  O  O27  1  0.177263  0.574921  0.890886  1
