# generated using pymatgen
data_Y2U2Ge6Ru7
_symmetry_space_group_name_H-M   'P 1'
_cell_length_a   7.16820471
_cell_length_b   7.29086686
_cell_length_c   7.16820510
_cell_angle_alpha   109.33441922
_cell_angle_beta   109.05688184
_cell_angle_gamma   109.33441152
_symmetry_Int_Tables_number   1
_chemical_formula_structural   Y2U2Ge6Ru7
_chemical_formula_sum   'Y2 U2 Ge6 Ru7'
_cell_volume   290.80960751
_cell_formula_units_Z   1
loop_
 _symmetry_equiv_pos_site_id
 _symmetry_equiv_pos_as_xyz
  1  'x, y, z'
loop_
 _atom_site_type_symbol
 _atom_site_label
 _atom_site_symmetry_multiplicity
 _atom_site_fract_x
 _atom_site_fract_y
 _atom_site_fract_z
 _atom_site_occupancy
  Y  Y0  1  0.000000  0.000000  0.500000  1
  Y  Y1  1  0.500000  0.000000  0.000000  1
  U  U2  1  0.000000  0.500000  0.000000  1
  U  U3  1  0.500000  0.500000  0.500000  1
  Ge  Ge4  1  0.689105  0.692103  0.002997  1
  Ge  Ge5  1  0.314661  0.000000  0.314661  1
  Ge  Ge6  1  0.997003  0.307897  0.310895  1
  Ge  Ge7  1  0.310895  0.307897  0.997003  1
  Ge  Ge8  1  0.685339  0.000000  0.685339  1
  Ge  Ge9  1  0.002997  0.692103  0.689105  1
  Ru  Ru10  1  0.753997  0.268745  0.514747  1
  Ru  Ru11  1  0.750000  0.500000  0.250000  1
  Ru  Ru12  1  0.514747  0.268745  0.753997  1
  Ru  Ru13  1  0.250000  0.500000  0.750000  1
  Ru  Ru14  1  0.246003  0.731255  0.485253  1
  Ru  Ru15  1  0.485253  0.731255  0.246003  1
  Ru  Ru16  1  0.000000  0.000000  0.000000  1
