# generated using pymatgen
data_Yb2Tm2MoOs7
_symmetry_space_group_name_H-M   'P 1'
_cell_length_a   5.38594600
_cell_length_b   5.38594458
_cell_length_c   8.55660000
_cell_angle_alpha   90.00000000
_cell_angle_beta   90.00000000
_cell_angle_gamma   119.99999642
_symmetry_Int_Tables_number   1
_chemical_formula_structural   Yb2Tm2MoOs7
_chemical_formula_sum   'Yb2 Tm2 Mo1 Os7'
_cell_volume   214.95905934
_cell_formula_units_Z   1
loop_
 _symmetry_equiv_pos_site_id
 _symmetry_equiv_pos_as_xyz
  1  'x, y, z'
loop_
 _atom_site_type_symbol
 _atom_site_label
 _atom_site_symmetry_multiplicity
 _atom_site_fract_x
 _atom_site_fract_y
 _atom_site_fract_z
 _atom_site_occupancy
  Yb  Yb0  1  0.666667  0.333333  0.941565  1
  Yb  Yb1  1  0.333333  0.666667  0.058435  1
  Tm  Tm2  1  0.333333  0.666667  0.425386  1
  Tm  Tm3  1  0.666667  0.333333  0.574614  1
  Mo  Mo4  1  0.000000  0.000000  0.500000  1
  Os  Os5  1  0.000000  0.000000  0.000000  1
  Os  Os6  1  0.827008  0.172992  0.252647  1
  Os  Os7  1  0.827008  0.654017  0.252647  1
  Os  Os8  1  0.345983  0.172992  0.252647  1
  Os  Os9  1  0.172992  0.827008  0.747353  1
  Os  Os10  1  0.172992  0.345983  0.747353  1
  Os  Os11  1  0.654017  0.827008  0.747353  1
