# generated using pymatgen
data_Th2Zn16Au
_symmetry_space_group_name_H-M   'P 1'
_cell_length_a   6.88336633
_cell_length_b   6.88336590
_cell_length_c   6.88336531
_cell_angle_alpha   82.46303821
_cell_angle_beta   97.53694289
_cell_angle_gamma   97.53696614
_symmetry_Int_Tables_number   1
_chemical_formula_structural   Th2Zn16Au
_chemical_formula_sum   'Th2 Zn16 Au1'
_cell_volume   318.36565722
_cell_formula_units_Z   1
loop_
 _symmetry_equiv_pos_site_id
 _symmetry_equiv_pos_as_xyz
  1  'x, y, z'
loop_
 _atom_site_type_symbol
 _atom_site_label
 _atom_site_symmetry_multiplicity
 _atom_site_fract_x
 _atom_site_fract_y
 _atom_site_fract_z
 _atom_site_occupancy
  Th  Th0  1  0.660943  0.339057  0.339057  1
  Th  Th1  1  0.339200  0.660800  0.660800  1
  Zn  Zn2  1  0.498212  0.999458  0.999458  1
  Zn  Zn3  1  0.292837  0.293209  0.000429  1
  Zn  Zn4  1  0.706790  0.707163  0.000429  1
  Zn  Zn5  1  0.000542  0.501789  0.999459  1
  Zn  Zn6  1  0.351475  0.648525  0.158547  1
  Zn  Zn7  1  0.999571  0.707163  0.293210  1
  Zn  Zn8  1  0.292837  0.000429  0.293210  1
  Zn  Zn9  1  0.158719  0.352197  0.352198  1
  Zn  Zn10  1  0.647803  0.841281  0.352198  1
  Zn  Zn11  1  0.000542  0.999458  0.501790  1
  Zn  Zn12  1  0.841452  0.648525  0.648525  1
  Zn  Zn13  1  0.351475  0.158546  0.648526  1
  Zn  Zn14  1  0.999571  0.293209  0.707163  1
  Zn  Zn15  1  0.706791  0.000429  0.707164  1
  Zn  Zn16  1  0.647802  0.352197  0.841280  1
  Zn  Zn17  1  0.104242  0.895758  0.895759  1
  Au  Au18  1  0.899197  0.100803  0.100804  1
