# generated using pymatgen
data_Tb5YNb2(Co4P3)4
_symmetry_space_group_name_H-M   'P 1'
_cell_length_a   3.71402800
_cell_length_b   10.64252500
_cell_length_c   12.34192500
_cell_angle_alpha   89.99808074
_cell_angle_beta   90.00000000
_cell_angle_gamma   90.00000000
_symmetry_Int_Tables_number   1
_chemical_formula_structural   Tb5YNb2(Co4P3)4
_chemical_formula_sum   'Tb5 Y1 Nb2 Co16 P12'
_cell_volume   487.83477491
_cell_formula_units_Z   1
loop_
 _symmetry_equiv_pos_site_id
 _symmetry_equiv_pos_as_xyz
  1  'x, y, z'
loop_
 _atom_site_type_symbol
 _atom_site_label
 _atom_site_symmetry_multiplicity
 _atom_site_fract_x
 _atom_site_fract_y
 _atom_site_fract_z
 _atom_site_occupancy
  Tb  Tb0  1  0.000000  0.500049  0.525851  1
  Tb  Tb1  1  0.500000  0.999922  0.474116  1
  Tb  Tb2  1  0.500000  0.179863  0.205444  1
  Tb  Tb3  1  0.000000  0.679969  0.794566  1
  Tb  Tb4  1  0.000000  0.320049  0.794584  1
  Y  Y5  1  0.500000  0.819933  0.205320  1
  Nb  Nb6  1  0.500000  0.500068  0.156279  1
  Nb  Nb7  1  0.000000  0.999981  0.843806  1
  Co  Co8  1  0.500000  0.500024  0.701853  1
  Co  Co9  1  0.000000  0.999969  0.298122  1
  Co  Co10  1  0.000000  0.500059  0.985529  1
  Co  Co11  1  0.500000  0.999948  0.014538  1
  Co  Co12  1  0.500000  0.332493  0.991567  1
  Co  Co13  1  0.500000  0.667557  0.991553  1
  Co  Co14  1  0.000000  0.167476  0.008466  1
  Co  Co15  1  0.000000  0.832472  0.008555  1
  Co  Co16  1  0.500000  0.295330  0.432197  1
  Co  Co17  1  0.500000  0.704693  0.432168  1
  Co  Co18  1  0.000000  0.204670  0.567785  1
  Co  Co19  1  0.000000  0.795319  0.567754  1
  Co  Co20  1  0.500000  0.877644  0.704935  1
  Co  Co21  1  0.500000  0.122338  0.704962  1
  Co  Co22  1  0.000000  0.622447  0.294984  1
  Co  Co23  1  0.000000  0.377669  0.295038  1
  P  P24  1  0.500000  0.500022  0.882104  1
  P  P25  1  0.000000  0.999885  0.118046  1
  P  P26  1  0.500000  0.499964  0.354573  1
  P  P27  1  0.000000  0.000002  0.645387  1
  P  P28  1  0.500000  0.310373  0.615228  1
  P  P29  1  0.500000  0.689654  0.615204  1
  P  P30  1  0.000000  0.189604  0.384775  1
  P  P31  1  0.000000  0.810475  0.384600  1
  P  P32  1  0.500000  0.841638  0.893855  1
  P  P33  1  0.500000  0.158346  0.893896  1
  P  P34  1  0.000000  0.658469  0.106244  1
  P  P35  1  0.000000  0.341626  0.106115  1
