# generated using pymatgen
data_Er7Th3Sn8
_symmetry_space_group_name_H-M   'P 1'
_cell_length_a   8.08502200
_cell_length_b   8.17339521
_cell_length_c   15.46167407
_cell_angle_alpha   90.06076827
_cell_angle_beta   90.00000000
_cell_angle_gamma   90.00000000
_symmetry_Int_Tables_number   1
_chemical_formula_structural   Er7Th3Sn8
_chemical_formula_sum   'Er14 Th6 Sn16'
_cell_volume   1021.73900898
_cell_formula_units_Z   2
loop_
 _symmetry_equiv_pos_site_id
 _symmetry_equiv_pos_as_xyz
  1  'x, y, z'
loop_
 _atom_site_type_symbol
 _atom_site_label
 _atom_site_symmetry_multiplicity
 _atom_site_fract_x
 _atom_site_fract_y
 _atom_site_fract_z
 _atom_site_occupancy
  Er  Er0  1  0.359176  0.836526  0.875577  1
  Er  Er1  1  0.859176  0.663474  0.624423  1
  Er  Er2  1  0.636040  0.164158  0.377168  1
  Er  Er3  1  0.136040  0.335842  0.122832  1
  Er  Er4  1  0.638634  0.163478  0.122932  1
  Er  Er5  1  0.138634  0.336522  0.377068  1
  Er  Er6  1  0.362760  0.838545  0.624853  1
  Er  Er7  1  0.862760  0.661455  0.875147  1
  Er  Er8  1  0.525826  0.323770  0.899194  1
  Er  Er9  1  0.025826  0.176230  0.600806  1
  Er  Er10  1  0.192157  0.499967  0.749761  1
  Er  Er11  1  0.692157  0.000033  0.750239  1
  Er  Er12  1  0.808248  0.500865  0.249744  1
  Er  Er13  1  0.308248  0.999135  0.250256  1
  Th  Th14  1  0.479934  0.678869  0.404264  1
  Th  Th15  1  0.979934  0.821131  0.095736  1
  Th  Th16  1  0.481463  0.678409  0.096262  1
  Th  Th17  1  0.981463  0.821591  0.403738  1
  Th  Th18  1  0.516211  0.321996  0.595220  1
  Th  Th19  1  0.016211  0.178004  0.904780  1
  Sn  Sn20  1  0.299590  0.038081  0.042245  1
  Sn  Sn21  1  0.799590  0.461919  0.457755  1
  Sn  Sn22  1  0.706941  0.966094  0.543237  1
  Sn  Sn23  1  0.206941  0.533906  0.956763  1
  Sn  Sn24  1  0.696533  0.959450  0.957568  1
  Sn  Sn25  1  0.196533  0.540550  0.542432  1
  Sn  Sn26  1  0.296099  0.041502  0.460091  1
  Sn  Sn27  1  0.796099  0.458498  0.039909  1
  Sn  Sn28  1  0.557403  0.621551  0.749657  1
  Sn  Sn29  1  0.057403  0.878449  0.750343  1
  Sn  Sn30  1  0.441261  0.376048  0.249726  1
  Sn  Sn31  1  0.941261  0.123952  0.250274  1
  Sn  Sn32  1  0.327687  0.146545  0.752336  1
  Sn  Sn33  1  0.827687  0.353455  0.747664  1
  Sn  Sn34  1  0.674035  0.858177  0.250275  1
  Sn  Sn35  1  0.174035  0.641823  0.249725  1
