# generated using pymatgen
data_Sm2SnB2Rh5
_symmetry_space_group_name_H-M   'P 1'
_cell_length_a   9.68131100
_cell_length_b   9.68131100
_cell_length_c   3.31381400
_cell_angle_alpha   90.00000000
_cell_angle_beta   90.00000000
_cell_angle_gamma   90.00000000
_symmetry_Int_Tables_number   1
_chemical_formula_structural   Sm2SnB2Rh5
_chemical_formula_sum   'Sm4 Sn2 B4 Rh10'
_cell_volume   310.59643843
_cell_formula_units_Z   2
loop_
 _symmetry_equiv_pos_site_id
 _symmetry_equiv_pos_as_xyz
  1  'x, y, z'
loop_
 _atom_site_type_symbol
 _atom_site_label
 _atom_site_symmetry_multiplicity
 _atom_site_fract_x
 _atom_site_fract_y
 _atom_site_fract_z
 _atom_site_occupancy
  Sm  Sm0  1  0.824486  0.324486  0.000000  1
  Sm  Sm1  1  0.324486  0.175514  0.000000  1
  Sm  Sm2  1  0.675514  0.824486  0.000000  1
  Sm  Sm3  1  0.175514  0.675514  0.000000  1
  Sn  Sn4  1  0.000000  0.000000  0.000000  1
  Sn  Sn5  1  0.500000  0.500000  0.000000  1
  B  B6  1  0.620011  0.120011  0.000000  1
  B  B7  1  0.120011  0.379989  0.000000  1
  B  B8  1  0.879989  0.620011  0.000000  1
  B  B9  1  0.379989  0.879989  0.000000  1
  Rh  Rh10  1  0.070722  0.226227  0.500000  1
  Rh  Rh11  1  0.226227  0.929278  0.500000  1
  Rh  Rh12  1  0.773773  0.070722  0.500000  1
  Rh  Rh13  1  0.929278  0.773773  0.500000  1
  Rh  Rh14  1  0.429278  0.726227  0.500000  1
  Rh  Rh15  1  0.570722  0.273773  0.500000  1
  Rh  Rh16  1  0.726227  0.570722  0.500000  1
  Rh  Rh17  1  0.273773  0.429278  0.500000  1
  Rh  Rh18  1  0.500000  0.000000  0.500000  1
  Rh  Rh19  1  0.000000  0.500000  0.500000  1
