# generated using pymatgen
data_Th14ReNi5
_symmetry_space_group_name_H-M   'P 1'
_cell_length_a   9.86342600
_cell_length_b   9.88991591
_cell_length_c   6.21075282
_cell_angle_alpha   90.16540959
_cell_angle_beta   90.00009333
_cell_angle_gamma   119.91198963
_symmetry_Int_Tables_number   1
_chemical_formula_structural   Th14ReNi5
_chemical_formula_sum   'Th14 Re1 Ni5'
_cell_volume   525.14269438
_cell_formula_units_Z   1
loop_
 _symmetry_equiv_pos_site_id
 _symmetry_equiv_pos_as_xyz
  1  'x, y, z'
loop_
 _atom_site_type_symbol
 _atom_site_label
 _atom_site_symmetry_multiplicity
 _atom_site_fract_x
 _atom_site_fract_y
 _atom_site_fract_z
 _atom_site_occupancy
  Th  Th0  1  0.334874  0.669755  0.061920  1
  Th  Th1  1  0.666560  0.333110  0.561893  1
  Th  Th2  1  0.871735  0.743435  0.740845  1
  Th  Th3  1  0.251563  0.123946  0.744075  1
  Th  Th4  1  0.127519  0.255078  0.249395  1
  Th  Th5  1  0.746514  0.873186  0.242365  1
  Th  Th6  1  0.872371  0.123925  0.744086  1
  Th  Th7  1  0.126704  0.873189  0.242334  1
  Th  Th8  1  0.085541  0.545193  0.539574  1
  Th  Th9  1  0.915789  0.454915  0.040471  1
  Th  Th10  1  0.455393  0.910779  0.539899  1
  Th  Th11  1  0.544456  0.088936  0.042326  1
  Th  Th12  1  0.459649  0.545183  0.539584  1
  Th  Th13  1  0.539149  0.454937  0.040465  1
  Re  Re14  1  0.188259  0.376553  0.806875  1
  Ni  Ni15  1  0.628755  0.816481  0.805637  1
  Ni  Ni16  1  0.374776  0.184304  0.303426  1
  Ni  Ni17  1  0.813175  0.626304  0.305903  1
  Ni  Ni18  1  0.187777  0.816532  0.805492  1
  Ni  Ni19  1  0.809444  0.184261  0.303433  1
