# generated using pymatgen
data_La8Cu3Si12Pd
_symmetry_space_group_name_H-M   'P 1'
_cell_length_a   8.21060400
_cell_length_b   8.21060481
_cell_length_c   8.86842500
_cell_angle_alpha   90.00000000
_cell_angle_beta   90.00000000
_cell_angle_gamma   120.00000480
_symmetry_Int_Tables_number   1
_chemical_formula_structural   La8Cu3Si12Pd
_chemical_formula_sum   'La8 Cu3 Si12 Pd1'
_cell_volume   517.75865084
_cell_formula_units_Z   1
loop_
 _symmetry_equiv_pos_site_id
 _symmetry_equiv_pos_as_xyz
  1  'x, y, z'
loop_
 _atom_site_type_symbol
 _atom_site_label
 _atom_site_symmetry_multiplicity
 _atom_site_fract_x
 _atom_site_fract_y
 _atom_site_fract_z
 _atom_site_occupancy
  La  La0  1  0.499263  0.500737  0.749735  1
  La  La1  1  0.499659  0.500341  0.250261  1
  La  La2  1  0.001473  0.500737  0.749735  1
  La  La3  1  0.000681  0.500341  0.250261  1
  La  La4  1  0.499263  0.998527  0.749735  1
  La  La5  1  0.499659  0.999319  0.250261  1
  La  La6  1  0.000000  0.000000  0.749453  1
  La  La7  1  0.000000  0.000000  0.250760  1
  Cu  Cu8  1  0.666667  0.333333  0.997635  1
  Cu  Cu9  1  0.333333  0.666667  0.001829  1
  Cu  Cu10  1  0.333333  0.666667  0.498792  1
  Si  Si11  1  0.831468  0.168532  0.000511  1
  Si  Si12  1  0.168581  0.831419  0.999695  1
  Si  Si13  1  0.337062  0.168532  0.000511  1
  Si  Si14  1  0.167409  0.832591  0.499621  1
  Si  Si15  1  0.662837  0.831419  0.999695  1
  Si  Si16  1  0.834256  0.165744  0.500608  1
  Si  Si17  1  0.831468  0.662938  0.000511  1
  Si  Si18  1  0.665183  0.832591  0.499621  1
  Si  Si19  1  0.168581  0.337163  0.999695  1
  Si  Si20  1  0.331489  0.165744  0.500608  1
  Si  Si21  1  0.167409  0.334817  0.499621  1
  Si  Si22  1  0.834256  0.668511  0.500608  1
  Pd  Pd23  1  0.666667  0.333333  0.500245  1
