# generated using pymatgen
data_Ho4Co3Si4Ru
_symmetry_space_group_name_H-M   'P 1'
_cell_length_a   4.22135900
_cell_length_b   6.92716804
_cell_length_c   6.87950525
_cell_angle_alpha   90.18653297
_cell_angle_beta   90.00000000
_cell_angle_gamma   90.00000000
_symmetry_Int_Tables_number   1
_chemical_formula_structural   Ho4Co3Si4Ru
_chemical_formula_sum   'Ho4 Co3 Si4 Ru1'
_cell_volume   201.16986092
_cell_formula_units_Z   1
loop_
 _symmetry_equiv_pos_site_id
 _symmetry_equiv_pos_as_xyz
  1  'x, y, z'
loop_
 _atom_site_type_symbol
 _atom_site_label
 _atom_site_symmetry_multiplicity
 _atom_site_fract_x
 _atom_site_fract_y
 _atom_site_fract_z
 _atom_site_occupancy
  Ho  Ho0  1  0.250000  0.183803  0.978754  1
  Ho  Ho1  1  0.750000  0.817668  0.015463  1
  Ho  Ho2  1  0.250000  0.307534  0.483136  1
  Ho  Ho3  1  0.750000  0.690458  0.516114  1
  Co  Co4  1  0.750000  0.432545  0.851694  1
  Co  Co5  1  0.250000  0.935786  0.650970  1
  Co  Co6  1  0.750000  0.067660  0.355286  1
  Si  Si7  1  0.250000  0.605492  0.799998  1
  Si  Si8  1  0.750000  0.387277  0.194891  1
  Si  Si9  1  0.250000  0.896703  0.307151  1
  Si  Si10  1  0.750000  0.108440  0.694575  1
  Ru  Ru11  1  0.250000  0.566635  0.151970  1
