# generated using pymatgen
data_EuBi3(SeO5)2
_symmetry_space_group_name_H-M   'P 1'
_cell_length_a   8.84071000
_cell_length_b   8.84070837
_cell_length_c   11.50460400
_cell_angle_alpha   90.00000000
_cell_angle_beta   90.00000000
_cell_angle_gamma   143.33830184
_symmetry_Int_Tables_number   1
_chemical_formula_structural   EuBi3(SeO5)2
_chemical_formula_sum   'Eu2 Bi6 Se4 O20'
_cell_volume   536.88958246
_cell_formula_units_Z   2
loop_
 _symmetry_equiv_pos_site_id
 _symmetry_equiv_pos_as_xyz
  1  'x, y, z'
loop_
 _atom_site_type_symbol
 _atom_site_label
 _atom_site_symmetry_multiplicity
 _atom_site_fract_x
 _atom_site_fract_y
 _atom_site_fract_z
 _atom_site_occupancy
  Eu  Eu0  1  0.739029  0.239029  0.612461  1
  Eu  Eu1  1  0.239029  0.739029  0.387539  1
  Bi  Bi2  1  0.238671  0.738671  0.866900  1
  Bi  Bi3  1  0.738671  0.238671  0.133100  1
  Bi  Bi4  1  0.891124  0.063163  0.393681  1
  Bi  Bi5  1  0.063163  0.891124  0.606319  1
  Bi  Bi6  1  0.391124  0.563163  0.606319  1
  Bi  Bi7  1  0.563163  0.391124  0.393681  1
  Se  Se8  1  0.389041  0.577276  0.146676  1
  Se  Se9  1  0.577276  0.389041  0.853324  1
  Se  Se10  1  0.889041  0.077276  0.853324  1
  Se  Se11  1  0.077276  0.889041  0.146676  1
  O  O12  1  0.143456  0.472725  0.222730  1
  O  O13  1  0.472725  0.143456  0.777270  1
  O  O14  1  0.643456  0.972725  0.777270  1
  O  O15  1  0.972725  0.643456  0.222730  1
  O  O16  1  0.568712  0.893973  0.501079  1
  O  O17  1  0.893973  0.568712  0.498921  1
  O  O18  1  0.068712  0.393973  0.498921  1
  O  O19  1  0.393973  0.068712  0.501079  1
  O  O20  1  0.116238  0.616238  0.697973  1
  O  O21  1  0.616238  0.116238  0.302027  1
  O  O22  1  0.554485  0.857256  0.080558  1
  O  O23  1  0.857256  0.554485  0.919442  1
  O  O24  1  0.174099  0.075657  0.260815  1
  O  O25  1  0.075657  0.174099  0.739185  1
  O  O26  1  0.674099  0.575657  0.739185  1
  O  O27  1  0.575657  0.674099  0.260815  1
  O  O28  1  0.247616  0.247616  0.500000  1
  O  O29  1  0.747616  0.747616  0.500000  1
  O  O30  1  0.357256  0.054485  0.080558  1
  O  O31  1  0.054485  0.357256  0.919442  1
