# generated using pymatgen
data_Y6Ho4Si5As
_symmetry_space_group_name_H-M   'P 1'
_cell_length_a   8.43476200
_cell_length_b   8.45259302
_cell_length_c   6.30862700
_cell_angle_alpha   90.00000000
_cell_angle_beta   90.00000000
_cell_angle_gamma   119.93023389
_symmetry_Int_Tables_number   1
_chemical_formula_structural   Y6Ho4Si5As
_chemical_formula_sum   'Y6 Ho4 Si5 As1'
_cell_volume   389.79221215
_cell_formula_units_Z   1
loop_
 _symmetry_equiv_pos_site_id
 _symmetry_equiv_pos_as_xyz
  1  'x, y, z'
loop_
 _atom_site_type_symbol
 _atom_site_label
 _atom_site_symmetry_multiplicity
 _atom_site_fract_x
 _atom_site_fract_y
 _atom_site_fract_z
 _atom_site_occupancy
  Y  Y0  1  0.996476  0.753260  0.750000  1
  Y  Y1  1  0.000347  0.244481  0.250000  1
  Y  Y2  1  0.755866  0.755519  0.250000  1
  Y  Y3  1  0.757969  0.000000  0.750000  1
  Y  Y4  1  0.243216  0.246740  0.750000  1
  Y  Y5  1  0.243470  0.000000  0.250000  1
  Ho  Ho6  1  0.333052  0.664217  0.498780  1
  Ho  Ho7  1  0.668836  0.335783  0.001220  1
  Ho  Ho8  1  0.668836  0.335783  0.498780  1
  Ho  Ho9  1  0.333052  0.664217  0.001220  1
  Si  Si10  1  0.394411  0.393564  0.250000  1
  Si  Si11  1  0.000847  0.606436  0.250000  1
  Si  Si12  1  0.999888  0.394340  0.750000  1
  Si  Si13  1  0.605548  0.605660  0.750000  1
  Si  Si14  1  0.606572  0.000000  0.250000  1
  As  As15  1  0.391616  0.000000  0.750000  1
