# generated using pymatgen
data_Ac19ErSi15Ru
_symmetry_space_group_name_H-M   'P 1'
_cell_length_a   8.29808067
_cell_length_b   8.30024520
_cell_length_c   16.04458200
_cell_angle_alpha   90.26774384
_cell_angle_beta   89.83678642
_cell_angle_gamma   90.02210638
_symmetry_Int_Tables_number   1
_chemical_formula_structural   Ac19ErSi15Ru
_chemical_formula_sum   'Ac19 Er1 Si15 Ru1'
_cell_volume   1105.07167627
_cell_formula_units_Z   1
loop_
 _symmetry_equiv_pos_site_id
 _symmetry_equiv_pos_as_xyz
  1  'x, y, z'
loop_
 _atom_site_type_symbol
 _atom_site_label
 _atom_site_symmetry_multiplicity
 _atom_site_fract_x
 _atom_site_fract_y
 _atom_site_fract_z
 _atom_site_occupancy
  Ac  Ac0  1  0.190230  0.806235  0.249459  1
  Ac  Ac1  1  0.829298  0.189151  0.749941  1
  Ac  Ac2  1  0.696726  0.686886  0.501430  1
  Ac  Ac3  1  0.372961  0.013494  0.449323  1
  Ac  Ac4  1  0.483484  0.882300  0.699432  1
  Ac  Ac5  1  0.512130  0.124484  0.196131  1
  Ac  Ac6  1  0.878538  0.484822  0.298789  1
  Ac  Ac7  1  0.130125  0.504031  0.799998  1
  Ac  Ac8  1  0.622972  0.986011  0.947957  1
  Ac  Ac9  1  0.008462  0.378705  0.553539  1
  Ac  Ac10  1  0.985892  0.624083  0.049436  1
  Ac  Ac11  1  0.134907  0.979567  0.874428  1
  Ac  Ac12  1  0.523109  0.626511  0.125682  1
  Ac  Ac13  1  0.465520  0.362490  0.631906  1
  Ac  Ac14  1  0.625872  0.519464  0.874661  1
  Ac  Ac15  1  0.375711  0.478201  0.371354  1
  Ac  Ac16  1  0.873860  0.025973  0.376909  1
  Ac  Ac17  1  0.977987  0.126841  0.122028  1
  Ac  Ac18  1  0.030569  0.882913  0.625900  1
  Er  Er19  1  0.311493  0.309822  0.998583  1
  Si  Si20  1  0.328864  0.689555  0.957962  1
  Si  Si21  1  0.662460  0.299893  0.457800  1
  Si  Si22  1  0.692855  0.327859  0.042549  1
  Si  Si23  1  0.303252  0.668855  0.542894  1
  Si  Si24  1  0.803458  0.830105  0.208073  1
  Si  Si25  1  0.170357  0.198464  0.290284  1
  Si  Si26  1  0.829579  0.800537  0.794828  1
  Si  Si27  1  0.291104  0.924239  0.057587  1
  Si  Si28  1  0.581574  0.790420  0.309877  1
  Si  Si29  1  0.410135  0.215926  0.818222  1
  Si  Si30  1  0.782669  0.585786  0.691940  1
  Si  Si31  1  0.213542  0.415551  0.182909  1
  Si  Si32  1  0.701473  0.078727  0.559438  1
  Si  Si33  1  0.925117  0.290312  0.942652  1
  Si  Si34  1  0.083289  0.714730  0.441682  1
  Ru  Ru35  1  0.190425  0.177054  0.704419  1
