# generated using pymatgen
data_Sr20(Si3Sb)3
_symmetry_space_group_name_H-M   'P 1'
_cell_length_a   8.17642500
_cell_length_b   8.17642500
_cell_length_c   15.68180800
_cell_angle_alpha   90.00000000
_cell_angle_beta   90.00000000
_cell_angle_gamma   90.00000000
_symmetry_Int_Tables_number   1
_chemical_formula_structural   Sr20(Si3Sb)3
_chemical_formula_sum   'Sr20 Si9 Sb3'
_cell_volume   1048.39042814
_cell_formula_units_Z   1
loop_
 _symmetry_equiv_pos_site_id
 _symmetry_equiv_pos_as_xyz
  1  'x, y, z'
loop_
 _atom_site_type_symbol
 _atom_site_label
 _atom_site_symmetry_multiplicity
 _atom_site_fract_x
 _atom_site_fract_y
 _atom_site_fract_z
 _atom_site_occupancy
  Sr  Sr0  1  0.681232  0.168817  0.107920  1
  Sr  Sr1  1  0.174786  0.673271  0.611785  1
  Sr  Sr2  1  0.318768  0.831183  0.107920  1
  Sr  Sr3  1  0.825214  0.326729  0.611785  1
  Sr  Sr4  1  0.831183  0.681232  0.107920  1
  Sr  Sr5  1  0.326729  0.174786  0.611785  1
  Sr  Sr6  1  0.168817  0.318768  0.107920  1
  Sr  Sr7  1  0.673271  0.825214  0.611785  1
  Sr  Sr8  1  0.831183  0.318768  0.892080  1
  Sr  Sr9  1  0.326729  0.825214  0.388215  1
  Sr  Sr10  1  0.168817  0.681232  0.892080  1
  Sr  Sr11  1  0.673271  0.174786  0.388215  1
  Sr  Sr12  1  0.681232  0.831183  0.892080  1
  Sr  Sr13  1  0.174786  0.326729  0.388215  1
  Sr  Sr14  1  0.318768  0.168817  0.892080  1
  Sr  Sr15  1  0.825214  0.673271  0.388215  1
  Sr  Sr16  1  0.500000  0.500000  0.757735  1
  Sr  Sr17  1  0.000000  0.000000  0.247742  1
  Sr  Sr18  1  0.000000  0.000000  0.752258  1
  Sr  Sr19  1  0.500000  0.500000  0.242265  1
  Si  Si20  1  0.609097  0.110220  0.751227  1
  Si  Si21  1  0.110220  0.609097  0.248773  1
  Si  Si22  1  0.889780  0.390903  0.248773  1
  Si  Si23  1  0.390903  0.889780  0.751227  1
  Si  Si24  1  0.889780  0.609097  0.751227  1
  Si  Si25  1  0.390903  0.110220  0.248773  1
  Si  Si26  1  0.110220  0.390903  0.751227  1
  Si  Si27  1  0.609097  0.889780  0.248773  1
  Si  Si28  1  0.000000  0.000000  0.000000  1
  Sb  Sb29  1  0.500000  0.500000  0.500000  1
  Sb  Sb30  1  0.500000  0.500000  0.000000  1
  Sb  Sb31  1  0.000000  0.000000  0.500000  1
