# generated using pymatgen
data_Sc2FeB2Ir3Ru2
_symmetry_space_group_name_H-M   'P 1'
_cell_length_a   9.39324142
_cell_length_b   9.41371241
_cell_length_c   3.01348100
_cell_angle_alpha   90.00000000
_cell_angle_beta   90.00000000
_cell_angle_gamma   89.96598853
_symmetry_Int_Tables_number   1
_chemical_formula_structural   Sc2FeB2Ir3Ru2
_chemical_formula_sum   'Sc4 Fe2 B4 Ir6 Ru4'
_cell_volume   266.46783409
_cell_formula_units_Z   2
loop_
 _symmetry_equiv_pos_site_id
 _symmetry_equiv_pos_as_xyz
  1  'x, y, z'
loop_
 _atom_site_type_symbol
 _atom_site_label
 _atom_site_symmetry_multiplicity
 _atom_site_fract_x
 _atom_site_fract_y
 _atom_site_fract_z
 _atom_site_occupancy
  Sc  Sc0  1  0.669940  0.174933  0.000000  1
  Sc  Sc1  1  0.330060  0.825067  0.000000  1
  Sc  Sc2  1  0.177932  0.325705  0.000000  1
  Sc  Sc3  1  0.822068  0.674295  0.000000  1
  Fe  Fe4  1  0.000000  0.000000  0.000000  1
  Fe  Fe5  1  0.500000  0.500000  0.000000  1
  B  B6  1  0.122468  0.622666  0.000000  1
  B  B7  1  0.877532  0.377334  0.000000  1
  B  B8  1  0.620220  0.873559  0.000000  1
  B  B9  1  0.379780  0.126441  0.000000  1
  Ir  Ir10  1  0.214588  0.071302  0.500000  1
  Ir  Ir11  1  0.785412  0.928698  0.500000  1
  Ir  Ir12  1  0.071298  0.786004  0.500000  1
  Ir  Ir13  1  0.714134  0.427880  0.500000  1
  Ir  Ir14  1  0.928702  0.213996  0.500000  1
  Ir  Ir15  1  0.285866  0.572120  0.500000  1
  Ru  Ru16  1  0.571421  0.712563  0.500000  1
  Ru  Ru17  1  0.428579  0.287437  0.500000  1
  Ru  Ru18  1  0.500000  0.000000  0.500000  1
  Ru  Ru19  1  0.000000  0.500000  0.500000  1
