# generated using pymatgen
data_Tb20Si5Ir4Au3
_symmetry_space_group_name_H-M   'P 1'
_cell_length_a   7.60143677
_cell_length_b   8.82077805
_cell_length_c   12.03410119
_cell_angle_alpha   90.96328131
_cell_angle_beta   89.84026209
_cell_angle_gamma   90.03183910
_symmetry_Int_Tables_number   1
_chemical_formula_structural   Tb20Si5Ir4Au3
_chemical_formula_sum   'Tb20 Si5 Ir4 Au3'
_cell_volume   806.77626954
_cell_formula_units_Z   1
loop_
 _symmetry_equiv_pos_site_id
 _symmetry_equiv_pos_as_xyz
  1  'x, y, z'
loop_
 _atom_site_type_symbol
 _atom_site_label
 _atom_site_symmetry_multiplicity
 _atom_site_fract_x
 _atom_site_fract_y
 _atom_site_fract_z
 _atom_site_occupancy
  Tb  Tb0  1  0.669235  0.740090  0.721046  1
  Tb  Tb1  1  0.334405  0.258033  0.278222  1
  Tb  Tb2  1  0.168243  0.260854  0.779917  1
  Tb  Tb3  1  0.830591  0.747877  0.217759  1
  Tb  Tb4  1  0.141468  0.738464  0.804903  1
  Tb  Tb5  1  0.854207  0.256093  0.195649  1
  Tb  Tb6  1  0.640091  0.261824  0.695485  1
  Tb  Tb7  1  0.363650  0.744466  0.300476  1
  Tb  Tb8  1  0.539971  0.744491  0.001672  1
  Tb  Tb9  1  0.463261  0.252293  0.002209  1
  Tb  Tb10  1  0.038400  0.260108  0.499589  1
  Tb  Tb11  1  0.958995  0.740628  0.499706  1
  Tb  Tb12  1  0.818949  0.463150  0.922051  1
  Tb  Tb13  1  0.180668  0.532835  0.080601  1
  Tb  Tb14  1  0.320162  0.536453  0.579507  1
  Tb  Tb15  1  0.180705  0.965324  0.087718  1
  Tb  Tb16  1  0.680634  0.466315  0.419512  1
  Tb  Tb17  1  0.825183  0.034225  0.917549  1
  Tb  Tb18  1  0.673051  0.035461  0.412601  1
  Tb  Tb19  1  0.322166  0.964988  0.582660  1
  Si  Si20  1  0.057926  0.505781  0.329148  1
  Si  Si21  1  0.558657  0.005486  0.167689  1
  Si  Si22  1  0.940943  0.495187  0.670838  1
  Si  Si23  1  0.562600  0.496060  0.169058  1
  Si  Si24  1  0.439172  0.503768  0.830049  1
  Ir  Ir25  1  0.931507  0.748789  0.992961  1
  Ir  Ir26  1  0.071952  0.246954  0.006435  1
  Ir  Ir27  1  0.428215  0.250088  0.506164  1
  Ir  Ir28  1  0.572052  0.751225  0.493449  1
  Au  Au29  1  0.932839  0.009823  0.665469  1
  Au  Au30  1  0.066161  0.992227  0.337691  1
  Au  Au31  1  0.433943  0.990642  0.832218  1
