# generated using pymatgen
data_HoSc3Co4(SnH)4
_symmetry_space_group_name_H-M   'P 1'
_cell_length_a   4.17197400
_cell_length_b   6.90969670
_cell_length_c   7.93574657
_cell_angle_alpha   89.66535908
_cell_angle_beta   90.00000000
_cell_angle_gamma   90.00000000
_symmetry_Int_Tables_number   1
_chemical_formula_structural   HoSc3Co4(SnH)4
_chemical_formula_sum   'Ho1 Sc3 Co4 Sn4 H4'
_cell_volume   228.76045949
_cell_formula_units_Z   1
loop_
 _symmetry_equiv_pos_site_id
 _symmetry_equiv_pos_as_xyz
  1  'x, y, z'
loop_
 _atom_site_type_symbol
 _atom_site_label
 _atom_site_symmetry_multiplicity
 _atom_site_fract_x
 _atom_site_fract_y
 _atom_site_fract_z
 _atom_site_occupancy
  Ho  Ho0  1  0.750000  0.513440  0.814293  1
  Sc  Sc1  1  0.750000  0.012101  0.678999  1
  Sc  Sc2  1  0.250000  0.987337  0.317840  1
  Sc  Sc3  1  0.250000  0.488099  0.183514  1
  Co  Co4  1  0.750000  0.770425  0.105715  1
  Co  Co5  1  0.250000  0.227866  0.897216  1
  Co  Co6  1  0.250000  0.733796  0.599888  1
  Co  Co7  1  0.750000  0.268287  0.395269  1
  Sn  Sn8  1  0.750000  0.656109  0.420488  1
  Sn  Sn9  1  0.250000  0.340478  0.571482  1
  Sn  Sn10  1  0.250000  0.848903  0.924043  1
  Sn  Sn11  1  0.750000  0.152505  0.078416  1
  H  H12  1  0.250000  0.452338  0.927933  1
  H  H13  1  0.750000  0.545494  0.087120  1
  H  H14  1  0.750000  0.043788  0.420761  1
  H  H15  1  0.250000  0.959034  0.577023  1
