# generated using pymatgen
data_Tb4Al23ZnPt9
_symmetry_space_group_name_H-M   'P 1'
_cell_length_a   7.54084203
_cell_length_b   7.55903229
_cell_length_c   13.17009366
_cell_angle_alpha   84.55855645
_cell_angle_beta   79.03465585
_cell_angle_gamma   59.90453934
_symmetry_Int_Tables_number   1
_chemical_formula_structural   Tb4Al23ZnPt9
_chemical_formula_sum   'Tb4 Al23 Zn1 Pt9'
_cell_volume   637.65304592
_cell_formula_units_Z   1
loop_
 _symmetry_equiv_pos_site_id
 _symmetry_equiv_pos_as_xyz
  1  'x, y, z'
loop_
 _atom_site_type_symbol
 _atom_site_label
 _atom_site_symmetry_multiplicity
 _atom_site_fract_x
 _atom_site_fract_y
 _atom_site_fract_z
 _atom_site_occupancy
  Tb  Tb0  1  0.393995  0.167422  0.809116  1
  Tb  Tb1  1  0.607092  0.831774  0.189819  1
  Tb  Tb2  1  0.733301  0.499071  0.809096  1
  Tb  Tb3  1  0.266709  0.501673  0.191152  1
  Al  Al4  1  0.320775  0.161736  0.054130  1
  Al  Al5  1  0.146889  0.832236  0.561709  1
  Al  Al6  1  0.853224  0.167831  0.438648  1
  Al  Al7  1  0.480245  0.166468  0.559087  1
  Al  Al8  1  0.519970  0.833428  0.441036  1
  Al  Al9  1  0.217328  0.165092  0.329382  1
  Al  Al10  1  0.783365  0.834555  0.670223  1
  Al  Al11  1  0.436594  0.506793  0.671036  1
  Al  Al12  1  0.563136  0.493606  0.329489  1
  Al  Al13  1  0.109403  0.159929  0.669529  1
  Al  Al14  1  0.890094  0.840058  0.331016  1
  Al  Al15  1  0.352640  0.500215  0.944449  1
  Al  Al16  1  0.648564  0.504551  0.054113  1
  Al  Al17  1  0.015907  0.167154  0.954543  1
  Al  Al18  1  0.981261  0.832228  0.043228  1
  Al  Al19  1  0.186524  0.499434  0.441259  1
  Al  Al20  1  0.813567  0.500597  0.559163  1
  Al  Al21  1  0.734719  0.164434  0.183520  1
  Al  Al22  1  0.264300  0.836021  0.816884  1
  Al  Al23  1  0.058280  0.632162  0.817228  1
  Al  Al24  1  0.938931  0.368276  0.184627  1
  Al  Al25  1  0.852963  0.040750  0.818134  1
  Al  Al26  1  0.144045  0.958800  0.184013  1
  Zn  Zn27  1  0.685470  0.833800  0.939642  1
  Pt  Pt28  1  0.120673  0.492059  0.638380  1
  Pt  Pt29  1  0.879632  0.507946  0.361980  1
  Pt  Pt30  1  0.656977  0.178709  0.001068  1
  Pt  Pt31  1  0.335948  0.828203  0.001644  1
  Pt  Pt32  1  0.537621  0.166973  0.361824  1
  Pt  Pt33  1  0.462219  0.833053  0.638318  1
  Pt  Pt34  1  0.779351  0.174804  0.637307  1
  Pt  Pt35  1  0.220862  0.825197  0.363193  1
  Pt  Pt36  1  0.007427  0.492963  0.001017  1
