# generated using pymatgen
data_K16SmPaSb8
_symmetry_space_group_name_H-M   'P 1'
_cell_length_a   11.76630921
_cell_length_b   11.76642645
_cell_length_c   11.76634145
_cell_angle_alpha   60.02575044
_cell_angle_beta   60.02596519
_cell_angle_gamma   60.02582966
_symmetry_Int_Tables_number   1
_chemical_formula_structural   K16SmPaSb8
_chemical_formula_sum   'K16 Sm1 Pa1 Sb8'
_cell_volume   1152.56570299
_cell_formula_units_Z   1
loop_
 _symmetry_equiv_pos_site_id
 _symmetry_equiv_pos_as_xyz
  1  'x, y, z'
loop_
 _atom_site_type_symbol
 _atom_site_label
 _atom_site_symmetry_multiplicity
 _atom_site_fract_x
 _atom_site_fract_y
 _atom_site_fract_z
 _atom_site_occupancy
  K  K0  1  0.622988  0.130908  0.622987  1
  K  K1  1  0.622984  0.622980  0.130924  1
  K  K2  1  0.130922  0.622985  0.622977  1
  K  K3  1  0.623088  0.623092  0.623079  1
  K  K4  1  0.036314  0.036318  0.463727  1
  K  K5  1  0.774980  0.224922  0.224928  1
  K  K6  1  0.224925  0.775084  0.775080  1
  K  K7  1  0.775086  0.775083  0.224919  1
  K  K8  1  0.775082  0.224926  0.775078  1
  K  K9  1  0.224921  0.774986  0.224929  1
  K  K10  1  0.463637  0.036388  0.463632  1
  K  K11  1  0.463711  0.036329  0.036323  1
  K  K12  1  0.036398  0.463624  0.463624  1
  K  K13  1  0.036327  0.463722  0.036320  1
  K  K14  1  0.224927  0.224925  0.774985  1
  K  K15  1  0.463623  0.463618  0.036402  1
  Sm  Sm16  1  0.500075  0.500071  0.500073  1
  Pa  Pa17  1  0.750022  0.750027  0.750029  1
  Sb  Sb18  1  0.392750  0.821705  0.392747  1
  Sb  Sb19  1  0.853073  0.853074  0.440724  1
  Sb  Sb20  1  0.440713  0.853082  0.853072  1
  Sb  Sb21  1  0.853136  0.853135  0.853133  1
  Sb  Sb22  1  0.821705  0.392749  0.392746  1
  Sb  Sb23  1  0.392791  0.392790  0.392790  1
  Sb  Sb24  1  0.392749  0.392749  0.821702  1
  Sb  Sb25  1  0.853074  0.440727  0.853071  1
