# generated using pymatgen
data_Dy4TmCo16(TcP4)3
_symmetry_space_group_name_H-M   'P 1'
_cell_length_a   12.02792400
_cell_length_b   12.02792329
_cell_length_c   3.71190500
_cell_angle_alpha   90.00000000
_cell_angle_beta   90.00000000
_cell_angle_gamma   119.99801003
_symmetry_Int_Tables_number   1
_chemical_formula_structural   Dy4TmCo16(TcP4)3
_chemical_formula_sum   'Dy4 Tm1 Co16 Tc3 P12'
_cell_volume   465.06913486
_cell_formula_units_Z   1
loop_
 _symmetry_equiv_pos_site_id
 _symmetry_equiv_pos_as_xyz
  1  'x, y, z'
loop_
 _atom_site_type_symbol
 _atom_site_label
 _atom_site_symmetry_multiplicity
 _atom_site_fract_x
 _atom_site_fract_y
 _atom_site_fract_z
 _atom_site_occupancy
  Dy  Dy0  1  0.666578  0.333271  0.000000  1
  Dy  Dy1  1  0.333271  0.666578  0.000000  1
  Dy  Dy2  1  0.815990  0.000168  0.500000  1
  Dy  Dy3  1  0.000168  0.815990  0.500000  1
  Tm  Tm4  1  0.184389  0.184389  0.500000  1
  Co  Co5  1  0.821971  0.196965  0.000000  1
  Co  Co6  1  0.802963  0.624604  0.000000  1
  Co  Co7  1  0.374470  0.178593  0.000000  1
  Co  Co8  1  0.196965  0.821971  0.000000  1
  Co  Co9  1  0.624604  0.802963  0.000000  1
  Co  Co10  1  0.178593  0.374470  0.000000  1
  Co  Co11  1  0.643908  0.126217  0.500000  1
  Co  Co12  1  0.873787  0.517503  0.500000  1
  Co  Co13  1  0.481837  0.355796  0.500000  1
  Co  Co14  1  0.126217  0.643908  0.500000  1
  Co  Co15  1  0.517503  0.873787  0.500000  1
  Co  Co16  1  0.355796  0.481837  0.500000  1
  Co  Co17  1  0.717547  0.717547  0.500000  1
  Co  Co18  1  0.282224  0.000532  0.500000  1
  Co  Co19  1  0.000532  0.282224  0.500000  1
  Co  Co20  1  0.000636  0.000636  0.000000  1
  Tc  Tc21  1  0.553648  0.553648  0.000000  1
  Tc  Tc22  1  0.445844  0.000363  0.000000  1
  Tc  Tc23  1  0.000363  0.445844  0.000000  1
  P  P24  1  0.361658  0.361658  0.000000  1
  P  P25  1  0.637404  0.999934  0.000000  1
  P  P26  1  0.999934  0.637404  0.000000  1
  P  P27  1  0.835518  0.314108  0.500000  1
  P  P28  1  0.685595  0.520981  0.500000  1
  P  P29  1  0.478879  0.164687  0.500000  1
  P  P30  1  0.314108  0.835518  0.500000  1
  P  P31  1  0.520981  0.685595  0.500000  1
  P  P32  1  0.164687  0.478879  0.500000  1
  P  P33  1  0.821546  0.821546  0.000000  1
  P  P34  1  0.178791  0.001096  0.000000  1
  P  P35  1  0.001096  0.178791  0.000000  1
