# generated using pymatgen
data_Ta2MnFe2B3W
_symmetry_space_group_name_H-M   'P 1'
_cell_length_a   6.04005800
_cell_length_b   5.97258352
_cell_length_c   3.14335500
_cell_angle_alpha   90.00000000
_cell_angle_beta   90.00000000
_cell_angle_gamma   120.37443410
_symmetry_Int_Tables_number   1
_chemical_formula_structural   Ta2MnFe2B3W
_chemical_formula_sum   'Ta2 Mn1 Fe2 B3 W1'
_cell_volume   97.83097772
_cell_formula_units_Z   1
loop_
 _symmetry_equiv_pos_site_id
 _symmetry_equiv_pos_as_xyz
  1  'x, y, z'
loop_
 _atom_site_type_symbol
 _atom_site_label
 _atom_site_symmetry_multiplicity
 _atom_site_fract_x
 _atom_site_fract_y
 _atom_site_fract_z
 _atom_site_occupancy
  Ta  Ta0  1  0.995764  0.408399  0.500000  1
  Ta  Ta1  1  0.587366  0.591601  0.500000  1
  Mn  Mn2  1  0.759277  0.000000  0.000000  1
  Fe  Fe3  1  0.000179  0.757880  0.000000  1
  Fe  Fe4  1  0.242299  0.242120  0.000000  1
  B  B5  1  0.333188  0.673642  0.000000  1
  B  B6  1  0.659548  0.326358  0.000000  1
  B  B7  1  0.009639  0.000000  0.500000  1
  W  W8  1  0.412740  0.000000  0.500000  1
