# generated using pymatgen
data_Nd6Zn3InPt13
_symmetry_space_group_name_H-M   'P 1'
_cell_length_a   8.46178300
_cell_length_b   8.39842986
_cell_length_c   8.46178362
_cell_angle_alpha   109.31962881
_cell_angle_beta   109.62239165
_cell_angle_gamma   109.31962383
_symmetry_Int_Tables_number   1
_chemical_formula_structural   Nd6Zn3InPt13
_chemical_formula_sum   'Nd6 Zn3 In1 Pt13'
_cell_volume   463.77687001
_cell_formula_units_Z   1
loop_
 _symmetry_equiv_pos_site_id
 _symmetry_equiv_pos_as_xyz
  1  'x, y, z'
loop_
 _atom_site_type_symbol
 _atom_site_label
 _atom_site_symmetry_multiplicity
 _atom_site_fract_x
 _atom_site_fract_y
 _atom_site_fract_z
 _atom_site_occupancy
  Nd  Nd0  1  0.697800  0.699904  0.000000  1
  Nd  Nd1  1  0.302200  0.002105  0.302200  1
  Nd  Nd2  1  0.000000  0.300096  0.302200  1
  Nd  Nd3  1  0.302200  0.300096  0.000000  1
  Nd  Nd4  1  0.697800  0.997895  0.697800  1
  Nd  Nd5  1  0.000000  0.699904  0.697800  1
  Zn  Zn6  1  0.000000  0.000000  0.500000  1
  Zn  Zn7  1  0.500000  0.000000  0.000000  1
  Zn  Zn8  1  0.500000  0.500000  0.500000  1
  In  In9  1  0.000000  0.500000  0.000000  1
  Pt  Pt10  1  0.329698  0.329698  0.659395  1
  Pt  Pt11  1  0.670302  0.000000  0.329698  1
  Pt  Pt12  1  0.000000  0.674337  0.335893  1
  Pt  Pt13  1  0.664107  0.325663  0.000000  1
  Pt  Pt14  1  0.335893  0.661555  0.335893  1
  Pt  Pt15  1  0.000000  0.325663  0.664107  1
  Pt  Pt16  1  0.335893  0.674337  0.000000  1
  Pt  Pt17  1  0.329698  0.000000  0.670302  1
  Pt  Pt18  1  0.659395  0.329698  0.329698  1
  Pt  Pt19  1  0.670302  0.670302  0.340605  1
  Pt  Pt20  1  0.664107  0.338445  0.664107  1
  Pt  Pt21  1  0.340605  0.670302  0.670302  1
  Pt  Pt22  1  0.000000  0.000000  0.000000  1
