# generated using pymatgen
data_TbNpO4
_symmetry_space_group_name_H-M   'P 1'
_cell_length_a   6.50801984
_cell_length_b   6.50802004
_cell_length_c   5.41550729
_cell_angle_alpha   67.78822457
_cell_angle_beta   67.78821690
_cell_angle_gamma   111.69715673
_symmetry_Int_Tables_number   1
_chemical_formula_structural   TbNpO4
_chemical_formula_sum   'Tb2 Np2 O8'
_cell_volume   157.55581411
_cell_formula_units_Z   2
loop_
 _symmetry_equiv_pos_site_id
 _symmetry_equiv_pos_as_xyz
  1  'x, y, z'
loop_
 _atom_site_type_symbol
 _atom_site_label
 _atom_site_symmetry_multiplicity
 _atom_site_fract_x
 _atom_site_fract_y
 _atom_site_fract_z
 _atom_site_occupancy
  Tb  Tb0  1  0.373579  0.626421  0.750000  1
  Tb  Tb1  1  0.626421  0.373579  0.250000  1
  Np  Np2  1  0.121758  0.878242  0.250000  1
  Np  Np3  1  0.878242  0.121758  0.750000  1
  O  O4  1  0.542492  0.034574  0.723028  1
  O  O5  1  0.766949  0.760527  0.764651  1
  O  O6  1  0.239473  0.233051  0.735349  1
  O  O7  1  0.034574  0.542492  0.223028  1
  O  O8  1  0.965426  0.457508  0.776972  1
  O  O9  1  0.760527  0.766949  0.264651  1
  O  O10  1  0.233051  0.239473  0.235349  1
  O  O11  1  0.457508  0.965426  0.276972  1
