# generated using pymatgen
data_Yb3PrAl13Si5Ir6
_symmetry_space_group_name_H-M   'P 1'
_cell_length_a   7.50437363
_cell_length_b   7.47586028
_cell_length_c   9.49418111
_cell_angle_alpha   89.96699946
_cell_angle_beta   90.04357807
_cell_angle_gamma   119.84035249
_symmetry_Int_Tables_number   1
_chemical_formula_structural   Yb3PrAl13Si5Ir6
_chemical_formula_sum   'Yb3 Pr1 Al13 Si5 Ir6'
_cell_volume   462.01921924
_cell_formula_units_Z   1
loop_
 _symmetry_equiv_pos_site_id
 _symmetry_equiv_pos_as_xyz
  1  'x, y, z'
loop_
 _atom_site_type_symbol
 _atom_site_label
 _atom_site_symmetry_multiplicity
 _atom_site_fract_x
 _atom_site_fract_y
 _atom_site_fract_z
 _atom_site_occupancy
  Yb  Yb0  1  0.005620  0.342027  0.749203  1
  Yb  Yb1  1  0.674833  0.007832  0.252450  1
  Yb  Yb2  1  0.319767  0.991117  0.745100  1
  Pr  Pr3  1  0.999366  0.662977  0.253178  1
  Al  Al4  1  0.129292  0.130008  0.250382  1
  Al  Al5  1  0.871191  0.872863  0.750565  1
  Al  Al6  1  0.665246  0.997318  0.577888  1
  Al  Al7  1  0.662665  0.998086  0.923755  1
  Al  Al8  1  0.341134  0.005237  0.068924  1
  Al  Al9  1  0.336466  0.334341  0.560084  1
  Al  Al10  1  0.662151  0.669106  0.441569  1
  Al  Al11  1  0.661673  0.668876  0.057296  1
  Al  Al12  1  0.336266  0.331598  0.939597  1
  Al  Al13  1  0.339006  0.546203  0.250470  1
  Al  Al14  1  0.660214  0.449360  0.750614  1
  Al  Al15  1  0.543464  0.341551  0.250235  1
  Al  Al16  1  0.454111  0.658445  0.749500  1
  Si  Si17  1  0.000980  0.324655  0.064787  1
  Si  Si18  1  0.998025  0.671117  0.929997  1
  Si  Si19  1  0.991027  0.665617  0.574607  1
  Si  Si20  1  0.342758  0.008727  0.425446  1
  Si  Si21  1  0.003077  0.325351  0.432605  1
  Ir  Ir22  1  0.687926  0.337896  0.003016  1
  Ir  Ir23  1  0.311716  0.660592  0.998610  1
  Ir  Ir24  1  0.312397  0.670214  0.500578  1
  Ir  Ir25  1  0.681283  0.331120  0.498402  1
  Ir  Ir26  1  0.001017  0.999320  0.001077  1
  Ir  Ir27  1  0.007335  0.998449  0.500068  1
