# generated using pymatgen
data_PuFeAg2(NO3)8
_symmetry_space_group_name_H-M   'P 1'
_cell_length_a   8.38311827
_cell_length_b   7.72676130
_cell_length_c   7.72610364
_cell_angle_alpha   83.25829456
_cell_angle_beta   86.05525495
_cell_angle_gamma   85.71828143
_symmetry_Int_Tables_number   1
_chemical_formula_structural   PuFeAg2(NO3)8
_chemical_formula_sum   'Pu1 Fe1 Ag2 N8 O24'
_cell_volume   494.69449604
_cell_formula_units_Z   1
loop_
 _symmetry_equiv_pos_site_id
 _symmetry_equiv_pos_as_xyz
  1  'x, y, z'
loop_
 _atom_site_type_symbol
 _atom_site_label
 _atom_site_symmetry_multiplicity
 _atom_site_fract_x
 _atom_site_fract_y
 _atom_site_fract_z
 _atom_site_occupancy
  Pu  Pu0  1  0.000000  0.000000  0.000000  1
  Fe  Fe1  1  0.000000  0.500000  0.500000  1
  Ag  Ag2  1  0.500000  0.500000  0.000000  1
  Ag  Ag3  1  0.500000  0.000000  0.500000  1
  N  N4  1  0.328957  0.360727  0.333230  1
  N  N5  1  0.292310  0.161926  0.860957  1
  N  N6  1  0.183233  0.815494  0.328135  1
  N  N7  1  0.916941  0.303191  0.194301  1
  N  N8  1  0.671043  0.639273  0.666770  1
  N  N9  1  0.083059  0.696809  0.805699  1
  N  N10  1  0.816767  0.184506  0.671865  1
  N  N11  1  0.707690  0.838074  0.139043  1
  O  O12  1  0.863948  0.294516  0.045235  1
  O  O13  1  0.220033  0.922429  0.194266  1
  O  O14  1  0.272010  0.783448  0.450263  1
  O  O15  1  0.194705  0.225986  0.976388  1
  O  O16  1  0.228417  0.344405  0.463923  1
  O  O17  1  0.443533  0.247267  0.314026  1
  O  O18  1  0.314070  0.493042  0.219946  1
  O  O19  1  0.108020  0.560622  0.731969  1
  O  O20  1  0.951680  0.254796  0.671799  1
  O  O21  1  0.751843  0.978173  0.192947  1
  O  O22  1  0.003697  0.831463  0.737448  1
  O  O23  1  0.582834  0.772254  0.193870  1
  O  O24  1  0.779967  0.077571  0.805734  1
  O  O25  1  0.727990  0.216552  0.549737  1
  O  O26  1  0.805295  0.774014  0.023612  1
  O  O27  1  0.136052  0.705484  0.954765  1
  O  O28  1  0.771583  0.655595  0.536077  1
  O  O29  1  0.556467  0.752733  0.685974  1
  O  O30  1  0.685930  0.506958  0.780054  1
  O  O31  1  0.891980  0.439378  0.268031  1
  O  O32  1  0.048320  0.745204  0.328201  1
  O  O33  1  0.248157  0.021827  0.807053  1
  O  O34  1  0.996303  0.168537  0.262552  1
  O  O35  1  0.417166  0.227746  0.806130  1
