# generated using pymatgen
data_Tb8Ho3Er9Pb16
_symmetry_space_group_name_H-M   'P 1'
_cell_length_a   8.18876402
_cell_length_b   8.27039702
_cell_length_c   15.60444700
_cell_angle_alpha   89.99731211
_cell_angle_beta   89.99904680
_cell_angle_gamma   89.99289161
_symmetry_Int_Tables_number   1
_chemical_formula_structural   Tb8Ho3Er9Pb16
_chemical_formula_sum   'Tb8 Ho3 Er9 Pb16'
_cell_volume   1056.80070119
_cell_formula_units_Z   1
loop_
 _symmetry_equiv_pos_site_id
 _symmetry_equiv_pos_as_xyz
  1  'x, y, z'
loop_
 _atom_site_type_symbol
 _atom_site_label
 _atom_site_symmetry_multiplicity
 _atom_site_fract_x
 _atom_site_fract_y
 _atom_site_fract_z
 _atom_site_occupancy
  Tb  Tb0  1  0.534353  0.322887  0.900009  1
  Tb  Tb1  1  0.034337  0.177086  0.599988  1
  Tb  Tb2  1  0.465648  0.677071  0.400009  1
  Tb  Tb3  1  0.965654  0.822894  0.099984  1
  Tb  Tb4  1  0.465658  0.677105  0.100035  1
  Tb  Tb5  1  0.965688  0.822863  0.399973  1
  Tb  Tb6  1  0.534309  0.322865  0.600027  1
  Tb  Tb7  1  0.034330  0.177160  0.900024  1
  Ho  Ho8  1  0.376627  0.840743  0.879311  1
  Ho  Ho9  1  0.876646  0.659259  0.620705  1
  Ho  Ho10  1  0.623367  0.159270  0.379287  1
  Er  Er11  1  0.123395  0.340750  0.120694  1
  Er  Er12  1  0.623403  0.159195  0.120649  1
  Er  Er13  1  0.123432  0.340767  0.379288  1
  Er  Er14  1  0.376597  0.840801  0.620714  1
  Er  Er15  1  0.876590  0.659218  0.879317  1
  Er  Er16  1  0.208129  0.504430  0.750021  1
  Er  Er17  1  0.708135  0.995548  0.750040  1
  Er  Er18  1  0.791915  0.495544  0.249937  1
  Er  Er19  1  0.291821  0.004485  0.249959  1
  Pb  Pb20  1  0.282273  0.034027  0.042837  1
  Pb  Pb21  1  0.782363  0.466166  0.457187  1
  Pb  Pb22  1  0.717621  0.966152  0.542789  1
  Pb  Pb23  1  0.217575  0.533744  0.957297  1
  Pb  Pb24  1  0.717848  0.966146  0.957313  1
  Pb  Pb25  1  0.217828  0.533852  0.542699  1
  Pb  Pb26  1  0.282163  0.033873  0.457293  1
  Pb  Pb27  1  0.782338  0.466093  0.042743  1
  Pb  Pb28  1  0.571475  0.627585  0.749994  1
  Pb  Pb29  1  0.071481  0.872438  0.750014  1
  Pb  Pb30  1  0.428439  0.372419  0.249944  1
  Pb  Pb31  1  0.928621  0.127673  0.249965  1
  Pb  Pb32  1  0.345268  0.151841  0.749968  1
  Pb  Pb33  1  0.845245  0.348161  0.750025  1
  Pb  Pb34  1  0.654720  0.848130  0.249966  1
  Pb  Pb35  1  0.154707  0.651760  0.249997  1
