# generated using pymatgen
data_Cs3BiO4
_symmetry_space_group_name_H-M   'P 1'
_cell_length_a   7.06895900
_cell_length_b   9.53494900
_cell_length_c   13.36969000
_cell_angle_alpha   90.00000000
_cell_angle_beta   90.00000000
_cell_angle_gamma   90.00000000
_symmetry_Int_Tables_number   1
_chemical_formula_structural   Cs3BiO4
_chemical_formula_sum   'Cs12 Bi4 O16'
_cell_volume   901.14603197
_cell_formula_units_Z   4
loop_
 _symmetry_equiv_pos_site_id
 _symmetry_equiv_pos_as_xyz
  1  'x, y, z'
loop_
 _atom_site_type_symbol
 _atom_site_label
 _atom_site_symmetry_multiplicity
 _atom_site_fract_x
 _atom_site_fract_y
 _atom_site_fract_z
 _atom_site_occupancy
  Cs  Cs0  1  0.707207  0.007609  0.147475  1
  Cs  Cs1  1  0.792793  0.492391  0.647475  1
  Cs  Cs2  1  0.292793  0.507609  0.852525  1
  Cs  Cs3  1  0.207207  0.992391  0.352525  1
  Cs  Cs4  1  0.292793  0.992391  0.852525  1
  Cs  Cs5  1  0.207207  0.507609  0.352525  1
  Cs  Cs6  1  0.707207  0.492391  0.147475  1
  Cs  Cs7  1  0.792793  0.007609  0.647475  1
  Cs  Cs8  1  0.154859  0.250000  0.077936  1
  Cs  Cs9  1  0.345141  0.250000  0.577936  1
  Cs  Cs10  1  0.845141  0.750000  0.922064  1
  Cs  Cs11  1  0.654859  0.750000  0.422064  1
  Bi  Bi12  1  0.275383  0.750000  0.113203  1
  Bi  Bi13  1  0.224617  0.750000  0.613203  1
  Bi  Bi14  1  0.724617  0.250000  0.886797  1
  Bi  Bi15  1  0.775383  0.250000  0.386797  1
  O  O16  1  0.441872  0.750000  0.238929  1
  O  O17  1  0.058128  0.750000  0.738929  1
  O  O18  1  0.558128  0.250000  0.761071  1
  O  O19  1  0.941872  0.250000  0.261071  1
  O  O20  1  0.448384  0.750000  0.990092  1
  O  O21  1  0.051616  0.750000  0.490092  1
  O  O22  1  0.551616  0.250000  0.009908  1
  O  O23  1  0.948384  0.250000  0.509908  1
  O  O24  1  0.112918  0.573115  0.113886  1
  O  O25  1  0.387082  0.926885  0.613886  1
  O  O26  1  0.887082  0.073115  0.886114  1
  O  O27  1  0.612918  0.426885  0.386114  1
  O  O28  1  0.887082  0.426885  0.886114  1
  O  O29  1  0.612918  0.073115  0.386114  1
  O  O30  1  0.112918  0.926885  0.113886  1
  O  O31  1  0.387082  0.573115  0.613886  1
