# generated using pymatgen
data_Ba2GdGaO5
_symmetry_space_group_name_H-M   'P 1'
_cell_length_a   6.18645700
_cell_length_b   7.91788819
_cell_length_c   12.79355030
_cell_angle_alpha   91.53330976
_cell_angle_beta   90.00000000
_cell_angle_gamma   90.00000000
_symmetry_Int_Tables_number   1
_chemical_formula_structural   Ba2GdGaO5
_chemical_formula_sum   'Ba8 Gd4 Ga4 O20'
_cell_volume   626.45071899
_cell_formula_units_Z   4
loop_
 _symmetry_equiv_pos_site_id
 _symmetry_equiv_pos_as_xyz
  1  'x, y, z'
loop_
 _atom_site_type_symbol
 _atom_site_label
 _atom_site_symmetry_multiplicity
 _atom_site_fract_x
 _atom_site_fract_y
 _atom_site_fract_z
 _atom_site_occupancy
  Ba  Ba0  1  0.763727  0.481797  0.346280  1
  Ba  Ba1  1  0.736273  0.981797  0.846280  1
  Ba  Ba2  1  0.236273  0.518203  0.653720  1
  Ba  Ba3  1  0.263727  0.018203  0.153720  1
  Ba  Ba4  1  0.756694  0.993213  0.379915  1
  Ba  Ba5  1  0.743306  0.493213  0.879915  1
  Ba  Ba6  1  0.243306  0.006787  0.620085  1
  Ba  Ba7  1  0.256694  0.506787  0.120085  1
  Gd  Gd8  1  0.749815  0.267470  0.627022  1
  Gd  Gd9  1  0.750185  0.767470  0.127022  1
  Gd  Gd10  1  0.250185  0.732530  0.372978  1
  Gd  Gd11  1  0.249815  0.232530  0.872978  1
  Ga  Ga12  1  0.734248  0.743071  0.583461  1
  Ga  Ga13  1  0.765752  0.243071  0.083461  1
  Ga  Ga14  1  0.265752  0.256929  0.416539  1
  Ga  Ga15  1  0.234248  0.756929  0.916539  1
  O  O16  1  0.763527  0.969514  0.631040  1
  O  O17  1  0.736473  0.469514  0.131040  1
  O  O18  1  0.236473  0.030486  0.368960  1
  O  O19  1  0.263527  0.530486  0.868960  1
  O  O20  1  0.727837  0.069366  0.177194  1
  O  O21  1  0.772163  0.569366  0.677194  1
  O  O22  1  0.272163  0.930634  0.822806  1
  O  O23  1  0.227837  0.430634  0.322806  1
  O  O24  1  0.547016  0.745400  0.273775  1
  O  O25  1  0.952984  0.245400  0.773775  1
  O  O26  1  0.452984  0.254600  0.726225  1
  O  O27  1  0.047016  0.754600  0.226225  1
  O  O28  1  0.555506  0.221752  0.976785  1
  O  O29  1  0.944494  0.721752  0.476785  1
  O  O30  1  0.444494  0.778248  0.023215  1
  O  O31  1  0.055506  0.278248  0.523215  1
  O  O32  1  0.044769  0.230945  0.024650  1
  O  O33  1  0.455231  0.730945  0.524650  1
  O  O34  1  0.955231  0.769055  0.975350  1
  O  O35  1  0.544769  0.269055  0.475350  1
