# generated using pymatgen
data_LaGa2Cu9Si2
_symmetry_space_group_name_H-M   'P 1'
_cell_length_a   8.26940841
_cell_length_b   8.26940753
_cell_length_c   8.26940801
_cell_angle_alpha   120.74135028
_cell_angle_beta   120.74134939
_cell_angle_gamma   88.72067500
_symmetry_Int_Tables_number   1
_chemical_formula_structural   LaGa2Cu9Si2
_chemical_formula_sum   'La2 Ga4 Cu18 Si4'
_cell_volume   395.27273192
_cell_formula_units_Z   2
loop_
 _symmetry_equiv_pos_site_id
 _symmetry_equiv_pos_as_xyz
  1  'x, y, z'
loop_
 _atom_site_type_symbol
 _atom_site_label
 _atom_site_symmetry_multiplicity
 _atom_site_fract_x
 _atom_site_fract_y
 _atom_site_fract_z
 _atom_site_occupancy
  La  La0  1  0.745846  0.745846  0.000000  1
  La  La1  1  0.245846  0.245846  0.000000  1
  Ga  Ga2  1  0.058017  0.558017  0.854697  1
  Ga  Ga3  1  0.703320  0.203320  0.145303  1
  Ga  Ga4  1  0.558017  0.703320  0.500000  1
  Ga  Ga5  1  0.203320  0.058017  0.500000  1
  Cu  Cu6  1  0.068521  0.206047  0.268421  1
  Cu  Cu7  1  0.937626  0.800100  0.731579  1
  Cu  Cu8  1  0.568521  0.300100  0.862476  1
  Cu  Cu9  1  0.437626  0.706047  0.137524  1
  Cu  Cu10  1  0.800100  0.068521  0.862476  1
  Cu  Cu11  1  0.206047  0.937626  0.137524  1
  Cu  Cu12  1  0.706047  0.568521  0.268421  1
  Cu  Cu13  1  0.300100  0.437626  0.731579  1
  Cu  Cu14  1  0.436851  0.936851  0.741682  1
  Cu  Cu15  1  0.195168  0.695168  0.258318  1
  Cu  Cu16  1  0.936851  0.195168  0.500000  1
  Cu  Cu17  1  0.695168  0.436851  0.500000  1
  Cu  Cu18  1  0.556232  0.056232  0.253782  1
  Cu  Cu19  1  0.802451  0.302451  0.746218  1
  Cu  Cu20  1  0.056232  0.802451  0.500000  1
  Cu  Cu21  1  0.302451  0.556232  0.500000  1
  Cu  Cu22  1  0.001561  0.501561  0.500000  1
  Cu  Cu23  1  0.501561  0.001561  0.500000  1
  Si  Si24  1  0.944253  0.444253  0.150246  1
  Si  Si25  1  0.294007  0.794007  0.849754  1
  Si  Si26  1  0.444253  0.294007  0.500000  1
  Si  Si27  1  0.794007  0.944253  0.500000  1
