# generated using pymatgen
data_InBi3(SeO6)2
_symmetry_space_group_name_H-M   'P 1'
_cell_length_a   5.36314143
_cell_length_b   10.28850111
_cell_length_c   10.28850094
_cell_angle_alpha   70.79904195
_cell_angle_beta   101.40524054
_cell_angle_gamma   101.40525181
_symmetry_Int_Tables_number   1
_chemical_formula_structural   InBi3(SeO6)2
_chemical_formula_sum   'In2 Bi6 Se4 O24'
_cell_volume   520.10967017
_cell_formula_units_Z   2
loop_
 _symmetry_equiv_pos_site_id
 _symmetry_equiv_pos_as_xyz
  1  'x, y, z'
loop_
 _atom_site_type_symbol
 _atom_site_label
 _atom_site_symmetry_multiplicity
 _atom_site_fract_x
 _atom_site_fract_y
 _atom_site_fract_z
 _atom_site_occupancy
  In  In0  1  0.250000  0.908644  0.091356  1
  In  In1  1  0.749999  0.091356  0.908644  1
  Bi  Bi2  1  0.445502  0.278382  0.044100  1
  Bi  Bi3  1  0.945502  0.044100  0.278382  1
  Bi  Bi4  1  0.749999  0.660670  0.339330  1
  Bi  Bi5  1  0.250000  0.339330  0.660670  1
  Bi  Bi6  1  0.054499  0.955901  0.721619  1
  Bi  Bi7  1  0.554498  0.721618  0.955900  1
  Se  Se8  1  0.081963  0.462777  0.207008  1
  Se  Se9  1  0.581963  0.207008  0.462777  1
  Se  Se10  1  0.418038  0.792992  0.537223  1
  Se  Se11  1  0.918038  0.537223  0.792992  1
  O  O12  1  0.096270  0.110850  0.067577  1
  O  O13  1  0.265959  0.494684  0.082982  1
  O  O14  1  0.596270  0.067577  0.110851  1
  O  O15  1  0.486837  0.746608  0.152507  1
  O  O16  1  0.892032  0.591459  0.166868  1
  O  O17  1  0.886124  0.312906  0.206203  1
  O  O18  1  0.013162  0.847493  0.253391  1
  O  O19  1  0.386124  0.206203  0.312906  1
  O  O20  1  0.261492  0.462549  0.357981  1
  O  O21  1  0.607968  0.833132  0.408541  1
  O  O22  1  0.761494  0.357981  0.462550  1
  O  O23  1  0.765959  0.082982  0.494684  1
  O  O24  1  0.234041  0.917018  0.505316  1
  O  O25  1  0.238507  0.642019  0.537450  1
  O  O26  1  0.392032  0.166868  0.591459  1
  O  O27  1  0.738507  0.537451  0.642019  1
  O  O28  1  0.613877  0.793797  0.687094  1
  O  O29  1  0.986836  0.152507  0.746608  1
  O  O30  1  0.113875  0.687094  0.793797  1
  O  O31  1  0.107967  0.408540  0.833132  1
  O  O32  1  0.513162  0.253392  0.847493  1
  O  O33  1  0.403729  0.932422  0.889149  1
  O  O34  1  0.734041  0.505316  0.917018  1
  O  O35  1  0.903730  0.889150  0.932423  1
