# generated using pymatgen
data_LuTa2(SiTc)3
_symmetry_space_group_name_H-M   'P 1'
_cell_length_a   6.99671938
_cell_length_b   6.99672007
_cell_length_c   3.32649400
_cell_angle_alpha   90.00000000
_cell_angle_beta   90.00000000
_cell_angle_gamma   120.89742346
_symmetry_Int_Tables_number   1
_chemical_formula_structural   LuTa2(SiTc)3
_chemical_formula_sum   'Lu1 Ta2 Si3 Tc3'
_cell_volume   139.73574894
_cell_formula_units_Z   1
loop_
 _symmetry_equiv_pos_site_id
 _symmetry_equiv_pos_as_xyz
  1  'x, y, z'
loop_
 _atom_site_type_symbol
 _atom_site_label
 _atom_site_symmetry_multiplicity
 _atom_site_fract_x
 _atom_site_fract_y
 _atom_site_fract_z
 _atom_site_occupancy
  Lu  Lu0  1  0.402327  0.402327  0.500000  1
  Ta  Ta1  1  0.600829  0.002652  0.500000  1
  Ta  Ta2  1  0.002652  0.600829  0.500000  1
  Si  Si3  1  0.673386  0.331920  0.000000  1
  Si  Si4  1  0.331920  0.673386  0.000000  1
  Si  Si5  1  0.996958  0.996958  0.500000  1
  Tc  Tc6  1  0.748872  0.748872  0.000000  1
  Tc  Tc7  1  0.252147  0.990909  0.000000  1
  Tc  Tc8  1  0.990909  0.252147  0.000000  1
