# generated using pymatgen
data_TaNb11(Zn6N)2
_symmetry_space_group_name_H-M   'P 1'
_cell_length_a   8.19415309
_cell_length_b   8.19415384
_cell_length_c   8.19672500
_cell_angle_alpha   59.98961565
_cell_angle_beta   59.98961263
_cell_angle_gamma   60.06055358
_symmetry_Int_Tables_number   1
_chemical_formula_structural   TaNb11(Zn6N)2
_chemical_formula_sum   'Ta1 Nb11 Zn12 N2'
_cell_volume   389.28139715
_cell_formula_units_Z   1
loop_
 _symmetry_equiv_pos_site_id
 _symmetry_equiv_pos_as_xyz
  1  'x, y, z'
loop_
 _atom_site_type_symbol
 _atom_site_label
 _atom_site_symmetry_multiplicity
 _atom_site_fract_x
 _atom_site_fract_y
 _atom_site_fract_z
 _atom_site_occupancy
  Ta  Ta0  1  0.062015  0.062015  0.437985  1
  Nb  Nb1  1  0.188824  0.811303  0.189122  1
  Nb  Nb2  1  0.439202  0.060925  0.438961  1
  Nb  Nb3  1  0.439202  0.060925  0.060912  1
  Nb  Nb4  1  0.438676  0.438676  0.061324  1
  Nb  Nb5  1  0.188824  0.811303  0.810751  1
  Nb  Nb6  1  0.060925  0.439202  0.060912  1
  Nb  Nb7  1  0.810933  0.810933  0.189067  1
  Nb  Nb8  1  0.060925  0.439202  0.438961  1
  Nb  Nb9  1  0.188844  0.188844  0.811156  1
  Nb  Nb10  1  0.811303  0.188824  0.189122  1
  Nb  Nb11  1  0.811303  0.188824  0.810751  1
  Zn  Zn12  1  0.833017  0.501114  0.832936  1
  Zn  Zn13  1  0.417003  0.417003  0.748884  1
  Zn  Zn14  1  0.749223  0.416707  0.417034  1
  Zn  Zn15  1  0.417003  0.417003  0.417107  1
  Zn  Zn16  1  0.833049  0.833049  0.501010  1
  Zn  Zn17  1  0.416707  0.749223  0.417034  1
  Zn  Zn18  1  0.833049  0.833049  0.832893  1
  Zn  Zn19  1  0.501114  0.833017  0.832936  1
  Zn  Zn20  1  0.625088  0.125066  0.624923  1
  Zn  Zn21  1  0.625004  0.625004  0.125019  1
  Zn  Zn22  1  0.125066  0.625088  0.624923  1
  Zn  Zn23  1  0.625004  0.625004  0.624973  1
  N  N24  1  0.999903  0.999903  0.000097  1
  N  N25  1  0.248791  0.248791  0.251209  1
