# generated using pymatgen
data_Yb7Gd(Si3Pd)4
_symmetry_space_group_name_H-M   'P 1'
_cell_length_a   8.23934600
_cell_length_b   8.23934468
_cell_length_c   8.15612500
_cell_angle_alpha   90.00000000
_cell_angle_beta   90.00000000
_cell_angle_gamma   119.99999727
_symmetry_Int_Tables_number   1
_chemical_formula_structural   Yb7Gd(Si3Pd)4
_chemical_formula_sum   'Yb7 Gd1 Si12 Pd4'
_cell_volume   479.51249555
_cell_formula_units_Z   1
loop_
 _symmetry_equiv_pos_site_id
 _symmetry_equiv_pos_as_xyz
  1  'x, y, z'
loop_
 _atom_site_type_symbol
 _atom_site_label
 _atom_site_symmetry_multiplicity
 _atom_site_fract_x
 _atom_site_fract_y
 _atom_site_fract_z
 _atom_site_occupancy
  Yb  Yb0  1  0.501801  0.003603  0.250000  1
  Yb  Yb1  1  0.498096  0.996193  0.750000  1
  Yb  Yb2  1  0.996397  0.498199  0.250000  1
  Yb  Yb3  1  0.003807  0.501904  0.750000  1
  Yb  Yb4  1  0.501801  0.498199  0.250000  1
  Yb  Yb5  1  0.498096  0.501904  0.750000  1
  Yb  Yb6  1  0.000000  0.000000  0.250000  1
  Gd  Gd7  1  0.000000  0.000000  0.750000  1
  Si  Si8  1  0.164342  0.328684  0.998331  1
  Si  Si9  1  0.835682  0.671364  0.995727  1
  Si  Si10  1  0.671316  0.835658  0.998331  1
  Si  Si11  1  0.835682  0.671364  0.504273  1
  Si  Si12  1  0.328636  0.164318  0.995727  1
  Si  Si13  1  0.164342  0.328684  0.501669  1
  Si  Si14  1  0.164342  0.835658  0.998331  1
  Si  Si15  1  0.328636  0.164318  0.504273  1
  Si  Si16  1  0.835682  0.164318  0.995727  1
  Si  Si17  1  0.671316  0.835658  0.501669  1
  Si  Si18  1  0.835682  0.164318  0.504273  1
  Si  Si19  1  0.164342  0.835658  0.501669  1
  Pd  Pd20  1  0.333333  0.666667  0.004347  1
  Pd  Pd21  1  0.666667  0.333333  0.996865  1
  Pd  Pd22  1  0.666667  0.333333  0.503135  1
  Pd  Pd23  1  0.333333  0.666667  0.495653  1
