# generated using pymatgen
data_Ho4Pd3Pt
_symmetry_space_group_name_H-M   'P 1'
_cell_length_a   4.54695300
_cell_length_b   5.58569742
_cell_length_c   6.96860129
_cell_angle_alpha   90.12696224
_cell_angle_beta   90.00000000
_cell_angle_gamma   90.00000000
_symmetry_Int_Tables_number   1
_chemical_formula_structural   Ho4Pd3Pt
_chemical_formula_sum   'Ho4 Pd3 Pt1'
_cell_volume   176.98742949
_cell_formula_units_Z   1
loop_
 _symmetry_equiv_pos_site_id
 _symmetry_equiv_pos_as_xyz
  1  'x, y, z'
loop_
 _atom_site_type_symbol
 _atom_site_label
 _atom_site_symmetry_multiplicity
 _atom_site_fract_x
 _atom_site_fract_y
 _atom_site_fract_z
 _atom_site_occupancy
  Ho  Ho0  1  0.250000  0.356413  0.685808  1
  Ho  Ho1  1  0.250000  0.144147  0.179013  1
  Ho  Ho2  1  0.750000  0.639680  0.317854  1
  Ho  Ho3  1  0.750000  0.859404  0.818027  1
  Pd  Pd4  1  0.250000  0.847472  0.542457  1
  Pd  Pd5  1  0.250000  0.655212  0.044240  1
  Pd  Pd6  1  0.750000  0.151353  0.456392  1
  Pt  Pt7  1  0.750000  0.346320  0.956209  1
