# generated using pymatgen
data_HoTmAlZnPt2
_symmetry_space_group_name_H-M   'P 1'
_cell_length_a   4.32651500
_cell_length_b   6.78667400
_cell_length_c   7.90348000
_cell_angle_alpha   90.00000000
_cell_angle_beta   90.00000000
_cell_angle_gamma   90.00000000
_symmetry_Int_Tables_number   1
_chemical_formula_structural   HoTmAlZnPt2
_chemical_formula_sum   'Ho2 Tm2 Al2 Zn2 Pt4'
_cell_volume   232.06709221
_cell_formula_units_Z   2
loop_
 _symmetry_equiv_pos_site_id
 _symmetry_equiv_pos_as_xyz
  1  'x, y, z'
loop_
 _atom_site_type_symbol
 _atom_site_label
 _atom_site_symmetry_multiplicity
 _atom_site_fract_x
 _atom_site_fract_y
 _atom_site_fract_z
 _atom_site_occupancy
  Ho  Ho0  1  0.750000  0.970037  0.318734  1
  Ho  Ho1  1  0.750000  0.470037  0.181266  1
  Tm  Tm2  1  0.250000  0.026757  0.686952  1
  Tm  Tm3  1  0.250000  0.526757  0.813048  1
  Al  Al4  1  0.750000  0.857478  0.938526  1
  Al  Al5  1  0.750000  0.357478  0.561474  1
  Zn  Zn6  1  0.250000  0.151244  0.066884  1
  Zn  Zn7  1  0.250000  0.651244  0.433116  1
  Pt  Pt8  1  0.250000  0.260115  0.393148  1
  Pt  Pt9  1  0.250000  0.760115  0.106852  1
  Pt  Pt10  1  0.750000  0.734369  0.626808  1
  Pt  Pt11  1  0.750000  0.234369  0.873192  1
