# generated using pymatgen
data_Sm5DyCo16(TcP6)2
_symmetry_space_group_name_H-M   'P 1'
_cell_length_a   3.74547000
_cell_length_b   10.60473108
_cell_length_c   12.32845709
_cell_angle_alpha   89.98600351
_cell_angle_beta   90.00000000
_cell_angle_gamma   90.00000000
_symmetry_Int_Tables_number   1
_chemical_formula_structural   Sm5DyCo16(TcP6)2
_chemical_formula_sum   'Sm5 Dy1 Co16 Tc2 P12'
_cell_volume   489.68262862
_cell_formula_units_Z   1
loop_
 _symmetry_equiv_pos_site_id
 _symmetry_equiv_pos_as_xyz
  1  'x, y, z'
loop_
 _atom_site_type_symbol
 _atom_site_label
 _atom_site_symmetry_multiplicity
 _atom_site_fract_x
 _atom_site_fract_y
 _atom_site_fract_z
 _atom_site_occupancy
  Sm  Sm0  1  0.000000  0.500041  0.523474  1
  Sm  Sm1  1  0.500000  0.999824  0.476264  1
  Sm  Sm2  1  0.500000  0.182350  0.205927  1
  Sm  Sm3  1  0.000000  0.682769  0.794159  1
  Sm  Sm4  1  0.000000  0.317363  0.794161  1
  Dy  Dy5  1  0.500000  0.816931  0.205679  1
  Co  Co6  1  0.500000  0.500092  0.703828  1
  Co  Co7  1  0.000000  0.998380  0.295539  1
  Co  Co8  1  0.000000  0.500736  0.988442  1
  Co  Co9  1  0.500000  0.999313  0.012659  1
  Co  Co10  1  0.500000  0.332288  0.991278  1
  Co  Co11  1  0.500000  0.668327  0.991754  1
  Co  Co12  1  0.000000  0.167274  0.009117  1
  Co  Co13  1  0.000000  0.832105  0.010030  1
  Co  Co14  1  0.500000  0.296389  0.430559  1
  Co  Co15  1  0.500000  0.703923  0.429607  1
  Co  Co16  1  0.000000  0.203514  0.569342  1
  Co  Co17  1  0.000000  0.796400  0.568888  1
  Co  Co18  1  0.500000  0.880547  0.708718  1
  Co  Co19  1  0.500000  0.119456  0.708862  1
  Co  Co20  1  0.000000  0.620792  0.290382  1
  Co  Co21  1  0.000000  0.380875  0.291149  1
  Tc  Tc22  1  0.500000  0.500582  0.155674  1
  Tc  Tc23  1  0.000000  0.999731  0.844608  1
  P  P24  1  0.500000  0.500230  0.884039  1
  P  P25  1  0.000000  0.998609  0.117120  1
  P  P26  1  0.500000  0.499900  0.346008  1
  P  P27  1  0.000000  0.000008  0.653841  1
  P  P28  1  0.500000  0.309108  0.615165  1
  P  P29  1  0.500000  0.691089  0.614860  1
  P  P30  1  0.000000  0.190668  0.384732  1
  P  P31  1  0.000000  0.809391  0.382903  1
  P  P32  1  0.500000  0.847236  0.894248  1
  P  P33  1  0.500000  0.152586  0.894592  1
  P  P34  1  0.000000  0.654059  0.106697  1
  P  P35  1  0.000000  0.347115  0.105696  1
