# generated using pymatgen
data_ErTm3(GaCo)4
_symmetry_space_group_name_H-M   'P 1'
_cell_length_a   4.09885600
_cell_length_b   6.64738828
_cell_length_c   7.61211046
_cell_angle_alpha   89.92890328
_cell_angle_beta   90.00000000
_cell_angle_gamma   90.00000000
_symmetry_Int_Tables_number   1
_chemical_formula_structural   ErTm3(GaCo)4
_chemical_formula_sum   'Er1 Tm3 Ga4 Co4'
_cell_volume   207.40463411
_cell_formula_units_Z   1
loop_
 _symmetry_equiv_pos_site_id
 _symmetry_equiv_pos_as_xyz
  1  'x, y, z'
loop_
 _atom_site_type_symbol
 _atom_site_label
 _atom_site_symmetry_multiplicity
 _atom_site_fract_x
 _atom_site_fract_y
 _atom_site_fract_z
 _atom_site_occupancy
  Er  Er0  1  0.750000  0.473450  0.315737  1
  Tm  Tm1  1  0.250000  0.526757  0.684670  1
  Tm  Tm2  1  0.250000  0.026677  0.815584  1
  Tm  Tm3  1  0.750000  0.973239  0.184259  1
  Ga  Ga4  1  0.750000  0.346467  0.935739  1
  Ga  Ga5  1  0.250000  0.152776  0.436470  1
  Ga  Ga6  1  0.250000  0.653983  0.063345  1
  Ga  Ga7  1  0.750000  0.846853  0.564129  1
  Co  Co8  1  0.750000  0.228407  0.619634  1
  Co  Co9  1  0.250000  0.771845  0.380872  1
  Co  Co10  1  0.750000  0.728653  0.880715  1
  Co  Co11  1  0.250000  0.270892  0.118846  1
