# generated using pymatgen
data_Dy3Er7(TlBi2)2
_symmetry_space_group_name_H-M   'P 1'
_cell_length_a   9.03224700
_cell_length_b   9.03224750
_cell_length_c   6.47343100
_cell_angle_alpha   90.00000000
_cell_angle_beta   90.00000000
_cell_angle_gamma   119.64198610
_symmetry_Int_Tables_number   1
_chemical_formula_structural   Dy3Er7(TlBi2)2
_chemical_formula_sum   'Dy3 Er7 Tl2 Bi4'
_cell_volume   458.99955793
_cell_formula_units_Z   1
loop_
 _symmetry_equiv_pos_site_id
 _symmetry_equiv_pos_as_xyz
  1  'x, y, z'
loop_
 _atom_site_type_symbol
 _atom_site_label
 _atom_site_symmetry_multiplicity
 _atom_site_fract_x
 _atom_site_fract_y
 _atom_site_fract_z
 _atom_site_occupancy
  Dy  Dy0  1  0.760267  0.760267  0.750000  1
  Dy  Dy1  1  0.234524  0.997496  0.750000  1
  Dy  Dy2  1  0.997496  0.234524  0.750000  1
  Er  Er3  1  0.669079  0.329249  0.003527  1
  Er  Er4  1  0.329249  0.669079  0.003527  1
  Er  Er5  1  0.329249  0.669079  0.496473  1
  Er  Er6  1  0.669079  0.329249  0.496473  1
  Er  Er7  1  0.235817  0.235817  0.250000  1
  Er  Er8  1  0.765629  0.008854  0.250000  1
  Er  Er9  1  0.008854  0.765629  0.250000  1
  Tl  Tl10  1  0.395644  0.002081  0.250000  1
  Tl  Tl11  1  0.002081  0.395644  0.250000  1
  Bi  Bi12  1  0.393757  0.393757  0.750000  1
  Bi  Bi13  1  0.602405  0.996995  0.750000  1
  Bi  Bi14  1  0.996995  0.602405  0.750000  1
  Bi  Bi15  1  0.609872  0.609872  0.250000  1
