# generated using pymatgen
data_Cs3(PtS2)2
_symmetry_space_group_name_H-M   'P 1'
_cell_length_a   6.81453246
_cell_length_b   6.81453328
_cell_length_c   13.71327300
_cell_angle_alpha   90.00000000
_cell_angle_beta   90.00000000
_cell_angle_gamma   110.67318953
_symmetry_Int_Tables_number   1
_chemical_formula_structural   Cs3(PtS2)2
_chemical_formula_sum   'Cs6 Pt4 S8'
_cell_volume   595.81008190
_cell_formula_units_Z   2
loop_
 _symmetry_equiv_pos_site_id
 _symmetry_equiv_pos_as_xyz
  1  'x, y, z'
loop_
 _atom_site_type_symbol
 _atom_site_label
 _atom_site_symmetry_multiplicity
 _atom_site_fract_x
 _atom_site_fract_y
 _atom_site_fract_z
 _atom_site_occupancy
  Cs  Cs0  1  0.339894  0.660106  0.929011  1
  Cs  Cs1  1  0.660106  0.339894  0.429011  1
  Cs  Cs2  1  0.660106  0.339894  0.070989  1
  Cs  Cs3  1  0.339894  0.660106  0.570989  1
  Cs  Cs4  1  0.749306  0.250694  0.750000  1
  Cs  Cs5  1  0.250694  0.749306  0.250000  1
  Pt  Pt6  1  0.000000  0.000000  0.000000  1
  Pt  Pt7  1  0.000000  0.000000  0.500000  1
  Pt  Pt8  1  0.074138  0.925862  0.750000  1
  Pt  Pt9  1  0.925862  0.074138  0.250000  1
  S  S10  1  0.741491  0.865375  0.120401  1
  S  S11  1  0.258509  0.134625  0.620401  1
  S  S12  1  0.865375  0.741491  0.879599  1
  S  S13  1  0.134625  0.258509  0.379599  1
  S  S14  1  0.258509  0.134625  0.879599  1
  S  S15  1  0.741491  0.865375  0.379599  1
  S  S16  1  0.134625  0.258509  0.120401  1
  S  S17  1  0.865375  0.741491  0.620401  1
