# generated using pymatgen
data_Ca9CeIr4
_symmetry_space_group_name_H-M   'P 1'
_cell_length_a   6.59626015
_cell_length_b   7.53322246
_cell_length_c   8.63163761
_cell_angle_alpha   97.38756371
_cell_angle_beta   112.46368027
_cell_angle_gamma   89.99999991
_symmetry_Int_Tables_number   1
_chemical_formula_structural   Ca9CeIr4
_chemical_formula_sum   'Ca9 Ce1 Ir4'
_cell_volume   392.51475779
_cell_formula_units_Z   1
loop_
 _symmetry_equiv_pos_site_id
 _symmetry_equiv_pos_as_xyz
  1  'x, y, z'
loop_
 _atom_site_type_symbol
 _atom_site_label
 _atom_site_symmetry_multiplicity
 _atom_site_fract_x
 _atom_site_fract_y
 _atom_site_fract_z
 _atom_site_occupancy
  Ca  Ca0  1  0.970834  0.917111  0.173378  1
  Ca  Ca1  1  0.797456  0.582889  0.826622  1
  Ca  Ca2  1  0.022498  0.077903  0.823926  1
  Ca  Ca3  1  0.198574  0.422097  0.176074  1
  Ca  Ca4  1  0.640614  0.821993  0.434051  1
  Ca  Ca5  1  0.206561  0.678007  0.565949  1
  Ca  Ca6  1  0.357826  0.178153  0.557547  1
  Ca  Ca7  1  0.800280  0.321847  0.442453  1
  Ca  Ca8  1  0.424718  0.750000  0.000000  1
  Ce  Ce9  1  0.560493  0.250000  0.000000  1
  Ir  Ir10  1  0.808711  0.560763  0.206954  1
  Ir  Ir11  1  0.601757  0.939237  0.793046  1
  Ir  Ir12  1  0.200966  0.411369  0.792252  1
  Ir  Ir13  1  0.408712  0.088631  0.207748  1
