# generated using pymatgen
data_Na2TlPd3
_symmetry_space_group_name_H-M   'P 1'
_cell_length_a   5.52078644
_cell_length_b   5.52078643
_cell_length_c   5.52078464
_cell_angle_alpha   61.22708235
_cell_angle_beta   61.22707810
_cell_angle_gamma   61.22708411
_symmetry_Int_Tables_number   1
_chemical_formula_structural   Na2TlPd3
_chemical_formula_sum   'Na2 Tl1 Pd3'
_cell_volume   122.26736693
_cell_formula_units_Z   1
loop_
 _symmetry_equiv_pos_site_id
 _symmetry_equiv_pos_as_xyz
  1  'x, y, z'
loop_
 _atom_site_type_symbol
 _atom_site_label
 _atom_site_symmetry_multiplicity
 _atom_site_fract_x
 _atom_site_fract_y
 _atom_site_fract_z
 _atom_site_occupancy
  Na  Na0  1  0.880447  0.880447  0.880447  1
  Na  Na1  1  0.119553  0.119553  0.119553  1
  Tl  Tl2  1  0.500000  0.500000  0.500000  1
  Pd  Pd3  1  0.500000  0.500000  0.000000  1
  Pd  Pd4  1  0.000000  0.500000  0.500000  1
  Pd  Pd5  1  0.500000  0.000000  0.500000  1
