# generated using pymatgen
data_Ho10In6Se
_symmetry_space_group_name_H-M   'P 1'
_cell_length_a   9.02769900
_cell_length_b   9.02770127
_cell_length_c   6.58177400
_cell_angle_alpha   90.00000000
_cell_angle_beta   90.00000000
_cell_angle_gamma   119.99999536
_symmetry_Int_Tables_number   1
_chemical_formula_structural   Ho10In6Se
_chemical_formula_sum   'Ho10 In6 Se1'
_cell_volume   464.54508310
_cell_formula_units_Z   1
loop_
 _symmetry_equiv_pos_site_id
 _symmetry_equiv_pos_as_xyz
  1  'x, y, z'
loop_
 _atom_site_type_symbol
 _atom_site_label
 _atom_site_symmetry_multiplicity
 _atom_site_fract_x
 _atom_site_fract_y
 _atom_site_fract_z
 _atom_site_occupancy
  Ho  Ho0  1  0.666667  0.333333  0.500000  1
  Ho  Ho1  1  0.333333  0.666667  0.500000  1
  Ho  Ho2  1  0.333333  0.666667  0.000000  1
  Ho  Ho3  1  0.666667  0.333333  0.000000  1
  Ho  Ho4  1  0.749829  0.749829  0.242040  1
  Ho  Ho5  1  0.250171  0.000000  0.242040  1
  Ho  Ho6  1  0.000000  0.250171  0.242040  1
  Ho  Ho7  1  0.250171  0.250171  0.757960  1
  Ho  Ho8  1  0.749829  0.000000  0.757960  1
  Ho  Ho9  1  0.000000  0.749829  0.757960  1
  In  In10  1  0.395866  0.395866  0.247985  1
  In  In11  1  0.604134  0.000000  0.247985  1
  In  In12  1  0.000000  0.604134  0.247985  1
  In  In13  1  0.604134  0.604134  0.752015  1
  In  In14  1  0.395866  0.000000  0.752015  1
  In  In15  1  0.000000  0.395866  0.752015  1
  Se  Se16  1  0.000000  0.000000  0.500000  1
