# generated using pymatgen
data_Er2Sc3In4IrRh
_symmetry_space_group_name_H-M   'P 1'
_cell_length_a   3.49646600
_cell_length_b   7.83301200
_cell_length_c   17.76609656
_cell_angle_alpha   90.12398272
_cell_angle_beta   90.00000000
_cell_angle_gamma   90.00000000
_symmetry_Int_Tables_number   1
_chemical_formula_structural   Er2Sc3In4IrRh
_chemical_formula_sum   'Er4 Sc6 In8 Ir2 Rh2'
_cell_volume   486.57422843
_cell_formula_units_Z   2
loop_
 _symmetry_equiv_pos_site_id
 _symmetry_equiv_pos_as_xyz
  1  'x, y, z'
loop_
 _atom_site_type_symbol
 _atom_site_label
 _atom_site_symmetry_multiplicity
 _atom_site_fract_x
 _atom_site_fract_y
 _atom_site_fract_z
 _atom_site_occupancy
  Er  Er0  1  0.000000  0.751831  0.781268  1
  Er  Er1  1  0.000000  0.248169  0.218732  1
  Er  Er2  1  0.000000  0.249492  0.718704  1
  Er  Er3  1  0.000000  0.750508  0.281296  1
  Sc  Sc4  1  0.000000  0.000000  0.000000  1
  Sc  Sc5  1  0.000000  0.500000  0.500000  1
  Sc  Sc6  1  0.000000  0.880374  0.587027  1
  Sc  Sc7  1  0.000000  0.119626  0.412973  1
  Sc  Sc8  1  0.000000  0.380257  0.912625  1
  Sc  Sc9  1  0.000000  0.619743  0.087375  1
  In  In10  1  0.500000  0.798587  0.439503  1
  In  In11  1  0.500000  0.201413  0.560497  1
  In  In12  1  0.500000  0.299711  0.060416  1
  In  In13  1  0.500000  0.700289  0.939584  1
  In  In14  1  0.500000  0.925231  0.145677  1
  In  In15  1  0.500000  0.074769  0.854323  1
  In  In16  1  0.500000  0.425730  0.353905  1
  In  In17  1  0.500000  0.574270  0.646095  1
  Ir  Ir18  1  0.500000  0.965943  0.692963  1
  Ir  Ir19  1  0.500000  0.034057  0.307037  1
  Rh  Rh20  1  0.500000  0.465485  0.807757  1
  Rh  Rh21  1  0.500000  0.534515  0.192243  1
