# generated using pymatgen
data_AcLa4Pr7(Si7Br3)2
_symmetry_space_group_name_H-M   'P 1'
_cell_length_a   4.13715400
_cell_length_b   11.94992000
_cell_length_c   16.74755800
_cell_angle_alpha   90.00000000
_cell_angle_beta   90.00000000
_cell_angle_gamma   90.00000000
_symmetry_Int_Tables_number   1
_chemical_formula_structural   AcLa4Pr7(Si7Br3)2
_chemical_formula_sum   'Ac1 La4 Pr7 Si14 Br6'
_cell_volume   827.97681453
_cell_formula_units_Z   1
loop_
 _symmetry_equiv_pos_site_id
 _symmetry_equiv_pos_as_xyz
  1  'x, y, z'
loop_
 _atom_site_type_symbol
 _atom_site_label
 _atom_site_symmetry_multiplicity
 _atom_site_fract_x
 _atom_site_fract_y
 _atom_site_fract_z
 _atom_site_occupancy
  Ac  Ac0  1  0.500000  0.336259  0.500000  1
  La  La1  1  0.500000  0.066372  0.880183  1
  La  La2  1  0.000000  0.931955  0.621257  1
  La  La3  1  0.500000  0.066372  0.119817  1
  La  La4  1  0.000000  0.931955  0.378743  1
  Pr  Pr5  1  0.000000  0.655523  0.000000  1
  Pr  Pr6  1  0.500000  0.361288  0.758400  1
  Pr  Pr7  1  0.000000  0.641293  0.744409  1
  Pr  Pr8  1  0.500000  0.361288  0.241600  1
  Pr  Pr9  1  0.000000  0.641293  0.255591  1
  Pr  Pr10  1  0.500000  0.357493  0.000000  1
  Pr  Pr11  1  0.000000  0.642453  0.500000  1
  Si  Si12  1  0.000000  0.154773  0.000000  1
  Si  Si13  1  0.500000  0.845270  0.500000  1
  Si  Si14  1  0.500000  0.566056  0.876984  1
  Si  Si15  1  0.000000  0.437695  0.626272  1
  Si  Si16  1  0.500000  0.566056  0.123016  1
  Si  Si17  1  0.000000  0.437695  0.373728  1
  Si  Si18  1  0.000000  0.255279  0.874384  1
  Si  Si19  1  0.500000  0.745175  0.626140  1
  Si  Si20  1  0.000000  0.255279  0.125616  1
  Si  Si21  1  0.500000  0.745175  0.373860  1
  Si  Si22  1  0.000000  0.458234  0.877074  1
  Si  Si23  1  0.500000  0.543982  0.625086  1
  Si  Si24  1  0.500000  0.543982  0.374914  1
  Si  Si25  1  0.000000  0.458234  0.122926  1
  Br  Br26  1  0.500000  0.110728  0.692041  1
  Br  Br27  1  0.000000  0.890893  0.807689  1
  Br  Br28  1  0.000000  0.130706  0.500000  1
  Br  Br29  1  0.500000  0.859619  0.000000  1
  Br  Br30  1  0.500000  0.110728  0.307959  1
  Br  Br31  1  0.000000  0.890893  0.192311  1
