# generated using pymatgen
data_CaTb5ErCoI12
_symmetry_space_group_name_H-M   'P 1'
_cell_length_a   9.71814551
_cell_length_b   9.78879258
_cell_length_c   9.76781835
_cell_angle_alpha   106.78985583
_cell_angle_beta   106.88998955
_cell_angle_gamma   106.86063804
_symmetry_Int_Tables_number   1
_chemical_formula_structural   CaTb5ErCoI12
_chemical_formula_sum   'Ca1 Tb5 Er1 Co1 I12'
_cell_volume   777.05851246
_cell_formula_units_Z   1
loop_
 _symmetry_equiv_pos_site_id
 _symmetry_equiv_pos_as_xyz
  1  'x, y, z'
loop_
 _atom_site_type_symbol
 _atom_site_label
 _atom_site_symmetry_multiplicity
 _atom_site_fract_x
 _atom_site_fract_y
 _atom_site_fract_z
 _atom_site_occupancy
  Ca  Ca0  1  0.499953  0.500036  0.500154  1
  Tb  Tb1  1  0.095501  0.296528  0.023816  1
  Tb  Tb2  1  0.281495  0.022047  0.091485  1
  Tb  Tb3  1  0.976972  0.903968  0.702702  1
  Tb  Tb4  1  0.904573  0.703646  0.976667  1
  Tb  Tb5  1  0.718749  0.978422  0.910038  1
  Er  Er6  1  0.022843  0.094687  0.292396  1
  Co  Co7  1  0.000164  0.999955  0.999892  1
  I  I8  1  0.147206  0.453437  0.377887  1
  I  I9  1  0.456503  0.376193  0.150106  1
  I  I10  1  0.375780  0.149253  0.454786  1
  I  I11  1  0.851315  0.543396  0.622494  1
  I  I12  1  0.543626  0.623937  0.850181  1
  I  I13  1  0.621388  0.850690  0.545443  1
  I  I14  1  0.681699  0.072630  0.224349  1
  I  I15  1  0.072337  0.223609  0.677482  1
  I  I16  1  0.226878  0.680605  0.073780  1
  I  I17  1  0.321514  0.928266  0.778106  1
  I  I18  1  0.928300  0.779198  0.321731  1
  I  I19  1  0.773205  0.319497  0.926501  1
