# generated using pymatgen
data_Ce8Zn(Si4Ni)3
_symmetry_space_group_name_H-M   'P 1'
_cell_length_a   8.09162900
_cell_length_b   8.09162801
_cell_length_c   8.38287000
_cell_angle_alpha   90.00000000
_cell_angle_beta   90.00000000
_cell_angle_gamma   119.99999176
_symmetry_Int_Tables_number   1
_chemical_formula_structural   Ce8Zn(Si4Ni)3
_chemical_formula_sum   'Ce8 Zn1 Si12 Ni3'
_cell_volume   475.33004956
_cell_formula_units_Z   1
loop_
 _symmetry_equiv_pos_site_id
 _symmetry_equiv_pos_as_xyz
  1  'x, y, z'
loop_
 _atom_site_type_symbol
 _atom_site_label
 _atom_site_symmetry_multiplicity
 _atom_site_fract_x
 _atom_site_fract_y
 _atom_site_fract_z
 _atom_site_occupancy
  Ce  Ce0  1  0.502053  0.004108  0.247294  1
  Ce  Ce1  1  0.502092  0.004183  0.752857  1
  Ce  Ce2  1  0.995892  0.497947  0.247294  1
  Ce  Ce3  1  0.995817  0.497908  0.752857  1
  Ce  Ce4  1  0.502053  0.497947  0.247294  1
  Ce  Ce5  1  0.502092  0.497908  0.752857  1
  Ce  Ce6  1  0.000000  0.000000  0.248944  1
  Ce  Ce7  1  0.000000  0.000000  0.751042  1
  Zn  Zn8  1  0.333333  0.666667  0.500072  1
  Si  Si9  1  0.170307  0.340612  0.999709  1
  Si  Si10  1  0.830610  0.661221  0.999647  1
  Si  Si11  1  0.659388  0.829693  0.999709  1
  Si  Si12  1  0.827814  0.655629  0.500350  1
  Si  Si13  1  0.338779  0.169390  0.999647  1
  Si  Si14  1  0.164120  0.328239  0.500298  1
  Si  Si15  1  0.170307  0.829693  0.999709  1
  Si  Si16  1  0.344371  0.172186  0.500350  1
  Si  Si17  1  0.830610  0.169390  0.999647  1
  Si  Si18  1  0.671761  0.835880  0.500298  1
  Si  Si19  1  0.827814  0.172186  0.500350  1
  Si  Si20  1  0.164120  0.835880  0.500298  1
  Ni  Ni21  1  0.333333  0.666667  0.999913  1
  Ni  Ni22  1  0.666667  0.333333  0.999697  1
  Ni  Ni23  1  0.666667  0.333333  0.499868  1
