# generated using pymatgen
data_Y5Zr3As7P5Rh16
_symmetry_space_group_name_H-M   'P 1'
_cell_length_a   13.17664448
_cell_length_b   13.20046694
_cell_length_c   3.97077000
_cell_angle_alpha   90.00000000
_cell_angle_beta   90.00000000
_cell_angle_gamma   120.25350903
_symmetry_Int_Tables_number   1
_chemical_formula_structural   Y5Zr3As7P5Rh16
_chemical_formula_sum   'Y5 Zr3 As7 P5 Rh16'
_cell_volume   596.60157038
_cell_formula_units_Z   1
loop_
 _symmetry_equiv_pos_site_id
 _symmetry_equiv_pos_as_xyz
  1  'x, y, z'
loop_
 _atom_site_type_symbol
 _atom_site_label
 _atom_site_symmetry_multiplicity
 _atom_site_fract_x
 _atom_site_fract_y
 _atom_site_fract_z
 _atom_site_occupancy
  Y  Y0  1  0.181382  0.182147  0.500000  1
  Y  Y1  1  0.818838  0.001678  0.500000  1
  Y  Y2  1  0.998653  0.818413  0.500000  1
  Y  Y3  1  0.333983  0.662756  0.000000  1
  Y  Y4  1  0.667090  0.333883  0.000000  1
  Zr  Zr5  1  0.553462  0.558097  0.000000  1
  Zr  Zr6  1  0.443476  0.998336  0.000000  1
  Zr  Zr7  1  0.005531  0.445338  0.000000  1
  As  As8  1  0.313715  0.828680  0.500000  1
  As  As9  1  0.683993  0.516820  0.500000  1
  As  As10  1  0.832327  0.315284  0.500000  1
  As  As11  1  0.482026  0.167702  0.500000  1
  As  As12  1  0.350223  0.351017  0.000000  1
  As  As13  1  0.647916  0.998259  0.000000  1
  As  As14  1  0.998520  0.648280  0.000000  1
  P  P15  1  0.824769  0.825127  0.000000  1
  P  P16  1  0.172704  0.997305  0.000000  1
  P  P17  1  0.001917  0.176336  0.000000  1
  P  P18  1  0.170553  0.480565  0.500000  1
  P  P19  1  0.520393  0.689120  0.500000  1
  Rh  Rh20  1  0.726163  0.730977  0.500000  1
  Rh  Rh21  1  0.267853  0.999091  0.500000  1
  Rh  Rh22  1  0.005001  0.276412  0.500000  1
  Rh  Rh23  1  0.176521  0.376119  0.000000  1
  Rh  Rh24  1  0.625556  0.798675  0.000000  1
  Rh  Rh25  1  0.194403  0.825483  0.000000  1
  Rh  Rh26  1  0.802514  0.632807  0.000000  1
  Rh  Rh27  1  0.829848  0.195198  0.000000  1
  Rh  Rh28  1  0.365894  0.171364  0.000000  1
  Rh  Rh29  1  0.358166  0.495156  0.500000  1
  Rh  Rh30  1  0.516456  0.865651  0.500000  1
  Rh  Rh31  1  0.131310  0.636617  0.500000  1
  Rh  Rh32  1  0.873438  0.519725  0.500000  1
  Rh  Rh33  1  0.646119  0.127307  0.500000  1
  Rh  Rh34  1  0.479754  0.353918  0.500000  1
  Rh  Rh35  1  0.999534  0.000359  0.000000  1
