# generated using pymatgen
data_Dy8Tm2Ir5Pt
_symmetry_space_group_name_H-M   'P 1'
_cell_length_a   10.92117355
_cell_length_b   10.93223600
_cell_length_c   6.33131833
_cell_angle_alpha   90.00000000
_cell_angle_beta   89.96326939
_cell_angle_gamma   90.00000000
_symmetry_Int_Tables_number   1
_chemical_formula_structural   Dy8Tm2Ir5Pt
_chemical_formula_sum   'Dy16 Tm4 Ir10 Pt2'
_cell_volume   755.91396331
_cell_formula_units_Z   2
loop_
 _symmetry_equiv_pos_site_id
 _symmetry_equiv_pos_as_xyz
  1  'x, y, z'
loop_
 _atom_site_type_symbol
 _atom_site_label
 _atom_site_symmetry_multiplicity
 _atom_site_fract_x
 _atom_site_fract_y
 _atom_site_fract_z
 _atom_site_occupancy
  Dy  Dy0  1  0.290676  0.087920  0.376417  1
  Dy  Dy1  1  0.290676  0.912080  0.876417  1
  Dy  Dy2  1  0.706232  0.089359  0.874363  1
  Dy  Dy3  1  0.706232  0.910641  0.374363  1
  Dy  Dy4  1  0.584610  0.790260  0.878897  1
  Dy  Dy5  1  0.584610  0.209740  0.378897  1
  Dy  Dy6  1  0.411759  0.790689  0.377564  1
  Dy  Dy7  1  0.411759  0.209311  0.877564  1
  Dy  Dy8  1  0.209358  0.412082  0.622312  1
  Dy  Dy9  1  0.209358  0.587918  0.122312  1
  Dy  Dy10  1  0.790121  0.414888  0.121995  1
  Dy  Dy11  1  0.790121  0.585112  0.621995  1
  Dy  Dy12  1  0.913478  0.707550  0.126179  1
  Dy  Dy13  1  0.913478  0.292450  0.626179  1
  Dy  Dy14  1  0.090608  0.707832  0.622404  1
  Dy  Dy15  1  0.090608  0.292168  0.122404  1
  Tm  Tm16  1  0.003175  0.999906  0.500034  1
  Tm  Tm17  1  0.003175  0.000094  0.000034  1
  Tm  Tm18  1  0.499810  0.499862  0.999939  1
  Tm  Tm19  1  0.499810  0.500138  0.499939  1
  Ir  Ir20  1  0.151217  0.152081  0.750108  1
  Ir  Ir21  1  0.151217  0.847919  0.250108  1
  Ir  Ir22  1  0.653360  0.347169  0.749737  1
  Ir  Ir23  1  0.653360  0.652831  0.249737  1
  Ir  Ir24  1  0.347816  0.347684  0.250130  1
  Ir  Ir25  1  0.347816  0.652316  0.750130  1
  Ir  Ir26  1  0.501012  0.999867  0.123295  1
  Ir  Ir27  1  0.501012  0.000133  0.623295  1
  Ir  Ir28  1  0.999446  0.500109  0.876890  1
  Ir  Ir29  1  0.999446  0.499891  0.376890  1
  Pt  Pt30  1  0.847321  0.151692  0.249735  1
  Pt  Pt31  1  0.847321  0.848308  0.749735  1
