# generated using pymatgen
data_CaAl6Cu7
_symmetry_space_group_name_H-M   'P 1'
_cell_length_a   8.40222924
_cell_length_b   8.40222903
_cell_length_c   8.40222845
_cell_angle_alpha   122.03447540
_cell_angle_beta   118.63260824
_cell_angle_gamma   89.44874968
_symmetry_Int_Tables_number   1
_chemical_formula_structural   CaAl6Cu7
_chemical_formula_sum   'Ca2 Al12 Cu14'
_cell_volume   416.83788732
_cell_formula_units_Z   2
loop_
 _symmetry_equiv_pos_site_id
 _symmetry_equiv_pos_as_xyz
  1  'x, y, z'
loop_
 _atom_site_type_symbol
 _atom_site_label
 _atom_site_symmetry_multiplicity
 _atom_site_fract_x
 _atom_site_fract_y
 _atom_site_fract_z
 _atom_site_occupancy
  Ca  Ca0  1  0.250000  0.750000  0.500000  1
  Ca  Ca1  1  0.750000  0.250000  0.500000  1
  Al  Al2  1  0.555590  0.547186  0.359662  1
  Al  Al3  1  0.444410  0.452814  0.640338  1
  Al  Al4  1  0.187525  0.195928  0.640338  1
  Al  Al5  1  0.312475  0.952814  0.008403  1
  Al  Al6  1  0.812475  0.804072  0.359662  1
  Al  Al7  1  0.687525  0.047186  0.991597  1
  Al  Al8  1  0.944410  0.304072  0.991597  1
  Al  Al9  1  0.055590  0.695928  0.008403  1
  Al  Al10  1  0.053481  0.308945  0.362426  1
  Al  Al11  1  0.946519  0.691055  0.637574  1
  Al  Al12  1  0.553481  0.191055  0.744535  1
  Al  Al13  1  0.446519  0.808945  0.255465  1
  Cu  Cu14  1  0.284184  0.297207  0.229919  1
  Cu  Cu15  1  0.715816  0.702793  0.770081  1
  Cu  Cu16  1  0.067288  0.054265  0.770081  1
  Cu  Cu17  1  0.432712  0.202793  0.986976  1
  Cu  Cu18  1  0.932712  0.945735  0.229919  1
  Cu  Cu19  1  0.567288  0.797207  0.013024  1
  Cu  Cu20  1  0.215816  0.445735  0.013024  1
  Cu  Cu21  1  0.784184  0.554265  0.986976  1
  Cu  Cu22  1  0.000000  0.000000  0.000000  1
  Cu  Cu23  1  0.500000  0.500000  0.000000  1
  Cu  Cu24  1  0.286396  0.065817  0.352214  1
  Cu  Cu25  1  0.713604  0.934183  0.647786  1
  Cu  Cu26  1  0.786396  0.434183  0.220580  1
  Cu  Cu27  1  0.213604  0.565817  0.779420  1
