# generated using pymatgen
data_HfMn2I9
_symmetry_space_group_name_H-M   'P 1'
_cell_length_a   7.27937267
_cell_length_b   7.25307828
_cell_length_c   22.20421085
_cell_angle_alpha   89.58369734
_cell_angle_beta   90.20740308
_cell_angle_gamma   119.88058829
_symmetry_Int_Tables_number   1
_chemical_formula_structural   HfMn2I9
_chemical_formula_sum   'Hf2 Mn4 I18'
_cell_volume   1016.46433943
_cell_formula_units_Z   2
loop_
 _symmetry_equiv_pos_site_id
 _symmetry_equiv_pos_as_xyz
  1  'x, y, z'
loop_
 _atom_site_type_symbol
 _atom_site_label
 _atom_site_symmetry_multiplicity
 _atom_site_fract_x
 _atom_site_fract_y
 _atom_site_fract_z
 _atom_site_occupancy
  Hf  Hf0  1  0.556555  0.444656  0.333106  1
  Hf  Hf1  1  0.556555  0.111901  0.666894  1
  Mn  Mn2  1  0.554744  0.777372  0.000000  1
  Mn  Mn3  1  0.222847  0.777863  0.332564  1
  Mn  Mn4  1  0.222847  0.444984  0.667436  1
  Mn  Mn5  1  0.889924  0.444962  0.000000  1
  I  I6  1  0.221901  0.484701  0.927128  1
  I  I7  1  0.535947  0.753280  0.257997  1
  I  I8  1  0.221901  0.737201  0.072872  1
  I  I9  1  0.246942  0.784194  0.592167  1
  I  I10  1  0.535947  0.782667  0.742003  1
  I  I11  1  0.246942  0.462748  0.407833  1
  I  I12  1  0.592828  0.105838  0.928444  1
  I  I13  1  0.885193  0.465215  0.258411  1
  I  I14  1  0.592828  0.486991  0.071556  1
  I  I15  1  0.533436  0.419857  0.591649  1
  I  I16  1  0.885193  0.419978  0.741589  1
  I  I17  1  0.533436  0.113578  0.408351  1
  I  I18  1  0.849138  0.113369  0.072408  1
  I  I19  1  0.883575  0.750208  0.408660  1
  I  I20  1  0.849138  0.735768  0.927592  1
  I  I21  1  0.249302  0.132338  0.742287  1
  I  I22  1  0.883575  0.133367  0.591340  1
  I  I23  1  0.249302  0.116963  0.257713  1
