# generated using pymatgen
data_Tb3Ho7(GaSb)4
_symmetry_space_group_name_H-M   'P 1'
_cell_length_a   8.69180722
_cell_length_b   8.68424662
_cell_length_c   7.93863300
_cell_angle_alpha   89.98167168
_cell_angle_beta   89.98724462
_cell_angle_gamma   125.63566845
_symmetry_Int_Tables_number   1
_chemical_formula_structural   Tb3Ho7(GaSb)4
_chemical_formula_sum   'Tb3 Ho7 Ga4 Sb4'
_cell_volume   487.01076500
_cell_formula_units_Z   1
loop_
 _symmetry_equiv_pos_site_id
 _symmetry_equiv_pos_as_xyz
  1  'x, y, z'
loop_
 _atom_site_type_symbol
 _atom_site_label
 _atom_site_symmetry_multiplicity
 _atom_site_fract_x
 _atom_site_fract_y
 _atom_site_fract_z
 _atom_site_occupancy
  Tb  Tb0  1  0.040125  0.302967  0.330968  1
  Tb  Tb1  1  0.960129  0.697367  0.668941  1
  Tb  Tb2  1  0.459996  0.197500  0.830972  1
  Ho  Ho3  1  0.800223  0.539029  0.167895  1
  Ho  Ho4  1  0.539614  0.801356  0.168205  1
  Ho  Ho5  1  0.199807  0.461083  0.832331  1
  Ho  Ho6  1  0.699645  0.960994  0.667894  1
  Ho  Ho7  1  0.300370  0.039153  0.332218  1
  Ho  Ho8  1  0.999614  0.999738  0.000237  1
  Ho  Ho9  1  0.500199  0.500402  0.499699  1
  Ga  Ga10  1  0.376045  0.376141  0.123480  1
  Ga  Ga11  1  0.624188  0.624709  0.876934  1
  Ga  Ga12  1  0.123946  0.124533  0.623400  1
  Ga  Ga13  1  0.875374  0.875449  0.376172  1
  Sb  Sb14  1  0.795159  0.205293  0.998702  1
  Sb  Sb15  1  0.204634  0.793503  0.002582  1
  Sb  Sb16  1  0.703973  0.293827  0.498120  1
  Sb  Sb17  1  0.296957  0.706955  0.501250  1
