# generated using pymatgen
data_CeHo4Ru6W
_symmetry_space_group_name_H-M   'P 1'
_cell_length_a   5.70116710
_cell_length_b   5.21422879
_cell_length_c   9.24578100
_cell_angle_alpha   90.00000000
_cell_angle_beta   90.00000000
_cell_angle_gamma   123.11313697
_symmetry_Int_Tables_number   1
_chemical_formula_structural   CeHo4Ru6W
_chemical_formula_sum   'Ce1 Ho4 Ru6 W1'
_cell_volume   230.21347730
_cell_formula_units_Z   1
loop_
 _symmetry_equiv_pos_site_id
 _symmetry_equiv_pos_as_xyz
  1  'x, y, z'
loop_
 _atom_site_type_symbol
 _atom_site_label
 _atom_site_symmetry_multiplicity
 _atom_site_fract_x
 _atom_site_fract_y
 _atom_site_fract_z
 _atom_site_occupancy
  Ce  Ce0  1  0.836019  0.672513  0.250000  1
  Ho  Ho1  1  0.668062  0.336348  0.574416  1
  Ho  Ho2  1  0.332651  0.665081  0.441357  1
  Ho  Ho3  1  0.332651  0.665081  0.058643  1
  Ho  Ho4  1  0.668062  0.336348  0.925584  1
  Ru  Ru5  1  0.009584  0.019019  0.507026  1
  Ru  Ru6  1  0.009584  0.019019  0.992974  1
  Ru  Ru7  1  0.167886  0.807441  0.750000  1
  Ru  Ru8  1  0.638983  0.807548  0.750000  1
  Ru  Ru9  1  0.838248  0.186935  0.250000  1
  Ru  Ru10  1  0.349046  0.187230  0.250000  1
  W  W11  1  0.149223  0.297436  0.750000  1
