# generated using pymatgen
data_Ac3In3SnIr2
_symmetry_space_group_name_H-M   'P 1'
_cell_length_a   7.91558700
_cell_length_b   7.91558711
_cell_length_c   4.50270400
_cell_angle_alpha   90.00000000
_cell_angle_beta   90.00000000
_cell_angle_gamma   119.99998588
_symmetry_Int_Tables_number   1
_chemical_formula_structural   Ac3In3SnIr2
_chemical_formula_sum   'Ac3 In3 Sn1 Ir2'
_cell_volume   244.32637465
_cell_formula_units_Z   1
loop_
 _symmetry_equiv_pos_site_id
 _symmetry_equiv_pos_as_xyz
  1  'x, y, z'
loop_
 _atom_site_type_symbol
 _atom_site_label
 _atom_site_symmetry_multiplicity
 _atom_site_fract_x
 _atom_site_fract_y
 _atom_site_fract_z
 _atom_site_occupancy
  Ac  Ac0  1  0.022534  0.606651  0.500000  1
  Ac  Ac1  1  0.584117  0.977466  0.500000  1
  Ac  Ac2  1  0.393349  0.415883  0.500000  1
  In  In3  1  0.011407  0.242630  0.000000  1
  In  In4  1  0.231222  0.988593  0.000000  1
  In  In5  1  0.757370  0.768778  0.000000  1
  Sn  Sn6  1  0.666667  0.333333  0.000000  1
  Ir  Ir7  1  0.000000  0.000000  0.500000  1
  Ir  Ir8  1  0.333333  0.666667  0.000000  1
