# generated using pymatgen
data_In3Ag(Pt2O7)2
_symmetry_space_group_name_H-M   'P 1'
_cell_length_a   7.12243963
_cell_length_b   7.12243963
_cell_length_c   7.12243954
_cell_angle_alpha   61.01543259
_cell_angle_beta   61.01543731
_cell_angle_gamma   61.01543505
_symmetry_Int_Tables_number   1
_chemical_formula_structural   In3Ag(Pt2O7)2
_chemical_formula_sum   'In3 Ag1 Pt4 O14'
_cell_volume   261.33154401
_cell_formula_units_Z   1
loop_
 _symmetry_equiv_pos_site_id
 _symmetry_equiv_pos_as_xyz
  1  'x, y, z'
loop_
 _atom_site_type_symbol
 _atom_site_label
 _atom_site_symmetry_multiplicity
 _atom_site_fract_x
 _atom_site_fract_y
 _atom_site_fract_z
 _atom_site_occupancy
  In  In0  1  0.625000  0.125000  0.125000  1
  In  In1  1  0.125000  0.625000  0.125000  1
  In  In2  1  0.125000  0.125000  0.625000  1
  Ag  Ag3  1  0.125000  0.125000  0.125000  1
  Pt  Pt4  1  0.625000  0.625000  0.125000  1
  Pt  Pt5  1  0.625000  0.125000  0.625000  1
  Pt  Pt6  1  0.125000  0.625000  0.625000  1
  Pt  Pt7  1  0.625000  0.625000  0.625000  1
  O  O8  1  0.246528  0.246528  0.246528  1
  O  O9  1  0.700514  0.289393  0.289393  1
  O  O10  1  0.718409  0.284040  0.718409  1
  O  O11  1  0.289393  0.700514  0.289393  1
  O  O12  1  0.718409  0.718409  0.284040  1
  O  O13  1  0.289393  0.289393  0.700514  1
  O  O14  1  0.965960  0.531591  0.531591  1
  O  O15  1  0.284040  0.718409  0.718409  1
  O  O16  1  0.960607  0.960607  0.549486  1
  O  O17  1  0.531591  0.965960  0.531591  1
  O  O18  1  0.531591  0.531591  0.965960  1
  O  O19  1  0.960607  0.549486  0.960607  1
  O  O20  1  0.549486  0.960607  0.960607  1
  O  O21  1  0.003472  0.003472  0.003472  1
