# generated using pymatgen
data_Ba4PrTh3F24
_symmetry_space_group_name_H-M   'P 1'
_cell_length_a   7.71582596
_cell_length_b   8.88894819
_cell_length_c   9.06909400
_cell_angle_alpha   102.47606463
_cell_angle_beta   95.09979182
_cell_angle_gamma   114.80553182
_symmetry_Int_Tables_number   1
_chemical_formula_structural   Ba4PrTh3F24
_chemical_formula_sum   'Ba4 Pr1 Th3 F24'
_cell_volume   539.86018561
_cell_formula_units_Z   1
loop_
 _symmetry_equiv_pos_site_id
 _symmetry_equiv_pos_as_xyz
  1  'x, y, z'
loop_
 _atom_site_type_symbol
 _atom_site_label
 _atom_site_symmetry_multiplicity
 _atom_site_fract_x
 _atom_site_fract_y
 _atom_site_fract_z
 _atom_site_occupancy
  Ba  Ba0  1  0.270891  0.770101  0.537045  1
  Ba  Ba1  1  0.290750  0.299729  0.766221  1
  Ba  Ba2  1  0.705545  0.251653  0.461873  1
  Ba  Ba3  1  0.707689  0.687107  0.235465  1
  Pr  Pr4  1  0.841135  0.738601  0.740130  1
  Th  Th5  1  0.758108  0.211451  0.929254  1
  Th  Th6  1  0.180705  0.268329  0.280811  1
  Th  Th7  1  0.245280  0.779391  0.075565  1
  F  F8  1  0.094116  0.960272  0.682835  1
  F  F9  1  0.426128  0.636057  0.994890  1
  F  F10  1  0.915599  0.041908  0.315575  1
  F  F11  1  0.240685  0.044516  0.153369  1
  F  F12  1  0.755247  0.947641  0.861629  1
  F  F13  1  0.082316  0.756727  0.277337  1
  F  F14  1  0.880211  0.603593  0.501180  1
  F  F15  1  0.147361  0.719765  0.806599  1
  F  F16  1  0.495210  0.618919  0.622502  1
  F  F17  1  0.321100  0.198050  0.477220  1
  F  F18  1  0.094002  0.230578  0.012098  1
  F  F19  1  0.294669  0.555719  0.272432  1
  F  F20  1  0.679141  0.445083  0.724976  1
  F  F21  1  0.586096  0.362308  0.997731  1
  F  F22  1  0.864789  0.279625  0.199370  1
  F  F23  1  0.515553  0.094093  0.708855  1
  F  F24  1  0.497520  0.000784  0.004460  1
  F  F25  1  0.918266  0.759420  0.002831  1
  F  F26  1  0.911069  0.237341  0.722094  1
  F  F27  1  0.486310  0.907147  0.298728  1
  F  F28  1  0.513532  0.387274  0.300229  1
  F  F29  1  0.006380  0.494106  0.997263  1
  F  F30  1  0.113235  0.402237  0.501898  1
  F  F31  1  0.661362  0.810472  0.537535  1
