# generated using pymatgen
data_LaHo5(MoO7)2
_symmetry_space_group_name_H-M   'P 1'
_cell_length_a   6.45108003
_cell_length_b   6.45108008
_cell_length_c   7.54465500
_cell_angle_alpha   90.07777852
_cell_angle_beta   89.92220738
_cell_angle_gamma   108.99508609
_symmetry_Int_Tables_number   1
_chemical_formula_structural   LaHo5(MoO7)2
_chemical_formula_sum   'La1 Ho5 Mo2 O14'
_cell_volume   296.88382231
_cell_formula_units_Z   1
loop_
 _symmetry_equiv_pos_site_id
 _symmetry_equiv_pos_as_xyz
  1  'x, y, z'
loop_
 _atom_site_type_symbol
 _atom_site_label
 _atom_site_symmetry_multiplicity
 _atom_site_fract_x
 _atom_site_fract_y
 _atom_site_fract_z
 _atom_site_occupancy
  La  La0  1  0.500000  0.500000  0.000000  1
  Ho  Ho1  1  0.500000  0.500000  0.500000  1
  Ho  Ho2  1  0.534893  0.001152  0.745859  1
  Ho  Ho3  1  0.001152  0.534893  0.254141  1
  Ho  Ho4  1  0.465107  0.998848  0.254141  1
  Ho  Ho5  1  0.998848  0.465107  0.745859  1
  Mo  Mo6  1  0.000000  0.000000  0.500000  1
  Mo  Mo7  1  0.000000  0.000000  0.000000  1
  O  O8  1  0.678504  0.926131  0.470035  1
  O  O9  1  0.926131  0.678504  0.529965  1
  O  O10  1  0.678284  0.930653  0.030826  1
  O  O11  1  0.930653  0.678284  0.969174  1
  O  O12  1  0.321496  0.073869  0.529965  1
  O  O13  1  0.073869  0.321496  0.470035  1
  O  O14  1  0.321716  0.069347  0.969174  1
  O  O15  1  0.069347  0.321716  0.030826  1
  O  O16  1  0.927173  0.072827  0.750021  1
  O  O17  1  0.072827  0.927173  0.249979  1
  O  O18  1  0.365023  0.634977  0.737289  1
  O  O19  1  0.634977  0.365023  0.262711  1
  O  O20  1  0.639759  0.360241  0.738697  1
  O  O21  1  0.360241  0.639759  0.261303  1
