# generated using pymatgen
data_Y3Cr7O24
_symmetry_space_group_name_H-M   'P 1'
_cell_length_a   9.12447171
_cell_length_b   9.12447080
_cell_length_c   9.77375400
_cell_angle_alpha   117.82576214
_cell_angle_beta   62.17422665
_cell_angle_gamma   120.00000754
_symmetry_Int_Tables_number   1
_chemical_formula_structural   Y3Cr7O24
_chemical_formula_sum   'Y3 Cr7 O24'
_cell_volume   593.57888608
_cell_formula_units_Z   1
loop_
 _symmetry_equiv_pos_site_id
 _symmetry_equiv_pos_as_xyz
  1  'x, y, z'
loop_
 _atom_site_type_symbol
 _atom_site_label
 _atom_site_symmetry_multiplicity
 _atom_site_fract_x
 _atom_site_fract_y
 _atom_site_fract_z
 _atom_site_occupancy
  Y  Y0  1  0.642810  0.357191  0.071571  1
  Y  Y1  1  0.857613  0.142388  0.427163  1
  Y  Y2  1  0.136958  0.863043  0.589127  1
  Cr  Cr3  1  0.240493  0.016967  0.240320  1
  Cr  Cr4  1  0.983032  0.463845  0.240320  1
  Cr  Cr5  1  0.536155  0.759506  0.240320  1
  Cr  Cr6  1  0.467384  0.279243  0.756031  1
  Cr  Cr7  1  0.055827  0.532616  0.756031  1
  Cr  Cr8  1  0.720757  0.944173  0.756031  1
  Cr  Cr9  1  0.348643  0.651358  0.954072  1
  O  O10  1  0.177031  0.493206  0.092596  1
  O  O11  1  0.506793  0.776421  0.092596  1
  O  O12  1  0.223579  0.822968  0.092596  1
  O  O13  1  0.449327  0.159374  0.209367  1
  O  O14  1  0.840626  0.499319  0.209367  1
  O  O15  1  0.500681  0.550673  0.209367  1
  O  O16  1  0.114535  0.102482  0.245841  1
  O  O17  1  0.897517  0.257893  0.245841  1
  O  O18  1  0.742107  0.885465  0.245841  1
  O  O19  1  0.168236  0.985213  0.418031  1
  O  O20  1  0.014788  0.601054  0.418031  1
  O  O21  1  0.398946  0.831764  0.418031  1
  O  O22  1  0.628815  0.239942  0.584249  1
  O  O23  1  0.026878  0.371185  0.584249  1
  O  O24  1  0.760057  0.973121  0.584249  1
  O  O25  1  0.270739  0.139825  0.729212  1
  O  O26  1  0.139873  0.729261  0.729212  1
  O  O27  1  0.860177  0.860127  0.729212  1
  O  O28  1  0.483022  0.487641  0.812018  1
  O  O29  1  0.192601  0.516978  0.812018  1
  O  O30  1  0.512358  0.807397  0.812018  1
  O  O31  1  0.755035  0.139682  0.898359  1
  O  O32  1  0.486287  0.244965  0.898359  1
  O  O33  1  0.860318  0.513714  0.898359  1
