# generated using pymatgen
data_Er2Cr2Fe7CoP6
_symmetry_space_group_name_H-M   'P 1'
_cell_length_a   3.64813100
_cell_length_b   10.33567500
_cell_length_c   11.85449900
_cell_angle_alpha   90.00000000
_cell_angle_beta   90.00000000
_cell_angle_gamma   90.00000000
_symmetry_Int_Tables_number   1
_chemical_formula_structural   Er2Cr2Fe7CoP6
_chemical_formula_sum   'Er4 Cr4 Fe14 Co2 P12'
_cell_volume   446.98451085
_cell_formula_units_Z   2
loop_
 _symmetry_equiv_pos_site_id
 _symmetry_equiv_pos_as_xyz
  1  'x, y, z'
loop_
 _atom_site_type_symbol
 _atom_site_label
 _atom_site_symmetry_multiplicity
 _atom_site_fract_x
 _atom_site_fract_y
 _atom_site_fract_z
 _atom_site_occupancy
  Er  Er0  1  0.250000  0.580067  0.704703  1
  Er  Er1  1  0.250000  0.919933  0.204703  1
  Er  Er2  1  0.750000  0.419215  0.295038  1
  Er  Er3  1  0.750000  0.080785  0.795038  1
  Cr  Cr4  1  0.250000  0.702510  0.988783  1
  Cr  Cr5  1  0.250000  0.797490  0.488783  1
  Cr  Cr6  1  0.750000  0.297269  0.012054  1
  Cr  Cr7  1  0.750000  0.202731  0.512054  1
  Fe  Fe8  1  0.750000  0.593504  0.510849  1
  Fe  Fe9  1  0.750000  0.906496  0.010849  1
  Fe  Fe10  1  0.250000  0.219029  0.174491  1
  Fe  Fe11  1  0.250000  0.280971  0.674491  1
  Fe  Fe12  1  0.750000  0.781325  0.824912  1
  Fe  Fe13  1  0.750000  0.718675  0.324912  1
  Fe  Fe14  1  0.250000  0.874892  0.701961  1
  Fe  Fe15  1  0.250000  0.625108  0.201961  1
  Fe  Fe16  1  0.750000  0.125063  0.298966  1
  Fe  Fe17  1  0.750000  0.374937  0.798966  1
  Fe  Fe18  1  0.250000  0.462934  0.933070  1
  Fe  Fe19  1  0.250000  0.037066  0.433070  1
  Fe  Fe20  1  0.750000  0.536902  0.067609  1
  Fe  Fe21  1  0.750000  0.963098  0.567609  1
  Co  Co22  1  0.250000  0.403977  0.487814  1
  Co  Co23  1  0.250000  0.096024  0.987814  1
  P  P24  1  0.250000  0.423332  0.113398  1
  P  P25  1  0.250000  0.076668  0.613398  1
  P  P26  1  0.750000  0.576385  0.886611  1
  P  P27  1  0.750000  0.923615  0.386611  1
  P  P28  1  0.250000  0.266593  0.867538  1
  P  P29  1  0.250000  0.233407  0.367538  1
  P  P30  1  0.750000  0.735591  0.130178  1
  P  P31  1  0.750000  0.764409  0.630178  1
  P  P32  1  0.250000  0.597744  0.394389  1
  P  P33  1  0.250000  0.902256  0.894389  1
  P  P34  1  0.750000  0.402127  0.607637  1
  P  P35  1  0.750000  0.097873  0.107637  1
