# generated using pymatgen
data_Tb19DyIr11Au
_symmetry_space_group_name_H-M   'P 1'
_cell_length_a   11.00380206
_cell_length_b   11.00374752
_cell_length_c   6.37563971
_cell_angle_alpha   90.00618782
_cell_angle_beta   90.00512338
_cell_angle_gamma   89.46978833
_symmetry_Int_Tables_number   1
_chemical_formula_structural   Tb19DyIr11Au
_chemical_formula_sum   'Tb19 Dy1 Ir11 Au1'
_cell_volume   771.94890162
_cell_formula_units_Z   1
loop_
 _symmetry_equiv_pos_site_id
 _symmetry_equiv_pos_as_xyz
  1  'x, y, z'
loop_
 _atom_site_type_symbol
 _atom_site_label
 _atom_site_symmetry_multiplicity
 _atom_site_fract_x
 _atom_site_fract_y
 _atom_site_fract_z
 _atom_site_occupancy
  Tb  Tb0  1  0.289887  0.088181  0.377353  1
  Tb  Tb1  1  0.293047  0.910568  0.877043  1
  Tb  Tb2  1  0.703969  0.084501  0.865820  1
  Tb  Tb3  1  0.704982  0.903867  0.381161  1
  Tb  Tb4  1  0.588217  0.790866  0.879974  1
  Tb  Tb5  1  0.579196  0.210133  0.378745  1
  Tb  Tb6  1  0.410339  0.790896  0.378701  1
  Tb  Tb7  1  0.409266  0.207879  0.878721  1
  Tb  Tb8  1  0.209199  0.411786  0.619979  1
  Tb  Tb9  1  0.209030  0.589674  0.121351  1
  Tb  Tb10  1  0.789943  0.420798  0.121313  1
  Tb  Tb11  1  0.792061  0.590718  0.621234  1
  Tb  Tb12  1  0.911844  0.710108  0.122622  1
  Tb  Tb13  1  0.915479  0.296027  0.634215  1
  Tb  Tb14  1  0.089459  0.706950  0.623003  1
  Tb  Tb15  1  0.096103  0.295024  0.118794  1
  Tb  Tb16  1  0.003162  0.995545  0.501108  1
  Tb  Tb17  1  0.004452  0.996836  0.998882  1
  Tb  Tb18  1  0.498835  0.499049  0.998671  1
  Dy  Dy19  1  0.500932  0.501183  0.501321  1
  Ir  Ir20  1  0.846727  0.848215  0.749506  1
  Ir  Ir21  1  0.151793  0.153261  0.750508  1
  Ir  Ir22  1  0.155653  0.844336  0.249996  1
  Ir  Ir23  1  0.655149  0.344840  0.749787  1
  Ir  Ir24  1  0.653591  0.651903  0.248562  1
  Ir  Ir25  1  0.348085  0.346412  0.251869  1
  Ir  Ir26  1  0.346517  0.653504  0.749775  1
  Ir  Ir27  1  0.500449  0.999929  0.125958  1
  Ir  Ir28  1  0.499337  0.000247  0.621745  1
  Ir  Ir29  1  0.999755  0.500663  0.878253  1
  Ir  Ir30  1  0.000075  0.499551  0.374034  1
  Au  Au31  1  0.843467  0.156546  0.249998  1
