# generated using pymatgen
data_TbY(B4Ru)2
_symmetry_space_group_name_H-M   'P 1'
_cell_length_a   3.56857500
_cell_length_b   5.97177258
_cell_length_c   11.56024503
_cell_angle_alpha   89.97090633
_cell_angle_beta   90.00000000
_cell_angle_gamma   90.00000000
_symmetry_Int_Tables_number   1
_chemical_formula_structural   TbY(B4Ru)2
_chemical_formula_sum   'Tb2 Y2 B16 Ru4'
_cell_volume   246.35709387
_cell_formula_units_Z   2
loop_
 _symmetry_equiv_pos_site_id
 _symmetry_equiv_pos_as_xyz
  1  'x, y, z'
loop_
 _atom_site_type_symbol
 _atom_site_label
 _atom_site_symmetry_multiplicity
 _atom_site_fract_x
 _atom_site_fract_y
 _atom_site_fract_z
 _atom_site_occupancy
  Tb  Tb0  1  0.500000  0.628655  0.349742  1
  Tb  Tb1  1  0.500000  0.371345  0.650258  1
  Y  Y2  1  0.500000  0.128375  0.149697  1
  Y  Y3  1  0.500000  0.871625  0.850303  1
  B  B4  1  0.000000  0.475736  0.191262  1
  B  B5  1  0.000000  0.524264  0.808738  1
  B  B6  1  0.000000  0.975891  0.308168  1
  B  B7  1  0.000000  0.024109  0.691832  1
  B  B8  1  0.000000  0.287831  0.314172  1
  B  B9  1  0.000000  0.712169  0.685828  1
  B  B10  1  0.000000  0.788184  0.185188  1
  B  B11  1  0.000000  0.211816  0.814812  1
  B  B12  1  0.000000  0.363437  0.469800  1
  B  B13  1  0.000000  0.636563  0.530200  1
  B  B14  1  0.000000  0.863724  0.030069  1
  B  B15  1  0.000000  0.136276  0.969931  1
  B  B16  1  0.000000  0.387942  0.046467  1
  B  B17  1  0.000000  0.612058  0.953533  1
  B  B18  1  0.000000  0.888351  0.453351  1
  B  B19  1  0.000000  0.111649  0.546649  1
  Ru  Ru20  1  0.500000  0.140110  0.407382  1
  Ru  Ru21  1  0.500000  0.859890  0.592618  1
  Ru  Ru22  1  0.500000  0.640049  0.092214  1
  Ru  Ru23  1  0.500000  0.359951  0.907786  1
