# generated using pymatgen
data_Tb16Lu3ScPb16
_symmetry_space_group_name_H-M   'P 1'
_cell_length_a   8.17659424
_cell_length_b   8.26754943
_cell_length_c   15.67414900
_cell_angle_alpha   90.00000000
_cell_angle_beta   90.00000000
_cell_angle_gamma   89.74882880
_symmetry_Int_Tables_number   1
_chemical_formula_structural   Tb16Lu3ScPb16
_chemical_formula_sum   'Tb16 Lu3 Sc1 Pb16'
_cell_volume   1059.56851521
_cell_formula_units_Z   1
loop_
 _symmetry_equiv_pos_site_id
 _symmetry_equiv_pos_as_xyz
  1  'x, y, z'
loop_
 _atom_site_type_symbol
 _atom_site_label
 _atom_site_symmetry_multiplicity
 _atom_site_fract_x
 _atom_site_fract_y
 _atom_site_fract_z
 _atom_site_occupancy
  Tb  Tb0  1  0.375503  0.842789  0.879479  1
  Tb  Tb1  1  0.875440  0.657328  0.620778  1
  Tb  Tb2  1  0.624187  0.156836  0.378291  1
  Tb  Tb3  1  0.124451  0.342548  0.121503  1
  Tb  Tb4  1  0.624187  0.156836  0.121709  1
  Tb  Tb5  1  0.124451  0.342548  0.378497  1
  Tb  Tb6  1  0.375503  0.842789  0.620521  1
  Tb  Tb7  1  0.875440  0.657328  0.879222  1
  Tb  Tb8  1  0.533840  0.323514  0.901365  1
  Tb  Tb9  1  0.033682  0.176850  0.598146  1
  Tb  Tb10  1  0.465493  0.677077  0.400713  1
  Tb  Tb11  1  0.966246  0.823494  0.099131  1
  Tb  Tb12  1  0.465493  0.677077  0.099287  1
  Tb  Tb13  1  0.966246  0.823494  0.400869  1
  Tb  Tb14  1  0.533840  0.323514  0.598635  1
  Tb  Tb15  1  0.033682  0.176850  0.901854  1
  Lu  Lu16  1  0.208107  0.504889  0.750000  1
  Lu  Lu17  1  0.707975  0.995217  0.750000  1
  Lu  Lu18  1  0.792184  0.495326  0.250000  1
  Sc  Sc19  1  0.292135  0.005007  0.250000  1
  Pb  Pb20  1  0.282410  0.032580  0.046313  1
  Pb  Pb21  1  0.782197  0.466347  0.455520  1
  Pb  Pb22  1  0.716922  0.966418  0.543985  1
  Pb  Pb23  1  0.217665  0.533692  0.956216  1
  Pb  Pb24  1  0.716922  0.966418  0.956015  1
  Pb  Pb25  1  0.217665  0.533692  0.543784  1
  Pb  Pb26  1  0.282410  0.032580  0.453687  1
  Pb  Pb27  1  0.782197  0.466347  0.044480  1
  Pb  Pb28  1  0.570465  0.624909  0.750000  1
  Pb  Pb29  1  0.070837  0.874998  0.750000  1
  Pb  Pb30  1  0.427671  0.372753  0.250000  1
  Pb  Pb31  1  0.933608  0.121519  0.250000  1
  Pb  Pb32  1  0.347014  0.155934  0.750000  1
  Pb  Pb33  1  0.847296  0.344268  0.750000  1
  Pb  Pb34  1  0.649957  0.845437  0.250000  1
  Pb  Pb35  1  0.156684  0.660796  0.250000  1
