# generated using pymatgen
data_Ti8In4Cu7Rh
_symmetry_space_group_name_H-M   'P 1'
_cell_length_a   6.99972797
_cell_length_b   6.99972824
_cell_length_c   6.49254088
_cell_angle_alpha   89.99034427
_cell_angle_beta   89.99034634
_cell_angle_gamma   90.30623152
_symmetry_Int_Tables_number   1
_chemical_formula_structural   Ti8In4Cu7Rh
_chemical_formula_sum   'Ti8 In4 Cu7 Rh1'
_cell_volume   318.10523701
_cell_formula_units_Z   1
loop_
 _symmetry_equiv_pos_site_id
 _symmetry_equiv_pos_as_xyz
  1  'x, y, z'
loop_
 _atom_site_type_symbol
 _atom_site_label
 _atom_site_symmetry_multiplicity
 _atom_site_fract_x
 _atom_site_fract_y
 _atom_site_fract_z
 _atom_site_occupancy
  Ti  Ti0  1  0.147992  0.147992  0.003646  1
  Ti  Ti1  1  0.856866  0.856866  0.995826  1
  Ti  Ti2  1  0.645026  0.352857  0.493668  1
  Ti  Ti3  1  0.352857  0.645026  0.493668  1
  Ti  Ti4  1  0.688201  0.305816  0.003845  1
  Ti  Ti5  1  0.305816  0.688201  0.003845  1
  Ti  Ti6  1  0.807136  0.807136  0.502073  1
  Ti  Ti7  1  0.195415  0.195415  0.496436  1
  In  In8  1  0.502932  0.994655  0.249427  1
  In  In9  1  0.499970  0.997344  0.749915  1
  In  In10  1  0.994655  0.502932  0.249427  1
  In  In11  1  0.997344  0.499970  0.749915  1
  Cu  Cu12  1  0.623071  0.623071  0.795749  1
  Cu  Cu13  1  0.632543  0.632543  0.197811  1
  Cu  Cu14  1  0.875505  0.126145  0.702403  1
  Cu  Cu15  1  0.875845  0.124514  0.299019  1
  Cu  Cu16  1  0.374273  0.374273  0.795035  1
  Cu  Cu17  1  0.124514  0.875845  0.299019  1
  Cu  Cu18  1  0.126145  0.875505  0.702403  1
  Rh  Rh19  1  0.373895  0.373895  0.216873  1
