# generated using pymatgen
data_Tb3Lu3Si24Os5Ru3
_symmetry_space_group_name_H-M   'P 1'
_cell_length_a   10.11316287
_cell_length_b   10.11265248
_cell_length_c   8.12864418
_cell_angle_alpha   89.88392931
_cell_angle_beta   90.07942569
_cell_angle_gamma   132.56061695
_symmetry_Int_Tables_number   1
_chemical_formula_structural   Tb3Lu3Si24Os5Ru3
_chemical_formula_sum   'Tb3 Lu3 Si24 Os5 Ru3'
_cell_volume   612.32038539
_cell_formula_units_Z   1
loop_
 _symmetry_equiv_pos_site_id
 _symmetry_equiv_pos_as_xyz
  1  'x, y, z'
loop_
 _atom_site_type_symbol
 _atom_site_label
 _atom_site_symmetry_multiplicity
 _atom_site_fract_x
 _atom_site_fract_y
 _atom_site_fract_z
 _atom_site_occupancy
  Tb  Tb0  1  0.998307  0.498721  0.249915  1
  Tb  Tb1  1  0.499236  0.998775  0.249873  1
  Tb  Tb2  1  0.000786  0.500687  0.750098  1
  Lu  Lu3  1  0.499120  0.498943  0.500225  1
  Lu  Lu4  1  0.000119  0.000217  0.998826  1
  Lu  Lu5  1  0.501154  0.001430  0.750207  1
  Si  Si6  1  0.795460  0.204183  0.501088  1
  Si  Si7  1  0.295722  0.704388  0.998805  1
  Si  Si8  1  0.204311  0.795678  0.501539  1
  Si  Si9  1  0.704321  0.295512  0.999304  1
  Si  Si10  1  0.331611  0.333873  0.833763  1
  Si  Si11  1  0.667979  0.668512  0.167211  1
  Si  Si12  1  0.167639  0.166853  0.330980  1
  Si  Si13  1  0.831238  0.829262  0.666029  1
  Si  Si14  1  0.120291  0.887754  0.728570  1
  Si  Si15  1  0.111355  0.879059  0.270666  1
  Si  Si16  1  0.614799  0.382534  0.228658  1
  Si  Si17  1  0.619060  0.386656  0.772571  1
  Si  Si18  1  0.883144  0.115412  0.271211  1
  Si  Si19  1  0.885884  0.118460  0.727993  1
  Si  Si20  1  0.388403  0.620828  0.771961  1
  Si  Si21  1  0.378379  0.610612  0.229255  1
  Si  Si22  1  0.343271  0.110915  0.505080  1
  Si  Si23  1  0.886318  0.652991  0.494592  1
  Si  Si24  1  0.389715  0.158050  0.002200  1
  Si  Si25  1  0.846443  0.613360  0.996282  1
  Si  Si26  1  0.657630  0.888860  0.498827  1
  Si  Si27  1  0.113078  0.346882  0.503656  1
  Si  Si28  1  0.611147  0.842768  0.994501  1
  Si  Si29  1  0.153209  0.387002  0.006494  1
  Os  Os30  1  0.665564  0.326939  0.501435  1
  Os  Os31  1  0.173210  0.834479  0.999008  1
  Os  Os32  1  0.334364  0.673164  0.500940  1
  Os  Os33  1  0.826967  0.165516  0.998520  1
  Os  Os34  1  0.126514  0.127522  0.627443  1
  Ru  Ru35  1  0.873219  0.873452  0.372002  1
  Ru  Ru36  1  0.373390  0.373172  0.127966  1
  Ru  Ru37  1  0.627645  0.626580  0.872304  1
