# generated using pymatgen
data_Sr5NdTaCo4O15
_symmetry_space_group_name_H-M   'P 1'
_cell_length_a   6.89569985
_cell_length_b   6.98354564
_cell_length_c   6.98354463
_cell_angle_alpha   86.93588284
_cell_angle_beta   87.03892962
_cell_angle_gamma   87.03891568
_symmetry_Int_Tables_number   1
_chemical_formula_structural   Sr5NdTaCo4O15
_chemical_formula_sum   'Sr5 Nd1 Ta1 Co4 O15'
_cell_volume   334.97006275
_cell_formula_units_Z   1
loop_
 _symmetry_equiv_pos_site_id
 _symmetry_equiv_pos_as_xyz
  1  'x, y, z'
loop_
 _atom_site_type_symbol
 _atom_site_label
 _atom_site_symmetry_multiplicity
 _atom_site_fract_x
 _atom_site_fract_y
 _atom_site_fract_z
 _atom_site_occupancy
  Sr  Sr0  1  0.128903  0.499775  0.864662  1
  Sr  Sr1  1  0.871097  0.135338  0.500225  1
  Sr  Sr2  1  0.000000  0.676981  0.323019  1
  Sr  Sr3  1  0.314445  0.000088  0.680704  1
  Sr  Sr4  1  0.685555  0.319296  0.999912  1
  Nd  Nd5  1  0.500000  0.866836  0.133164  1
  Ta  Ta6  1  0.500000  0.500844  0.499156  1
  Co  Co7  1  0.703530  0.710099  0.707548  1
  Co  Co8  1  0.296470  0.292452  0.289901  1
  Co  Co9  1  0.901807  0.902300  0.905176  1
  Co  Co10  1  0.098193  0.094824  0.097700  1
  O  O11  1  0.381436  0.560888  0.241443  1
  O  O12  1  0.244520  0.378939  0.550145  1
  O  O13  1  0.559929  0.249927  0.376541  1
  O  O14  1  0.618564  0.758557  0.439112  1
  O  O15  1  0.440071  0.623459  0.750073  1
  O  O16  1  0.755480  0.449855  0.621061  1
  O  O17  1  0.216397  0.029872  0.341766  1
  O  O18  1  0.352913  0.195383  0.035536  1
  O  O19  1  0.035228  0.342780  0.203542  1
  O  O20  1  0.783603  0.658234  0.970128  1
  O  O21  1  0.964772  0.796458  0.657220  1
  O  O22  1  0.161987  0.843464  0.003865  1
  O  O23  1  0.838013  0.996135  0.156536  1
  O  O24  1  0.000000  0.152751  0.847249  1
  O  O25  1  0.647087  0.964464  0.804617  1
