# generated using pymatgen
data_Bi2Sb6Mo4Se3S
_symmetry_space_group_name_H-M   'P 1'
_cell_length_a   6.50704500
_cell_length_b   6.65712879
_cell_length_c   18.99514502
_cell_angle_alpha   84.72024850
_cell_angle_beta   90.00000000
_cell_angle_gamma   90.00000000
_symmetry_Int_Tables_number   1
_chemical_formula_structural   Bi2Sb6Mo4Se3S
_chemical_formula_sum   'Bi4 Sb12 Mo8 Se6 S2'
_cell_volume   819.34512304
_cell_formula_units_Z   2
loop_
 _symmetry_equiv_pos_site_id
 _symmetry_equiv_pos_as_xyz
  1  'x, y, z'
loop_
 _atom_site_type_symbol
 _atom_site_label
 _atom_site_symmetry_multiplicity
 _atom_site_fract_x
 _atom_site_fract_y
 _atom_site_fract_z
 _atom_site_occupancy
  Bi  Bi0  1  0.386347  0.215674  0.271360  1
  Bi  Bi1  1  0.886347  0.784326  0.228640  1
  Bi  Bi2  1  0.612763  0.782198  0.730565  1
  Bi  Bi3  1  0.112763  0.217802  0.769435  1
  Sb  Sb4  1  0.864529  0.208827  0.275653  1
  Sb  Sb5  1  0.364529  0.791173  0.224347  1
  Sb  Sb6  1  0.135388  0.789589  0.725772  1
  Sb  Sb7  1  0.635388  0.210411  0.774228  1
  Sb  Sb8  1  0.374782  0.077444  0.427633  1
  Sb  Sb9  1  0.874782  0.922556  0.072367  1
  Sb  Sb10  1  0.626558  0.921057  0.574595  1
  Sb  Sb11  1  0.126558  0.078943  0.925405  1
  Sb  Sb12  1  0.874713  0.078142  0.426688  1
  Sb  Sb13  1  0.374713  0.921858  0.073312  1
  Sb  Sb14  1  0.124168  0.920021  0.574980  1
  Sb  Sb15  1  0.624168  0.079979  0.925020  1
  Mo  Mo16  1  0.874996  0.672612  0.494696  1
  Mo  Mo17  1  0.374996  0.327388  0.005304  1
  Mo  Mo18  1  0.122935  0.325718  0.506567  1
  Mo  Mo19  1  0.622935  0.674282  0.993433  1
  Mo  Mo20  1  0.627315  0.325670  0.506260  1
  Mo  Mo21  1  0.127315  0.674330  0.993740  1
  Mo  Mo22  1  0.375021  0.674905  0.495589  1
  Mo  Mo23  1  0.875021  0.325095  0.004411  1
  Se  Se24  1  0.126267  0.588908  0.401917  1
  Se  Se25  1  0.626267  0.411092  0.098083  1
  Se  Se26  1  0.623825  0.590211  0.401761  1
  Se  Se27  1  0.123825  0.409789  0.098239  1
  Se  Se28  1  0.375659  0.409241  0.599687  1
  Se  Se29  1  0.875659  0.590759  0.900313  1
  S  S30  1  0.874734  0.413043  0.590469  1
  S  S31  1  0.374734  0.586957  0.909531  1
