# generated using pymatgen
data_RbLiPuSe3
_symmetry_space_group_name_H-M   'P 1'
_cell_length_a   4.31480400
_cell_length_b   7.91557428
_cell_length_c   11.08236300
_cell_angle_alpha   90.00000000
_cell_angle_beta   90.00000000
_cell_angle_gamma   74.18384477
_symmetry_Int_Tables_number   1
_chemical_formula_structural   RbLiPuSe3
_chemical_formula_sum   'Rb2 Li2 Pu2 Se6'
_cell_volume   364.17881370
_cell_formula_units_Z   2
loop_
 _symmetry_equiv_pos_site_id
 _symmetry_equiv_pos_as_xyz
  1  'x, y, z'
loop_
 _atom_site_type_symbol
 _atom_site_label
 _atom_site_symmetry_multiplicity
 _atom_site_fract_x
 _atom_site_fract_y
 _atom_site_fract_z
 _atom_site_occupancy
  Rb  Rb0  1  0.737130  0.525742  0.250000  1
  Rb  Rb1  1  0.262871  0.474258  0.750000  1
  Li  Li2  1  0.461516  0.076970  0.250000  1
  Li  Li3  1  0.538484  0.923030  0.750000  1
  Pu  Pu4  1  0.000000  0.000000  0.000000  1
  Pu  Pu5  1  0.000000  0.000000  0.500000  1
  Se  Se6  1  0.382624  0.234752  0.048882  1
  Se  Se7  1  0.049969  0.900061  0.250000  1
  Se  Se8  1  0.382624  0.234752  0.451118  1
  Se  Se9  1  0.617376  0.765248  0.548882  1
  Se  Se10  1  0.950032  0.099939  0.750000  1
  Se  Se11  1  0.617376  0.765248  0.951118  1
