# generated using pymatgen
data_La19Nd(Ge2Ru)4
_symmetry_space_group_name_H-M   'P 1'
_cell_length_a   8.19657676
_cell_length_b   9.02063500
_cell_length_c   12.44382933
_cell_angle_alpha   90.00000000
_cell_angle_beta   90.40364493
_cell_angle_gamma   90.00000000
_symmetry_Int_Tables_number   1
_chemical_formula_structural   La19Nd(Ge2Ru)4
_chemical_formula_sum   'La19 Nd1 Ge8 Ru4'
_cell_volume   920.05309312
_cell_formula_units_Z   1
loop_
 _symmetry_equiv_pos_site_id
 _symmetry_equiv_pos_as_xyz
  1  'x, y, z'
loop_
 _atom_site_type_symbol
 _atom_site_label
 _atom_site_symmetry_multiplicity
 _atom_site_fract_x
 _atom_site_fract_y
 _atom_site_fract_z
 _atom_site_occupancy
  La  La0  1  0.669089  0.750000  0.709395  1
  La  La1  1  0.331123  0.250000  0.290780  1
  La  La2  1  0.167393  0.250000  0.788400  1
  La  La3  1  0.831940  0.750000  0.211637  1
  La  La4  1  0.140610  0.750000  0.796203  1
  La  La5  1  0.858231  0.250000  0.203526  1
  La  La6  1  0.639869  0.250000  0.701386  1
  La  La7  1  0.358656  0.750000  0.299050  1
  La  La8  1  0.540582  0.750000  0.999351  1
  La  La9  1  0.459626  0.250000  0.000848  1
  La  La10  1  0.037640  0.250000  0.501403  1
  La  La11  1  0.819133  0.468648  0.926586  1
  La  La12  1  0.180924  0.531021  0.072810  1
  La  La13  1  0.318883  0.532524  0.572639  1
  La  La14  1  0.180924  0.968979  0.072810  1
  La  La15  1  0.682118  0.468713  0.427181  1
  La  La16  1  0.819133  0.031352  0.926586  1
  La  La17  1  0.682118  0.031287  0.427181  1
  La  La18  1  0.318883  0.967476  0.572639  1
  Nd  Nd19  1  0.964766  0.750000  0.498570  1
  Ge  Ge20  1  0.936337  0.004534  0.669554  1
  Ge  Ge21  1  0.062714  0.992146  0.330205  1
  Ge  Ge22  1  0.437367  0.993586  0.827580  1
  Ge  Ge23  1  0.062714  0.507854  0.330205  1
  Ge  Ge24  1  0.561758  0.006381  0.172897  1
  Ge  Ge25  1  0.936337  0.495466  0.669554  1
  Ge  Ge26  1  0.561758  0.493619  0.172897  1
  Ge  Ge27  1  0.437367  0.506414  0.827580  1
  Ru  Ru28  1  0.917887  0.750000  0.977691  1
  Ru  Ru29  1  0.082529  0.250000  0.022350  1
  Ru  Ru30  1  0.417018  0.250000  0.521150  1
  Ru  Ru31  1  0.584574  0.750000  0.479355  1
