# generated using pymatgen
data_HoErPa2Ge6Os7
_symmetry_space_group_name_H-M   'P 1'
_cell_length_a   7.25624893
_cell_length_b   7.25624907
_cell_length_c   7.25698720
_cell_angle_alpha   109.50344591
_cell_angle_beta   109.50344125
_cell_angle_gamma   109.42222921
_symmetry_Int_Tables_number   1
_chemical_formula_structural   HoErPa2Ge6Os7
_chemical_formula_sum   'Ho1 Er1 Pa2 Ge6 Os7'
_cell_volume   294.08694288
_cell_formula_units_Z   1
loop_
 _symmetry_equiv_pos_site_id
 _symmetry_equiv_pos_as_xyz
  1  'x, y, z'
loop_
 _atom_site_type_symbol
 _atom_site_label
 _atom_site_symmetry_multiplicity
 _atom_site_fract_x
 _atom_site_fract_y
 _atom_site_fract_z
 _atom_site_occupancy
  Ho  Ho0  1  0.500000  0.500000  0.500000  1
  Er  Er1  1  0.000000  0.000000  0.500000  1
  Pa  Pa2  1  0.000000  0.500000  0.000000  1
  Pa  Pa3  1  0.500000  0.000000  0.000000  1
  Ge  Ge4  1  0.689002  0.689002  0.000092  1
  Ge  Ge5  1  0.310333  0.004639  0.315079  1
  Ge  Ge6  1  0.004639  0.310333  0.315079  1
  Ge  Ge7  1  0.310998  0.310998  0.999908  1
  Ge  Ge8  1  0.689667  0.995361  0.684921  1
  Ge  Ge9  1  0.995361  0.689667  0.684921  1
  Os  Os10  1  0.750112  0.249888  0.500000  1
  Os  Os11  1  0.750800  0.495315  0.245894  1
  Os  Os12  1  0.504685  0.249200  0.754106  1
  Os  Os13  1  0.249200  0.504685  0.754106  1
  Os  Os14  1  0.249888  0.750112  0.500000  1
  Os  Os15  1  0.495315  0.750800  0.245894  1
  Os  Os16  1  0.000000  0.000000  0.000000  1
