# generated using pymatgen
data_NdSmDy2(Mo2O7)2
_symmetry_space_group_name_H-M   'P 1'
_cell_length_a   7.49708166
_cell_length_b   7.47166385
_cell_length_c   7.47166436
_cell_angle_alpha   58.96348712
_cell_angle_beta   59.20957666
_cell_angle_gamma   59.20956409
_symmetry_Int_Tables_number   1
_chemical_formula_structural   NdSmDy2(Mo2O7)2
_chemical_formula_sum   'Nd1 Sm1 Dy2 Mo4 O14'
_cell_volume   290.05671087
_cell_formula_units_Z   1
loop_
 _symmetry_equiv_pos_site_id
 _symmetry_equiv_pos_as_xyz
  1  'x, y, z'
loop_
 _atom_site_type_symbol
 _atom_site_label
 _atom_site_symmetry_multiplicity
 _atom_site_fract_x
 _atom_site_fract_y
 _atom_site_fract_z
 _atom_site_occupancy
  Nd  Nd0  1  0.125000  0.125000  0.125000  1
  Sm  Sm1  1  0.625000  0.125000  0.125000  1
  Dy  Dy2  1  0.125000  0.625000  0.125000  1
  Dy  Dy3  1  0.125000  0.125000  0.625000  1
  Mo  Mo4  1  0.125000  0.625000  0.625000  1
  Mo  Mo5  1  0.625000  0.125000  0.625000  1
  Mo  Mo6  1  0.625000  0.625000  0.125000  1
  Mo  Mo7  1  0.625000  0.625000  0.625000  1
  O  O8  1  0.718363  0.706198  0.288851  1
  O  O9  1  0.291079  0.288212  0.706541  1
  O  O10  1  0.718363  0.288851  0.706198  1
  O  O11  1  0.291079  0.706541  0.288212  1
  O  O12  1  0.279587  0.716919  0.716919  1
  O  O13  1  0.702521  0.288287  0.288287  1
  O  O14  1  0.531637  0.543802  0.961149  1
  O  O15  1  0.958921  0.961788  0.543459  1
  O  O16  1  0.531637  0.961149  0.543802  1
  O  O17  1  0.958921  0.543459  0.961788  1
  O  O18  1  0.970413  0.533081  0.533081  1
  O  O19  1  0.547479  0.961713  0.961713  1
  O  O20  1  0.246578  0.253523  0.253523  1
  O  O21  1  0.003422  0.996477  0.996477  1
