# generated using pymatgen
data_Er5Tm7OsRh3
_symmetry_space_group_name_H-M   'P 1'
_cell_length_a   6.31439000
_cell_length_b   7.19341305
_cell_length_c   9.08926547
_cell_angle_alpha   90.02049817
_cell_angle_beta   89.91838824
_cell_angle_gamma   90.14503097
_symmetry_Int_Tables_number   1
_chemical_formula_structural   Er5Tm7OsRh3
_chemical_formula_sum   'Er5 Tm7 Os1 Rh3'
_cell_volume   412.85098894
_cell_formula_units_Z   1
loop_
 _symmetry_equiv_pos_site_id
 _symmetry_equiv_pos_as_xyz
  1  'x, y, z'
loop_
 _atom_site_type_symbol
 _atom_site_label
 _atom_site_symmetry_multiplicity
 _atom_site_fract_x
 _atom_site_fract_y
 _atom_site_fract_z
 _atom_site_occupancy
  Er  Er0  1  0.332411  0.677186  0.442151  1
  Er  Er1  1  0.171407  0.178778  0.062146  1
  Er  Er2  1  0.873484  0.535912  0.249824  1
  Er  Er3  1  0.629341  0.034842  0.250142  1
  Er  Er4  1  0.373593  0.966150  0.749984  1
  Tm  Tm5  1  0.332739  0.676877  0.057914  1
  Tm  Tm6  1  0.171132  0.178475  0.437747  1
  Tm  Tm7  1  0.672162  0.323636  0.563910  1
  Tm  Tm8  1  0.825055  0.819375  0.935334  1
  Tm  Tm9  1  0.672004  0.323738  0.936034  1
  Tm  Tm10  1  0.825264  0.819476  0.564841  1
  Tm  Tm11  1  0.126211  0.465172  0.750050  1
  Os  Os12  1  0.537016  0.614641  0.750510  1
  Rh  Rh13  1  0.045664  0.886140  0.250222  1
  Rh  Rh14  1  0.455803  0.385141  0.249874  1
  Rh  Rh15  1  0.956716  0.114459  0.749316  1
