# generated using pymatgen
data_U4GaRe7SiGe4
_symmetry_space_group_name_H-M   'P 1'
_cell_length_a   7.23409144
_cell_length_b   7.23408968
_cell_length_c   7.23409026
_cell_angle_alpha   109.45077424
_cell_angle_beta   109.45076523
_cell_angle_gamma   109.51212787
_symmetry_Int_Tables_number   1
_chemical_formula_structural   U4GaRe7SiGe4
_chemical_formula_sum   'U4 Ga1 Re7 Si1 Ge4'
_cell_volume   291.42698333
_cell_formula_units_Z   1
loop_
 _symmetry_equiv_pos_site_id
 _symmetry_equiv_pos_as_xyz
  1  'x, y, z'
loop_
 _atom_site_type_symbol
 _atom_site_label
 _atom_site_symmetry_multiplicity
 _atom_site_fract_x
 _atom_site_fract_y
 _atom_site_fract_z
 _atom_site_occupancy
  U  U0  1  0.508043  0.508043  0.509916  1
  U  U1  1  0.998127  0.998127  0.490084  1
  U  U2  1  0.508043  0.998127  0.000000  1
  U  U3  1  0.998127  0.508043  0.000000  1
  Ga  Ga4  1  0.296890  0.296890  0.000000  1
  Re  Re5  1  0.753604  0.253604  0.500000  1
  Re  Re6  1  0.501436  0.252639  0.751203  1
  Re  Re7  1  0.501436  0.750233  0.248797  1
  Re  Re8  1  0.252639  0.501436  0.751203  1
  Re  Re9  1  0.750233  0.501436  0.248797  1
  Re  Re10  1  0.253604  0.753604  0.500000  1
  Re  Re11  1  0.979913  0.979913  0.000000  1
  Si  Si12  1  0.680471  0.680471  0.000000  1
  Ge  Ge13  1  0.004359  0.310659  0.306301  1
  Ge  Ge14  1  0.004359  0.698058  0.693699  1
  Ge  Ge15  1  0.698058  0.004359  0.693699  1
  Ge  Ge16  1  0.310659  0.004359  0.306301  1
