# generated using pymatgen
data_Tb5ScAl14(Si5Os4)2
_symmetry_space_group_name_H-M   'P 1'
_cell_length_a   8.67965500
_cell_length_b   8.71567274
_cell_length_c   9.32374300
_cell_angle_alpha   90.00000000
_cell_angle_beta   90.00000000
_cell_angle_gamma   119.94519620
_symmetry_Int_Tables_number   1
_chemical_formula_structural   Tb5ScAl14(Si5Os4)2
_chemical_formula_sum   'Tb5 Sc1 Al14 Si10 Os8'
_cell_volume   611.17259711
_cell_formula_units_Z   1
loop_
 _symmetry_equiv_pos_site_id
 _symmetry_equiv_pos_as_xyz
  1  'x, y, z'
loop_
 _atom_site_type_symbol
 _atom_site_label
 _atom_site_symmetry_multiplicity
 _atom_site_fract_x
 _atom_site_fract_y
 _atom_site_fract_z
 _atom_site_occupancy
  Tb  Tb0  1  0.808907  0.615302  0.750000  1
  Tb  Tb1  1  0.619839  0.811167  0.250000  1
  Tb  Tb2  1  0.381459  0.189700  0.750000  1
  Tb  Tb3  1  0.190943  0.809173  0.250000  1
  Tb  Tb4  1  0.808079  0.192509  0.750000  1
  Sc  Sc5  1  0.199155  0.402855  0.250000  1
  Al  Al6  1  0.163837  0.328638  0.574959  1
  Al  Al7  1  0.833482  0.668809  0.421030  1
  Al  Al8  1  0.665945  0.832739  0.579040  1
  Al  Al9  1  0.833482  0.668809  0.078970  1
  Al  Al10  1  0.326434  0.166384  0.419790  1
  Al  Al11  1  0.163837  0.328638  0.925041  1
  Al  Al12  1  0.166751  0.831567  0.577871  1
  Al  Al13  1  0.326434  0.166384  0.080210  1
  Al  Al14  1  0.839274  0.165070  0.419458  1
  Al  Al15  1  0.665945  0.832739  0.920960  1
  Al  Al16  1  0.839274  0.165070  0.080542  1
  Al  Al17  1  0.166751  0.831567  0.922129  1
  Al  Al18  1  0.560725  0.435054  0.250000  1
  Al  Al19  1  0.012321  0.023493  0.250000  1
  Si  Si20  1  0.333508  0.664500  0.044870  1
  Si  Si21  1  0.664660  0.333319  0.959868  1
  Si  Si22  1  0.664660  0.333319  0.540132  1
  Si  Si23  1  0.333508  0.664500  0.455130  1
  Si  Si24  1  0.565616  0.127332  0.250000  1
  Si  Si25  1  0.439075  0.876690  0.750000  1
  Si  Si26  1  0.877772  0.434353  0.250000  1
  Si  Si27  1  0.127570  0.559800  0.750000  1
  Si  Si28  1  0.432157  0.560705  0.750000  1
  Si  Si29  1  0.997372  0.000022  0.750000  1
  Os  Os30  1  0.500351  0.999750  0.999849  1
  Os  Os31  1  0.001834  0.498266  0.001173  1
  Os  Os32  1  0.500351  0.999750  0.500151  1
  Os  Os33  1  0.496673  0.499478  0.994584  1
  Os  Os34  1  0.001834  0.498266  0.498827  1
  Os  Os35  1  0.496673  0.499478  0.505416  1
  Os  Os36  1  0.996756  0.992406  0.992200  1
  Os  Os37  1  0.996756  0.992406  0.507800  1
