# generated using pymatgen
data_TbTh(ZnCo)2
_symmetry_space_group_name_H-M   'P 1'
_cell_length_a   3.83686500
_cell_length_b   6.90970789
_cell_length_c   8.27068739
_cell_angle_alpha   91.56793727
_cell_angle_beta   90.00000000
_cell_angle_gamma   90.00000000
_symmetry_Int_Tables_number   1
_chemical_formula_structural   TbTh(ZnCo)2
_chemical_formula_sum   'Tb2 Th2 Zn4 Co4'
_cell_volume   219.18719315
_cell_formula_units_Z   2
loop_
 _symmetry_equiv_pos_site_id
 _symmetry_equiv_pos_as_xyz
  1  'x, y, z'
loop_
 _atom_site_type_symbol
 _atom_site_label
 _atom_site_symmetry_multiplicity
 _atom_site_fract_x
 _atom_site_fract_y
 _atom_site_fract_z
 _atom_site_occupancy
  Tb  Tb0  1  0.250000  0.044280  0.317945  1
  Tb  Tb1  1  0.750000  0.955720  0.682055  1
  Th  Th2  1  0.250000  0.541008  0.187638  1
  Th  Th3  1  0.750000  0.458992  0.812362  1
  Zn  Zn4  1  0.250000  0.121282  0.942179  1
  Zn  Zn5  1  0.750000  0.878718  0.057821  1
  Zn  Zn6  1  0.250000  0.639797  0.554535  1
  Zn  Zn7  1  0.750000  0.360203  0.445465  1
  Co  Co8  1  0.750000  0.740221  0.358901  1
  Co  Co9  1  0.250000  0.259779  0.641099  1
  Co  Co10  1  0.750000  0.260996  0.127693  1
  Co  Co11  1  0.250000  0.739004  0.872307  1
