# generated using pymatgen
data_Th3HgGe2Ir3
_symmetry_space_group_name_H-M   'P 1'
_cell_length_a   7.36731949
_cell_length_b   7.55954966
_cell_length_c   4.03671900
_cell_angle_alpha   90.00000000
_cell_angle_beta   90.00000000
_cell_angle_gamma   120.86726169
_symmetry_Int_Tables_number   1
_chemical_formula_structural   Th3HgGe2Ir3
_chemical_formula_sum   'Th3 Hg1 Ge2 Ir3'
_cell_volume   192.97564725
_cell_formula_units_Z   1
loop_
 _symmetry_equiv_pos_site_id
 _symmetry_equiv_pos_as_xyz
  1  'x, y, z'
loop_
 _atom_site_type_symbol
 _atom_site_label
 _atom_site_symmetry_multiplicity
 _atom_site_fract_x
 _atom_site_fract_y
 _atom_site_fract_z
 _atom_site_occupancy
  Th  Th0  1  0.999998  0.410986  0.500000  1
  Th  Th1  1  0.588285  0.587534  0.500000  1
  Th  Th2  1  0.411716  0.999246  0.500000  1
  Hg  Hg3  1  0.000000  0.750997  0.000000  1
  Ge  Ge4  1  0.246929  0.244698  0.000000  1
  Ge  Ge5  1  0.753074  0.997769  0.000000  1
  Ir  Ir6  1  0.349448  0.661289  0.000000  1
  Ir  Ir7  1  0.650548  0.311835  0.000000  1
  Ir  Ir8  1  0.000004  0.035646  0.500000  1
