# generated using pymatgen
data_Y4Lu2Ir5Rh13
_symmetry_space_group_name_H-M   'P 1'
_cell_length_a   5.27663243
_cell_length_b   5.27663399
_cell_length_c   17.53948900
_cell_angle_alpha   90.02306323
_cell_angle_beta   89.97693676
_cell_angle_gamma   120.03646331
_symmetry_Int_Tables_number   1
_chemical_formula_structural   Y4Lu2Ir5Rh13
_chemical_formula_sum   'Y4 Lu2 Ir5 Rh13'
_cell_volume   422.76754975
_cell_formula_units_Z   1
loop_
 _symmetry_equiv_pos_site_id
 _symmetry_equiv_pos_as_xyz
  1  'x, y, z'
loop_
 _atom_site_type_symbol
 _atom_site_label
 _atom_site_symmetry_multiplicity
 _atom_site_fract_x
 _atom_site_fract_y
 _atom_site_fract_z
 _atom_site_occupancy
  Y  Y0  1  0.666376  0.333624  0.458447  1
  Y  Y1  1  0.332687  0.667313  0.541665  1
  Y  Y2  1  0.333337  0.666663  0.750507  1
  Y  Y3  1  0.666638  0.333362  0.250831  1
  Lu  Lu4  1  0.333445  0.666555  0.959148  1
  Lu  Lu5  1  0.666700  0.333300  0.041107  1
  Ir  Ir6  1  0.167285  0.832715  0.372749  1
  Ir  Ir7  1  0.167672  0.335236  0.373075  1
  Ir  Ir8  1  0.664764  0.832328  0.373075  1
  Ir  Ir9  1  0.834178  0.165822  0.627784  1
  Ir  Ir10  1  0.000280  0.999720  0.999935  1
  Rh  Rh11  1  0.834271  0.664200  0.626602  1
  Rh  Rh12  1  0.335800  0.165729  0.626602  1
  Rh  Rh13  1  0.832562  0.167438  0.876633  1
  Rh  Rh14  1  0.832856  0.665035  0.876262  1
  Rh  Rh15  1  0.334965  0.167144  0.876262  1
  Rh  Rh16  1  0.167383  0.832617  0.123215  1
  Rh  Rh17  1  0.167444  0.335481  0.123020  1
  Rh  Rh18  1  0.664519  0.832556  0.123020  1
  Rh  Rh19  1  0.333364  0.666636  0.249146  1
  Rh  Rh20  1  0.666815  0.333185  0.750765  1
  Rh  Rh21  1  0.999596  0.000404  0.249039  1
  Rh  Rh22  1  0.999411  0.000589  0.750891  1
  Rh  Rh23  1  0.997654  0.002346  0.500219  1
