# generated using pymatgen
data_Sc4ZnSi(B2Rh5)2
_symmetry_space_group_name_H-M   'P 1'
_cell_length_a   9.27279500
_cell_length_b   9.27279500
_cell_length_c   3.09819500
_cell_angle_alpha   90.00000000
_cell_angle_beta   90.00000000
_cell_angle_gamma   90.00000000
_symmetry_Int_Tables_number   1
_chemical_formula_structural   Sc4ZnSi(B2Rh5)2
_chemical_formula_sum   'Sc4 Zn1 Si1 B4 Rh10'
_cell_volume   266.39745161
_cell_formula_units_Z   1
loop_
 _symmetry_equiv_pos_site_id
 _symmetry_equiv_pos_as_xyz
  1  'x, y, z'
loop_
 _atom_site_type_symbol
 _atom_site_label
 _atom_site_symmetry_multiplicity
 _atom_site_fract_x
 _atom_site_fract_y
 _atom_site_fract_z
 _atom_site_occupancy
  Sc  Sc0  1  0.674576  0.173771  0.000000  1
  Sc  Sc1  1  0.173771  0.325424  0.000000  1
  Sc  Sc2  1  0.826228  0.674576  0.000000  1
  Sc  Sc3  1  0.325424  0.826228  0.000000  1
  Zn  Zn4  1  0.000000  0.000000  0.000000  1
  Si  Si5  1  0.500000  0.500000  0.000000  1
  B  B6  1  0.372534  0.122788  0.000000  1
  B  B7  1  0.877211  0.372534  0.000000  1
  B  B8  1  0.122788  0.627466  0.000000  1
  B  B9  1  0.627466  0.877211  0.000000  1
  Rh  Rh10  1  0.500000  0.000000  0.500000  1
  Rh  Rh11  1  0.217650  0.074273  0.500000  1
  Rh  Rh12  1  0.925727  0.217650  0.500000  1
  Rh  Rh13  1  0.432397  0.288488  0.500000  1
  Rh  Rh14  1  0.711511  0.432397  0.500000  1
  Rh  Rh15  1  0.000000  0.500000  0.500000  1
  Rh  Rh16  1  0.288488  0.567602  0.500000  1
  Rh  Rh17  1  0.567602  0.711511  0.500000  1
  Rh  Rh18  1  0.074273  0.782349  0.500000  1
  Rh  Rh19  1  0.782349  0.925727  0.500000  1
