# generated using pymatgen
data_MgCrSiP3Rh5
_symmetry_space_group_name_H-M   'P 1'
_cell_length_a   7.05077200
_cell_length_b   7.12753986
_cell_length_c   3.53845100
_cell_angle_alpha   90.00000000
_cell_angle_beta   90.00000000
_cell_angle_gamma   119.64434653
_symmetry_Int_Tables_number   1
_chemical_formula_structural   MgCrSiP3Rh5
_chemical_formula_sum   'Mg1 Cr1 Si1 P3 Rh5'
_cell_volume   154.54872938
_cell_formula_units_Z   1
loop_
 _symmetry_equiv_pos_site_id
 _symmetry_equiv_pos_as_xyz
  1  'x, y, z'
loop_
 _atom_site_type_symbol
 _atom_site_label
 _atom_site_symmetry_multiplicity
 _atom_site_fract_x
 _atom_site_fract_y
 _atom_site_fract_z
 _atom_site_occupancy
  Mg  Mg0  1  0.000128  0.000256  0.000000  1
  Cr  Cr1  1  0.539530  0.079062  0.000000  1
  Si  Si2  1  0.331777  0.663555  0.000000  1
  P  P3  1  0.809959  0.189264  0.500000  1
  P  P4  1  0.379306  0.189264  0.500000  1
  P  P5  1  0.813166  0.626331  0.500000  1
  Rh  Rh6  1  0.196258  0.810614  0.500000  1
  Rh  Rh7  1  0.189866  0.379733  0.500000  1
  Rh  Rh8  1  0.923395  0.458987  0.000000  1
  Rh  Rh9  1  0.535592  0.458987  0.000000  1
  Rh  Rh10  1  0.614355  0.810614  0.500000  1
