# generated using pymatgen
data_Eu4ScMn2NiO12
_symmetry_space_group_name_H-M   'P 1'
_cell_length_a   5.47907043
_cell_length_b   5.58635724
_cell_length_c   7.79301357
_cell_angle_alpha   89.66430299
_cell_angle_beta   89.98268402
_cell_angle_gamma   90.03825935
_symmetry_Int_Tables_number   1
_chemical_formula_structural   Eu4ScMn2NiO12
_chemical_formula_sum   'Eu4 Sc1 Mn2 Ni1 O12'
_cell_volume   238.52474975
_cell_formula_units_Z   1
loop_
 _symmetry_equiv_pos_site_id
 _symmetry_equiv_pos_as_xyz
  1  'x, y, z'
loop_
 _atom_site_type_symbol
 _atom_site_label
 _atom_site_symmetry_multiplicity
 _atom_site_fract_x
 _atom_site_fract_y
 _atom_site_fract_z
 _atom_site_occupancy
  Eu  Eu0  1  0.006642  0.042343  0.242181  1
  Eu  Eu1  1  0.493528  0.550147  0.241390  1
  Eu  Eu2  1  0.506999  0.448862  0.758417  1
  Eu  Eu3  1  0.993058  0.957116  0.757849  1
  Sc  Sc4  1  0.000083  0.499972  0.500167  1
  Mn  Mn5  1  0.499903  0.999973  0.499955  1
  Mn  Mn6  1  0.000090  0.500108  0.000036  1
  Ni  Ni7  1  0.499919  0.000052  0.999892  1
  O  O8  1  0.807590  0.211979  0.959019  1
  O  O9  1  0.788353  0.191970  0.542708  1
  O  O10  1  0.920364  0.477366  0.240339  1
  O  O11  1  0.192468  0.788136  0.040763  1
  O  O12  1  0.417248  0.024337  0.741626  1
  O  O13  1  0.690229  0.710927  0.543198  1
  O  O14  1  0.711323  0.694049  0.960508  1
  O  O15  1  0.211433  0.808282  0.457501  1
  O  O16  1  0.582369  0.975972  0.258257  1
  O  O17  1  0.309919  0.289421  0.456878  1
  O  O18  1  0.288748  0.306176  0.039455  1
  O  O19  1  0.079735  0.522814  0.759861  1
