# generated using pymatgen
data_Th3Sc2Sn3C
_symmetry_space_group_name_H-M   'P 1'
_cell_length_a   9.08960900
_cell_length_b   9.08960862
_cell_length_c   6.32558600
_cell_angle_alpha   90.00000000
_cell_angle_beta   90.00000000
_cell_angle_gamma   120.00001230
_symmetry_Int_Tables_number   1
_chemical_formula_structural   Th3Sc2Sn3C
_chemical_formula_sum   'Th6 Sc4 Sn6 C2'
_cell_volume   452.60748124
_cell_formula_units_Z   2
loop_
 _symmetry_equiv_pos_site_id
 _symmetry_equiv_pos_as_xyz
  1  'x, y, z'
loop_
 _atom_site_type_symbol
 _atom_site_label
 _atom_site_symmetry_multiplicity
 _atom_site_fract_x
 _atom_site_fract_y
 _atom_site_fract_z
 _atom_site_occupancy
  Th  Th0  1  0.772743  0.772743  0.250000  1
  Th  Th1  1  0.227257  0.000000  0.250000  1
  Th  Th2  1  0.000000  0.227257  0.250000  1
  Th  Th3  1  0.227257  0.227257  0.750000  1
  Th  Th4  1  0.772743  0.000000  0.750000  1
  Th  Th5  1  0.000000  0.772743  0.750000  1
  Sc  Sc6  1  0.666667  0.333333  0.500000  1
  Sc  Sc7  1  0.333333  0.666667  0.500000  1
  Sc  Sc8  1  0.333333  0.666667  0.000000  1
  Sc  Sc9  1  0.666667  0.333333  0.000000  1
  Sn  Sn10  1  0.409704  0.409704  0.250000  1
  Sn  Sn11  1  0.590296  0.000000  0.250000  1
  Sn  Sn12  1  0.000000  0.590296  0.250000  1
  Sn  Sn13  1  0.590296  0.590296  0.750000  1
  Sn  Sn14  1  0.409704  0.000000  0.750000  1
  Sn  Sn15  1  0.000000  0.409704  0.750000  1
  C  C16  1  0.000000  0.000000  0.500000  1
  C  C17  1  0.000000  0.000000  0.000000  1
