# generated using pymatgen
data_Pr2Nd2ZnBr5
_symmetry_space_group_name_H-M   'P 1'
_cell_length_a   9.52728151
_cell_length_b   9.52728166
_cell_length_c   9.14915144
_cell_angle_alpha   78.23082704
_cell_angle_beta   78.23082563
_cell_angle_gamma   24.56336680
_symmetry_Int_Tables_number   1
_chemical_formula_structural   Pr2Nd2ZnBr5
_chemical_formula_sum   'Pr2 Nd2 Zn1 Br5'
_cell_volume   337.61644288
_cell_formula_units_Z   1
loop_
 _symmetry_equiv_pos_site_id
 _symmetry_equiv_pos_as_xyz
  1  'x, y, z'
loop_
 _atom_site_type_symbol
 _atom_site_label
 _atom_site_symmetry_multiplicity
 _atom_site_fract_x
 _atom_site_fract_y
 _atom_site_fract_z
 _atom_site_occupancy
  Pr  Pr0  1  0.499574  0.499574  0.233508  1
  Pr  Pr1  1  0.500426  0.500426  0.766492  1
  Nd  Nd2  1  0.840974  0.840974  0.076279  1
  Nd  Nd3  1  0.159026  0.159026  0.923721  1
  Zn  Zn4  1  0.000000  0.000000  0.000000  1
  Br  Br5  1  0.670508  0.670508  0.168552  1
  Br  Br6  1  0.329492  0.329492  0.831448  1
  Br  Br7  1  0.666843  0.666843  0.677576  1
  Br  Br8  1  0.333157  0.333157  0.322424  1
  Br  Br9  1  0.000000  0.000000  0.500000  1
