# generated using pymatgen
data_Y13Ho3Cd4Pd3Pt
_symmetry_space_group_name_H-M   'P 1'
_cell_length_a   9.71853076
_cell_length_b   9.71555642
_cell_length_c   9.71555700
_cell_angle_alpha   60.00000141
_cell_angle_beta   60.01012489
_cell_angle_gamma   60.01012247
_symmetry_Int_Tables_number   1
_chemical_formula_structural   Y13Ho3Cd4Pd3Pt
_chemical_formula_sum   'Y13 Ho3 Cd4 Pd3 Pt1'
_cell_volume   648.76504258
_cell_formula_units_Z   1
loop_
 _symmetry_equiv_pos_site_id
 _symmetry_equiv_pos_as_xyz
  1  'x, y, z'
loop_
 _atom_site_type_symbol
 _atom_site_label
 _atom_site_symmetry_multiplicity
 _atom_site_fract_x
 _atom_site_fract_y
 _atom_site_fract_z
 _atom_site_occupancy
  Y  Y0  1  0.937237  0.354254  0.354254  1
  Y  Y1  1  0.809312  0.189379  0.189379  1
  Y  Y2  1  0.189616  0.810518  0.810518  1
  Y  Y3  1  0.189616  0.810518  0.189349  1
  Y  Y4  1  0.809312  0.189379  0.811932  1
  Y  Y5  1  0.189616  0.189349  0.810518  1
  Y  Y6  1  0.809312  0.811932  0.189379  1
  Y  Y7  1  0.934301  0.565758  0.565758  1
  Y  Y8  1  0.565599  0.934875  0.934875  1
  Y  Y9  1  0.565599  0.934875  0.564651  1
  Y  Y10  1  0.934301  0.565758  0.934183  1
  Y  Y11  1  0.565599  0.564651  0.934875  1
  Y  Y12  1  0.934301  0.934183  0.565758  1
  Ho  Ho13  1  0.355144  0.352551  0.352551  1
  Ho  Ho14  1  0.355144  0.352551  0.939754  1
  Ho  Ho15  1  0.355144  0.939754  0.352551  1
  Cd  Cd16  1  0.581958  0.582355  0.582355  1
  Cd  Cd17  1  0.581958  0.582355  0.253334  1
  Cd  Cd18  1  0.581958  0.253334  0.582355  1
  Cd  Cd19  1  0.253798  0.582068  0.582068  1
  Pd  Pd20  1  0.145086  0.144688  0.144688  1
  Pd  Pd21  1  0.145086  0.144688  0.565537  1
  Pd  Pd22  1  0.145086  0.565537  0.144688  1
  Pt  Pt23  1  0.565918  0.144694  0.144694  1
