# generated using pymatgen
data_Rb2Zr(AsS3)2
_symmetry_space_group_name_H-M   'P 1'
_cell_length_a   6.84519900
_cell_length_b   6.84519855
_cell_length_c   7.64672600
_cell_angle_alpha   90.00000000
_cell_angle_beta   90.00000000
_cell_angle_gamma   119.99999733
_symmetry_Int_Tables_number   1
_chemical_formula_structural   Rb2Zr(AsS3)2
_chemical_formula_sum   'Rb2 Zr1 As2 S6'
_cell_volume   310.29751684
_cell_formula_units_Z   1
loop_
 _symmetry_equiv_pos_site_id
 _symmetry_equiv_pos_as_xyz
  1  'x, y, z'
loop_
 _atom_site_type_symbol
 _atom_site_label
 _atom_site_symmetry_multiplicity
 _atom_site_fract_x
 _atom_site_fract_y
 _atom_site_fract_z
 _atom_site_occupancy
  Rb  Rb0  1  0.333333  0.666667  0.588340  1
  Rb  Rb1  1  0.666667  0.333333  0.411660  1
  Zr  Zr2  1  0.000000  0.000000  0.000000  1
  As  As3  1  0.333333  0.666667  0.059745  1
  As  As4  1  0.666667  0.333333  0.940255  1
  S  S5  1  0.239120  0.900768  0.205821  1
  S  S6  1  0.900768  0.661648  0.794179  1
  S  S7  1  0.760880  0.099232  0.794179  1
  S  S8  1  0.338352  0.239120  0.794179  1
  S  S9  1  0.661648  0.760880  0.205821  1
  S  S10  1  0.099232  0.338352  0.205821  1
