# generated using pymatgen
data_YLu3(AlRu)4
_symmetry_space_group_name_H-M   'P 1'
_cell_length_a   3.99524400
_cell_length_b   6.96484557
_cell_length_c   8.02289403
_cell_angle_alpha   89.64210213
_cell_angle_beta   90.00000000
_cell_angle_gamma   90.00000000
_symmetry_Int_Tables_number   1
_chemical_formula_structural   YLu3(AlRu)4
_chemical_formula_sum   'Y1 Lu3 Al4 Ru4'
_cell_volume   223.24275971
_cell_formula_units_Z   1
loop_
 _symmetry_equiv_pos_site_id
 _symmetry_equiv_pos_as_xyz
  1  'x, y, z'
loop_
 _atom_site_type_symbol
 _atom_site_label
 _atom_site_symmetry_multiplicity
 _atom_site_fract_x
 _atom_site_fract_y
 _atom_site_fract_z
 _atom_site_occupancy
  Y  Y0  1  0.750000  0.469833  0.822297  1
  Lu  Lu1  1  0.250000  0.030455  0.323421  1
  Lu  Lu2  1  0.250000  0.533011  0.177903  1
  Lu  Lu3  1  0.750000  0.966696  0.674540  1
  Al  Al4  1  0.250000  0.138797  0.943558  1
  Al  Al5  1  0.250000  0.637724  0.557671  1
  Al  Al6  1  0.750000  0.863402  0.059359  1
  Al  Al7  1  0.750000  0.361137  0.440936  1
  Ru  Ru8  1  0.250000  0.261377  0.624978  1
  Ru  Ru9  1  0.250000  0.776249  0.871813  1
  Ru  Ru10  1  0.750000  0.729919  0.371911  1
  Ru  Ru11  1  0.750000  0.231398  0.131611  1
