# generated using pymatgen
data_Ho2Tm10ZnCo4Bi
_symmetry_space_group_name_H-M   'P 1'
_cell_length_a   8.26259484
_cell_length_b   8.26259569
_cell_length_c   8.26534093
_cell_angle_alpha   109.78595009
_cell_angle_beta   111.38271402
_cell_angle_gamma   107.25729606
_symmetry_Int_Tables_number   1
_chemical_formula_structural   Ho2Tm10ZnCo4Bi
_chemical_formula_sum   'Ho2 Tm10 Zn1 Co4 Bi1'
_cell_volume   433.88832533
_cell_formula_units_Z   1
loop_
 _symmetry_equiv_pos_site_id
 _symmetry_equiv_pos_as_xyz
  1  'x, y, z'
loop_
 _atom_site_type_symbol
 _atom_site_label
 _atom_site_symmetry_multiplicity
 _atom_site_fract_x
 _atom_site_fract_y
 _atom_site_fract_z
 _atom_site_occupancy
  Ho  Ho0  1  0.285220  0.182725  0.467945  1
  Ho  Ho1  1  0.714780  0.817275  0.532055  1
  Tm  Tm2  1  0.285603  0.817681  0.103284  1
  Tm  Tm3  1  0.714397  0.182319  0.896716  1
  Tm  Tm4  1  0.621490  0.313252  0.307296  1
  Tm  Tm5  1  0.378510  0.686748  0.692704  1
  Tm  Tm6  1  0.005956  0.314194  0.692704  1
  Tm  Tm7  1  0.994044  0.685806  0.307296  1
  Tm  Tm8  1  0.218541  0.426252  0.206351  1
  Tm  Tm9  1  0.781459  0.573748  0.793649  1
  Tm  Tm10  1  0.219901  0.012191  0.793649  1
  Tm  Tm11  1  0.780099  0.987809  0.206351  1
  Zn  Zn12  1  0.000000  0.000000  0.000000  1
  Co  Co13  1  0.998942  0.376767  0.375710  1
  Co  Co14  1  0.001058  0.623233  0.624290  1
  Co  Co15  1  0.386801  0.886801  0.500000  1
  Co  Co16  1  0.613199  0.113199  0.500000  1
  Bi  Bi17  1  0.500000  0.500000  0.000000  1
