# generated using pymatgen
data_Sr14SmBi11
_symmetry_space_group_name_H-M   'P 1'
_cell_length_a   17.85039315
_cell_length_b   17.85040200
_cell_length_c   17.85040800
_cell_angle_alpha   94.39898113
_cell_angle_beta   117.49359779
_cell_angle_gamma   117.49361841
_symmetry_Int_Tables_number   1
_chemical_formula_structural   Sr14SmBi11
_chemical_formula_sum   'Sr56 Sm4 Bi44'
_cell_volume   4160.97435688
_cell_formula_units_Z   4
loop_
 _symmetry_equiv_pos_site_id
 _symmetry_equiv_pos_as_xyz
  1  'x, y, z'
loop_
 _atom_site_type_symbol
 _atom_site_label
 _atom_site_symmetry_multiplicity
 _atom_site_fract_x
 _atom_site_fract_y
 _atom_site_fract_z
 _atom_site_occupancy
  Sr  Sr0  1  0.090489  0.125279  0.980125  1
  Sr  Sr1  1  0.353986  0.249999  0.603986  1
  Sr  Sr2  1  0.032639  0.785207  0.402493  1
  Sr  Sr3  1  0.089168  0.520485  0.751697  1
  Sr  Sr4  1  0.646014  0.750001  0.396014  1
  Sr  Sr5  1  0.646016  0.396016  0.250002  1
  Sr  Sr6  1  0.882708  0.752561  0.785201  1
  Sr  Sr7  1  0.409518  0.389639  0.034794  1
  Sr  Sr8  1  0.268790  0.337468  0.748302  1
  Sr  Sr9  1  0.089169  0.068683  0.337472  1
  Sr  Sr10  1  0.910831  0.931317  0.662528  1
  Sr  Sr11  1  0.731210  0.662532  0.251698  1
  Sr  Sr12  1  0.645159  0.110360  0.519880  1
  Sr  Sr13  1  0.854843  0.980127  0.389627  1
  Sr  Sr14  1  0.146014  0.750001  0.896016  1
  Sr  Sr15  1  0.590482  0.610361  0.965206  1
  Sr  Sr16  1  0.731213  0.568684  0.479519  1
  Sr  Sr17  1  0.589164  0.251694  0.020484  1
  Sr  Sr18  1  0.409508  0.519872  0.374718  1
  Sr  Sr19  1  0.231214  0.979515  0.068684  1
  Sr  Sr20  1  0.410836  0.748306  0.979516  1
  Sr  Sr21  1  0.145159  0.625282  0.534798  1
  Sr  Sr22  1  0.382708  0.285201  0.252560  1
  Sr  Sr23  1  0.532638  0.130147  0.247434  1
  Sr  Sr24  1  0.910832  0.479515  0.248303  1
  Sr  Sr25  1  0.589166  0.837471  0.568684  1
  Sr  Sr26  1  0.882710  0.630148  0.097509  1
  Sr  Sr27  1  0.117290  0.369852  0.902491  1
  Sr  Sr28  1  0.354841  0.889640  0.480120  1
  Sr  Sr29  1  0.467362  0.869853  0.752566  1
  Sr  Sr30  1  0.354841  0.965206  0.874714  1
  Sr  Sr31  1  0.909511  0.874721  0.019875  1
  Sr  Sr32  1  0.854841  0.374718  0.465202  1
  Sr  Sr33  1  0.853986  0.249999  0.103984  1
  Sr  Sr34  1  0.909511  0.534795  0.889638  1
  Sr  Sr35  1  0.090489  0.465205  0.110362  1
  Sr  Sr36  1  0.117292  0.247439  0.214799  1
  Sr  Sr37  1  0.532638  0.902492  0.285203  1
  Sr  Sr38  1  0.590492  0.480128  0.625282  1
  Sr  Sr39  1  0.231208  0.751693  0.162529  1
  Sr  Sr40  1  0.617290  0.402494  0.869853  1
  Sr  Sr41  1  0.382710  0.597506  0.130147  1
  Sr  Sr42  1  0.032638  0.747434  0.630146  1
  Sr  Sr43  1  0.967361  0.214793  0.597507  1
  Sr  Sr44  1  0.768792  0.248307  0.837471  1
  Sr  Sr45  1  0.353984  0.603984  0.749998  1
  Sr  Sr46  1  0.410834  0.162529  0.431316  1
  Sr  Sr47  1  0.145157  0.019873  0.610373  1
  Sr  Sr48  1  0.645159  0.034794  0.125286  1
  Sr  Sr49  1  0.853987  0.103986  0.750003  1
  Sr  Sr50  1  0.617292  0.714799  0.747440  1
  Sr  Sr51  1  0.268787  0.431316  0.520481  1
  Sr  Sr52  1  0.146013  0.896014  0.249997  1
  Sr  Sr53  1  0.467362  0.097508  0.714797  1
  Sr  Sr54  1  0.768786  0.020485  0.931316  1
  Sr  Sr55  1  0.967362  0.252566  0.369854  1
  Sm  Sm56  1  0.749989  0.874997  0.124996  1
  Sm  Sm57  1  0.750003  0.375005  0.624999  1
  Sm  Sm58  1  0.249997  0.624995  0.375001  1
  Sm  Sm59  1  0.250011  0.125003  0.875004  1
  Bi  Bi60  1  0.481057  0.490529  0.740528  1
  Bi  Bi61  1  0.395325  0.915767  0.074385  1
  Bi  Bi62  1  0.518943  0.509471  0.259472  1
  Bi  Bi63  1  0.104672  0.179056  0.520439  1
  Bi  Bi64  1  0.895327  0.574386  0.415768  1
  Bi  Bi65  1  0.750002  0.990528  0.509470  1
  Bi  Bi66  1  0.604675  0.084233  0.925615  1
  Bi  Bi67  1  0.395326  0.979559  0.320940  1
  Bi  Bi68  1  0.385765  0.684014  0.582893  1
  Bi  Bi69  1  0.658618  0.679058  0.574385  1
  Bi  Bi70  1  0.750000  0.124999  0.375001  1
  Bi  Bi71  1  0.895328  0.820944  0.479561  1
  Bi  Bi72  1  0.101123  0.417109  0.302873  1
  Bi  Bi73  1  0.885769  0.302870  0.701753  1
  Bi  Bi74  1  0.885768  0.082896  0.184016  1
  Bi  Bi75  1  0.614235  0.798247  0.197125  1
  Bi  Bi76  1  0.398878  0.197128  0.082894  1
  Bi  Bi77  1  0.601120  0.298249  0.684017  1
  Bi  Bi78  1  0.398880  0.701751  0.315983  1
  Bi  Bi79  1  0.250002  0.375000  0.124999  1
  Bi  Bi80  1  0.101114  0.184016  0.798244  1
  Bi  Bi81  1  0.249998  0.009472  0.490530  1
  Bi  Bi82  1  0.114231  0.697130  0.298247  1
  Bi  Bi83  1  0.749998  0.625000  0.875001  1
  Bi  Bi84  1  0.114232  0.917104  0.815984  1
  Bi  Bi85  1  0.104673  0.425614  0.584232  1
  Bi  Bi86  1  0.250000  0.875001  0.624999  1
  Bi  Bi87  1  0.604674  0.020441  0.679060  1
  Bi  Bi88  1  0.841382  0.925614  0.820944  1
  Bi  Bi89  1  0.341382  0.320942  0.425615  1
  Bi  Bi90  1  0.841383  0.415769  0.020441  1
  Bi  Bi91  1  0.898886  0.815984  0.201756  1
  Bi  Bi92  1  0.158617  0.584231  0.979559  1
  Bi  Bi93  1  0.250001  0.740530  0.759472  1
  Bi  Bi94  1  0.898877  0.582891  0.697127  1
  Bi  Bi95  1  0.749999  0.259470  0.240528  1
  Bi  Bi96  1  0.614235  0.315986  0.417107  1
  Bi  Bi97  1  0.385765  0.201753  0.802875  1
  Bi  Bi98  1  0.658618  0.479561  0.084234  1
  Bi  Bi99  1  0.341382  0.520439  0.915766  1
  Bi  Bi100  1  0.158618  0.074386  0.179056  1
  Bi  Bi101  1  0.018943  0.759474  0.009474  1
  Bi  Bi102  1  0.981057  0.240526  0.990526  1
  Bi  Bi103  1  0.601122  0.802872  0.917106  1
