# generated using pymatgen
data_Tb2Ti3As6PRh9
_symmetry_space_group_name_H-M   'P 1'
_cell_length_a   3.91848200
_cell_length_b   9.97100543
_cell_length_c   9.95086281
_cell_angle_alpha   120.04507668
_cell_angle_beta   89.99976848
_cell_angle_gamma   89.99798737
_symmetry_Int_Tables_number   1
_chemical_formula_structural   Tb2Ti3As6PRh9
_chemical_formula_sum   'Tb2 Ti3 As6 P1 Rh9'
_cell_volume   336.55088221
_cell_formula_units_Z   1
loop_
 _symmetry_equiv_pos_site_id
 _symmetry_equiv_pos_as_xyz
  1  'x, y, z'
loop_
 _atom_site_type_symbol
 _atom_site_label
 _atom_site_symmetry_multiplicity
 _atom_site_fract_x
 _atom_site_fract_y
 _atom_site_fract_z
 _atom_site_occupancy
  Tb  Tb0  1  0.261856  0.664998  0.331775  1
  Tb  Tb1  1  0.761829  0.332242  0.672074  1
  Ti  Ti2  1  0.762001  0.106507  0.880456  1
  Ti  Ti3  1  0.762014  0.118849  0.221200  1
  Ti  Ti4  1  0.762013  0.779196  0.898106  1
  As  As5  1  0.262365  0.999905  0.999852  1
  As  As6  1  0.761933  0.876783  0.587453  1
  As  As7  1  0.762048  0.411433  0.287275  1
  As  As8  1  0.761745  0.708569  0.122296  1
  As  As9  1  0.261849  0.118589  0.418737  1
  As  As10  1  0.261857  0.582165  0.700826  1
  P  P11  1  0.261800  0.302809  0.886672  1
  Rh  Rh12  1  0.261779  0.880500  0.158890  1
  Rh  Rh13  1  0.261891  0.840773  0.721198  1
  Rh  Rh14  1  0.261849  0.277549  0.111597  1
  Rh  Rh15  1  0.761839  0.612282  0.561618  1
  Rh  Rh16  1  0.761840  0.429248  0.038524  1
  Rh  Rh17  1  0.761806  0.951696  0.390261  1
  Rh  Rh18  1  0.261959  0.366673  0.433273  1
  Rh  Rh19  1  0.261872  0.558174  0.931374  1
  Rh  Rh20  1  0.261855  0.081057  0.646543  1
