# generated using pymatgen
data_KTl3Cu2S2(ClO2)4
_symmetry_space_group_name_H-M   'P 1'
_cell_length_a   6.21931600
_cell_length_b   7.85065400
_cell_length_c   16.53370900
_cell_angle_alpha   90.00000000
_cell_angle_beta   90.00000000
_cell_angle_gamma   90.00000000
_symmetry_Int_Tables_number   1
_chemical_formula_structural   KTl3Cu2S2(ClO2)4
_chemical_formula_sum   'K2 Tl6 Cu4 S4 Cl8 O16'
_cell_volume   807.26988299
_cell_formula_units_Z   2
loop_
 _symmetry_equiv_pos_site_id
 _symmetry_equiv_pos_as_xyz
  1  'x, y, z'
loop_
 _atom_site_type_symbol
 _atom_site_label
 _atom_site_symmetry_multiplicity
 _atom_site_fract_x
 _atom_site_fract_y
 _atom_site_fract_z
 _atom_site_occupancy
  K  K0  1  0.750000  0.616562  0.284552  1
  K  K1  1  0.250000  0.376994  0.094128  1
  Tl  Tl2  1  0.250000  0.882447  0.411113  1
  Tl  Tl3  1  0.250000  0.385631  0.713133  1
  Tl  Tl4  1  0.750000  0.113502  0.218849  1
  Tl  Tl5  1  0.750000  0.119991  0.588220  1
  Tl  Tl6  1  0.750000  0.620259  0.912061  1
  Tl  Tl7  1  0.250000  0.885384  0.788372  1
  Cu  Cu8  1  0.250000  0.878657  0.037746  1
  Cu  Cu9  1  0.750000  0.121723  0.965352  1
  Cu  Cu10  1  0.250000  0.381577  0.459528  1
  Cu  Cu11  1  0.750000  0.618313  0.535641  1
  S  S12  1  0.250000  0.859779  0.195990  1
  S  S13  1  0.750000  0.130561  0.806187  1
  S  S14  1  0.750000  0.630106  0.694714  1
  S  S15  1  0.250000  0.379562  0.300494  1
  Cl  Cl16  1  0.250000  0.659773  0.949295  1
  Cl  Cl17  1  0.250000  0.100361  0.953740  1
  Cl  Cl18  1  0.750000  0.904064  0.052555  1
  Cl  Cl19  1  0.250000  0.597383  0.548244  1
  Cl  Cl20  1  0.750000  0.336371  0.056426  1
  Cl  Cl21  1  0.750000  0.401110  0.448430  1
  Cl  Cl22  1  0.750000  0.833366  0.445177  1
  Cl  Cl23  1  0.250000  0.167066  0.549796  1
  O  O24  1  0.750000  0.275561  0.867234  1
  O  O25  1  0.250000  0.230656  0.359309  1
  O  O26  1  0.555512  0.634162  0.745448  1
  O  O27  1  0.750000  0.773969  0.633167  1
  O  O28  1  0.944488  0.634162  0.745448  1
  O  O29  1  0.250000  0.530238  0.358753  1
  O  O30  1  0.444626  0.380380  0.249798  1
  O  O31  1  0.750000  0.976312  0.862287  1
  O  O32  1  0.750000  0.474648  0.639433  1
  O  O33  1  0.055374  0.380380  0.249798  1
  O  O34  1  0.944491  0.133604  0.755502  1
  O  O35  1  0.250000  0.718788  0.132923  1
  O  O36  1  0.445326  0.851961  0.246183  1
  O  O37  1  0.054674  0.851961  0.246183  1
  O  O38  1  0.555509  0.133604  0.755502  1
  O  O39  1  0.250000  0.019068  0.143289  1
