# generated using pymatgen
data_Y14Th6(Ir3Os)3
_symmetry_space_group_name_H-M   'P 1'
_cell_length_a   11.10378306
_cell_length_b   11.05615007
_cell_length_c   6.41102001
_cell_angle_alpha   89.99432507
_cell_angle_beta   90.00327672
_cell_angle_gamma   90.01129897
_symmetry_Int_Tables_number   1
_chemical_formula_structural   Y14Th6(Ir3Os)3
_chemical_formula_sum   'Y14 Th6 Ir9 Os3'
_cell_volume   787.04943976
_cell_formula_units_Z   1
loop_
 _symmetry_equiv_pos_site_id
 _symmetry_equiv_pos_as_xyz
  1  'x, y, z'
loop_
 _atom_site_type_symbol
 _atom_site_label
 _atom_site_symmetry_multiplicity
 _atom_site_fract_x
 _atom_site_fract_y
 _atom_site_fract_z
 _atom_site_occupancy
  Y  Y0  1  0.407764  0.787776  0.377025  1
  Y  Y1  1  0.409073  0.212303  0.877295  1
  Y  Y2  1  0.206778  0.414455  0.624264  1
  Y  Y3  1  0.205945  0.585321  0.119463  1
  Y  Y4  1  0.795049  0.415755  0.112471  1
  Y  Y5  1  0.794548  0.584819  0.616728  1
  Y  Y6  1  0.917087  0.704368  0.110737  1
  Y  Y7  1  0.916723  0.294939  0.615213  1
  Y  Y8  1  0.085989  0.705342  0.617644  1
  Y  Y9  1  0.085472  0.295187  0.113543  1
  Y  Y10  1  0.998079  0.998247  0.503240  1
  Y  Y11  1  0.997852  0.001653  0.003272  1
  Y  Y12  1  0.498431  0.494799  0.011190  1
  Y  Y13  1  0.498732  0.505140  0.511112  1
  Th  Th14  1  0.291713  0.089210  0.379986  1
  Th  Th15  1  0.291585  0.912242  0.880496  1
  Th  Th16  1  0.706905  0.094794  0.879519  1
  Th  Th17  1  0.706929  0.904032  0.379226  1
  Th  Th18  1  0.587018  0.788211  0.883084  1
  Th  Th19  1  0.588228  0.211827  0.382453  1
  Ir  Ir20  1  0.842069  0.151479  0.249547  1
  Ir  Ir21  1  0.841221  0.848947  0.749576  1
  Ir  Ir22  1  0.156138  0.148152  0.746676  1
  Ir  Ir23  1  0.155104  0.851217  0.246252  1
  Ir  Ir24  1  0.654451  0.345610  0.746018  1
  Ir  Ir25  1  0.654961  0.653734  0.245708  1
  Ir  Ir26  1  0.349763  0.342489  0.264182  1
  Ir  Ir27  1  0.350094  0.658061  0.763505  1
  Ir  Ir28  1  0.002008  0.500457  0.373273  1
  Os  Os29  1  0.501128  0.001876  0.123944  1
  Os  Os30  1  0.501219  0.998251  0.623445  1
  Os  Os31  1  0.001946  0.499307  0.869914  1
