# generated using pymatgen
data_Y2Er2CuPt3
_symmetry_space_group_name_H-M   'P 1'
_cell_length_a   4.45119800
_cell_length_b   5.60991244
_cell_length_c   7.04662623
_cell_angle_alpha   89.19483488
_cell_angle_beta   90.00000000
_cell_angle_gamma   90.00000000
_symmetry_Int_Tables_number   1
_chemical_formula_structural   Y2Er2CuPt3
_chemical_formula_sum   'Y2 Er2 Cu1 Pt3'
_cell_volume   175.94273892
_cell_formula_units_Z   1
loop_
 _symmetry_equiv_pos_site_id
 _symmetry_equiv_pos_as_xyz
  1  'x, y, z'
loop_
 _atom_site_type_symbol
 _atom_site_label
 _atom_site_symmetry_multiplicity
 _atom_site_fract_x
 _atom_site_fract_y
 _atom_site_fract_z
 _atom_site_occupancy
  Y  Y0  1  0.000000  0.641506  0.317036  1
  Y  Y1  1  0.500000  0.363426  0.686806  1
  Er  Er2  1  0.000000  0.857068  0.820348  1
  Er  Er3  1  0.500000  0.138314  0.175770  1
  Cu  Cu4  1  0.000000  0.137224  0.462532  1
  Pt  Pt5  1  0.000000  0.338437  0.957511  1
  Pt  Pt6  1  0.500000  0.867247  0.535225  1
  Pt  Pt7  1  0.500000  0.656780  0.044772  1
