# generated using pymatgen
data_Pa2RhC2
_symmetry_space_group_name_H-M   'P 1'
_cell_length_a   3.53455321
_cell_length_b   3.53455473
_cell_length_c   6.83835055
_cell_angle_alpha   104.97727552
_cell_angle_beta   104.97728385
_cell_angle_gamma   90.00000489
_symmetry_Int_Tables_number   1
_chemical_formula_structural   Pa2RhC2
_chemical_formula_sum   'Pa2 Rh1 C2'
_cell_volume   79.52162505
_cell_formula_units_Z   1
loop_
 _symmetry_equiv_pos_site_id
 _symmetry_equiv_pos_as_xyz
  1  'x, y, z'
loop_
 _atom_site_type_symbol
 _atom_site_label
 _atom_site_symmetry_multiplicity
 _atom_site_fract_x
 _atom_site_fract_y
 _atom_site_fract_z
 _atom_site_occupancy
  Pa  Pa0  1  0.647588  0.647588  0.295177  1
  Pa  Pa1  1  0.352412  0.352412  0.704823  1
  Rh  Rh2  1  0.000000  0.000000  0.000000  1
  C  C3  1  0.170274  0.170273  0.340546  1
  C  C4  1  0.829726  0.829727  0.659454  1
