# generated using pymatgen
data_La7Y3ZnGa2Si5O3
_symmetry_space_group_name_H-M   'P 1'
_cell_length_a   10.82211400
_cell_length_b   10.83605192
_cell_length_c   4.55836800
_cell_angle_alpha   90.00000000
_cell_angle_beta   90.00000000
_cell_angle_gamma   120.04261356
_symmetry_Int_Tables_number   1
_chemical_formula_structural   La7Y3ZnGa2Si5O3
_chemical_formula_sum   'La7 Y3 Zn1 Ga2 Si5 O3'
_cell_volume   462.73947448
_cell_formula_units_Z   1
loop_
 _symmetry_equiv_pos_site_id
 _symmetry_equiv_pos_as_xyz
  1  'x, y, z'
loop_
 _atom_site_type_symbol
 _atom_site_label
 _atom_site_symmetry_multiplicity
 _atom_site_fract_x
 _atom_site_fract_y
 _atom_site_fract_z
 _atom_site_occupancy
  La  La0  1  0.212953  0.787129  0.000000  1
  La  La1  1  0.574973  0.787729  0.000000  1
  La  La2  1  0.787485  0.575075  0.000000  1
  La  La3  1  0.997366  0.999026  0.000000  1
  La  La4  1  0.213663  0.426290  0.000000  1
  La  La5  1  0.426479  0.212736  0.000000  1
  La  La6  1  0.786214  0.210864  0.000000  1
  Y  Y7  1  0.999755  0.498569  0.500000  1
  Y  Y8  1  0.503169  0.503598  0.500000  1
  Y  Y9  1  0.499002  0.000620  0.500000  1
  Zn  Zn10  1  0.999120  0.776421  0.500000  1
  Ga  Ga11  1  0.996644  0.221924  0.500000  1
  Ga  Ga12  1  0.227330  0.224355  0.500000  1
  Si  Si13  1  0.772760  0.995575  0.500000  1
  Si  Si14  1  0.333034  0.666393  0.500000  1
  Si  Si15  1  0.224600  0.998523  0.500000  1
  Si  Si16  1  0.668314  0.334414  0.500000  1
  Si  Si17  1  0.776525  0.779212  0.500000  1
  O  O18  1  0.000025  0.500153  0.000000  1
  O  O19  1  0.500547  0.501289  0.000000  1
  O  O20  1  0.500041  0.000106  0.000000  1
