# generated using pymatgen
data_YbMg3Pa7Pt8Pb
_symmetry_space_group_name_H-M   'P 1'
_cell_length_a   7.80122132
_cell_length_b   7.82057025
_cell_length_c   7.35964131
_cell_angle_alpha   90.03216603
_cell_angle_beta   90.07514115
_cell_angle_gamma   90.34161192
_symmetry_Int_Tables_number   1
_chemical_formula_structural   YbMg3Pa7Pt8Pb
_chemical_formula_sum   'Yb1 Mg3 Pa7 Pt8 Pb1'
_cell_volume   449.00327229
_cell_formula_units_Z   1
loop_
 _symmetry_equiv_pos_site_id
 _symmetry_equiv_pos_as_xyz
  1  'x, y, z'
loop_
 _atom_site_type_symbol
 _atom_site_label
 _atom_site_symmetry_multiplicity
 _atom_site_fract_x
 _atom_site_fract_y
 _atom_site_fract_z
 _atom_site_occupancy
  Yb  Yb0  1  0.173463  0.829817  0.501179  1
  Mg  Mg1  1  0.496508  0.999753  0.748796  1
  Mg  Mg2  1  0.496569  0.998432  0.251260  1
  Mg  Mg3  1  0.000381  0.503636  0.746693  1
  Pa  Pa4  1  0.669958  0.674326  0.998892  1
  Pa  Pa5  1  0.331695  0.328144  0.500237  1
  Pa  Pa6  1  0.829456  0.166514  0.500642  1
  Pa  Pa7  1  0.665578  0.672698  0.501840  1
  Pa  Pa8  1  0.330783  0.326167  0.999198  1
  Pa  Pa9  1  0.829453  0.165677  0.998348  1
  Pa  Pa10  1  0.172817  0.831185  0.998530  1
  Pt  Pt11  1  0.859504  0.869371  0.750979  1
  Pt  Pt12  1  0.131043  0.142091  0.751087  1
  Pt  Pt13  1  0.637897  0.363354  0.750530  1
  Pt  Pt14  1  0.626797  0.356580  0.248353  1
  Pt  Pt15  1  0.382738  0.633527  0.241436  1
  Pt  Pt16  1  0.136631  0.128651  0.246167  1
  Pt  Pt17  1  0.856059  0.877200  0.249988  1
  Pt  Pt18  1  0.371735  0.627468  0.759326  1
  Pb  Pb19  1  0.000935  0.505408  0.256518  1
