# generated using pymatgen
data_Ca3Yb3Sm2(MgRu)2
_symmetry_space_group_name_H-M   'P 1'
_cell_length_a   10.01894981
_cell_length_b   10.01895026
_cell_length_c   10.01895100
_cell_angle_alpha   60.00000086
_cell_angle_beta   59.99999937
_cell_angle_gamma   60.00000488
_symmetry_Int_Tables_number   1
_chemical_formula_structural   Ca3Yb3Sm2(MgRu)2
_chemical_formula_sum   'Ca6 Yb6 Sm4 Mg4 Ru4'
_cell_volume   711.13440924
_cell_formula_units_Z   2
loop_
 _symmetry_equiv_pos_site_id
 _symmetry_equiv_pos_as_xyz
  1  'x, y, z'
loop_
 _atom_site_type_symbol
 _atom_site_label
 _atom_site_symmetry_multiplicity
 _atom_site_fract_x
 _atom_site_fract_y
 _atom_site_fract_z
 _atom_site_occupancy
  Ca  Ca0  1  0.950576  0.549424  0.549424  1
  Ca  Ca1  1  0.549424  0.950576  0.950576  1
  Ca  Ca2  1  0.549424  0.950576  0.549424  1
  Ca  Ca3  1  0.950576  0.549424  0.950576  1
  Ca  Ca4  1  0.549424  0.549424  0.950576  1
  Ca  Ca5  1  0.950576  0.950576  0.549424  1
  Yb  Yb6  1  0.810190  0.189810  0.189810  1
  Yb  Yb7  1  0.189810  0.810190  0.810190  1
  Yb  Yb8  1  0.189810  0.810190  0.189810  1
  Yb  Yb9  1  0.810190  0.189810  0.810190  1
  Yb  Yb10  1  0.189810  0.189810  0.810190  1
  Yb  Yb11  1  0.810190  0.810190  0.189810  1
  Sm  Sm12  1  0.339357  0.339357  0.339357  1
  Sm  Sm13  1  0.339357  0.339357  0.981927  1
  Sm  Sm14  1  0.339357  0.981927  0.339357  1
  Sm  Sm15  1  0.981927  0.339357  0.339357  1
  Mg  Mg16  1  0.577056  0.577056  0.577056  1
  Mg  Mg17  1  0.577056  0.577056  0.268833  1
  Mg  Mg18  1  0.577056  0.268833  0.577056  1
  Mg  Mg19  1  0.268833  0.577056  0.577056  1
  Ru  Ru20  1  0.138242  0.138242  0.138242  1
  Ru  Ru21  1  0.138242  0.138242  0.585274  1
  Ru  Ru22  1  0.138242  0.585274  0.138242  1
  Ru  Ru23  1  0.585274  0.138242  0.138242  1
