# generated using pymatgen
data_Zr24Si4AsSe3
_symmetry_space_group_name_H-M   'P 1'
_cell_length_a   11.03471174
_cell_length_b   11.03002013
_cell_length_c   5.48145342
_cell_angle_alpha   90.02397903
_cell_angle_beta   90.09932462
_cell_angle_gamma   90.02426388
_symmetry_Int_Tables_number   1
_chemical_formula_structural   Zr24Si4AsSe3
_chemical_formula_sum   'Zr24 Si4 As1 Se3'
_cell_volume   667.16352647
_cell_formula_units_Z   1
loop_
 _symmetry_equiv_pos_site_id
 _symmetry_equiv_pos_as_xyz
  1  'x, y, z'
loop_
 _atom_site_type_symbol
 _atom_site_label
 _atom_site_symmetry_multiplicity
 _atom_site_fract_x
 _atom_site_fract_y
 _atom_site_fract_z
 _atom_site_occupancy
  Zr  Zr0  1  0.917131  0.607720  0.534077  1
  Zr  Zr1  1  0.083177  0.392339  0.534856  1
  Zr  Zr2  1  0.892284  0.416877  0.035615  1
  Zr  Zr3  1  0.107822  0.583289  0.035250  1
  Zr  Zr4  1  0.583224  0.895139  0.965986  1
  Zr  Zr5  1  0.417309  0.105234  0.965859  1
  Zr  Zr6  1  0.605851  0.081963  0.464869  1
  Zr  Zr7  1  0.394514  0.917315  0.465250  1
  Zr  Zr8  1  0.862269  0.973085  0.719942  1
  Zr  Zr9  1  0.136934  0.026868  0.718492  1
  Zr  Zr10  1  0.526373  0.362992  0.219031  1
  Zr  Zr11  1  0.473083  0.636979  0.218254  1
  Zr  Zr12  1  0.640590  0.526551  0.781473  1
  Zr  Zr13  1  0.359161  0.473513  0.781787  1
  Zr  Zr14  1  0.973259  0.140854  0.281021  1
  Zr  Zr15  1  0.026347  0.859068  0.281619  1
  Zr  Zr16  1  0.819569  0.714620  0.009499  1
  Zr  Zr17  1  0.181184  0.286074  0.008927  1
  Zr  Zr18  1  0.786022  0.319321  0.509022  1
  Zr  Zr19  1  0.214001  0.680680  0.508960  1
  Zr  Zr20  1  0.681652  0.783188  0.488717  1
  Zr  Zr21  1  0.317898  0.216996  0.488663  1
  Zr  Zr22  1  0.717028  0.181517  0.990275  1
  Zr  Zr23  1  0.282983  0.817860  0.988342  1
  Si  Si24  1  0.705532  0.540856  0.287340  1
  Si  Si25  1  0.294287  0.459237  0.287868  1
  Si  Si26  1  0.958920  0.205708  0.787931  1
  Si  Si27  1  0.041010  0.794403  0.787370  1
  As  As28  1  0.794216  0.959690  0.213823  1
  Se  Se29  1  0.206508  0.040060  0.213123  1
  Se  Se30  1  0.540056  0.293268  0.713546  1
  Se  Se31  1  0.459805  0.706736  0.713210  1
