# generated using pymatgen
data_Nd3Dy5(InIr)2
_symmetry_space_group_name_H-M   'P 1'
_cell_length_a   9.78326386
_cell_length_b   9.78326431
_cell_length_c   9.78326500
_cell_angle_alpha   60.00000104
_cell_angle_beta   59.99999954
_cell_angle_gamma   60.00000119
_symmetry_Int_Tables_number   1
_chemical_formula_structural   Nd3Dy5(InIr)2
_chemical_formula_sum   'Nd6 Dy10 In4 Ir4'
_cell_volume   662.11950111
_cell_formula_units_Z   2
loop_
 _symmetry_equiv_pos_site_id
 _symmetry_equiv_pos_as_xyz
  1  'x, y, z'
loop_
 _atom_site_type_symbol
 _atom_site_label
 _atom_site_symmetry_multiplicity
 _atom_site_fract_x
 _atom_site_fract_y
 _atom_site_fract_z
 _atom_site_occupancy
  Nd  Nd0  1  0.941993  0.558007  0.558007  1
  Nd  Nd1  1  0.558007  0.941993  0.941993  1
  Nd  Nd2  1  0.558007  0.941993  0.558007  1
  Nd  Nd3  1  0.941993  0.558007  0.941993  1
  Nd  Nd4  1  0.558007  0.558007  0.941993  1
  Nd  Nd5  1  0.941993  0.941993  0.558007  1
  Dy  Dy6  1  0.347406  0.347406  0.347406  1
  Dy  Dy7  1  0.347406  0.347406  0.957782  1
  Dy  Dy8  1  0.347406  0.957782  0.347406  1
  Dy  Dy9  1  0.957782  0.347406  0.347406  1
  Dy  Dy10  1  0.811443  0.188557  0.188557  1
  Dy  Dy11  1  0.188557  0.811443  0.811443  1
  Dy  Dy12  1  0.188557  0.811443  0.188557  1
  Dy  Dy13  1  0.811443  0.188557  0.811443  1
  Dy  Dy14  1  0.188557  0.188557  0.811443  1
  Dy  Dy15  1  0.811443  0.811443  0.188557  1
  In  In16  1  0.580074  0.580074  0.580074  1
  In  In17  1  0.580074  0.580074  0.259778  1
  In  In18  1  0.580074  0.259778  0.580074  1
  In  In19  1  0.259778  0.580074  0.580074  1
  Ir  Ir20  1  0.140896  0.140896  0.140896  1
  Ir  Ir21  1  0.140896  0.140896  0.577313  1
  Ir  Ir22  1  0.140896  0.577313  0.140896  1
  Ir  Ir23  1  0.577313  0.140896  0.140896  1
