# generated using pymatgen
data_Y5Er3(BBr6)2
_symmetry_space_group_name_H-M   'P 1'
_cell_length_a   3.95378900
_cell_length_b   13.15909422
_cell_length_c   13.62651323
_cell_angle_alpha   89.97910611
_cell_angle_beta   90.00000000
_cell_angle_gamma   90.00000000
_symmetry_Int_Tables_number   1
_chemical_formula_structural   Y5Er3(BBr6)2
_chemical_formula_sum   'Y5 Er3 B2 Br12'
_cell_volume   708.96402530
_cell_formula_units_Z   1
loop_
 _symmetry_equiv_pos_site_id
 _symmetry_equiv_pos_as_xyz
  1  'x, y, z'
loop_
 _atom_site_type_symbol
 _atom_site_label
 _atom_site_symmetry_multiplicity
 _atom_site_fract_x
 _atom_site_fract_y
 _atom_site_fract_z
 _atom_site_occupancy
  Y  Y0  1  0.000000  0.101431  0.080553  1
  Y  Y1  1  0.500000  0.122837  0.854859  1
  Y  Y2  1  0.500000  0.876364  0.144480  1
  Y  Y3  1  0.500000  0.622862  0.644365  1
  Y  Y4  1  0.500000  0.377482  0.355994  1
  Er  Er5  1  0.000000  0.898948  0.919749  1
  Er  Er6  1  0.000000  0.600274  0.420484  1
  Er  Er7  1  0.000000  0.399986  0.579742  1
  B  B8  1  0.500000  0.999453  0.999548  1
  B  B9  1  0.500000  0.500234  0.500252  1
  Br  Br10  1  0.500000  0.269937  0.680925  1
  Br  Br11  1  0.500000  0.729979  0.318973  1
  Br  Br12  1  0.500000  0.769199  0.818384  1
  Br  Br13  1  0.500000  0.232476  0.182768  1
  Br  Br14  1  0.000000  0.261584  0.931085  1
  Br  Br15  1  0.000000  0.738590  0.066673  1
  Br  Br16  1  0.000000  0.483065  0.240074  1
  Br  Br17  1  0.000000  0.517288  0.760170  1
  Br  Br18  1  0.000000  0.980498  0.261241  1
  Br  Br19  1  0.000000  0.017251  0.739326  1
  Br  Br20  1  0.000000  0.239279  0.433832  1
  Br  Br21  1  0.000000  0.760983  0.566522  1
