# generated using pymatgen
data_Li5Tm8Sc7Si15Ge
_symmetry_space_group_name_H-M   'P 1'
_cell_length_a   6.83119978
_cell_length_b   7.34737106
_cell_length_c   13.99570089
_cell_angle_alpha   90.01534742
_cell_angle_beta   89.93862137
_cell_angle_gamma   89.99981381
_symmetry_Int_Tables_number   1
_chemical_formula_structural   Li5Tm8Sc7Si15Ge
_chemical_formula_sum   'Li5 Tm8 Sc7 Si15 Ge1'
_cell_volume   702.46282674
_cell_formula_units_Z   1
loop_
 _symmetry_equiv_pos_site_id
 _symmetry_equiv_pos_as_xyz
  1  'x, y, z'
loop_
 _atom_site_type_symbol
 _atom_site_label
 _atom_site_symmetry_multiplicity
 _atom_site_fract_x
 _atom_site_fract_y
 _atom_site_fract_z
 _atom_site_occupancy
  Li  Li0  1  0.159530  0.504490  0.749557  1
  Li  Li1  1  0.840198  0.493020  0.250438  1
  Li  Li2  1  0.340639  0.007415  0.249998  1
  Li  Li3  1  0.657421  0.994824  0.748168  1
  Li  Li4  1  0.333818  0.174977  0.626376  1
  Tm  Tm5  1  0.012596  0.182216  0.098046  1
  Tm  Tm6  1  0.987225  0.819760  0.901965  1
  Tm  Tm7  1  0.486733  0.682073  0.900841  1
  Tm  Tm8  1  0.987966  0.821235  0.598663  1
  Tm  Tm9  1  0.512473  0.318423  0.097707  1
  Tm  Tm10  1  0.011035  0.181103  0.401315  1
  Tm  Tm11  1  0.510947  0.316080  0.403458  1
  Tm  Tm12  1  0.488226  0.683664  0.598369  1
  Sc  Sc13  1  0.667909  0.822838  0.374012  1
  Sc  Sc14  1  0.170564  0.679941  0.374613  1
  Sc  Sc15  1  0.670435  0.820630  0.125854  1
  Sc  Sc16  1  0.828665  0.322760  0.627119  1
  Sc  Sc17  1  0.329881  0.178069  0.872474  1
  Sc  Sc18  1  0.830169  0.320832  0.872870  1
  Sc  Sc19  1  0.169910  0.678769  0.126557  1
  Si  Si20  1  0.031722  0.102013  0.749200  1
  Si  Si21  1  0.970556  0.899693  0.249851  1
  Si  Si22  1  0.469992  0.600991  0.250176  1
  Si  Si23  1  0.528937  0.398710  0.749744  1
  Si  Si24  1  0.279895  0.875155  0.749891  1
  Si  Si25  1  0.716582  0.123660  0.249547  1
  Si  Si26  1  0.217492  0.376589  0.249916  1
  Si  Si27  1  0.783950  0.622044  0.750086  1
  Si  Si28  1  0.836734  0.536669  0.464063  1
  Si  Si29  1  0.340943  0.964577  0.464910  1
  Si  Si30  1  0.841488  0.535583  0.035541  1
  Si  Si31  1  0.659788  0.037464  0.535480  1
  Si  Si32  1  0.160632  0.464434  0.964796  1
  Si  Si33  1  0.660715  0.036766  0.964643  1
  Si  Si34  1  0.340185  0.963985  0.035578  1
  Ge  Ge35  1  0.164053  0.458549  0.538177  1
