# generated using pymatgen
data_La2Zn7Ga
_symmetry_space_group_name_H-M   'P 1'
_cell_length_a   6.10082951
_cell_length_b   6.10082937
_cell_length_c   6.05834700
_cell_angle_alpha   90.00000000
_cell_angle_beta   90.00000000
_cell_angle_gamma   117.92406187
_symmetry_Int_Tables_number   1
_chemical_formula_structural   La2Zn7Ga
_chemical_formula_sum   'La2 Zn7 Ga1'
_cell_volume   199.23810494
_cell_formula_units_Z   1
loop_
 _symmetry_equiv_pos_site_id
 _symmetry_equiv_pos_as_xyz
  1  'x, y, z'
loop_
 _atom_site_type_symbol
 _atom_site_label
 _atom_site_symmetry_multiplicity
 _atom_site_fract_x
 _atom_site_fract_y
 _atom_site_fract_z
 _atom_site_occupancy
  La  La0  1  0.267447  0.732553  0.750000  1
  La  La1  1  0.732056  0.267944  0.250000  1
  Zn  Zn2  1  0.150208  0.849792  0.250000  1
  Zn  Zn3  1  0.608733  0.391267  0.750000  1
  Zn  Zn4  1  0.389041  0.610959  0.250000  1
  Zn  Zn5  1  0.782279  0.780541  0.001833  1
  Zn  Zn6  1  0.782279  0.780541  0.498167  1
  Zn  Zn7  1  0.219459  0.217721  0.001833  1
  Zn  Zn8  1  0.219459  0.217721  0.498167  1
  Ga  Ga9  1  0.849040  0.150960  0.750000  1
