# generated using pymatgen
data_RbNa5Th3Br18
_symmetry_space_group_name_H-M   'P 1'
_cell_length_a   7.44229397
_cell_length_b   8.45497602
_cell_length_c   18.70051000
_cell_angle_alpha   96.00137198
_cell_angle_beta   89.95835018
_cell_angle_gamma   116.10449361
_symmetry_Int_Tables_number   1
_chemical_formula_structural   RbNa5Th3Br18
_chemical_formula_sum   'Rb1 Na5 Th3 Br18'
_cell_volume   1049.54252385
_cell_formula_units_Z   1
loop_
 _symmetry_equiv_pos_site_id
 _symmetry_equiv_pos_as_xyz
  1  'x, y, z'
loop_
 _atom_site_type_symbol
 _atom_site_label
 _atom_site_symmetry_multiplicity
 _atom_site_fract_x
 _atom_site_fract_y
 _atom_site_fract_z
 _atom_site_occupancy
  Rb  Rb0  1  0.668069  0.307412  0.847258  1
  Na  Na1  1  0.778039  0.556022  0.550786  1
  Na  Na2  1  0.905827  0.808729  0.775501  1
  Na  Na3  1  0.109200  0.216531  0.222764  1
  Na  Na4  1  0.217874  0.439636  0.439708  1
  Na  Na5  1  0.542917  0.087823  0.116506  1
  Th  Th6  1  0.998377  0.997445  0.004433  1
  Th  Th7  1  0.335960  0.672739  0.660457  1
  Th  Th8  1  0.664850  0.330466  0.333135  1
  Br  Br9  1  0.670440  0.982399  0.723895  1
  Br  Br10  1  0.811041  0.228834  0.002450  1
  Br  Br11  1  0.167217  0.124338  0.870792  1
  Br  Br12  1  0.145696  0.604613  0.793341  1
  Br  Br13  1  0.559966  0.478067  0.689442  1
  Br  Br14  1  0.975962  0.636172  0.413047  1
  Br  Br15  1  0.688720  0.716260  0.913825  1
  Br  Br16  1  0.119617  0.869446  0.634902  1
  Br  Br17  1  0.531153  0.749681  0.528160  1
  Br  Br18  1  0.459584  0.241013  0.463518  1
  Br  Br19  1  0.881738  0.132565  0.358868  1
  Br  Br20  1  0.319049  0.293449  0.085022  1
  Br  Br21  1  0.025101  0.365441  0.583730  1
  Br  Br22  1  0.447274  0.526823  0.306642  1
  Br  Br23  1  0.871517  0.421209  0.205148  1
  Br  Br24  1  0.795399  0.896783  0.133999  1
  Br  Br25  1  0.211017  0.800484  0.022816  1
  Br  Br26  1  0.351727  0.022291  0.256522  1
