# generated using pymatgen
data_Tb5Er5(InSb)3
_symmetry_space_group_name_H-M   'P 1'
_cell_length_a   8.96918900
_cell_length_b   8.93179866
_cell_length_c   6.54181700
_cell_angle_alpha   90.00000000
_cell_angle_beta   90.00000000
_cell_angle_gamma   120.13857174
_symmetry_Int_Tables_number   1
_chemical_formula_structural   Tb5Er5(InSb)3
_chemical_formula_sum   'Tb5 Er5 In3 Sb3'
_cell_volume   453.22410983
_cell_formula_units_Z   1
loop_
 _symmetry_equiv_pos_site_id
 _symmetry_equiv_pos_as_xyz
  1  'x, y, z'
loop_
 _atom_site_type_symbol
 _atom_site_label
 _atom_site_symmetry_multiplicity
 _atom_site_fract_x
 _atom_site_fract_y
 _atom_site_fract_z
 _atom_site_occupancy
  Tb  Tb0  1  0.003129  0.763205  0.750000  1
  Tb  Tb1  1  0.003547  0.239553  0.250000  1
  Tb  Tb2  1  0.763994  0.760447  0.250000  1
  Tb  Tb3  1  0.760870  0.000000  0.750000  1
  Tb  Tb4  1  0.239924  0.236795  0.750000  1
  Er  Er5  1  0.238214  0.000000  0.250000  1
  Er  Er6  1  0.330575  0.666212  0.498849  1
  Er  Er7  1  0.664364  0.333788  0.001151  1
  Er  Er8  1  0.664364  0.333788  0.498849  1
  Er  Er9  1  0.330575  0.666212  0.001151  1
  In  In10  1  0.398464  0.000000  0.750000  1
  In  In11  1  0.396095  0.397464  0.250000  1
  In  In12  1  0.998631  0.602536  0.250000  1
  Sb  Sb13  1  0.997391  0.392846  0.750000  1
  Sb  Sb14  1  0.604545  0.607154  0.750000  1
  Sb  Sb15  1  0.605316  0.000000  0.250000  1
