# generated using pymatgen
data_La3In2SnPd3
_symmetry_space_group_name_H-M   'P 1'
_cell_length_a   7.85118800
_cell_length_b   7.86883271
_cell_length_c   4.12556300
_cell_angle_alpha   90.00000000
_cell_angle_beta   90.00000000
_cell_angle_gamma   119.92585122
_symmetry_Int_Tables_number   1
_chemical_formula_structural   La3In2SnPd3
_chemical_formula_sum   'La3 In2 Sn1 Pd3'
_cell_volume   220.89381318
_cell_formula_units_Z   1
loop_
 _symmetry_equiv_pos_site_id
 _symmetry_equiv_pos_as_xyz
  1  'x, y, z'
loop_
 _atom_site_type_symbol
 _atom_site_label
 _atom_site_symmetry_multiplicity
 _atom_site_fract_x
 _atom_site_fract_y
 _atom_site_fract_z
 _atom_site_occupancy
  La  La0  1  0.000779  0.586836  0.000000  1
  La  La1  1  0.413943  0.413164  0.000000  1
  La  La2  1  0.586639  0.000000  0.000000  1
  In  In3  1  0.750700  0.750368  0.500000  1
  In  In4  1  0.000332  0.249632  0.500000  1
  Sn  Sn5  1  0.246710  0.000000  0.500000  1
  Pd  Pd6  1  0.665753  0.332279  0.500000  1
  Pd  Pd7  1  0.001670  0.000000  0.000000  1
  Pd  Pd8  1  0.333474  0.667721  0.500000  1
