# generated using pymatgen
data_Dy4Tc2B16IrRh
_symmetry_space_group_name_H-M   'P 1'
_cell_length_a   3.58457800
_cell_length_b   5.97069590
_cell_length_c   11.56931014
_cell_angle_alpha   90.28019579
_cell_angle_beta   90.00000000
_cell_angle_gamma   90.00000000
_symmetry_Int_Tables_number   1
_chemical_formula_structural   Dy4Tc2B16IrRh
_chemical_formula_sum   'Dy4 Tc2 B16 Ir1 Rh1'
_cell_volume   247.60833362
_cell_formula_units_Z   1
loop_
 _symmetry_equiv_pos_site_id
 _symmetry_equiv_pos_as_xyz
  1  'x, y, z'
loop_
 _atom_site_type_symbol
 _atom_site_label
 _atom_site_symmetry_multiplicity
 _atom_site_fract_x
 _atom_site_fract_y
 _atom_site_fract_z
 _atom_site_occupancy
  Dy  Dy0  1  0.500000  0.371860  0.149488  1
  Dy  Dy1  1  0.500000  0.628487  0.850471  1
  Dy  Dy2  1  0.500000  0.128668  0.648559  1
  Dy  Dy3  1  0.500000  0.871491  0.351166  1
  Tc  Tc4  1  0.500000  0.365847  0.411241  1
  Tc  Tc5  1  0.500000  0.633753  0.589130  1
  B  B6  1  0.000000  0.112800  0.047263  1
  B  B7  1  0.000000  0.887538  0.952312  1
  B  B8  1  0.000000  0.387563  0.546401  1
  B  B9  1  0.000000  0.612672  0.453545  1
  B  B10  1  0.000000  0.135621  0.469071  1
  B  B11  1  0.000000  0.864527  0.530776  1
  B  B12  1  0.000000  0.364006  0.969266  1
  B  B13  1  0.000000  0.636343  0.030988  1
  B  B14  1  0.000000  0.024301  0.192791  1
  B  B15  1  0.000000  0.975131  0.807320  1
  B  B16  1  0.000000  0.476087  0.692027  1
  B  B17  1  0.000000  0.524259  0.307789  1
  B  B18  1  0.000000  0.212072  0.314285  1
  B  B19  1  0.000000  0.787997  0.685683  1
  B  B20  1  0.000000  0.290023  0.813640  1
  B  B21  1  0.000000  0.710187  0.186365  1
  Ir  Ir22  1  0.500000  0.141281  0.905423  1
  Rh  Rh23  1  0.500000  0.857487  0.095001  1
