# generated using pymatgen
data_Fe6Si2B
_symmetry_space_group_name_H-M   'P 1'
_cell_length_a   6.19354500
_cell_length_b   6.19354448
_cell_length_c   2.94108500
_cell_angle_alpha   90.00000000
_cell_angle_beta   90.00000000
_cell_angle_gamma   119.99999743
_symmetry_Int_Tables_number   1
_chemical_formula_structural   Fe6Si2B
_chemical_formula_sum   'Fe6 Si2 B1'
_cell_volume   97.70499741
_cell_formula_units_Z   1
loop_
 _symmetry_equiv_pos_site_id
 _symmetry_equiv_pos_as_xyz
  1  'x, y, z'
loop_
 _atom_site_type_symbol
 _atom_site_label
 _atom_site_symmetry_multiplicity
 _atom_site_fract_x
 _atom_site_fract_y
 _atom_site_fract_z
 _atom_site_occupancy
  Fe  Fe0  1  0.757375  0.757375  0.000000  1
  Fe  Fe1  1  0.000000  0.242625  0.000000  1
  Fe  Fe2  1  0.386390  0.386390  0.500000  1
  Fe  Fe3  1  0.000000  0.613610  0.500000  1
  Fe  Fe4  1  0.242625  0.000000  0.000000  1
  Fe  Fe5  1  0.613610  0.000000  0.500000  1
  Si  Si6  1  0.333333  0.666667  0.000000  1
  Si  Si7  1  0.666667  0.333333  0.000000  1
  B  B8  1  0.000000  0.000000  0.500000  1
