# generated using pymatgen
data_Dy10GaSi4Hg
_symmetry_space_group_name_H-M   'P 1'
_cell_length_a   7.49219600
_cell_length_b   8.74295901
_cell_length_c   7.49219600
_cell_angle_alpha   115.37051869
_cell_angle_beta   90.00000000
_cell_angle_gamma   115.37051869
_symmetry_Int_Tables_number   1
_chemical_formula_structural   Dy10GaSi4Hg
_chemical_formula_sum   'Dy10 Ga1 Si4 Hg1'
_cell_volume   390.40827699
_cell_formula_units_Z   1
loop_
 _symmetry_equiv_pos_site_id
 _symmetry_equiv_pos_as_xyz
  1  'x, y, z'
loop_
 _atom_site_type_symbol
 _atom_site_label
 _atom_site_symmetry_multiplicity
 _atom_site_fract_x
 _atom_site_fract_y
 _atom_site_fract_z
 _atom_site_occupancy
  Dy  Dy0  1  0.988228  0.976459  0.988228  1
  Dy  Dy1  1  0.511772  0.023541  0.511772  1
  Dy  Dy2  1  0.527645  0.716028  0.683707  1
  Dy  Dy3  1  0.188384  0.716028  0.032322  1
  Dy  Dy4  1  0.683707  0.716028  0.188384  1
  Dy  Dy5  1  0.032322  0.716028  0.527645  1
  Dy  Dy6  1  0.467678  0.283972  0.311616  1
  Dy  Dy7  1  0.816293  0.283972  0.972355  1
  Dy  Dy8  1  0.311616  0.283972  0.816293  1
  Dy  Dy9  1  0.972355  0.283972  0.467678  1
  Ga  Ga10  1  0.750000  0.500000  0.750000  1
  Si  Si11  1  0.877623  0.000000  0.622377  1
  Si  Si12  1  0.122377  0.000000  0.377623  1
  Si  Si13  1  0.622377  0.000000  0.122377  1
  Si  Si14  1  0.377623  0.000000  0.877623  1
  Hg  Hg15  1  0.250000  0.500000  0.250000  1
