# generated using pymatgen
data_LiTiBeB2Rh5
_symmetry_space_group_name_H-M   'P 1'
_cell_length_a   2.86740000
_cell_length_b   9.17819100
_cell_length_c   9.07499200
_cell_angle_alpha   90.00000000
_cell_angle_beta   90.00000000
_cell_angle_gamma   90.00000000
_symmetry_Int_Tables_number   1
_chemical_formula_structural   LiTiBeB2Rh5
_chemical_formula_sum   'Li2 Ti2 Be2 B4 Rh10'
_cell_volume   238.83150919
_cell_formula_units_Z   2
loop_
 _symmetry_equiv_pos_site_id
 _symmetry_equiv_pos_as_xyz
  1  'x, y, z'
loop_
 _atom_site_type_symbol
 _atom_site_label
 _atom_site_symmetry_multiplicity
 _atom_site_fract_x
 _atom_site_fract_y
 _atom_site_fract_z
 _atom_site_occupancy
  Li  Li0  1  0.000000  0.825049  0.178160  1
  Li  Li1  1  0.000000  0.325049  0.321841  1
  Ti  Ti2  1  0.000000  0.676058  0.669533  1
  Ti  Ti3  1  0.000000  0.176059  0.830467  1
  Be  Be4  1  0.000000  0.497078  0.994909  1
  Be  Be5  1  0.000000  0.997078  0.505091  1
  B  B6  1  0.000000  0.132288  0.140782  1
  B  B7  1  0.000000  0.632288  0.359219  1
  B  B8  1  0.000000  0.371547  0.621545  1
  B  B9  1  0.000000  0.871547  0.878456  1
  Rh  Rh10  1  0.499999  0.000347  0.004716  1
  Rh  Rh11  1  0.499999  0.291352  0.064602  1
  Rh  Rh12  1  0.499999  0.570608  0.199142  1
  Rh  Rh13  1  0.499999  0.070607  0.300860  1
  Rh  Rh14  1  0.499999  0.791352  0.435399  1
  Rh  Rh15  1  0.499999  0.500347  0.495284  1
  Rh  Rh16  1  0.499999  0.204639  0.578026  1
  Rh  Rh17  1  0.499999  0.931039  0.710175  1
  Rh  Rh18  1  0.499999  0.431039  0.789827  1
  Rh  Rh19  1  0.499999  0.704639  0.921976  1
