# generated using pymatgen
data_K4Ti6CBr18
_symmetry_space_group_name_H-M   'P 1'
_cell_length_a   10.20029809
_cell_length_b   10.37298136
_cell_length_c   10.48855230
_cell_angle_alpha   118.44233168
_cell_angle_beta   100.12662421
_cell_angle_gamma   103.85090657
_symmetry_Int_Tables_number   1
_chemical_formula_structural   K4Ti6CBr18
_chemical_formula_sum   'K4 Ti6 C1 Br18'
_cell_volume   891.16756705
_cell_formula_units_Z   1
loop_
 _symmetry_equiv_pos_site_id
 _symmetry_equiv_pos_as_xyz
  1  'x, y, z'
loop_
 _atom_site_type_symbol
 _atom_site_label
 _atom_site_symmetry_multiplicity
 _atom_site_fract_x
 _atom_site_fract_y
 _atom_site_fract_z
 _atom_site_occupancy
  K  K0  1  0.184894  0.724418  0.562821  1
  K  K1  1  0.848356  0.962714  0.772835  1
  K  K2  1  0.151644  0.037286  0.227165  1
  K  K3  1  0.815106  0.275582  0.437179  1
  Ti  Ti4  1  0.360465  0.448554  0.786477  1
  Ti  Ti5  1  0.371075  0.618047  0.123691  1
  Ti  Ti6  1  0.635600  0.722167  0.041678  1
  Ti  Ti7  1  0.639535  0.551446  0.213523  1
  Ti  Ti8  1  0.364400  0.277833  0.958322  1
  Ti  Ti9  1  0.628925  0.381953  0.876309  1
  C  C10  1  0.500000  0.500000  0.000000  1
  Br  Br11  1  0.810178  0.425330  0.105859  1
  Br  Br12  1  0.514021  0.696821  0.393232  1
  Br  Br13  1  0.185964  0.989851  0.902860  1
  Br  Br14  1  0.189822  0.574670  0.894141  1
  Br  Br15  1  0.818821  0.819994  0.298961  1
  Br  Br16  1  0.503868  0.301883  0.201584  1
  Br  Br17  1  0.791165  0.232164  0.719727  1
  Br  Br18  1  0.181179  0.180006  0.701039  1
  Br  Br19  1  0.508256  0.895608  0.190339  1
  Br  Br20  1  0.806561  0.622612  0.906421  1
  Br  Br21  1  0.208835  0.767836  0.280273  1
  Br  Br22  1  0.174823  0.381937  0.509677  1
  Br  Br23  1  0.496132  0.698117  0.798416  1
  Br  Br24  1  0.814036  0.010149  0.097140  1
  Br  Br25  1  0.485979  0.303179  0.606768  1
  Br  Br26  1  0.193439  0.377388  0.093579  1
  Br  Br27  1  0.825177  0.618063  0.490323  1
  Br  Br28  1  0.491744  0.104392  0.809661  1
