# generated using pymatgen
data_Yb3Pr(Tc2C3)2
_symmetry_space_group_name_H-M   'P 1'
_cell_length_a   6.55011000
_cell_length_b   5.74969705
_cell_length_c   11.99204028
_cell_angle_alpha   66.37360604
_cell_angle_beta   90.00000000
_cell_angle_gamma   90.00000000
_symmetry_Int_Tables_number   1
_chemical_formula_structural   Yb3Pr(Tc2C3)2
_chemical_formula_sum   'Yb6 Pr2 Tc8 C12'
_cell_volume   413.77723329
_cell_formula_units_Z   2
loop_
 _symmetry_equiv_pos_site_id
 _symmetry_equiv_pos_as_xyz
  1  'x, y, z'
loop_
 _atom_site_type_symbol
 _atom_site_label
 _atom_site_symmetry_multiplicity
 _atom_site_fract_x
 _atom_site_fract_y
 _atom_site_fract_z
 _atom_site_occupancy
  Yb  Yb0  1  0.797582  0.659035  0.906119  1
  Yb  Yb1  1  0.297582  0.340965  0.593881  1
  Yb  Yb2  1  0.195922  0.320058  0.082202  1
  Yb  Yb3  1  0.695922  0.679942  0.417798  1
  Yb  Yb4  1  0.989200  0.733680  0.636402  1
  Yb  Yb5  1  0.489200  0.266320  0.863598  1
  Pr  Pr6  1  0.005719  0.274817  0.362579  1
  Pr  Pr7  1  0.505719  0.725183  0.137421  1
  Tc  Tc8  1  0.990650  0.826425  0.114528  1
  Tc  Tc9  1  0.490650  0.173575  0.385472  1
  Tc  Tc10  1  0.010689  0.179480  0.875943  1
  Tc  Tc11  1  0.510689  0.820520  0.624057  1
  Tc  Tc12  1  0.756900  0.180200  0.664804  1
  Tc  Tc13  1  0.237984  0.821260  0.337160  1
  Tc  Tc14  1  0.737984  0.178740  0.162840  1
  Tc  Tc15  1  0.256900  0.819800  0.835196  1
  C  C16  1  0.637608  0.508433  0.652097  1
  C  C17  1  0.137608  0.491567  0.847903  1
  C  C18  1  0.370539  0.488789  0.360382  1
  C  C19  1  0.870539  0.511211  0.139618  1
  C  C20  1  0.218058  0.909758  0.986086  1
  C  C21  1  0.718058  0.090242  0.513914  1
  C  C22  1  0.796482  0.120715  0.006703  1
  C  C23  1  0.296482  0.879285  0.493297  1
  C  C24  1  0.470728  0.049073  0.243161  1
  C  C25  1  0.021941  0.036042  0.740870  1
  C  C26  1  0.970728  0.950927  0.256839  1
  C  C27  1  0.521941  0.963958  0.759130  1
