# generated using pymatgen
data_Hf2SbRh5
_symmetry_space_group_name_H-M   'P 1'
_cell_length_a   4.15464100
_cell_length_b   5.65012600
_cell_length_c   11.08245700
_cell_angle_alpha   90.00000000
_cell_angle_beta   90.00000000
_cell_angle_gamma   90.00000000
_symmetry_Int_Tables_number   1
_chemical_formula_structural   Hf2SbRh5
_chemical_formula_sum   'Hf4 Sb2 Rh10'
_cell_volume   260.15231231
_cell_formula_units_Z   2
loop_
 _symmetry_equiv_pos_site_id
 _symmetry_equiv_pos_as_xyz
  1  'x, y, z'
loop_
 _atom_site_type_symbol
 _atom_site_label
 _atom_site_symmetry_multiplicity
 _atom_site_fract_x
 _atom_site_fract_y
 _atom_site_fract_z
 _atom_site_occupancy
  Hf  Hf0  1  0.500000  0.171499  0.644397  1
  Hf  Hf1  1  0.500000  0.828501  0.355603  1
  Hf  Hf2  1  0.500000  0.671499  0.855603  1
  Hf  Hf3  1  0.500000  0.328501  0.144397  1
  Sb  Sb4  1  0.000000  0.500000  0.500000  1
  Sb  Sb5  1  0.000000  0.000000  0.000000  1
  Rh  Rh6  1  0.500000  0.195252  0.888573  1
  Rh  Rh7  1  0.500000  0.804748  0.111427  1
  Rh  Rh8  1  0.500000  0.695252  0.611427  1
  Rh  Rh9  1  0.500000  0.304748  0.388573  1
  Rh  Rh10  1  0.000000  0.431484  0.745977  1
  Rh  Rh11  1  0.000000  0.568516  0.254023  1
  Rh  Rh12  1  0.000000  0.000000  0.500000  1
  Rh  Rh13  1  0.000000  0.500000  0.000000  1
  Rh  Rh14  1  0.000000  0.068516  0.245977  1
  Rh  Rh15  1  0.000000  0.931484  0.754023  1
