# generated using pymatgen
data_YHo5Rh18
_symmetry_space_group_name_H-M   'P 1'
_cell_length_a   5.25833400
_cell_length_b   5.25813969
_cell_length_c   17.58048700
_cell_angle_alpha   90.00000000
_cell_angle_beta   90.00000000
_cell_angle_gamma   119.99893332
_symmetry_Int_Tables_number   1
_chemical_formula_structural   YHo5Rh18
_chemical_formula_sum   'Y1 Ho5 Rh18'
_cell_volume   420.96548489
_cell_formula_units_Z   1
loop_
 _symmetry_equiv_pos_site_id
 _symmetry_equiv_pos_as_xyz
  1  'x, y, z'
loop_
 _atom_site_type_symbol
 _atom_site_label
 _atom_site_symmetry_multiplicity
 _atom_site_fract_x
 _atom_site_fract_y
 _atom_site_fract_z
 _atom_site_occupancy
  Y  Y0  1  0.666667  0.333333  0.250000  1
  Ho  Ho1  1  0.333332  0.666666  0.957960  1
  Ho  Ho2  1  0.666667  0.333333  0.041972  1
  Ho  Ho3  1  0.666667  0.333333  0.458028  1
  Ho  Ho4  1  0.333332  0.666666  0.542040  1
  Ho  Ho5  1  0.333334  0.666667  0.750000  1
  Rh  Rh6  1  0.167241  0.832760  0.374381  1
  Rh  Rh7  1  0.167241  0.334481  0.374381  1
  Rh  Rh8  1  0.665521  0.832761  0.374380  1
  Rh  Rh9  1  0.832749  0.167250  0.625673  1
  Rh  Rh10  1  0.832750  0.665499  0.625674  1
  Rh  Rh11  1  0.334500  0.167250  0.625675  1
  Rh  Rh12  1  0.832749  0.167250  0.874327  1
  Rh  Rh13  1  0.832750  0.665499  0.874326  1
  Rh  Rh14  1  0.334500  0.167250  0.874325  1
  Rh  Rh15  1  0.167241  0.832760  0.125619  1
  Rh  Rh16  1  0.167241  0.334481  0.125619  1
  Rh  Rh17  1  0.665521  0.832761  0.125620  1
  Rh  Rh18  1  0.333331  0.666665  0.250000  1
  Rh  Rh19  1  0.666668  0.333335  0.750000  1
  Rh  Rh20  1  0.999999  0.000000  0.250000  1
  Rh  Rh21  1  0.000002  0.000002  0.750000  1
  Rh  Rh22  1  0.999998  0.999998  0.500001  1
  Rh  Rh23  1  0.999998  0.999998  0.999999  1
