# generated using pymatgen
data_Ti12Sn4O
_symmetry_space_group_name_H-M   'P 1'
_cell_length_a   5.92680500
_cell_length_b   4.76767846
_cell_length_c   10.23999654
_cell_angle_alpha   89.96042576
_cell_angle_beta   90.00000000
_cell_angle_gamma   90.00000000
_symmetry_Int_Tables_number   1
_chemical_formula_structural   Ti12Sn4O
_chemical_formula_sum   'Ti12 Sn4 O1'
_cell_volume   289.35254271
_cell_formula_units_Z   1
loop_
 _symmetry_equiv_pos_site_id
 _symmetry_equiv_pos_as_xyz
  1  'x, y, z'
loop_
 _atom_site_type_symbol
 _atom_site_label
 _atom_site_symmetry_multiplicity
 _atom_site_fract_x
 _atom_site_fract_y
 _atom_site_fract_z
 _atom_site_occupancy
  Ti  Ti0  1  0.000000  0.761240  0.164978  1
  Ti  Ti1  1  0.500000  0.752957  0.661566  1
  Ti  Ti2  1  0.746618  0.752642  0.418883  1
  Ti  Ti3  1  0.247021  0.759357  0.917042  1
  Ti  Ti4  1  0.253382  0.752642  0.418883  1
  Ti  Ti5  1  0.752979  0.759357  0.917042  1
  Ti  Ti6  1  0.500000  0.247043  0.338434  1
  Ti  Ti7  1  0.000000  0.238760  0.835022  1
  Ti  Ti8  1  0.752979  0.240643  0.082958  1
  Ti  Ti9  1  0.253382  0.247358  0.581117  1
  Ti  Ti10  1  0.247021  0.240643  0.082958  1
  Ti  Ti11  1  0.746618  0.247358  0.581117  1
  Sn  Sn12  1  0.500000  0.747107  0.167401  1
  Sn  Sn13  1  0.000000  0.746340  0.666809  1
  Sn  Sn14  1  0.000000  0.253660  0.333191  1
  Sn  Sn15  1  0.500000  0.252893  0.832598  1
  O  O16  1  0.000000  0.500000  0.000000  1
