# generated using pymatgen
data_CrRh7(Se2O5)12
_symmetry_space_group_name_H-M   'P 1'
_cell_length_a   11.64486000
_cell_length_b   11.18337772
_cell_length_c   15.63951300
_cell_angle_alpha   49.69718803
_cell_angle_beta   90.00000000
_cell_angle_gamma   90.00000000
_symmetry_Int_Tables_number   1
_chemical_formula_structural   CrRh7(Se2O5)12
_chemical_formula_sum   'Cr1 Rh7 Se24 O60'
_cell_volume   1553.27419111
_cell_formula_units_Z   1
loop_
 _symmetry_equiv_pos_site_id
 _symmetry_equiv_pos_as_xyz
  1  'x, y, z'
loop_
 _atom_site_type_symbol
 _atom_site_label
 _atom_site_symmetry_multiplicity
 _atom_site_fract_x
 _atom_site_fract_y
 _atom_site_fract_z
 _atom_site_occupancy
  Cr  Cr0  1  0.500000  0.000000  0.000000  1
  Rh  Rh1  1  0.000000  0.500000  0.500000  1
  Rh  Rh2  1  0.500000  0.500000  0.000000  1
  Rh  Rh3  1  0.000000  0.000000  0.500000  1
  Rh  Rh4  1  0.500000  0.500000  0.500000  1
  Rh  Rh5  1  0.000000  0.500000  0.000000  1
  Rh  Rh6  1  0.500000  0.000000  0.500000  1
  Rh  Rh7  1  0.000000  0.000000  0.000000  1
  Se  Se8  1  0.030875  0.118184  0.743436  1
  Se  Se9  1  0.468895  0.119243  0.243338  1
  Se  Se10  1  0.969125  0.881816  0.256564  1
  Se  Se11  1  0.531105  0.880757  0.756662  1
  Se  Se12  1  0.956020  0.832885  0.753059  1
  Se  Se13  1  0.544403  0.832348  0.253794  1
  Se  Se14  1  0.043980  0.167115  0.246941  1
  Se  Se15  1  0.455597  0.167652  0.746206  1
  Se  Se16  1  0.607747  0.658825  0.606480  1
  Se  Se17  1  0.892089  0.659554  0.105864  1
  Se  Se18  1  0.392253  0.341175  0.393520  1
  Se  Se19  1  0.107911  0.340446  0.894136  1
  Se  Se20  1  0.870663  0.702358  0.547737  1
  Se  Se21  1  0.629872  0.701416  0.046750  1
  Se  Se22  1  0.129337  0.297642  0.452263  1
  Se  Se23  1  0.370128  0.298584  0.953250  1
  Se  Se24  1  0.747422  0.390548  0.483752  1
  Se  Se25  1  0.752989  0.390005  0.984771  1
  Se  Se26  1  0.252578  0.609452  0.516248  1
  Se  Se27  1  0.247011  0.609995  0.015229  1
  Se  Se28  1  0.746806  0.163494  0.425272  1
  Se  Se29  1  0.754677  0.165470  0.924045  1
  Se  Se30  1  0.253194  0.836506  0.574728  1
  Se  Se31  1  0.245323  0.834530  0.075955  1
  O  O32  1  0.926739  0.967224  0.781342  1
  O  O33  1  0.572235  0.967667  0.281197  1
  O  O34  1  0.073261  0.032776  0.218658  1
  O  O35  1  0.427765  0.032333  0.718803  1
  O  O36  1  0.967561  0.262749  0.614900  1
  O  O37  1  0.532794  0.263051  0.115147  1
  O  O38  1  0.032439  0.737251  0.385100  1
  O  O39  1  0.467206  0.736949  0.884853  1
  O  O40  1  0.977663  0.153581  0.827581  1
  O  O41  1  0.523051  0.153613  0.327714  1
  O  O42  1  0.022337  0.846419  0.172419  1
  O  O43  1  0.476949  0.846387  0.672286  1
  O  O44  1  0.055903  0.707076  0.853227  1
  O  O45  1  0.443578  0.706501  0.352775  1
  O  O46  1  0.944097  0.292924  0.146773  1
  O  O47  1  0.556422  0.293499  0.647225  1
  O  O48  1  0.052956  0.950043  0.644941  1
  O  O49  1  0.451069  0.948255  0.143630  1
  O  O50  1  0.947044  0.049957  0.355059  1
  O  O51  1  0.548931  0.051745  0.856370  1
  O  O52  1  0.755184  0.618225  0.655839  1
  O  O53  1  0.744792  0.619106  0.155080  1
  O  O54  1  0.244816  0.381775  0.344161  1
  O  O55  1  0.255208  0.380894  0.844920  1
  O  O56  1  0.623318  0.859705  0.512960  1
  O  O57  1  0.876776  0.860461  0.011701  1
  O  O58  1  0.376682  0.140295  0.487040  1
  O  O59  1  0.123224  0.139539  0.988299  1
  O  O60  1  0.620699  0.617184  0.518048  1
  O  O61  1  0.878665  0.616025  0.018523  1
  O  O62  1  0.379301  0.382816  0.481952  1
  O  O63  1  0.121335  0.383975  0.981477  1
  O  O64  1  0.960842  0.764602  0.599432  1
  O  O65  1  0.543325  0.770853  0.094190  1
  O  O66  1  0.039158  0.235398  0.400568  1
  O  O67  1  0.456675  0.229147  0.905810  1
  O  O68  1  0.928223  0.522671  0.608815  1
  O  O69  1  0.569011  0.522823  0.109615  1
  O  O70  1  0.071777  0.477329  0.391185  1
  O  O71  1  0.430989  0.477177  0.890385  1
  O  O72  1  0.789781  0.345474  0.392852  1
  O  O73  1  0.709545  0.344988  0.894279  1
  O  O74  1  0.210219  0.654526  0.607148  1
  O  O75  1  0.290455  0.655012  0.105721  1
  O  O76  1  0.623688  0.489136  0.411095  1
  O  O77  1  0.876442  0.488536  0.911462  1
  O  O78  1  0.376312  0.510864  0.588905  1
  O  O79  1  0.123558  0.511464  0.088538  1
  O  O80  1  0.842262  0.543253  0.424753  1
  O  O81  1  0.658474  0.542970  0.926148  1
  O  O82  1  0.157738  0.456747  0.575247  1
  O  O83  1  0.341526  0.457030  0.073852  1
  O  O84  1  0.837612  0.031011  0.534166  1
  O  O85  1  0.660787  0.034798  0.027912  1
  O  O86  1  0.162388  0.968989  0.465834  1
  O  O87  1  0.339213  0.965202  0.972088  1
  O  O88  1  0.624624  0.129332  0.501176  1
  O  O89  1  0.875826  0.129326  0.001933  1
  O  O90  1  0.375376  0.870668  0.498824  1
  O  O91  1  0.124174  0.870674  0.998067  1
