# generated using pymatgen
data_CaHoAlO4
_symmetry_space_group_name_H-M   'P 1'
_cell_length_a   11.31143900
_cell_length_b   5.24964000
_cell_length_c   6.55404500
_cell_angle_alpha   89.99964179
_cell_angle_beta   89.99987802
_cell_angle_gamma   90.00008026
_symmetry_Int_Tables_number   1
_chemical_formula_structural   CaHoAlO4
_chemical_formula_sum   'Ca4 Ho4 Al4 O16'
_cell_volume   389.18563231
_cell_formula_units_Z   4
loop_
 _symmetry_equiv_pos_site_id
 _symmetry_equiv_pos_as_xyz
  1  'x, y, z'
loop_
 _atom_site_type_symbol
 _atom_site_label
 _atom_site_symmetry_multiplicity
 _atom_site_fract_x
 _atom_site_fract_y
 _atom_site_fract_z
 _atom_site_occupancy
  Ca  Ca0  1  0.499956  0.499907  0.487099  1
  Ca  Ca1  1  0.500034  0.500103  0.987100  1
  Ca  Ca2  1  0.000049  0.999910  0.987081  1
  Ca  Ca3  1  0.999968  0.000121  0.487085  1
  Ho  Ho4  1  0.221354  0.501959  0.237138  1
  Ho  Ho5  1  0.778641  0.498031  0.737131  1
  Ho  Ho6  1  0.278651  0.001957  0.737136  1
  Ho  Ho7  1  0.721362  0.998031  0.237129  1
  Al  Al8  1  0.401774  0.060365  0.237072  1
  Al  Al9  1  0.598219  0.939633  0.737072  1
  Al  Al10  1  0.098223  0.560355  0.737063  1
  Al  Al11  1  0.901778  0.439632  0.237066  1
  O  O12  1  0.397642  0.726916  0.237152  1
  O  O13  1  0.602354  0.273087  0.737151  1
  O  O14  1  0.102363  0.226927  0.737145  1
  O  O15  1  0.897645  0.773090  0.237143  1
  O  O16  1  0.169960  0.719264  0.526129  1
  O  O17  1  0.830043  0.280736  0.026119  1
  O  O18  1  0.330042  0.219260  0.026129  1
  O  O19  1  0.669950  0.780736  0.526125  1
  O  O20  1  0.330043  0.219299  0.448335  1
  O  O21  1  0.669951  0.780695  0.948330  1
  O  O22  1  0.169956  0.719299  0.948327  1
  O  O23  1  0.830044  0.280695  0.448332  1
  O  O24  1  0.547396  0.197491  0.237109  1
  O  O25  1  0.452605  0.802512  0.737110  1
  O  O26  1  0.952604  0.697484  0.737097  1
  O  O27  1  0.047398  0.302506  0.237100  1
