# generated using pymatgen
data_Er7Tm3(Ir2Os)2
_symmetry_space_group_name_H-M   'P 1'
_cell_length_a   10.74317400
_cell_length_b   10.74112400
_cell_length_c   6.35462900
_cell_angle_alpha   90.00012712
_cell_angle_beta   89.99927669
_cell_angle_gamma   89.99813319
_symmetry_Int_Tables_number   1
_chemical_formula_structural   Er7Tm3(Ir2Os)2
_chemical_formula_sum   'Er14 Tm6 Ir8 Os4'
_cell_volume   733.28455947
_cell_formula_units_Z   2
loop_
 _symmetry_equiv_pos_site_id
 _symmetry_equiv_pos_as_xyz
  1  'x, y, z'
loop_
 _atom_site_type_symbol
 _atom_site_label
 _atom_site_symmetry_multiplicity
 _atom_site_fract_x
 _atom_site_fract_y
 _atom_site_fract_z
 _atom_site_occupancy
  Er  Er0  1  0.293322  0.086217  0.376075  1
  Er  Er1  1  0.293317  0.913766  0.876065  1
  Er  Er2  1  0.706637  0.086176  0.876165  1
  Er  Er3  1  0.706632  0.913808  0.376171  1
  Er  Er4  1  0.586191  0.793341  0.876107  1
  Er  Er5  1  0.586187  0.206667  0.376148  1
  Er  Er6  1  0.413794  0.793337  0.376158  1
  Er  Er7  1  0.413812  0.206663  0.876150  1
  Er  Er8  1  0.206524  0.413869  0.623898  1
  Er  Er9  1  0.206533  0.586138  0.123874  1
  Er  Er10  1  0.793464  0.413790  0.123842  1
  Er  Er11  1  0.793471  0.586226  0.623878  1
  Er  Er12  1  0.913886  0.706609  0.123881  1
  Er  Er13  1  0.913879  0.293408  0.623893  1
  Tm  Tm14  1  0.086120  0.706416  0.623671  1
  Tm  Tm15  1  0.086113  0.293586  0.123671  1
  Tm  Tm16  1  0.000079  0.999921  0.499999  1
  Tm  Tm17  1  0.000054  0.000082  0.999995  1
  Tm  Tm18  1  0.499996  0.499986  0.999990  1
  Tm  Tm19  1  0.500006  0.500028  0.499992  1
  Ir  Ir20  1  0.847918  0.152245  0.249949  1
  Ir  Ir21  1  0.847910  0.847745  0.749944  1
  Ir  Ir22  1  0.152143  0.152287  0.750327  1
  Ir  Ir23  1  0.152139  0.847720  0.250361  1
  Ir  Ir24  1  0.652211  0.347800  0.750000  1
  Ir  Ir25  1  0.652202  0.652201  0.250009  1
  Ir  Ir26  1  0.347598  0.347782  0.249909  1
  Ir  Ir27  1  0.347609  0.652219  0.749899  1
  Os  Os28  1  0.499973  0.999992  0.122853  1
  Os  Os29  1  0.499988  0.000000  0.622870  1
  Os  Os30  1  0.000151  0.499949  0.877124  1
  Os  Os31  1  0.000142  0.500029  0.377132  1
