# generated using pymatgen
data_K3La(BO3)2
_symmetry_space_group_name_H-M   'P 1'
_cell_length_a   5.72174000
_cell_length_b   7.13491200
_cell_length_c   9.73690900
_cell_angle_alpha   90.00000000
_cell_angle_beta   90.00000000
_cell_angle_gamma   90.00000000
_symmetry_Int_Tables_number   1
_chemical_formula_structural   K3La(BO3)2
_chemical_formula_sum   'K6 La2 B4 O12'
_cell_volume   397.50065758
_cell_formula_units_Z   2
loop_
 _symmetry_equiv_pos_site_id
 _symmetry_equiv_pos_as_xyz
  1  'x, y, z'
loop_
 _atom_site_type_symbol
 _atom_site_label
 _atom_site_symmetry_multiplicity
 _atom_site_fract_x
 _atom_site_fract_y
 _atom_site_fract_z
 _atom_site_occupancy
  K  K0  1  0.000000  0.231387  0.332129  1
  K  K1  1  0.000000  0.768613  0.667871  1
  K  K2  1  0.500000  0.731387  0.167871  1
  K  K3  1  0.500000  0.500000  0.500000  1
  K  K4  1  0.500000  0.268613  0.832129  1
  K  K5  1  0.000000  0.000000  0.000000  1
  La  La6  1  0.000000  0.500000  0.000000  1
  La  La7  1  0.500000  0.000000  0.500000  1
  B  B8  1  0.000000  0.760371  0.334261  1
  B  B9  1  0.000000  0.239629  0.665739  1
  B  B10  1  0.500000  0.739629  0.834261  1
  B  B11  1  0.500000  0.260371  0.165739  1
  O  O12  1  0.711328  0.290502  0.097539  1
  O  O13  1  0.211328  0.209498  0.597539  1
  O  O14  1  0.500000  0.201586  0.302533  1
  O  O15  1  0.711328  0.709498  0.902461  1
  O  O16  1  0.288672  0.290502  0.097539  1
  O  O17  1  0.211328  0.790502  0.402461  1
  O  O18  1  0.788672  0.209498  0.597539  1
  O  O19  1  0.288672  0.709498  0.902461  1
  O  O20  1  0.788672  0.790502  0.402461  1
  O  O21  1  0.000000  0.298414  0.802533  1
  O  O22  1  0.000000  0.701586  0.197467  1
  O  O23  1  0.500000  0.798414  0.697467  1
