# generated using pymatgen
data_Nd4Al4IrPd2Pt
_symmetry_space_group_name_H-M   'P 1'
_cell_length_a   4.51737500
_cell_length_b   7.10804307
_cell_length_c   7.92949448
_cell_angle_alpha   89.97227307
_cell_angle_beta   90.00000000
_cell_angle_gamma   90.00000000
_symmetry_Int_Tables_number   1
_chemical_formula_structural   Nd4Al4IrPd2Pt
_chemical_formula_sum   'Nd4 Al4 Ir1 Pd2 Pt1'
_cell_volume   254.61362775
_cell_formula_units_Z   1
loop_
 _symmetry_equiv_pos_site_id
 _symmetry_equiv_pos_as_xyz
  1  'x, y, z'
loop_
 _atom_site_type_symbol
 _atom_site_label
 _atom_site_symmetry_multiplicity
 _atom_site_fract_x
 _atom_site_fract_y
 _atom_site_fract_z
 _atom_site_occupancy
  Nd  Nd0  1  0.750000  0.469275  0.180487  1
  Nd  Nd1  1  0.250000  0.024830  0.680499  1
  Nd  Nd2  1  0.750000  0.962009  0.320292  1
  Nd  Nd3  1  0.250000  0.536786  0.815671  1
  Al  Al4  1  0.750000  0.851430  0.932605  1
  Al  Al5  1  0.250000  0.648468  0.436866  1
  Al  Al6  1  0.750000  0.362424  0.564275  1
  Al  Al7  1  0.250000  0.142258  0.063600  1
  Ir  Ir8  1  0.750000  0.722991  0.616140  1
  Pd  Pd9  1  0.750000  0.218031  0.886814  1
  Pd  Pd10  1  0.250000  0.281172  0.386097  1
  Pt  Pt11  1  0.250000  0.780326  0.116654  1
