# generated using pymatgen
data_CaPr2(BPt2)3
_symmetry_space_group_name_H-M   'P 1'
_cell_length_a   5.56205300
_cell_length_b   5.50268283
_cell_length_c   7.82106200
_cell_angle_alpha   90.00000000
_cell_angle_beta   90.00000000
_cell_angle_gamma   120.35754802
_symmetry_Int_Tables_number   1
_chemical_formula_structural   CaPr2(BPt2)3
_chemical_formula_sum   'Ca1 Pr2 B3 Pt6'
_cell_volume   206.55225787
_cell_formula_units_Z   1
loop_
 _symmetry_equiv_pos_site_id
 _symmetry_equiv_pos_as_xyz
  1  'x, y, z'
loop_
 _atom_site_type_symbol
 _atom_site_label
 _atom_site_symmetry_multiplicity
 _atom_site_fract_x
 _atom_site_fract_y
 _atom_site_fract_z
 _atom_site_occupancy
  Ca  Ca0  1  0.500000  0.000000  0.500000  1
  Pr  Pr1  1  0.000000  0.500000  0.172496  1
  Pr  Pr2  1  0.500000  0.500000  0.827504  1
  B  B3  1  0.500000  0.000000  0.000000  1
  B  B4  1  0.000000  0.500000  0.659987  1
  B  B5  1  0.500000  0.500000  0.340013  1
  Pt  Pt6  1  0.146032  0.292064  0.500000  1
  Pt  Pt7  1  0.694703  0.845948  0.167514  1
  Pt  Pt8  1  0.853968  0.707936  0.500000  1
  Pt  Pt9  1  0.305297  0.154052  0.167514  1
  Pt  Pt10  1  0.151246  0.845948  0.832486  1
  Pt  Pt11  1  0.848754  0.154052  0.832486  1
