# generated using pymatgen
data_SmTmTcB6
_symmetry_space_group_name_H-M   'P 1'
_cell_length_a   3.69196000
_cell_length_b   9.16758100
_cell_length_c   11.58865500
_cell_angle_alpha   90.00000000
_cell_angle_beta   90.00000000
_cell_angle_gamma   90.00000000
_symmetry_Int_Tables_number   1
_chemical_formula_structural   SmTmTcB6
_chemical_formula_sum   'Sm4 Tm4 Tc4 B24'
_cell_volume   392.23358449
_cell_formula_units_Z   4
loop_
 _symmetry_equiv_pos_site_id
 _symmetry_equiv_pos_as_xyz
  1  'x, y, z'
loop_
 _atom_site_type_symbol
 _atom_site_label
 _atom_site_symmetry_multiplicity
 _atom_site_fract_x
 _atom_site_fract_y
 _atom_site_fract_z
 _atom_site_occupancy
  Sm  Sm0  1  0.000000  0.323491  0.414594  1
  Sm  Sm1  1  0.000000  0.676509  0.585406  1
  Sm  Sm2  1  0.000000  0.823491  0.085406  1
  Sm  Sm3  1  0.000000  0.176509  0.914594  1
  Tm  Tm4  1  0.000000  0.943178  0.369413  1
  Tm  Tm5  1  0.000000  0.056822  0.630587  1
  Tm  Tm6  1  0.000000  0.443178  0.130587  1
  Tm  Tm7  1  0.000000  0.556822  0.869413  1
  Tc  Tc8  1  0.000000  0.639930  0.319165  1
  Tc  Tc9  1  0.000000  0.360070  0.680835  1
  Tc  Tc10  1  0.000000  0.139930  0.180835  1
  Tc  Tc11  1  0.000000  0.860070  0.819165  1
  B  B12  1  0.500000  0.554757  0.431205  1
  B  B13  1  0.500000  0.445243  0.568795  1
  B  B14  1  0.500000  0.054757  0.068795  1
  B  B15  1  0.500000  0.945243  0.931205  1
  B  B16  1  0.500000  0.750431  0.416808  1
  B  B17  1  0.500000  0.249569  0.583192  1
  B  B18  1  0.500000  0.250431  0.083192  1
  B  B19  1  0.500000  0.749569  0.916808  1
  B  B20  1  0.500000  0.792465  0.265721  1
  B  B21  1  0.500000  0.207535  0.734279  1
  B  B22  1  0.500000  0.292465  0.234279  1
  B  B23  1  0.500000  0.707535  0.765721  1
  B  B24  1  0.500000  0.630057  0.185514  1
  B  B25  1  0.500000  0.369943  0.814486  1
  B  B26  1  0.500000  0.130057  0.314486  1
  B  B27  1  0.500000  0.869943  0.685514  1
  B  B28  1  0.500000  0.983213  0.213020  1
  B  B29  1  0.500000  0.016787  0.786980  1
  B  B30  1  0.500000  0.483213  0.286980  1
  B  B31  1  0.500000  0.516787  0.713020  1
  B  B32  1  0.500000  0.596825  0.026719  1
  B  B33  1  0.500000  0.403175  0.973281  1
  B  B34  1  0.500000  0.096825  0.473281  1
  B  B35  1  0.500000  0.903175  0.526719  1
