# generated using pymatgen
data_Tb8Y9Ho3Pb16
_symmetry_space_group_name_H-M   'P 1'
_cell_length_a   8.21247500
_cell_length_b   8.29693500
_cell_length_c   15.67269900
_cell_angle_alpha   90.00000000
_cell_angle_beta   90.00000000
_cell_angle_gamma   90.00368565
_symmetry_Int_Tables_number   1
_chemical_formula_structural   Tb8Y9Ho3Pb16
_chemical_formula_sum   'Tb8 Y9 Ho3 Pb16'
_cell_volume   1067.91218207
_cell_formula_units_Z   1
loop_
 _symmetry_equiv_pos_site_id
 _symmetry_equiv_pos_as_xyz
  1  'x, y, z'
loop_
 _atom_site_type_symbol
 _atom_site_label
 _atom_site_symmetry_multiplicity
 _atom_site_fract_x
 _atom_site_fract_y
 _atom_site_fract_z
 _atom_site_occupancy
  Tb  Tb0  1  0.534145  0.323025  0.899874  1
  Tb  Tb1  1  0.033975  0.176795  0.600129  1
  Tb  Tb2  1  0.465954  0.676910  0.399827  1
  Tb  Tb3  1  0.965954  0.823096  0.100171  1
  Tb  Tb4  1  0.465954  0.676910  0.100173  1
  Tb  Tb5  1  0.965954  0.823096  0.399829  1
  Tb  Tb6  1  0.534145  0.323025  0.600126  1
  Tb  Tb7  1  0.033975  0.176795  0.899871  1
  Y  Y8  1  0.376724  0.841035  0.879409  1
  Y  Y9  1  0.876436  0.659213  0.620571  1
  Y  Y10  1  0.623375  0.159107  0.379364  1
  Y  Y11  1  0.123353  0.340881  0.120658  1
  Y  Y12  1  0.623375  0.159107  0.120636  1
  Y  Y13  1  0.123353  0.340881  0.379342  1
  Y  Y14  1  0.376724  0.841035  0.620591  1
  Y  Y15  1  0.876436  0.659213  0.879429  1
  Y  Y16  1  0.208530  0.503692  0.750000  1
  Ho  Ho17  1  0.708507  0.996130  0.750000  1
  Ho  Ho18  1  0.791472  0.496197  0.250000  1
  Ho  Ho19  1  0.291483  0.003823  0.250000  1
  Pb  Pb20  1  0.281615  0.033331  0.042876  1
  Pb  Pb21  1  0.781631  0.466677  0.457125  1
  Pb  Pb22  1  0.718379  0.966695  0.542872  1
  Pb  Pb23  1  0.218394  0.533384  0.957318  1
  Pb  Pb24  1  0.718379  0.966695  0.957128  1
  Pb  Pb25  1  0.218394  0.533384  0.542682  1
  Pb  Pb26  1  0.281615  0.033331  0.457124  1
  Pb  Pb27  1  0.781631  0.466677  0.042875  1
  Pb  Pb28  1  0.572079  0.626678  0.750000  1
  Pb  Pb29  1  0.071564  0.873771  0.750000  1
  Pb  Pb30  1  0.428336  0.373431  0.250000  1
  Pb  Pb31  1  0.928323  0.126549  0.250000  1
  Pb  Pb32  1  0.345318  0.151739  0.750000  1
  Pb  Pb33  1  0.844812  0.347692  0.750000  1
  Pb  Pb34  1  0.654857  0.847763  0.250000  1
  Pb  Pb35  1  0.154848  0.652237  0.250000  1
