# generated using pymatgen
data_CrGaAg6F14
_symmetry_space_group_name_H-M   'P 1'
_cell_length_a   7.78978247
_cell_length_b   7.71103990
_cell_length_c   7.77417777
_cell_angle_alpha   119.17200152
_cell_angle_beta   121.12353807
_cell_angle_gamma   89.96023700
_symmetry_Int_Tables_number   1
_chemical_formula_structural   CrGaAg6F14
_chemical_formula_sum   'Cr1 Ga1 Ag6 F14'
_cell_volume   328.74047700
_cell_formula_units_Z   1
loop_
 _symmetry_equiv_pos_site_id
 _symmetry_equiv_pos_as_xyz
  1  'x, y, z'
loop_
 _atom_site_type_symbol
 _atom_site_label
 _atom_site_symmetry_multiplicity
 _atom_site_fract_x
 _atom_site_fract_y
 _atom_site_fract_z
 _atom_site_occupancy
  Cr  Cr0  1  0.500000  0.500000  0.500000  1
  Ga  Ga1  1  0.500000  0.000000  0.000000  1
  Ag  Ag2  1  0.000000  0.500000  0.500000  1
  Ag  Ag3  1  0.500000  0.000000  0.500000  1
  Ag  Ag4  1  0.500000  0.500000  0.000000  1
  Ag  Ag5  1  0.000000  0.000000  0.000000  1
  Ag  Ag6  1  0.000000  0.500000  0.000000  1
  Ag  Ag7  1  0.000000  0.000000  0.500000  1
  F  F8  1  0.851820  0.605562  0.251177  1
  F  F9  1  0.146661  0.900264  0.252150  1
  F  F10  1  0.200655  0.878801  0.821354  1
  F  F11  1  0.442030  0.623214  0.317681  1
  F  F12  1  0.444232  0.126636  0.827433  1
  F  F13  1  0.194239  0.372955  0.312469  1
  F  F14  1  0.805761  0.627045  0.687531  1
  F  F15  1  0.555768  0.873364  0.172567  1
  F  F16  1  0.557970  0.376786  0.682319  1
  F  F17  1  0.799345  0.121199  0.178646  1
  F  F18  1  0.505590  0.249630  0.257195  1
  F  F19  1  0.148180  0.394438  0.748823  1
  F  F20  1  0.853339  0.099736  0.747850  1
  F  F21  1  0.494410  0.750370  0.742805  1
