# generated using pymatgen
data_La3EuH11
_symmetry_space_group_name_H-M   'P 1'
_cell_length_a   6.74550848
_cell_length_b   6.74550790
_cell_length_c   6.74550800
_cell_angle_alpha   131.14133594
_cell_angle_beta   131.14132033
_cell_angle_gamma   71.58863486
_symmetry_Int_Tables_number   1
_chemical_formula_structural   La3EuH11
_chemical_formula_sum   'La3 Eu1 H11'
_cell_volume   170.32936190
_cell_formula_units_Z   1
loop_
 _symmetry_equiv_pos_site_id
 _symmetry_equiv_pos_as_xyz
  1  'x, y, z'
loop_
 _atom_site_type_symbol
 _atom_site_label
 _atom_site_symmetry_multiplicity
 _atom_site_fract_x
 _atom_site_fract_y
 _atom_site_fract_z
 _atom_site_occupancy
  La  La0  1  0.498590  0.998590  0.500000  1
  La  La1  1  0.998590  0.498590  0.500000  1
  La  La2  1  0.739266  0.739266  0.000000  1
  Eu  Eu3  1  0.261233  0.261233  0.000000  1
  H  H4  1  0.651515  0.108932  0.000000  1
  H  H5  1  0.353085  0.353085  0.468430  1
  H  H6  1  0.108932  0.651515  0.000000  1
  H  H7  1  0.884655  0.884655  0.531570  1
  H  H8  1  0.884655  0.353085  0.000000  1
  H  H9  1  0.651515  0.651515  0.542584  1
  H  H10  1  0.353085  0.884655  0.000000  1
  H  H11  1  0.108932  0.108932  0.457416  1
  H  H12  1  0.753076  0.253076  0.500000  1
  H  H13  1  0.499794  0.499794  0.000000  1
  H  H14  1  0.253076  0.753076  0.500000  1
