# generated using pymatgen
data_YGaCo2P
_symmetry_space_group_name_H-M   'P 1'
_cell_length_a   5.70285745
_cell_length_b   5.70285822
_cell_length_c   5.70285730
_cell_angle_alpha   140.36780785
_cell_angle_beta   140.36780180
_cell_angle_gamma   57.29526413
_symmetry_Int_Tables_number   1
_chemical_formula_structural   YGaCo2P
_chemical_formula_sum   'Y1 Ga1 Co2 P1'
_cell_volume   74.82242982
_cell_formula_units_Z   1
loop_
 _symmetry_equiv_pos_site_id
 _symmetry_equiv_pos_as_xyz
  1  'x, y, z'
loop_
 _atom_site_type_symbol
 _atom_site_label
 _atom_site_symmetry_multiplicity
 _atom_site_fract_x
 _atom_site_fract_y
 _atom_site_fract_z
 _atom_site_occupancy
  Y  Y0  1  0.007468  0.007468  0.000000  1
  Ga  Ga1  1  0.378723  0.378723  0.000000  1
  Co  Co2  1  0.740327  0.240327  0.500000  1
  Co  Co3  1  0.240327  0.740327  0.500000  1
  P  P4  1  0.633155  0.633155  0.000000  1
