# generated using pymatgen
data_Cs3CuS2
_symmetry_space_group_name_H-M   'P 1'
_cell_length_a   11.33739903
_cell_length_b   11.37134203
_cell_length_c   8.22667361
_cell_angle_alpha   89.99334572
_cell_angle_beta   112.26545715
_cell_angle_gamma   90.00590824
_symmetry_Int_Tables_number   1
_chemical_formula_structural   Cs3CuS2
_chemical_formula_sum   'Cs12 Cu4 S8'
_cell_volume   981.51489819
_cell_formula_units_Z   4
loop_
 _symmetry_equiv_pos_site_id
 _symmetry_equiv_pos_as_xyz
  1  'x, y, z'
loop_
 _atom_site_type_symbol
 _atom_site_label
 _atom_site_symmetry_multiplicity
 _atom_site_fract_x
 _atom_site_fract_y
 _atom_site_fract_z
 _atom_site_occupancy
  Cs  Cs0  1  0.312755  0.286787  0.080434  1
  Cs  Cs1  1  0.883469  0.025004  0.161044  1
  Cs  Cs2  1  0.984144  0.446272  0.231754  1
  Cs  Cs3  1  0.515855  0.946280  0.268131  1
  Cs  Cs4  1  0.616520  0.525006  0.338824  1
  Cs  Cs5  1  0.187233  0.786799  0.419483  1
  Cs  Cs6  1  0.812739  0.213177  0.580384  1
  Cs  Cs7  1  0.383461  0.474958  0.661035  1
  Cs  Cs8  1  0.484154  0.053683  0.731756  1
  Cs  Cs9  1  0.015850  0.553688  0.768126  1
  Cs  Cs10  1  0.116524  0.974961  0.838861  1
  Cs  Cs11  1  0.687233  0.713180  0.919481  1
  Cu  Cu12  1  0.326504  0.677647  0.037603  1
  Cu  Cu13  1  0.173561  0.177557  0.463180  1
  Cu  Cu14  1  0.826546  0.822395  0.537477  1
  Cu  Cu15  1  0.673589  0.322282  0.962369  1
  S  S16  1  0.623131  0.210349  0.134691  1
  S  S17  1  0.275508  0.564682  0.209219  1
  S  S18  1  0.224412  0.064803  0.290992  1
  S  S19  1  0.876875  0.710340  0.365151  1
  S  S20  1  0.123030  0.289795  0.635062  1
  S  S21  1  0.775507  0.935313  0.709254  1
  S  S22  1  0.724511  0.435357  0.790566  1
  S  S23  1  0.376887  0.789684  0.865126  1
