# generated using pymatgen
data_Y11ErFe2I17
_symmetry_space_group_name_H-M   'P 1'
_cell_length_a   9.72535025
_cell_length_b   11.74406429
_cell_length_c   11.72322740
_cell_angle_alpha   93.58501288
_cell_angle_beta   104.63218669
_cell_angle_gamma   113.92949805
_symmetry_Int_Tables_number   1
_chemical_formula_structural   Y11ErFe2I17
_chemical_formula_sum   'Y11 Er1 Fe2 I17'
_cell_volume   1163.39592026
_cell_formula_units_Z   1
loop_
 _symmetry_equiv_pos_site_id
 _symmetry_equiv_pos_as_xyz
  1  'x, y, z'
loop_
 _atom_site_type_symbol
 _atom_site_label
 _atom_site_symmetry_multiplicity
 _atom_site_fract_x
 _atom_site_fract_y
 _atom_site_fract_z
 _atom_site_occupancy
  Y  Y0  1  0.052611  0.504461  0.320133  1
  Y  Y1  1  0.991458  0.806722  0.590700  1
  Y  Y2  1  0.659477  0.242319  0.279577  1
  Y  Y3  1  0.010055  0.191265  0.413097  1
  Y  Y4  1  0.218540  0.672258  0.981986  1
  Y  Y5  1  0.252173  0.975602  0.888344  1
  Y  Y6  1  0.346318  0.757914  0.718956  1
  Y  Y7  1  0.949710  0.499407  0.681394  1
  Y  Y8  1  0.745050  0.020506  0.110354  1
  Y  Y9  1  0.135887  0.285803  0.153046  1
  Y  Y10  1  0.778761  0.329051  0.014515  1
  Er  Er11  1  0.861837  0.713773  0.846495  1
  Fe  Fe12  1  0.104303  0.737665  0.786239  1
  Fe  Fe13  1  0.895612  0.262215  0.213672  1
  I  I14  1  0.784700  0.527552  0.416859  1
  I  I15  1  0.646098  0.421940  0.763519  1
  I  I16  1  0.844178  0.897812  0.328082  1
  I  I17  1  0.326615  0.215433  0.366346  1
  I  I18  1  0.155329  0.101723  0.671785  1
  I  I19  1  0.584846  0.053150  0.843630  1
  I  I20  1  0.761162  0.191161  0.538039  1
  I  I21  1  0.553239  0.712864  0.955296  1
  I  I22  1  0.352140  0.578556  0.236428  1
  I  I23  1  0.216316  0.471368  0.581957  1
  I  I24  1  0.055045  0.367732  0.897882  1
  I  I25  1  0.448571  0.287038  0.045956  1
  I  I26  1  0.000142  0.001157  0.000580  1
  I  I27  1  0.239179  0.809394  0.460898  1
  I  I28  1  0.416692  0.948282  0.156795  1
  I  I29  1  0.671538  0.784274  0.634960  1
  I  I30  1  0.942415  0.631603  0.102484  1
