# generated using pymatgen
data_Zn4IrRhAu2
_symmetry_space_group_name_H-M   'P 1'
_cell_length_a   5.80490200
_cell_length_b   5.80473400
_cell_length_c   7.10745000
_cell_angle_alpha   90.00014790
_cell_angle_beta   89.99999556
_cell_angle_gamma   90.00005922
_symmetry_Int_Tables_number   1
_chemical_formula_structural   Zn4IrRhAu2
_chemical_formula_sum   'Zn8 Ir2 Rh2 Au4'
_cell_volume   239.49200979
_cell_formula_units_Z   2
loop_
 _symmetry_equiv_pos_site_id
 _symmetry_equiv_pos_as_xyz
  1  'x, y, z'
loop_
 _atom_site_type_symbol
 _atom_site_label
 _atom_site_symmetry_multiplicity
 _atom_site_fract_x
 _atom_site_fract_y
 _atom_site_fract_z
 _atom_site_occupancy
  Zn  Zn0  1  0.500353  0.499952  0.249773  1
  Zn  Zn1  1  0.500349  0.000005  0.249774  1
  Zn  Zn2  1  0.000328  0.999993  0.250227  1
  Zn  Zn3  1  0.000333  0.500073  0.250228  1
  Zn  Zn4  1  0.999674  0.499932  0.749775  1
  Zn  Zn5  1  0.999678  0.000005  0.749775  1
  Zn  Zn6  1  0.499653  0.500048  0.750222  1
  Zn  Zn7  1  0.499657  0.999999  0.750222  1
  Ir  Ir8  1  0.250596  0.750001  0.000241  1
  Ir  Ir9  1  0.750596  0.250000  0.499760  1
  Rh  Rh10  1  0.249389  0.749991  0.500253  1
  Rh  Rh11  1  0.749372  0.249998  0.999751  1
  Au  Au12  1  0.249138  0.250000  0.999999  1
  Au  Au13  1  0.750873  0.750001  0.999996  1
  Au  Au14  1  0.250874  0.250000  0.499968  1
  Au  Au15  1  0.749137  0.750001  0.500036  1
