# generated using pymatgen
data_Cs2CuAs2O7
_symmetry_space_group_name_H-M   'P 1'
_cell_length_a   7.91958983
_cell_length_b   7.91965189
_cell_length_c   10.35126073
_cell_angle_alpha   79.16846014
_cell_angle_beta   79.17018303
_cell_angle_gamma   120.99582239
_symmetry_Int_Tables_number   1
_chemical_formula_structural   Cs2CuAs2O7
_chemical_formula_sum   'Cs4 Cu2 As4 O14'
_cell_volume   514.42012065
_cell_formula_units_Z   2
loop_
 _symmetry_equiv_pos_site_id
 _symmetry_equiv_pos_as_xyz
  1  'x, y, z'
loop_
 _atom_site_type_symbol
 _atom_site_label
 _atom_site_symmetry_multiplicity
 _atom_site_fract_x
 _atom_site_fract_y
 _atom_site_fract_z
 _atom_site_occupancy
  Cs  Cs0  1  0.379414  0.465975  0.122982  1
  Cs  Cs1  1  0.465973  0.379418  0.622980  1
  Cs  Cs2  1  0.591580  0.014270  0.316073  1
  Cs  Cs3  1  0.014265  0.591576  0.816073  1
  Cu  Cu4  1  0.007230  0.773952  0.289506  1
  Cu  Cu5  1  0.773951  0.007217  0.789516  1
  As  As6  1  0.392125  0.986452  0.998953  1
  As  As7  1  0.986441  0.392119  0.498962  1
  As  As8  1  0.024765  0.041186  0.991295  1
  As  As9  1  0.041180  0.024767  0.491293  1
  O  O10  1  0.296380  0.129240  0.415264  1
  O  O11  1  0.129241  0.296386  0.915263  1
  O  O12  1  0.989826  0.211996  0.414103  1
  O  O13  1  0.211992  0.989827  0.914103  1
  O  O14  1  0.562253  0.225419  0.003228  1
  O  O15  1  0.225413  0.562255  0.503227  1
  O  O16  1  0.983719  0.976547  0.168296  1
  O  O17  1  0.976543  0.983715  0.668297  1
  O  O18  1  0.806201  0.870949  0.956451  1
  O  O19  1  0.870961  0.806205  0.456446  1
  O  O20  1  0.484713  0.883777  0.897704  1
  O  O21  1  0.883784  0.484723  0.397701  1
  O  O22  1  0.235593  0.793240  0.161088  1
  O  O23  1  0.793236  0.235569  0.661093  1
