# generated using pymatgen
data_Tm8Sc12Si15Ge
_symmetry_space_group_name_H-M   'P 1'
_cell_length_a   7.05851011
_cell_length_b   7.34906412
_cell_length_c   13.91312508
_cell_angle_alpha   89.98591873
_cell_angle_beta   89.86284290
_cell_angle_gamma   90.01505565
_symmetry_Int_Tables_number   1
_chemical_formula_structural   Tm8Sc12Si15Ge
_chemical_formula_sum   'Tm8 Sc12 Si15 Ge1'
_cell_volume   721.71959168
_cell_formula_units_Z   1
loop_
 _symmetry_equiv_pos_site_id
 _symmetry_equiv_pos_as_xyz
  1  'x, y, z'
loop_
 _atom_site_type_symbol
 _atom_site_label
 _atom_site_symmetry_multiplicity
 _atom_site_fract_x
 _atom_site_fract_y
 _atom_site_fract_z
 _atom_site_occupancy
  Tm  Tm0  1  0.012440  0.176336  0.096503  1
  Tm  Tm1  1  0.987797  0.823723  0.903563  1
  Tm  Tm2  1  0.488183  0.676509  0.903542  1
  Tm  Tm3  1  0.987272  0.824488  0.596624  1
  Tm  Tm4  1  0.512139  0.323567  0.096617  1
  Tm  Tm5  1  0.011050  0.175821  0.402868  1
  Tm  Tm6  1  0.512725  0.322110  0.402622  1
  Tm  Tm7  1  0.490964  0.678202  0.596978  1
  Sc  Sc8  1  0.160951  0.503513  0.751035  1
  Sc  Sc9  1  0.839015  0.496538  0.250018  1
  Sc  Sc10  1  0.339170  0.003409  0.249948  1
  Sc  Sc11  1  0.660911  0.996441  0.750027  1
  Sc  Sc12  1  0.332381  0.174784  0.625871  1
  Sc  Sc13  1  0.668676  0.823448  0.374589  1
  Sc  Sc14  1  0.168546  0.677749  0.374231  1
  Sc  Sc15  1  0.669003  0.822922  0.125212  1
  Sc  Sc16  1  0.829580  0.322773  0.625406  1
  Sc  Sc17  1  0.330999  0.176825  0.874769  1
  Sc  Sc18  1  0.830948  0.322951  0.874798  1
  Sc  Sc19  1  0.168961  0.677090  0.125262  1
  Si  Si20  1  0.033008  0.114214  0.750202  1
  Si  Si21  1  0.967083  0.886542  0.249500  1
  Si  Si22  1  0.466851  0.614087  0.249690  1
  Si  Si23  1  0.532605  0.386408  0.750298  1
  Si  Si24  1  0.284926  0.870432  0.750280  1
  Si  Si25  1  0.715023  0.128931  0.249613  1
  Si  Si26  1  0.214866  0.370828  0.249947  1
  Si  Si27  1  0.785488  0.629149  0.750085  1
  Si  Si28  1  0.835373  0.535705  0.459840  1
  Si  Si29  1  0.340086  0.965375  0.460426  1
  Si  Si30  1  0.840591  0.534564  0.039438  1
  Si  Si31  1  0.659705  0.034965  0.539408  1
  Si  Si32  1  0.159339  0.465466  0.960759  1
  Si  Si33  1  0.659411  0.034619  0.960540  1
  Si  Si34  1  0.340603  0.965346  0.039536  1
  Ge  Ge35  1  0.163334  0.464170  0.539956  1
