# generated using pymatgen
data_Ba3PrTm3O9
_symmetry_space_group_name_H-M   'P 1'
_cell_length_a   9.22040569
_cell_length_b   9.22040495
_cell_length_c   9.22040497
_cell_angle_alpha   39.06336666
_cell_angle_beta   39.06336822
_cell_angle_gamma   39.06336824
_symmetry_Int_Tables_number   1
_chemical_formula_structural   Ba3PrTm3O9
_chemical_formula_sum   'Ba3 Pr1 Tm3 O9'
_cell_volume   279.99000621
_cell_formula_units_Z   1
loop_
 _symmetry_equiv_pos_site_id
 _symmetry_equiv_pos_as_xyz
  1  'x, y, z'
loop_
 _atom_site_type_symbol
 _atom_site_label
 _atom_site_symmetry_multiplicity
 _atom_site_fract_x
 _atom_site_fract_y
 _atom_site_fract_z
 _atom_site_occupancy
  Ba  Ba0  1  0.001170  0.001170  0.001170  1
  Ba  Ba1  1  0.833229  0.833229  0.833229  1
  Ba  Ba2  1  0.404861  0.404861  0.404861  1
  Pr  Pr3  1  0.573791  0.573791  0.573791  1
  Tm  Tm4  1  0.135965  0.135965  0.135965  1
  Tm  Tm5  1  0.261552  0.261552  0.261552  1
  Tm  Tm6  1  0.701130  0.701130  0.701130  1
  O  O7  1  0.522830  0.437514  0.974454  1
  O  O8  1  0.437514  0.974454  0.522830  1
  O  O9  1  0.974454  0.522830  0.437514  1
  O  O10  1  0.427569  0.264578  0.898874  1
  O  O11  1  0.264578  0.898874  0.427569  1
  O  O12  1  0.898874  0.427569  0.264578  1
  O  O13  1  0.974781  0.415048  0.863155  1
  O  O14  1  0.863155  0.974781  0.415048  1
  O  O15  1  0.415048  0.863155  0.974781  1
