# generated using pymatgen
data_Nd8Lu2(IrPt)3
_symmetry_space_group_name_H-M   'P 1'
_cell_length_a   11.30547628
_cell_length_b   11.31790900
_cell_length_c   6.46733272
_cell_angle_alpha   90.00000000
_cell_angle_beta   89.94563386
_cell_angle_gamma   90.00000000
_symmetry_Int_Tables_number   1
_chemical_formula_structural   Nd8Lu2(IrPt)3
_chemical_formula_sum   'Nd16 Lu4 Ir6 Pt6'
_cell_volume   827.52299358
_cell_formula_units_Z   2
loop_
 _symmetry_equiv_pos_site_id
 _symmetry_equiv_pos_as_xyz
  1  'x, y, z'
loop_
 _atom_site_type_symbol
 _atom_site_label
 _atom_site_symmetry_multiplicity
 _atom_site_fract_x
 _atom_site_fract_y
 _atom_site_fract_z
 _atom_site_occupancy
  Nd  Nd0  1  0.086555  0.290968  0.121057  1
  Nd  Nd1  1  0.789137  0.411865  0.116769  1
  Nd  Nd2  1  0.208933  0.586991  0.120828  1
  Nd  Nd3  1  0.911450  0.710914  0.116597  1
  Nd  Nd4  1  0.413445  0.790968  0.378943  1
  Nd  Nd5  1  0.588550  0.210914  0.383403  1
  Nd  Nd6  1  0.291067  0.086991  0.379172  1
  Nd  Nd7  1  0.710863  0.911865  0.383231  1
  Nd  Nd8  1  0.415894  0.210091  0.878044  1
  Nd  Nd9  1  0.709544  0.087219  0.877800  1
  Nd  Nd10  1  0.291842  0.913087  0.879176  1
  Nd  Nd11  1  0.590180  0.792227  0.878909  1
  Nd  Nd12  1  0.084106  0.710091  0.621956  1
  Nd  Nd13  1  0.909820  0.292227  0.621091  1
  Nd  Nd14  1  0.208158  0.413087  0.620824  1
  Nd  Nd15  1  0.790456  0.587219  0.622200  1
  Lu  Lu16  1  0.998594  0.998299  0.998469  1
  Lu  Lu17  1  0.501676  0.498827  0.998172  1
  Lu  Lu18  1  0.501406  0.498299  0.501531  1
  Lu  Lu19  1  0.998324  0.998827  0.501828  1
  Ir  Ir20  1  0.854552  0.854573  0.750052  1
  Ir  Ir21  1  0.645448  0.354573  0.749948  1
  Ir  Ir22  1  0.000683  0.499932  0.377876  1
  Ir  Ir23  1  0.499317  0.999932  0.122124  1
  Ir  Ir24  1  0.499007  0.999347  0.620489  1
  Ir  Ir25  1  0.000993  0.499347  0.879511  1
  Pt  Pt26  1  0.146134  0.854510  0.250065  1
  Pt  Pt27  1  0.353866  0.354510  0.249935  1
  Pt  Pt28  1  0.645149  0.645667  0.249898  1
  Pt  Pt29  1  0.854851  0.145667  0.250102  1
  Pt  Pt30  1  0.354417  0.645484  0.749871  1
  Pt  Pt31  1  0.145583  0.145484  0.750129  1
