# generated using pymatgen
data_Dy2IrRu3
_symmetry_space_group_name_H-M   'P 1'
_cell_length_a   5.27517300
_cell_length_b   5.27517203
_cell_length_c   8.95904800
_cell_angle_alpha   90.00000000
_cell_angle_beta   90.00000000
_cell_angle_gamma   119.99999979
_symmetry_Int_Tables_number   1
_chemical_formula_structural   Dy2IrRu3
_chemical_formula_sum   'Dy4 Ir2 Ru6'
_cell_volume   215.90655624
_cell_formula_units_Z   2
loop_
 _symmetry_equiv_pos_site_id
 _symmetry_equiv_pos_as_xyz
  1  'x, y, z'
loop_
 _atom_site_type_symbol
 _atom_site_label
 _atom_site_symmetry_multiplicity
 _atom_site_fract_x
 _atom_site_fract_y
 _atom_site_fract_z
 _atom_site_occupancy
  Dy  Dy0  1  0.666667  0.333332  0.067025  1
  Dy  Dy1  1  0.666667  0.333332  0.432975  1
  Dy  Dy2  1  0.333334  0.666667  0.567025  1
  Dy  Dy3  1  0.333334  0.666667  0.932975  1
  Ir  Ir4  1  0.000000  0.000000  0.000000  1
  Ir  Ir5  1  0.000000  0.000000  0.500000  1
  Ru  Ru6  1  0.171367  0.342734  0.250000  1
  Ru  Ru7  1  0.171366  0.828633  0.250000  1
  Ru  Ru8  1  0.657265  0.828633  0.250000  1
  Ru  Ru9  1  0.342735  0.171367  0.750000  1
  Ru  Ru10  1  0.828634  0.171367  0.750000  1
  Ru  Ru11  1  0.828634  0.657265  0.750000  1
