# generated using pymatgen
data_Ho6Nb4Ga12Os7
_symmetry_space_group_name_H-M   'P 1'
_cell_length_a   9.03338621
_cell_length_b   9.03347816
_cell_length_c   9.03341700
_cell_angle_alpha   59.99953592
_cell_angle_beta   59.99870049
_cell_angle_gamma   59.99901383
_symmetry_Int_Tables_number   1
_chemical_formula_structural   Ho6Nb4Ga12Os7
_chemical_formula_sum   'Ho6 Nb4 Ga12 Os7'
_cell_volume   521.23505087
_cell_formula_units_Z   1
loop_
 _symmetry_equiv_pos_site_id
 _symmetry_equiv_pos_as_xyz
  1  'x, y, z'
loop_
 _atom_site_type_symbol
 _atom_site_label
 _atom_site_symmetry_multiplicity
 _atom_site_fract_x
 _atom_site_fract_y
 _atom_site_fract_z
 _atom_site_occupancy
  Ho  Ho0  1  0.709394  0.709401  0.290602  1
  Ho  Ho1  1  0.290605  0.709397  0.290599  1
  Ho  Ho2  1  0.709395  0.290604  0.290596  1
  Ho  Ho3  1  0.290599  0.290603  0.709397  1
  Ho  Ho4  1  0.709400  0.290601  0.709406  1
  Ho  Ho5  1  0.290603  0.709399  0.709399  1
  Nb  Nb6  1  0.878312  0.878315  0.365058  1
  Nb  Nb7  1  0.878320  0.365050  0.878317  1
  Nb  Nb8  1  0.365055  0.878317  0.878312  1
  Nb  Nb9  1  0.878318  0.878311  0.878317  1
  Ga  Ga10  1  0.119577  0.119587  0.641251  1
  Ga  Ga11  1  0.119585  0.641247  0.119590  1
  Ga  Ga12  1  0.641251  0.119581  0.119582  1
  Ga  Ga13  1  0.119587  0.119574  0.119591  1
  Ga  Ga14  1  0.662557  0.662564  0.012311  1
  Ga  Ga15  1  0.662549  0.012351  0.662552  1
  Ga  Ga16  1  0.012336  0.662556  0.662547  1
  Ga  Ga17  1  0.662559  0.662552  0.662558  1
  Ga  Ga18  1  0.335479  0.335458  0.993596  1
  Ga  Ga19  1  0.335465  0.993607  0.335457  1
  Ga  Ga20  1  0.993593  0.335467  0.335480  1
  Ga  Ga21  1  0.335461  0.335472  0.335469  1
  Os  Os22  1  0.000002  0.999998  0.000003  1
  Os  Os23  1  0.996345  0.996332  0.503662  1
  Os  Os24  1  0.503656  0.996338  0.503662  1
  Os  Os25  1  0.996347  0.503659  0.503660  1
  Os  Os26  1  0.503651  0.503657  0.996351  1
  Os  Os27  1  0.996345  0.503663  0.996329  1
  Os  Os28  1  0.503653  0.996338  0.996346  1
