# generated using pymatgen
data_Zr7ScFe4(CoP)12
_symmetry_space_group_name_H-M   'P 1'
_cell_length_a   12.09727100
_cell_length_b   12.07510901
_cell_length_c   3.66577000
_cell_angle_alpha   90.00000000
_cell_angle_beta   90.00000000
_cell_angle_gamma   120.08422539
_symmetry_Int_Tables_number   1
_chemical_formula_structural   Zr7ScFe4(CoP)12
_chemical_formula_sum   'Zr7 Sc1 Fe4 Co12 P12'
_cell_volume   463.34565846
_cell_formula_units_Z   1
loop_
 _symmetry_equiv_pos_site_id
 _symmetry_equiv_pos_as_xyz
  1  'x, y, z'
loop_
 _atom_site_type_symbol
 _atom_site_label
 _atom_site_symmetry_multiplicity
 _atom_site_fract_x
 _atom_site_fract_y
 _atom_site_fract_z
 _atom_site_occupancy
  Zr  Zr0  1  0.557576  0.000458  0.000000  1
  Zr  Zr1  1  0.999191  0.556928  0.000000  1
  Zr  Zr2  1  0.667087  0.333560  0.000000  1
  Zr  Zr3  1  0.331517  0.665717  0.000000  1
  Zr  Zr4  1  0.817261  0.816882  0.500000  1
  Zr  Zr5  1  0.181355  0.999357  0.500000  1
  Zr  Zr6  1  0.999503  0.181799  0.500000  1
  Sc  Sc7  1  0.441406  0.442201  0.000000  1
  Fe  Fe8  1  0.195081  0.372571  0.000000  1
  Fe  Fe9  1  0.178656  0.806312  0.000000  1
  Fe  Fe10  1  0.820453  0.627499  0.000000  1
  Fe  Fe11  1  0.806991  0.178390  0.000000  1
  Co  Co12  1  0.373015  0.193889  0.000000  1
  Co  Co13  1  0.125945  0.481462  0.500000  1
  Co  Co14  1  0.355868  0.875347  0.500000  1
  Co  Co15  1  0.517290  0.643963  0.500000  1
  Co  Co16  1  0.643238  0.519068  0.500000  1
  Co  Co17  1  0.874057  0.356802  0.500000  1
  Co  Co18  1  0.481917  0.127447  0.500000  1
  Co  Co19  1  0.000647  0.999959  0.000000  1
  Co  Co20  1  0.723223  0.997859  0.500000  1
  Co  Co21  1  0.000094  0.724331  0.500000  1
  Co  Co22  1  0.628320  0.820399  0.000000  1
  Co  Co23  1  0.279183  0.276626  0.500000  1
  P  P24  1  0.650124  0.648505  0.000000  1
  P  P25  1  0.346357  0.999203  0.000000  1
  P  P26  1  0.001583  0.347352  0.000000  1
  P  P27  1  0.482827  0.310387  0.500000  1
  P  P28  1  0.695083  0.174761  0.500000  1
  P  P29  1  0.825231  0.520369  0.500000  1
  P  P30  1  0.517621  0.825036  0.500000  1
  P  P31  1  0.173865  0.693906  0.500000  1
  P  P32  1  0.825148  0.000962  0.000000  1
  P  P33  1  0.999414  0.822761  0.000000  1
  P  P34  1  0.307394  0.480168  0.500000  1
  P  P35  1  0.176481  0.177766  0.000000  1
