# generated using pymatgen
data_Tb12AlGa7Rh8
_symmetry_space_group_name_H-M   'P 1'
_cell_length_a   5.57428100
_cell_length_b   7.89562316
_cell_length_c   13.61254828
_cell_angle_alpha   90.02309987
_cell_angle_beta   90.00000000
_cell_angle_gamma   90.00000000
_symmetry_Int_Tables_number   1
_chemical_formula_structural   Tb12AlGa7Rh8
_chemical_formula_sum   'Tb12 Al1 Ga7 Rh8'
_cell_volume   599.12117282
_cell_formula_units_Z   1
loop_
 _symmetry_equiv_pos_site_id
 _symmetry_equiv_pos_as_xyz
  1  'x, y, z'
loop_
 _atom_site_type_symbol
 _atom_site_label
 _atom_site_symmetry_multiplicity
 _atom_site_fract_x
 _atom_site_fract_y
 _atom_site_fract_z
 _atom_site_occupancy
  Tb  Tb0  1  0.631519  0.265194  0.250941  1
  Tb  Tb1  1  0.367838  0.733393  0.748693  1
  Tb  Tb2  1  0.367838  0.766607  0.251307  1
  Tb  Tb3  1  0.631519  0.234806  0.749059  1
  Tb  Tb4  1  0.149416  0.403610  0.098593  1
  Tb  Tb5  1  0.851517  0.601027  0.901614  1
  Tb  Tb6  1  0.848589  0.599027  0.597832  1
  Tb  Tb7  1  0.848589  0.900973  0.402168  1
  Tb  Tb8  1  0.151908  0.400955  0.402511  1
  Tb  Tb9  1  0.151908  0.099045  0.597489  1
  Tb  Tb10  1  0.149416  0.096390  0.901407  1
  Tb  Tb11  1  0.851517  0.898973  0.098386  1
  Al  Al12  1  0.631796  0.250000  0.000000  1
  Ga  Ga13  1  0.126738  0.114358  0.250275  1
  Ga  Ga14  1  0.871877  0.887592  0.749412  1
  Ga  Ga15  1  0.871877  0.612408  0.250588  1
  Ga  Ga16  1  0.126738  0.385642  0.749725  1
  Ga  Ga17  1  0.362352  0.750000  0.000000  1
  Ga  Ga18  1  0.356119  0.750000  0.500000  1
  Ga  Ga19  1  0.643089  0.250000  0.500000  1
  Rh  Rh20  1  0.358724  0.038248  0.093205  1
  Rh  Rh21  1  0.645181  0.966867  0.908504  1
  Rh  Rh22  1  0.642174  0.962075  0.592589  1
  Rh  Rh23  1  0.642174  0.537925  0.407411  1
  Rh  Rh24  1  0.357841  0.037844  0.406881  1
  Rh  Rh25  1  0.357841  0.462156  0.593119  1
  Rh  Rh26  1  0.358724  0.461752  0.906795  1
  Rh  Rh27  1  0.645181  0.533133  0.091496  1
