# generated using pymatgen
data_Nd3RhCl3
_symmetry_space_group_name_H-M   'P 1'
_cell_length_a   10.22181454
_cell_length_b   10.22181521
_cell_length_c   10.22181500
_cell_angle_alpha   109.47122221
_cell_angle_beta   109.47122352
_cell_angle_gamma   109.47121923
_symmetry_Int_Tables_number   1
_chemical_formula_structural   Nd3RhCl3
_chemical_formula_sum   'Nd12 Rh4 Cl12'
_cell_volume   822.17095805
_cell_formula_units_Z   4
loop_
 _symmetry_equiv_pos_site_id
 _symmetry_equiv_pos_as_xyz
  1  'x, y, z'
loop_
 _atom_site_type_symbol
 _atom_site_label
 _atom_site_symmetry_multiplicity
 _atom_site_fract_x
 _atom_site_fract_y
 _atom_site_fract_z
 _atom_site_occupancy
  Nd  Nd0  1  0.477556  0.488779  0.238779  1
  Nd  Nd1  1  0.750000  0.238779  0.261221  1
  Nd  Nd2  1  0.750000  0.011221  0.488779  1
  Nd  Nd3  1  0.238779  0.477556  0.488779  1
  Nd  Nd4  1  0.261221  0.750000  0.238779  1
  Nd  Nd5  1  0.022444  0.261221  0.011221  1
  Nd  Nd6  1  0.011221  0.022444  0.261221  1
  Nd  Nd7  1  0.488779  0.750000  0.011221  1
  Nd  Nd8  1  0.488779  0.238779  0.477556  1
  Nd  Nd9  1  0.011221  0.488779  0.750000  1
  Nd  Nd10  1  0.261221  0.011221  0.022444  1
  Nd  Nd11  1  0.238779  0.261221  0.750000  1
  Rh  Rh12  1  0.250000  0.250000  0.250000  1
  Rh  Rh13  1  0.500000  0.000000  0.250000  1
  Rh  Rh14  1  0.000000  0.250000  0.500000  1
  Rh  Rh15  1  0.250000  0.500000  0.000000  1
  Cl  Cl16  1  0.250000  0.751377  0.748623  1
  Cl  Cl17  1  0.502752  0.501377  0.751377  1
  Cl  Cl18  1  0.997248  0.748623  0.998623  1
  Cl  Cl19  1  0.748623  0.250000  0.751377  1
  Cl  Cl20  1  0.998623  0.997248  0.748623  1
  Cl  Cl21  1  0.250000  0.998623  0.501377  1
  Cl  Cl22  1  0.751377  0.502752  0.501377  1
  Cl  Cl23  1  0.501377  0.250000  0.998623  1
  Cl  Cl24  1  0.751377  0.748623  0.250000  1
  Cl  Cl25  1  0.748623  0.998623  0.997248  1
  Cl  Cl26  1  0.998623  0.501377  0.250000  1
  Cl  Cl27  1  0.501377  0.751377  0.502752  1
