# generated using pymatgen
data_TbEr15(In3Tc)2
_symmetry_space_group_name_H-M   'P 1'
_cell_length_a   10.32899011
_cell_length_b   10.33838534
_cell_length_c   6.99274608
_cell_angle_alpha   89.87492683
_cell_angle_beta   89.98874053
_cell_angle_gamma   119.98312824
_symmetry_Int_Tables_number   1
_chemical_formula_structural   TbEr15(In3Tc)2
_chemical_formula_sum   'Tb1 Er15 In6 Tc2'
_cell_volume   646.78697077
_cell_formula_units_Z   1
loop_
 _symmetry_equiv_pos_site_id
 _symmetry_equiv_pos_as_xyz
  1  'x, y, z'
loop_
 _atom_site_type_symbol
 _atom_site_label
 _atom_site_symmetry_multiplicity
 _atom_site_fract_x
 _atom_site_fract_y
 _atom_site_fract_z
 _atom_site_occupancy
  Tb  Tb0  1  0.530057  0.060057  0.795307  1
  Er  Er1  1  0.940182  0.470091  0.796188  1
  Er  Er2  1  0.529827  0.469924  0.796467  1
  Er  Er3  1  0.469551  0.939233  0.296222  1
  Er  Er4  1  0.060841  0.530699  0.296747  1
  Er  Er5  1  0.469656  0.530724  0.296755  1
  Er  Er6  1  0.822064  0.644392  0.500836  1
  Er  Er7  1  0.355116  0.177813  0.499588  1
  Er  Er8  1  0.822807  0.177895  0.499374  1
  Er  Er9  1  0.178013  0.356074  0.000751  1
  Er  Er10  1  0.644272  0.821806  0.001352  1
  Er  Er11  1  0.177641  0.821809  0.001251  1
  Er  Er12  1  0.666957  0.334000  0.167273  1
  Er  Er13  1  0.332943  0.665909  0.665205  1
  Er  Er14  1  0.999756  0.999326  0.775637  1
  Er  Er15  1  0.999738  0.999367  0.275519  1
  In  In16  1  0.837453  0.674022  0.037621  1
  In  In17  1  0.325205  0.162841  0.038098  1
  In  In18  1  0.837647  0.163157  0.037671  1
  In  In19  1  0.162730  0.325642  0.537912  1
  In  In20  1  0.674180  0.837300  0.538239  1
  In  In21  1  0.162805  0.836740  0.537939  1
  Tc  Tc22  1  0.666995  0.334038  0.572029  1
  Tc  Tc23  1  0.333563  0.667142  0.071923  1
