# generated using pymatgen
data_SrGdTmSe4
_symmetry_space_group_name_H-M   'P 1'
_cell_length_a   4.17973900
_cell_length_b   12.65671400
_cell_length_c   15.09454100
_cell_angle_alpha   90.00000000
_cell_angle_beta   90.00000000
_cell_angle_gamma   90.00000000
_symmetry_Int_Tables_number   1
_chemical_formula_structural   SrGdTmSe4
_chemical_formula_sum   'Sr4 Gd4 Tm4 Se16'
_cell_volume   798.52780216
_cell_formula_units_Z   4
loop_
 _symmetry_equiv_pos_site_id
 _symmetry_equiv_pos_as_xyz
  1  'x, y, z'
loop_
 _atom_site_type_symbol
 _atom_site_label
 _atom_site_symmetry_multiplicity
 _atom_site_fract_x
 _atom_site_fract_y
 _atom_site_fract_z
 _atom_site_occupancy
  Sr  Sr0  1  0.250000  0.758505  0.663567  1
  Sr  Sr1  1  0.750000  0.741495  0.163567  1
  Sr  Sr2  1  0.250000  0.258505  0.836433  1
  Sr  Sr3  1  0.750000  0.241495  0.336433  1
  Gd  Gd4  1  0.250000  0.433805  0.612087  1
  Gd  Gd5  1  0.750000  0.066195  0.112087  1
  Gd  Gd6  1  0.250000  0.933805  0.887913  1
  Gd  Gd7  1  0.750000  0.566195  0.387913  1
  Tm  Tm8  1  0.250000  0.419626  0.098147  1
  Tm  Tm9  1  0.750000  0.080374  0.598147  1
  Tm  Tm10  1  0.250000  0.919626  0.401853  1
  Tm  Tm11  1  0.750000  0.580374  0.901853  1
  Se  Se12  1  0.250000  0.411293  0.420776  1
  Se  Se13  1  0.750000  0.088707  0.920776  1
  Se  Se14  1  0.250000  0.911293  0.079224  1
  Se  Se15  1  0.750000  0.588707  0.579224  1
  Se  Se16  1  0.250000  0.024071  0.712536  1
  Se  Se17  1  0.750000  0.475929  0.212536  1
  Se  Se18  1  0.250000  0.524071  0.787464  1
  Se  Se19  1  0.750000  0.975929  0.287464  1
  Se  Se20  1  0.250000  0.128431  0.473237  1
  Se  Se21  1  0.750000  0.371569  0.973237  1
  Se  Se22  1  0.250000  0.628431  0.026763  1
  Se  Se23  1  0.750000  0.871569  0.526763  1
  Se  Se24  1  0.250000  0.211739  0.175226  1
  Se  Se25  1  0.750000  0.288261  0.675226  1
  Se  Se26  1  0.250000  0.711739  0.324774  1
  Se  Se27  1  0.750000  0.788261  0.824774  1
