# generated using pymatgen
data_LaSm11(SiBr3)4
_symmetry_space_group_name_H-M   'P 1'
_cell_length_a   10.29957622
_cell_length_b   10.35376199
_cell_length_c   10.29957591
_cell_angle_alpha   109.44185282
_cell_angle_beta   109.56819809
_cell_angle_gamma   109.44184288
_symmetry_Int_Tables_number   1
_chemical_formula_structural   LaSm11(SiBr3)4
_chemical_formula_sum   'La1 Sm11 Si4 Br12'
_cell_volume   845.10247414
_cell_formula_units_Z   1
loop_
 _symmetry_equiv_pos_site_id
 _symmetry_equiv_pos_as_xyz
  1  'x, y, z'
loop_
 _atom_site_type_symbol
 _atom_site_label
 _atom_site_symmetry_multiplicity
 _atom_site_fract_x
 _atom_site_fract_y
 _atom_site_fract_z
 _atom_site_occupancy
  La  La0  1  0.257266  0.750000  0.242734  1
  Sm  Sm1  1  0.487114  0.750000  0.012886  1
  Sm  Sm2  1  0.749562  0.236479  0.262278  1
  Sm  Sm3  1  0.237722  0.263521  0.750438  1
  Sm  Sm4  1  0.475102  0.486028  0.236793  1
  Sm  Sm5  1  0.263207  0.013972  0.024898  1
  Sm  Sm6  1  0.237792  0.473518  0.487038  1
  Sm  Sm7  1  0.012962  0.026482  0.262208  1
  Sm  Sm8  1  0.012120  0.486362  0.748879  1
  Sm  Sm9  1  0.489144  0.238870  0.474681  1
  Sm  Sm10  1  0.751121  0.013638  0.487880  1
  Sm  Sm11  1  0.025319  0.261130  0.010856  1
  Si  Si12  1  0.250434  0.250000  0.249566  1
  Si  Si13  1  0.000331  0.250000  0.499669  1
  Si  Si14  1  0.250075  0.499908  0.000280  1
  Si  Si15  1  0.499720  0.000092  0.249925  1
  Br  Br16  1  0.997477  0.993774  0.745840  1
  Br  Br17  1  0.754344  0.747791  0.250276  1
  Br  Br18  1  0.987455  0.748205  0.987452  1
  Br  Br19  1  0.252273  0.004681  0.510994  1
  Br  Br20  1  0.746326  0.996962  0.992986  1
  Br  Br21  1  0.503709  0.250000  0.996291  1
  Br  Br22  1  0.746973  0.250000  0.753027  1
  Br  Br23  1  0.512548  0.751795  0.512545  1
  Br  Br24  1  0.754160  0.506226  0.502523  1
  Br  Br25  1  0.249724  0.752209  0.745656  1
  Br  Br26  1  0.507014  0.503038  0.753674  1
  Br  Br27  1  0.989006  0.495319  0.247727  1
