# generated using pymatgen
data_Th6Ga(P3Rh5)4
_symmetry_space_group_name_H-M   'P 1'
_cell_length_a   13.58547300
_cell_length_b   13.58547297
_cell_length_c   3.96058400
_cell_angle_alpha   90.00000000
_cell_angle_beta   90.00000000
_cell_angle_gamma   119.99999763
_symmetry_Int_Tables_number   1
_chemical_formula_structural   Th6Ga(P3Rh5)4
_chemical_formula_sum   'Th6 Ga1 P12 Rh20'
_cell_volume   633.05201765
_cell_formula_units_Z   1
loop_
 _symmetry_equiv_pos_site_id
 _symmetry_equiv_pos_as_xyz
  1  'x, y, z'
loop_
 _atom_site_type_symbol
 _atom_site_label
 _atom_site_symmetry_multiplicity
 _atom_site_fract_x
 _atom_site_fract_y
 _atom_site_fract_z
 _atom_site_occupancy
  Th  Th0  1  0.529114  0.718109  0.251307  1
  Th  Th1  1  0.281891  0.811003  0.251307  1
  Th  Th2  1  0.188997  0.470886  0.251307  1
  Th  Th3  1  0.470886  0.281891  0.748693  1
  Th  Th4  1  0.718109  0.188997  0.748693  1
  Th  Th5  1  0.811003  0.529114  0.748693  1
  Ga  Ga6  1  0.000000  0.000000  0.000000  1
  P  P7  1  0.523952  0.136533  0.248548  1
  P  P8  1  0.863467  0.387420  0.248548  1
  P  P9  1  0.612580  0.476048  0.248548  1
  P  P10  1  0.949575  0.721463  0.248858  1
  P  P11  1  0.278537  0.228112  0.248858  1
  P  P12  1  0.771888  0.050425  0.248858  1
  P  P13  1  0.387420  0.523952  0.751452  1
  P  P14  1  0.476048  0.863467  0.751452  1
  P  P15  1  0.136533  0.612580  0.751452  1
  P  P16  1  0.721463  0.771888  0.751142  1
  P  P17  1  0.228112  0.949575  0.751142  1
  P  P18  1  0.050425  0.278537  0.751142  1
  Rh  Rh19  1  0.333333  0.666667  0.746447  1
  Rh  Rh20  1  0.920013  0.250133  0.248795  1
  Rh  Rh21  1  0.749867  0.669881  0.248795  1
  Rh  Rh22  1  0.330119  0.079987  0.248795  1
  Rh  Rh23  1  0.437354  0.021155  0.749880  1
  Rh  Rh24  1  0.978845  0.416200  0.749880  1
  Rh  Rh25  1  0.583800  0.562646  0.749880  1
  Rh  Rh26  1  0.666667  0.333333  0.253553  1
  Rh  Rh27  1  0.095418  0.199502  0.256804  1
  Rh  Rh28  1  0.800498  0.895916  0.256804  1
  Rh  Rh29  1  0.104084  0.904582  0.256804  1
  Rh  Rh30  1  0.021155  0.583800  0.250120  1
  Rh  Rh31  1  0.416200  0.437354  0.250120  1
  Rh  Rh32  1  0.562646  0.978845  0.250120  1
  Rh  Rh33  1  0.669881  0.920013  0.751205  1
  Rh  Rh34  1  0.079987  0.749867  0.751205  1
  Rh  Rh35  1  0.250133  0.330119  0.751205  1
  Rh  Rh36  1  0.904582  0.800498  0.743196  1
  Rh  Rh37  1  0.199502  0.104084  0.743196  1
  Rh  Rh38  1  0.895916  0.095418  0.743196  1
