# generated using pymatgen
data_PrBi3(As4O9)2
_symmetry_space_group_name_H-M   'P 1'
_cell_length_a   7.06070879
_cell_length_b   7.73247908
_cell_length_c   10.08638885
_cell_angle_alpha   95.22016617
_cell_angle_beta   104.73830515
_cell_angle_gamma   103.99556306
_symmetry_Int_Tables_number   1
_chemical_formula_structural   PrBi3(As4O9)2
_chemical_formula_sum   'Pr1 Bi3 As8 O18'
_cell_volume   509.88578346
_cell_formula_units_Z   1
loop_
 _symmetry_equiv_pos_site_id
 _symmetry_equiv_pos_as_xyz
  1  'x, y, z'
loop_
 _atom_site_type_symbol
 _atom_site_label
 _atom_site_symmetry_multiplicity
 _atom_site_fract_x
 _atom_site_fract_y
 _atom_site_fract_z
 _atom_site_occupancy
  Pr  Pr0  1  0.280261  0.457300  0.592800  1
  Bi  Bi1  1  0.241124  0.919334  0.622278  1
  Bi  Bi2  1  0.761914  0.083399  0.374941  1
  Bi  Bi3  1  0.707710  0.547489  0.407698  1
  As  As4  1  0.670585  0.771094  0.065429  1
  As  As5  1  0.327932  0.227210  0.936263  1
  As  As6  1  0.180735  0.759876  0.913559  1
  As  As7  1  0.819225  0.238773  0.084324  1
  As  As8  1  0.745509  0.912704  0.704903  1
  As  As9  1  0.254139  0.087652  0.294247  1
  As  As10  1  0.807189  0.343230  0.698534  1
  As  As11  1  0.191084  0.657767  0.300678  1
  O  O12  1  0.722760  0.741890  0.239801  1
  O  O13  1  0.282721  0.265038  0.764826  1
  O  O14  1  0.317548  0.983267  0.881856  1
  O  O15  1  0.679720  0.015078  0.114767  1
  O  O16  1  0.607900  0.318900  0.992735  1
  O  O17  1  0.390690  0.682765  0.012163  1
  O  O18  1  0.144798  0.666963  0.738197  1
  O  O19  1  0.864833  0.329268  0.261721  1
  O  O20  1  0.830920  0.854952  0.556651  1
  O  O21  1  0.167497  0.142372  0.441497  1
  O  O22  1  0.492764  0.772657  0.665660  1
  O  O23  1  0.508624  0.227486  0.333221  1
  O  O24  1  0.371904  0.543939  0.375156  1
  O  O25  1  0.629043  0.455487  0.620566  1
  O  O26  1  0.094354  0.665665  0.452885  1
  O  O27  1  0.909487  0.328570  0.550250  1
  O  O28  1  0.357335  0.897604  0.355711  1
  O  O29  1  0.639697  0.102271  0.646682  1
