# generated using pymatgen
data_Nd3GaPd5
_symmetry_space_group_name_H-M   'P 1'
_cell_length_a   8.50114697
_cell_length_b   8.50114727
_cell_length_c   8.50114656
_cell_angle_alpha   127.88176367
_cell_angle_beta   126.24040800
_cell_angle_gamma   78.15828001
_symmetry_Int_Tables_number   1
_chemical_formula_structural   Nd3GaPd5
_chemical_formula_sum   'Nd6 Ga2 Pd10'
_cell_volume   378.89784915
_cell_formula_units_Z   2
loop_
 _symmetry_equiv_pos_site_id
 _symmetry_equiv_pos_as_xyz
  1  'x, y, z'
loop_
 _atom_site_type_symbol
 _atom_site_label
 _atom_site_symmetry_multiplicity
 _atom_site_fract_x
 _atom_site_fract_y
 _atom_site_fract_z
 _atom_site_occupancy
  Nd  Nd0  1  0.819818  0.049660  0.770159  1
  Nd  Nd1  1  0.220498  0.450340  0.770159  1
  Nd  Nd2  1  0.180182  0.950340  0.229841  1
  Nd  Nd3  1  0.378773  0.250000  0.128773  1
  Nd  Nd4  1  0.779502  0.549660  0.229841  1
  Nd  Nd5  1  0.621227  0.750000  0.871227  1
  Ga  Ga6  1  0.221881  0.750000  0.471881  1
  Ga  Ga7  1  0.778119  0.250000  0.528119  1
  Pd  Pd8  1  0.831713  0.605114  0.643802  1
  Pd  Pd9  1  0.538689  0.312089  0.643802  1
  Pd  Pd10  1  0.461311  0.105114  0.773400  1
  Pd  Pd11  1  0.831713  0.187911  0.226600  1
  Pd  Pd12  1  0.168287  0.394886  0.356198  1
  Pd  Pd13  1  0.461311  0.687911  0.356198  1
  Pd  Pd14  1  0.538689  0.894886  0.226600  1
  Pd  Pd15  1  0.168287  0.812089  0.773400  1
  Pd  Pd16  1  0.000000  0.000000  0.500000  1
  Pd  Pd17  1  0.000000  0.500000  0.000000  1
