# generated using pymatgen
data_Dy(Cd10Ru)2
_symmetry_space_group_name_H-M   'P 1'
_cell_length_a   11.09440785
_cell_length_b   11.09440742
_cell_length_c   11.09440800
_cell_angle_alpha   60.00000423
_cell_angle_beta   59.99999957
_cell_angle_gamma   59.99999967
_symmetry_Int_Tables_number   1
_chemical_formula_structural   Dy(Cd10Ru)2
_chemical_formula_sum   'Dy2 Cd40 Ru4'
_cell_volume   965.60028313
_cell_formula_units_Z   2
loop_
 _symmetry_equiv_pos_site_id
 _symmetry_equiv_pos_as_xyz
  1  'x, y, z'
loop_
 _atom_site_type_symbol
 _atom_site_label
 _atom_site_symmetry_multiplicity
 _atom_site_fract_x
 _atom_site_fract_y
 _atom_site_fract_z
 _atom_site_occupancy
  Dy  Dy0  1  0.125000  0.125000  0.125000  1
  Dy  Dy1  1  0.875000  0.875000  0.875000  1
  Cd  Cd2  1  0.488687  0.488687  0.761313  1
  Cd  Cd3  1  0.238687  0.511313  0.238687  1
  Cd  Cd4  1  0.324824  0.324824  0.056311  1
  Cd  Cd5  1  0.324824  0.056311  0.794040  1
  Cd  Cd6  1  0.761313  0.488687  0.488687  1
  Cd  Cd7  1  0.943689  0.205960  0.675176  1
  Cd  Cd8  1  0.675176  0.205960  0.943689  1
  Cd  Cd9  1  0.000000  0.000000  0.500000  1
  Cd  Cd10  1  0.675176  0.943689  0.205960  1
  Cd  Cd11  1  0.794040  0.324824  0.056311  1
  Cd  Cd12  1  0.943689  0.675176  0.675176  1
  Cd  Cd13  1  0.675176  0.675176  0.943689  1
  Cd  Cd14  1  0.794040  0.056311  0.324824  1
  Cd  Cd15  1  0.943689  0.675176  0.205960  1
  Cd  Cd16  1  0.675176  0.205960  0.675176  1
  Cd  Cd17  1  0.205960  0.943689  0.675176  1
  Cd  Cd18  1  0.056311  0.324824  0.324824  1
  Cd  Cd19  1  0.511313  0.511313  0.238687  1
  Cd  Cd20  1  0.056311  0.794040  0.324824  1
  Cd  Cd21  1  0.324824  0.794040  0.056311  1
  Cd  Cd22  1  0.324824  0.324824  0.794040  1
  Cd  Cd23  1  0.324824  0.056311  0.324824  1
  Cd  Cd24  1  0.761313  0.488687  0.761313  1
  Cd  Cd25  1  0.675176  0.943689  0.675176  1
  Cd  Cd26  1  0.488687  0.761313  0.761313  1
  Cd  Cd27  1  0.324824  0.794040  0.324824  1
  Cd  Cd28  1  0.488687  0.761313  0.488687  1
  Cd  Cd29  1  0.205960  0.675176  0.675176  1
  Cd  Cd30  1  0.675176  0.675176  0.205960  1
  Cd  Cd31  1  0.205960  0.675176  0.943689  1
  Cd  Cd32  1  0.500000  0.000000  0.000000  1
  Cd  Cd33  1  0.511313  0.238687  0.238687  1
  Cd  Cd34  1  0.000000  0.000000  0.000000  1
  Cd  Cd35  1  0.761313  0.761313  0.488687  1
  Cd  Cd36  1  0.238687  0.238687  0.511313  1
  Cd  Cd37  1  0.511313  0.238687  0.511313  1
  Cd  Cd38  1  0.794040  0.324824  0.324824  1
  Cd  Cd39  1  0.000000  0.500000  0.000000  1
  Cd  Cd40  1  0.238687  0.511313  0.511313  1
  Cd  Cd41  1  0.056311  0.324824  0.794040  1
  Ru  Ru42  1  0.000000  0.500000  0.500000  1
  Ru  Ru43  1  0.500000  0.500000  0.000000  1
  Ru  Ru44  1  0.500000  0.500000  0.500000  1
  Ru  Ru45  1  0.500000  0.000000  0.500000  1
