# generated using pymatgen
data_La4Th(RhO6)2
_symmetry_space_group_name_H-M   'P 1'
_cell_length_a   7.18369047
_cell_length_b   7.18369052
_cell_length_c   7.58414100
_cell_angle_alpha   74.55743981
_cell_angle_beta   74.55743970
_cell_angle_gamma   50.86425780
_symmetry_Int_Tables_number   1
_chemical_formula_structural   La4Th(RhO6)2
_chemical_formula_sum   'La4 Th1 Rh2 O12'
_cell_volume   290.08168303
_cell_formula_units_Z   1
loop_
 _symmetry_equiv_pos_site_id
 _symmetry_equiv_pos_as_xyz
  1  'x, y, z'
loop_
 _atom_site_type_symbol
 _atom_site_label
 _atom_site_symmetry_multiplicity
 _atom_site_fract_x
 _atom_site_fract_y
 _atom_site_fract_z
 _atom_site_occupancy
  La  La0  1  0.691690  0.691690  0.647271  1
  La  La1  1  0.693260  0.693260  0.159512  1
  La  La2  1  0.305358  0.305358  0.841376  1
  La  La3  1  0.000029  0.000029  0.498826  1
  Th  Th4  1  0.308022  0.308022  0.352784  1
  Rh  Rh5  1  0.754772  0.245710  0.000658  1
  Rh  Rh6  1  0.245710  0.754772  0.000658  1
  O  O7  1  0.100486  0.592125  0.565118  1
  O  O8  1  0.000210  0.000210  0.170908  1
  O  O9  1  0.395087  0.918617  0.423390  1
  O  O10  1  0.498811  0.498811  0.180531  1
  O  O11  1  0.102134  0.569546  0.090133  1
  O  O12  1  0.918617  0.395087  0.423390  1
  O  O13  1  0.998526  0.998526  0.831057  1
  O  O14  1  0.592125  0.100485  0.565118  1
  O  O15  1  0.498793  0.498793  0.825128  1
  O  O16  1  0.569546  0.102134  0.090133  1
  O  O17  1  0.425738  0.901086  0.917004  1
  O  O18  1  0.901086  0.425738  0.917004  1
