# generated using pymatgen
data_NdMg2PaRh2
_symmetry_space_group_name_H-M   'P 1'
_cell_length_a   3.85416700
_cell_length_b   7.49799330
_cell_length_c   9.11593626
_cell_angle_alpha   91.22806432
_cell_angle_beta   90.00000000
_cell_angle_gamma   90.00000000
_symmetry_Int_Tables_number   1
_chemical_formula_structural   NdMg2PaRh2
_chemical_formula_sum   'Nd2 Mg4 Pa2 Rh4'
_cell_volume   263.37654113
_cell_formula_units_Z   2
loop_
 _symmetry_equiv_pos_site_id
 _symmetry_equiv_pos_as_xyz
  1  'x, y, z'
loop_
 _atom_site_type_symbol
 _atom_site_label
 _atom_site_symmetry_multiplicity
 _atom_site_fract_x
 _atom_site_fract_y
 _atom_site_fract_z
 _atom_site_occupancy
  Nd  Nd0  1  0.250000  0.529876  0.815381  1
  Nd  Nd1  1  0.750000  0.470124  0.184619  1
  Mg  Mg2  1  0.750000  0.855823  0.951877  1
  Mg  Mg3  1  0.250000  0.144177  0.048123  1
  Mg  Mg4  1  0.250000  0.642779  0.449275  1
  Mg  Mg5  1  0.750000  0.357221  0.550725  1
  Pa  Pa6  1  0.750000  0.969679  0.314070  1
  Pa  Pa7  1  0.250000  0.030321  0.685930  1
  Rh  Rh8  1  0.750000  0.788085  0.633578  1
  Rh  Rh9  1  0.250000  0.211915  0.366422  1
  Rh  Rh10  1  0.250000  0.779241  0.170991  1
  Rh  Rh11  1  0.750000  0.220759  0.829009  1
