# generated using pymatgen
data_Ho6Lu2Sc12Si15Se
_symmetry_space_group_name_H-M   'P 1'
_cell_length_a   7.13359469
_cell_length_b   7.32434273
_cell_length_c   13.92232115
_cell_angle_alpha   89.83049852
_cell_angle_beta   88.20646411
_cell_angle_gamma   90.00117870
_symmetry_Int_Tables_number   1
_chemical_formula_structural   Ho6Lu2Sc12Si15Se
_chemical_formula_sum   'Ho6 Lu2 Sc12 Si15 Se1'
_cell_volume   727.06630566
_cell_formula_units_Z   1
loop_
 _symmetry_equiv_pos_site_id
 _symmetry_equiv_pos_as_xyz
  1  'x, y, z'
loop_
 _atom_site_type_symbol
 _atom_site_label
 _atom_site_symmetry_multiplicity
 _atom_site_fract_x
 _atom_site_fract_y
 _atom_site_fract_z
 _atom_site_occupancy
  Ho  Ho0  1  0.491419  0.676435  0.903743  1
  Ho  Ho1  1  0.000563  0.824416  0.596181  1
  Ho  Ho2  1  0.508869  0.324502  0.096651  1
  Ho  Ho3  1  0.994670  0.175263  0.401732  1
  Ho  Ho4  1  0.498740  0.316909  0.399970  1
  Ho  Ho5  1  0.510141  0.682479  0.599524  1
  Lu  Lu6  1  0.008775  0.176751  0.097505  1
  Lu  Lu7  1  0.991671  0.824570  0.903019  1
  Sc  Sc8  1  0.172004  0.501198  0.753446  1
  Sc  Sc9  1  0.828107  0.499260  0.252382  1
  Sc  Sc10  1  0.326983  0.000937  0.251030  1
  Sc  Sc11  1  0.673596  0.998339  0.749480  1
  Sc  Sc12  1  0.352860  0.165626  0.626465  1
  Sc  Sc13  1  0.648881  0.830475  0.374164  1
  Sc  Sc14  1  0.147160  0.669886  0.376328  1
  Sc  Sc15  1  0.664155  0.823688  0.125098  1
  Sc  Sc16  1  0.847532  0.331820  0.622143  1
  Sc  Sc17  1  0.334605  0.175275  0.874389  1
  Sc  Sc18  1  0.837751  0.321722  0.874245  1
  Sc  Sc19  1  0.162320  0.678436  0.125265  1
  Si  Si20  1  0.044841  0.116536  0.748773  1
  Si  Si21  1  0.954740  0.884390  0.249197  1
  Si  Si22  1  0.452736  0.616364  0.249287  1
  Si  Si23  1  0.545915  0.383868  0.749956  1
  Si  Si24  1  0.294295  0.869187  0.751525  1
  Si  Si25  1  0.705901  0.128430  0.247184  1
  Si  Si26  1  0.203030  0.371724  0.248488  1
  Si  Si27  1  0.799633  0.629220  0.751477  1
  Si  Si28  1  0.799470  0.540120  0.456817  1
  Si  Si29  1  0.315001  0.959506  0.459800  1
  Si  Si30  1  0.841649  0.535143  0.038791  1
  Si  Si31  1  0.683026  0.040753  0.540838  1
  Si  Si32  1  0.157540  0.465632  0.961162  1
  Si  Si33  1  0.660217  0.034393  0.960044  1
  Si  Si34  1  0.339017  0.966868  0.039967  1
  Se  Se35  1  0.202189  0.459879  0.543933  1
