# generated using pymatgen
data_LaDy2Co9(CuB2)2
_symmetry_space_group_name_H-M   'P 1'
_cell_length_a   5.08385300
_cell_length_b   5.08385252
_cell_length_c   9.82966200
_cell_angle_alpha   90.00000000
_cell_angle_beta   90.00000000
_cell_angle_gamma   120.00000965
_symmetry_Int_Tables_number   1
_chemical_formula_structural   LaDy2Co9(CuB2)2
_chemical_formula_sum   'La1 Dy2 Co9 Cu2 B4'
_cell_volume   220.01642392
_cell_formula_units_Z   1
loop_
 _symmetry_equiv_pos_site_id
 _symmetry_equiv_pos_as_xyz
  1  'x, y, z'
loop_
 _atom_site_type_symbol
 _atom_site_label
 _atom_site_symmetry_multiplicity
 _atom_site_fract_x
 _atom_site_fract_y
 _atom_site_fract_z
 _atom_site_occupancy
  La  La0  1  0.000000  0.000000  0.000000  1
  Dy  Dy1  1  0.000000  0.000000  0.656014  1
  Dy  Dy2  1  0.000000  0.000000  0.343986  1
  Co  Co3  1  0.500000  0.500000  0.500000  1
  Co  Co4  1  0.000000  0.500000  0.500000  1
  Co  Co5  1  0.500000  0.000000  0.211806  1
  Co  Co6  1  0.500000  0.500000  0.211806  1
  Co  Co7  1  0.000000  0.500000  0.211806  1
  Co  Co8  1  0.500000  0.000000  0.788194  1
  Co  Co9  1  0.500000  0.500000  0.788194  1
  Co  Co10  1  0.000000  0.500000  0.788194  1
  Co  Co11  1  0.500000  0.000000  0.500000  1
  Cu  Cu12  1  0.333333  0.666667  0.000000  1
  Cu  Cu13  1  0.666667  0.333333  0.000000  1
  B  B14  1  0.333333  0.666667  0.648377  1
  B  B15  1  0.666667  0.333333  0.648377  1
  B  B16  1  0.666667  0.333333  0.351623  1
  B  B17  1  0.333333  0.666667  0.351623  1
