# generated using pymatgen
data_LaAs2IrRh
_symmetry_space_group_name_H-M   'P 1'
_cell_length_a   4.38800400
_cell_length_b   4.38800400
_cell_length_c   9.94911600
_cell_angle_alpha   90.00000000
_cell_angle_beta   90.00000000
_cell_angle_gamma   90.00000000
_symmetry_Int_Tables_number   1
_chemical_formula_structural   LaAs2IrRh
_chemical_formula_sum   'La2 As4 Ir2 Rh2'
_cell_volume   191.56604104
_cell_formula_units_Z   2
loop_
 _symmetry_equiv_pos_site_id
 _symmetry_equiv_pos_as_xyz
  1  'x, y, z'
loop_
 _atom_site_type_symbol
 _atom_site_label
 _atom_site_symmetry_multiplicity
 _atom_site_fract_x
 _atom_site_fract_y
 _atom_site_fract_z
 _atom_site_occupancy
  La  La0  1  0.000000  0.500000  0.256194  1
  La  La1  1  0.500000  0.000000  0.743806  1
  As  As2  1  0.000000  0.000000  0.500000  1
  As  As3  1  0.500000  0.500000  0.500000  1
  As  As4  1  0.000000  0.500000  0.865124  1
  As  As5  1  0.500000  0.000000  0.134876  1
  Ir  Ir6  1  0.000000  0.500000  0.616476  1
  Ir  Ir7  1  0.500000  0.000000  0.383524  1
  Rh  Rh8  1  0.000000  0.000000  0.000000  1
  Rh  Rh9  1  0.500000  0.500000  0.000000  1
