# generated using pymatgen
data_Yb(Tc2As)2
_symmetry_space_group_name_H-M   'P 1'
_cell_length_a   7.53850900
_cell_length_b   7.53850900
_cell_length_c   4.09341300
_cell_angle_alpha   90.00000000
_cell_angle_beta   90.00000000
_cell_angle_gamma   90.00000000
_symmetry_Int_Tables_number   1
_chemical_formula_structural   Yb(Tc2As)2
_chemical_formula_sum   'Yb2 Tc8 As4'
_cell_volume   232.62505017
_cell_formula_units_Z   2
loop_
 _symmetry_equiv_pos_site_id
 _symmetry_equiv_pos_as_xyz
  1  'x, y, z'
loop_
 _atom_site_type_symbol
 _atom_site_label
 _atom_site_symmetry_multiplicity
 _atom_site_fract_x
 _atom_site_fract_y
 _atom_site_fract_z
 _atom_site_occupancy
  Yb  Yb0  1  0.500000  0.500000  0.000000  1
  Yb  Yb1  1  0.000000  0.000000  0.500000  1
  Tc  Tc2  1  0.587849  0.154949  0.500000  1
  Tc  Tc3  1  0.412151  0.845051  0.500000  1
  Tc  Tc4  1  0.087849  0.345051  0.000000  1
  Tc  Tc5  1  0.912151  0.654949  0.000000  1
  Tc  Tc6  1  0.154949  0.587849  0.500000  1
  Tc  Tc7  1  0.845051  0.412151  0.500000  1
  Tc  Tc8  1  0.345051  0.087849  0.000000  1
  Tc  Tc9  1  0.654949  0.912151  0.000000  1
  As  As10  1  0.708091  0.708091  0.500000  1
  As  As11  1  0.291909  0.291909  0.500000  1
  As  As12  1  0.208091  0.791909  0.000000  1
  As  As13  1  0.791909  0.208091  0.000000  1
