# generated using pymatgen
data_Dy4Al4CoPd3
_symmetry_space_group_name_H-M   'P 1'
_cell_length_a   4.39436600
_cell_length_b   6.82587148
_cell_length_c   7.81687644
_cell_angle_alpha   90.25034508
_cell_angle_beta   90.00000000
_cell_angle_gamma   90.00000000
_symmetry_Int_Tables_number   1
_chemical_formula_structural   Dy4Al4CoPd3
_chemical_formula_sum   'Dy4 Al4 Co1 Pd3'
_cell_volume   234.46792185
_cell_formula_units_Z   1
loop_
 _symmetry_equiv_pos_site_id
 _symmetry_equiv_pos_as_xyz
  1  'x, y, z'
loop_
 _atom_site_type_symbol
 _atom_site_label
 _atom_site_symmetry_multiplicity
 _atom_site_fract_x
 _atom_site_fract_y
 _atom_site_fract_z
 _atom_site_occupancy
  Dy  Dy0  1  0.250000  0.042088  0.327784  1
  Dy  Dy1  1  0.250000  0.533526  0.178553  1
  Dy  Dy2  1  0.750000  0.979207  0.678609  1
  Dy  Dy3  1  0.750000  0.460170  0.814308  1
  Al  Al4  1  0.250000  0.146908  0.932027  1
  Al  Al5  1  0.250000  0.629489  0.562055  1
  Al  Al6  1  0.750000  0.857971  0.059755  1
  Al  Al7  1  0.750000  0.353213  0.446330  1
  Co  Co8  1  0.250000  0.268701  0.620581  1
  Pd  Pd9  1  0.250000  0.770655  0.878852  1
  Pd  Pd10  1  0.750000  0.728471  0.379611  1
  Pd  Pd11  1  0.750000  0.229602  0.121536  1
