# generated using pymatgen
data_Dy2VSi4Tc7
_symmetry_space_group_name_H-M   'P 1'
_cell_length_a   6.95376489
_cell_length_b   7.69479282
_cell_length_c   4.19494100
_cell_angle_alpha   90.00000000
_cell_angle_beta   90.00000000
_cell_angle_gamma   89.78696024
_symmetry_Int_Tables_number   1
_chemical_formula_structural   Dy2VSi4Tc7
_chemical_formula_sum   'Dy2 V1 Si4 Tc7'
_cell_volume   224.46042914
_cell_formula_units_Z   1
loop_
 _symmetry_equiv_pos_site_id
 _symmetry_equiv_pos_as_xyz
  1  'x, y, z'
loop_
 _atom_site_type_symbol
 _atom_site_label
 _atom_site_symmetry_multiplicity
 _atom_site_fract_x
 _atom_site_fract_y
 _atom_site_fract_z
 _atom_site_occupancy
  Dy  Dy0  1  0.502206  0.499303  0.500000  1
  Dy  Dy1  1  0.995959  0.999202  0.000000  1
  V  V2  1  0.648410  0.885566  0.500000  1
  Si  Si3  1  0.772210  0.188570  0.500000  1
  Si  Si4  1  0.230023  0.810001  0.500000  1
  Si  Si5  1  0.269248  0.308195  0.000000  1
  Si  Si6  1  0.729162  0.692726  0.000000  1
  Tc  Tc7  1  0.349391  0.110787  0.500000  1
  Tc  Tc8  1  0.154866  0.611062  0.000000  1
  Tc  Tc9  1  0.846746  0.389764  0.000000  1
  Tc  Tc10  1  0.918037  0.658615  0.500000  1
  Tc  Tc11  1  0.081563  0.341874  0.500000  1
  Tc  Tc12  1  0.583132  0.161811  0.000000  1
  Tc  Tc13  1  0.419048  0.842523  0.000000  1
