# generated using pymatgen
data_Dy10ZnSiSn6
_symmetry_space_group_name_H-M   'P 1'
_cell_length_a   9.17942200
_cell_length_b   9.17942441
_cell_length_c   6.55759100
_cell_angle_alpha   89.99997238
_cell_angle_beta   89.99999376
_cell_angle_gamma   119.99997788
_symmetry_Int_Tables_number   1
_chemical_formula_structural   Dy10ZnSiSn6
_chemical_formula_sum   'Dy10 Zn1 Si1 Sn6'
_cell_volume   478.52633124
_cell_formula_units_Z   1
loop_
 _symmetry_equiv_pos_site_id
 _symmetry_equiv_pos_as_xyz
  1  'x, y, z'
loop_
 _atom_site_type_symbol
 _atom_site_label
 _atom_site_symmetry_multiplicity
 _atom_site_fract_x
 _atom_site_fract_y
 _atom_site_fract_z
 _atom_site_occupancy
  Dy  Dy0  1  0.666667  0.333333  0.000000  1
  Dy  Dy1  1  0.333333  0.666667  0.000000  1
  Dy  Dy2  1  0.333333  0.666667  0.500000  1
  Dy  Dy3  1  0.666667  0.333333  0.500000  1
  Dy  Dy4  1  0.741963  0.741963  0.735825  1
  Dy  Dy5  1  0.258037  0.000000  0.735825  1
  Dy  Dy6  1  0.000000  0.258037  0.735825  1
  Dy  Dy7  1  0.258037  0.258037  0.264175  1
  Dy  Dy8  1  0.741963  0.000000  0.264175  1
  Dy  Dy9  1  0.000000  0.741963  0.264175  1
  Zn  Zn10  1  0.000000  0.000000  0.000000  1
  Si  Si11  1  0.000000  0.000000  0.500000  1
  Sn  Sn12  1  0.389096  0.389095  0.749862  1
  Sn  Sn13  1  0.610904  0.000000  0.749861  1
  Sn  Sn14  1  0.000000  0.610904  0.749861  1
  Sn  Sn15  1  0.610904  0.610905  0.250138  1
  Sn  Sn16  1  0.389096  0.000000  0.250139  1
  Sn  Sn17  1  0.000000  0.389096  0.250139  1
