# generated using pymatgen
data_Nd12Zn(RuBr4)3
_symmetry_space_group_name_H-M   'P 1'
_cell_length_a   10.52473468
_cell_length_b   10.52473426
_cell_length_c   10.35403500
_cell_angle_alpha   109.14300373
_cell_angle_beta   109.14300295
_cell_angle_gamma   109.79743272
_symmetry_Int_Tables_number   1
_chemical_formula_structural   Nd12Zn(RuBr4)3
_chemical_formula_sum   'Nd12 Zn1 Ru3 Br12'
_cell_volume   886.44787125
_cell_formula_units_Z   1
loop_
 _symmetry_equiv_pos_site_id
 _symmetry_equiv_pos_as_xyz
  1  'x, y, z'
loop_
 _atom_site_type_symbol
 _atom_site_label
 _atom_site_symmetry_multiplicity
 _atom_site_fract_x
 _atom_site_fract_y
 _atom_site_fract_z
 _atom_site_occupancy
  Nd  Nd0  1  0.259415  0.734763  0.229217  1
  Nd  Nd1  1  0.475348  0.734763  0.005546  1
  Nd  Nd2  1  0.234519  0.469037  0.484519  1
  Nd  Nd3  1  0.014888  0.029778  0.264888  1
  Nd  Nd4  1  0.234519  0.265481  0.750000  1
  Nd  Nd5  1  0.014888  0.485112  0.750000  1
  Nd  Nd6  1  0.475348  0.240585  0.469801  1
  Nd  Nd7  1  0.259415  0.024652  0.030199  1
  Nd  Nd8  1  0.765237  0.240585  0.270783  1
  Nd  Nd9  1  0.765237  0.024652  0.494454  1
  Nd  Nd10  1  0.470222  0.485112  0.235112  1
  Nd  Nd11  1  0.030963  0.265481  0.015481  1
  Zn  Zn12  1  0.500000  0.000000  0.250000  1
  Ru  Ru13  1  0.249801  0.499604  0.999801  1
  Ru  Ru14  1  0.000396  0.250199  0.500199  1
  Ru  Ru15  1  0.249801  0.250199  0.250000  1
  Br  Br16  1  0.248962  0.993515  0.502202  1
  Br  Br17  1  0.514615  0.507307  0.757307  1
  Br  Br18  1  0.248962  0.755448  0.746761  1
  Br  Br19  1  0.993177  0.746590  0.996590  1
  Br  Br20  1  0.992693  0.507307  0.250000  1
  Br  Br21  1  0.744552  0.993515  0.991312  1
  Br  Br22  1  0.753410  0.746590  0.250000  1
  Br  Br23  1  0.506485  0.755448  0.508688  1
  Br  Br24  1  0.506485  0.251038  0.997798  1
  Br  Br25  1  0.753410  0.506823  0.503410  1
  Br  Br26  1  0.744552  0.251038  0.753239  1
  Br  Br27  1  0.992693  0.985385  0.742693  1
