# generated using pymatgen
data_Tb2Si7Ni12
_symmetry_space_group_name_H-M   'P 1'
_cell_length_a   9.23269600
_cell_length_b   9.23269662
_cell_length_c   3.67133000
_cell_angle_alpha   90.00000000
_cell_angle_beta   90.00000000
_cell_angle_gamma   119.99999777
_symmetry_Int_Tables_number   1
_chemical_formula_structural   Tb2Si7Ni12
_chemical_formula_sum   'Tb2 Si7 Ni12'
_cell_volume   271.02613128
_cell_formula_units_Z   1
loop_
 _symmetry_equiv_pos_site_id
 _symmetry_equiv_pos_as_xyz
  1  'x, y, z'
loop_
 _atom_site_type_symbol
 _atom_site_label
 _atom_site_symmetry_multiplicity
 _atom_site_fract_x
 _atom_site_fract_y
 _atom_site_fract_z
 _atom_site_occupancy
  Tb  Tb0  1  0.666667  0.333333  0.000000  1
  Tb  Tb1  1  0.333333  0.666667  0.500000  1
  Si  Si2  1  0.283674  0.884829  0.000000  1
  Si  Si3  1  0.601157  0.716326  0.000000  1
  Si  Si4  1  0.115171  0.398843  0.000000  1
  Si  Si5  1  0.401249  0.294668  0.500000  1
  Si  Si6  1  0.893420  0.598751  0.500000  1
  Si  Si7  1  0.705332  0.106580  0.500000  1
  Si  Si8  1  0.000000  0.000000  0.000000  1
  Ni  Ni9  1  0.056260  0.617651  0.000000  1
  Ni  Ni10  1  0.561391  0.943740  0.000000  1
  Ni  Ni11  1  0.382349  0.438609  0.000000  1
  Ni  Ni12  1  0.277039  0.126043  0.000000  1
  Ni  Ni13  1  0.849004  0.722961  0.000000  1
  Ni  Ni14  1  0.873957  0.150996  0.000000  1
  Ni  Ni15  1  0.429456  0.051534  0.500000  1
  Ni  Ni16  1  0.622078  0.570544  0.500000  1
  Ni  Ni17  1  0.948466  0.377922  0.500000  1
  Ni  Ni18  1  0.096132  0.883146  0.500000  1
  Ni  Ni19  1  0.787013  0.903868  0.500000  1
  Ni  Ni20  1  0.116854  0.212987  0.500000  1
