# generated using pymatgen
data_Tb8Ho9Lu3Pb16
_symmetry_space_group_name_H-M   'P 1'
_cell_length_a   8.18503600
_cell_length_b   8.27860224
_cell_length_c   15.64792900
_cell_angle_alpha   90.00000000
_cell_angle_beta   90.00000000
_cell_angle_gamma   89.92965546
_symmetry_Int_Tables_number   1
_chemical_formula_structural   Tb8Ho9Lu3Pb16
_chemical_formula_sum   'Tb8 Ho9 Lu3 Pb16'
_cell_volume   1060.31315621
_cell_formula_units_Z   1
loop_
 _symmetry_equiv_pos_site_id
 _symmetry_equiv_pos_as_xyz
  1  'x, y, z'
loop_
 _atom_site_type_symbol
 _atom_site_label
 _atom_site_symmetry_multiplicity
 _atom_site_fract_x
 _atom_site_fract_y
 _atom_site_fract_z
 _atom_site_occupancy
  Tb  Tb0  1  0.534336  0.323170  0.900210  1
  Tb  Tb1  1  0.034369  0.176791  0.600031  1
  Tb  Tb2  1  0.465982  0.676358  0.400216  1
  Tb  Tb3  1  0.965453  0.822855  0.099755  1
  Tb  Tb4  1  0.465982  0.676358  0.099784  1
  Tb  Tb5  1  0.965453  0.822855  0.400245  1
  Tb  Tb6  1  0.534336  0.323170  0.599790  1
  Tb  Tb7  1  0.034369  0.176791  0.899969  1
  Ho  Ho8  1  0.376581  0.841353  0.879037  1
  Ho  Ho9  1  0.876482  0.658588  0.620653  1
  Ho  Ho10  1  0.623961  0.159034  0.379447  1
  Ho  Ho11  1  0.123010  0.341528  0.120569  1
  Ho  Ho12  1  0.623961  0.159034  0.120553  1
  Ho  Ho13  1  0.123010  0.341528  0.379431  1
  Ho  Ho14  1  0.376581  0.841353  0.620963  1
  Ho  Ho15  1  0.876482  0.658588  0.879347  1
  Ho  Ho16  1  0.291663  0.004096  0.250000  1
  Lu  Lu17  1  0.208506  0.504270  0.750000  1
  Lu  Lu18  1  0.708476  0.995494  0.750000  1
  Lu  Lu19  1  0.791312  0.495544  0.250000  1
  Pb  Pb20  1  0.282192  0.033824  0.042940  1
  Pb  Pb21  1  0.782217  0.466422  0.456398  1
  Pb  Pb22  1  0.717801  0.966615  0.543821  1
  Pb  Pb23  1  0.217991  0.533678  0.956219  1
  Pb  Pb24  1  0.717801  0.966615  0.956179  1
  Pb  Pb25  1  0.217991  0.533678  0.543781  1
  Pb  Pb26  1  0.282192  0.033824  0.457060  1
  Pb  Pb27  1  0.782217  0.466422  0.043602  1
  Pb  Pb28  1  0.570816  0.626377  0.750000  1
  Pb  Pb29  1  0.070677  0.873273  0.750000  1
  Pb  Pb30  1  0.429299  0.374124  0.250000  1
  Pb  Pb31  1  0.927643  0.127623  0.250000  1
  Pb  Pb32  1  0.346477  0.154426  0.750000  1
  Pb  Pb33  1  0.846276  0.346172  0.750000  1
  Pb  Pb34  1  0.654367  0.845928  0.250000  1
  Pb  Pb35  1  0.153737  0.652243  0.250000  1
