# generated using pymatgen
data_TiBe15Nb5(CoCu3)2
_symmetry_space_group_name_H-M   'P 1'
_cell_length_a   7.64762307
_cell_length_b   7.64556142
_cell_length_c   7.64556349
_cell_angle_alpha   59.68486820
_cell_angle_beta   59.71607840
_cell_angle_gamma   59.71608932
_symmetry_Int_Tables_number   1
_chemical_formula_structural   TiBe15Nb5(CoCu3)2
_chemical_formula_sum   'Ti1 Be15 Nb5 Co2 Cu6'
_cell_volume   313.99096918
_cell_formula_units_Z   1
loop_
 _symmetry_equiv_pos_site_id
 _symmetry_equiv_pos_as_xyz
  1  'x, y, z'
loop_
 _atom_site_type_symbol
 _atom_site_label
 _atom_site_symmetry_multiplicity
 _atom_site_fract_x
 _atom_site_fract_y
 _atom_site_fract_z
 _atom_site_occupancy
  Ti  Ti0  1  0.717950  0.293025  0.293025  1
  Be  Be1  1  0.328929  0.327249  0.327249  1
  Be  Be2  1  0.672073  0.673196  0.673196  1
  Be  Be3  1  0.322226  0.322648  0.024752  1
  Be  Be4  1  0.322226  0.024752  0.322648  1
  Be  Be5  1  0.676503  0.676886  0.977978  1
  Be  Be6  1  0.676503  0.977978  0.676886  1
  Be  Be7  1  0.021327  0.322543  0.322543  1
  Be  Be8  1  0.974471  0.678113  0.678113  1
  Be  Be9  1  0.500432  0.000027  0.000027  1
  Be  Be10  1  0.000460  0.499940  0.499940  1
  Be  Be11  1  0.000200  0.499419  0.000192  1
  Be  Be12  1  0.499511  0.998765  0.500247  1
  Be  Be13  1  0.000200  0.000192  0.499419  1
  Be  Be14  1  0.499511  0.500247  0.998765  1
  Be  Be15  1  0.999546  0.000193  0.000193  1
  Nb  Nb16  1  0.291421  0.700797  0.700797  1
  Nb  Nb17  1  0.301376  0.704421  0.304837  1
  Nb  Nb18  1  0.697348  0.295548  0.697960  1
  Nb  Nb19  1  0.301376  0.304837  0.704421  1
  Nb  Nb20  1  0.697348  0.697960  0.295548  1
  Co  Co21  1  0.122791  0.121709  0.121709  1
  Co  Co22  1  0.877888  0.877424  0.877424  1
  Cu  Cu23  1  0.122956  0.123766  0.631933  1
  Cu  Cu24  1  0.122956  0.631933  0.123766  1
  Cu  Cu25  1  0.876040  0.877790  0.367479  1
  Cu  Cu26  1  0.876040  0.367479  0.877790  1
  Cu  Cu27  1  0.632940  0.123455  0.123455  1
  Cu  Cu28  1  0.367450  0.877705  0.877705  1
