# generated using pymatgen
data_CsEr2(FeH6)2
_symmetry_space_group_name_H-M   'P 1'
_cell_length_a   4.73242600
_cell_length_b   4.73242675
_cell_length_c   9.01002200
_cell_angle_alpha   90.00000000
_cell_angle_beta   90.00000000
_cell_angle_gamma   119.99999478
_symmetry_Int_Tables_number   1
_chemical_formula_structural   CsEr2(FeH6)2
_chemical_formula_sum   'Cs1 Er2 Fe2 H12'
_cell_volume   174.75283819
_cell_formula_units_Z   1
loop_
 _symmetry_equiv_pos_site_id
 _symmetry_equiv_pos_as_xyz
  1  'x, y, z'
loop_
 _atom_site_type_symbol
 _atom_site_label
 _atom_site_symmetry_multiplicity
 _atom_site_fract_x
 _atom_site_fract_y
 _atom_site_fract_z
 _atom_site_occupancy
  Cs  Cs0  1  0.000000  0.000000  0.000000  1
  Er  Er1  1  0.666667  0.333333  0.375061  1
  Er  Er2  1  0.333333  0.666667  0.624939  1
  Fe  Fe3  1  0.666667  0.333333  0.692380  1
  Fe  Fe4  1  0.333333  0.666667  0.307620  1
  H  H5  1  0.171557  0.828443  0.404360  1
  H  H6  1  0.656887  0.828443  0.404360  1
  H  H7  1  0.171557  0.343113  0.404360  1
  H  H8  1  0.828443  0.171557  0.595640  1
  H  H9  1  0.343113  0.171557  0.595640  1
  H  H10  1  0.828443  0.656887  0.595640  1
  H  H11  1  0.518174  0.036349  0.802116  1
  H  H12  1  0.518174  0.481826  0.802116  1
  H  H13  1  0.963651  0.481826  0.802116  1
  H  H14  1  0.481826  0.963651  0.197884  1
  H  H15  1  0.481826  0.518174  0.197884  1
  H  H16  1  0.036349  0.518174  0.197884  1
