# generated using pymatgen
data_Y12ZnInFe4
_symmetry_space_group_name_H-M   'P 1'
_cell_length_a   8.42083371
_cell_length_b   8.42083298
_cell_length_c   8.42083490
_cell_angle_alpha   111.12247043
_cell_angle_beta   110.72990613
_cell_angle_gamma   106.59916199
_symmetry_Int_Tables_number   1
_chemical_formula_structural   Y12ZnInFe4
_chemical_formula_sum   'Y12 Zn1 In1 Fe4'
_cell_volume   458.80061755
_cell_formula_units_Z   1
loop_
 _symmetry_equiv_pos_site_id
 _symmetry_equiv_pos_as_xyz
  1  'x, y, z'
loop_
 _atom_site_type_symbol
 _atom_site_label
 _atom_site_symmetry_multiplicity
 _atom_site_fract_x
 _atom_site_fract_y
 _atom_site_fract_z
 _atom_site_occupancy
  Y  Y0  1  0.428355  0.225148  0.203207  1
  Y  Y1  1  0.571645  0.774852  0.796793  1
  Y  Y2  1  0.021941  0.225148  0.796793  1
  Y  Y3  1  0.978059  0.774852  0.203207  1
  Y  Y4  1  0.186484  0.285601  0.472085  1
  Y  Y5  1  0.813516  0.714399  0.527915  1
  Y  Y6  1  0.186484  0.714399  0.900883  1
  Y  Y7  1  0.813516  0.285601  0.099117  1
  Y  Y8  1  0.312625  0.612746  0.300119  1
  Y  Y9  1  0.687375  0.387254  0.699881  1
  Y  Y10  1  0.312625  0.012505  0.699881  1
  Y  Y11  1  0.687375  0.987495  0.300119  1
  Zn  Zn12  1  0.000000  0.000000  0.000000  1
  In  In13  1  0.500000  0.500000  0.000000  1
  Fe  Fe14  1  0.384335  0.000000  0.384335  1
  Fe  Fe15  1  0.615665  0.000000  0.615665  1
  Fe  Fe16  1  0.106720  0.606720  0.500000  1
  Fe  Fe17  1  0.893280  0.393280  0.500000  1
