# generated using pymatgen
data_LiY2Ag3O8
_symmetry_space_group_name_H-M   'P 1'
_cell_length_a   6.64333322
_cell_length_b   6.52538511
_cell_length_c   6.56047496
_cell_angle_alpha   126.32836785
_cell_angle_beta   126.84387614
_cell_angle_gamma   80.61741656
_symmetry_Int_Tables_number   1
_chemical_formula_structural   LiY2Ag3O8
_chemical_formula_sum   'Li1 Y2 Ag3 O8'
_cell_volume   175.02197526
_cell_formula_units_Z   1
loop_
 _symmetry_equiv_pos_site_id
 _symmetry_equiv_pos_as_xyz
  1  'x, y, z'
loop_
 _atom_site_type_symbol
 _atom_site_label
 _atom_site_symmetry_multiplicity
 _atom_site_fract_x
 _atom_site_fract_y
 _atom_site_fract_z
 _atom_site_occupancy
  Li  Li0  1  0.375000  0.625000  0.750000  1
  Y  Y1  1  0.734533  0.261330  0.498085  1
  Y  Y2  1  0.015467  0.988670  0.001915  1
  Ag  Ag3  1  0.375000  0.625000  0.250000  1
  Ag  Ag4  1  0.875000  0.625000  0.250000  1
  Ag  Ag5  1  0.375000  0.125000  0.750000  1
  O  O6  1  0.127523  0.596267  0.843818  1
  O  O7  1  0.761463  0.286697  0.155469  1
  O  O8  1  0.343116  0.001479  0.955121  1
  O  O9  1  0.706916  0.860377  0.449389  1
  O  O10  1  0.043084  0.389623  0.050611  1
  O  O11  1  0.406884  0.248521  0.544879  1
  O  O12  1  0.988537  0.963303  0.344531  1
  O  O13  1  0.622477  0.653733  0.656182  1
