# generated using pymatgen
data_LiNd17(HoIr6)2
_symmetry_space_group_name_H-M   'P 1'
_cell_length_a   11.20516000
_cell_length_b   11.20516000
_cell_length_c   6.44883000
_cell_angle_alpha   90.00000000
_cell_angle_beta   90.00000000
_cell_angle_gamma   90.00000000
_symmetry_Int_Tables_number   1
_chemical_formula_structural   LiNd17(HoIr6)2
_chemical_formula_sum   'Li1 Nd17 Ho2 Ir12'
_cell_volume   809.68678847
_cell_formula_units_Z   1
loop_
 _symmetry_equiv_pos_site_id
 _symmetry_equiv_pos_as_xyz
  1  'x, y, z'
loop_
 _atom_site_type_symbol
 _atom_site_label
 _atom_site_symmetry_multiplicity
 _atom_site_fract_x
 _atom_site_fract_y
 _atom_site_fract_z
 _atom_site_occupancy
  Li  Li0  1  0.000000  0.000000  0.000000  1
  Nd  Nd1  1  0.083816  0.278101  0.114578  1
  Nd  Nd2  1  0.790563  0.414499  0.117755  1
  Nd  Nd3  1  0.209437  0.585501  0.117755  1
  Nd  Nd4  1  0.916184  0.721899  0.114578  1
  Nd  Nd5  1  0.409558  0.789844  0.384767  1
  Nd  Nd6  1  0.590442  0.210156  0.384767  1
  Nd  Nd7  1  0.291910  0.088723  0.383856  1
  Nd  Nd8  1  0.708090  0.911277  0.383856  1
  Nd  Nd9  1  0.414499  0.209437  0.882245  1
  Nd  Nd10  1  0.721899  0.083816  0.885422  1
  Nd  Nd11  1  0.278101  0.916184  0.885422  1
  Nd  Nd12  1  0.585501  0.790563  0.882245  1
  Nd  Nd13  1  0.088723  0.708090  0.616144  1
  Nd  Nd14  1  0.911277  0.291910  0.616144  1
  Nd  Nd15  1  0.210156  0.409558  0.615233  1
  Nd  Nd16  1  0.789844  0.590442  0.615233  1
  Nd  Nd17  1  0.000000  0.000000  0.500000  1
  Ho  Ho18  1  0.500000  0.500000  0.000000  1
  Ho  Ho19  1  0.500000  0.500000  0.500000  1
  Ir  Ir20  1  0.155817  0.845683  0.256915  1
  Ir  Ir21  1  0.350515  0.350469  0.247033  1
  Ir  Ir22  1  0.649485  0.649531  0.247033  1
  Ir  Ir23  1  0.844183  0.154317  0.256915  1
  Ir  Ir24  1  0.350469  0.649485  0.752967  1
  Ir  Ir25  1  0.154317  0.155817  0.743085  1
  Ir  Ir26  1  0.845683  0.844183  0.743085  1
  Ir  Ir27  1  0.649531  0.350515  0.752967  1
  Ir  Ir28  1  0.000000  0.500000  0.377623  1
  Ir  Ir29  1  0.500000  0.000000  0.114268  1
  Ir  Ir30  1  0.500000  0.000000  0.622377  1
  Ir  Ir31  1  0.000000  0.500000  0.885732  1
