# generated using pymatgen
data_Sm6EuPtCl12
_symmetry_space_group_name_H-M   'P 1'
_cell_length_a   9.05367867
_cell_length_b   9.05367848
_cell_length_c   9.05368000
_cell_angle_alpha   106.44218635
_cell_angle_beta   106.44218601
_cell_angle_gamma   106.44219082
_symmetry_Int_Tables_number   1
_chemical_formula_structural   Sm6EuPtCl12
_chemical_formula_sum   'Sm6 Eu1 Pt1 Cl12'
_cell_volume   627.21319962
_cell_formula_units_Z   1
loop_
 _symmetry_equiv_pos_site_id
 _symmetry_equiv_pos_as_xyz
  1  'x, y, z'
loop_
 _atom_site_type_symbol
 _atom_site_label
 _atom_site_symmetry_multiplicity
 _atom_site_fract_x
 _atom_site_fract_y
 _atom_site_fract_z
 _atom_site_occupancy
  Sm  Sm0  1  0.108660  0.022977  0.325433  1
  Sm  Sm1  1  0.325433  0.108660  0.022977  1
  Sm  Sm2  1  0.022977  0.325433  0.108660  1
  Sm  Sm3  1  0.891340  0.977023  0.674567  1
  Sm  Sm4  1  0.674567  0.891340  0.977023  1
  Sm  Sm5  1  0.977023  0.674567  0.891340  1
  Eu  Eu6  1  0.500000  0.500000  0.500000  1
  Pt  Pt7  1  0.000000  0.000000  0.000000  1
  Cl  Cl8  1  0.072789  0.682035  0.218472  1
  Cl  Cl9  1  0.218472  0.072789  0.682035  1
  Cl  Cl10  1  0.682035  0.218472  0.072789  1
  Cl  Cl11  1  0.927211  0.317965  0.781528  1
  Cl  Cl12  1  0.781528  0.927211  0.317965  1
  Cl  Cl13  1  0.317965  0.781528  0.927211  1
  Cl  Cl14  1  0.448969  0.152508  0.370047  1
  Cl  Cl15  1  0.370047  0.448969  0.152508  1
  Cl  Cl16  1  0.152508  0.370047  0.448969  1
  Cl  Cl17  1  0.551031  0.847492  0.629953  1
  Cl  Cl18  1  0.629953  0.551031  0.847492  1
  Cl  Cl19  1  0.847492  0.629953  0.551031  1
