# generated using pymatgen
data_K3Sc(AsO4)2
_symmetry_space_group_name_H-M   'P 1'
_cell_length_a   5.77536100
_cell_length_b   5.77536045
_cell_length_c   7.72452700
_cell_angle_alpha   90.00000000
_cell_angle_beta   90.00000000
_cell_angle_gamma   119.99999740
_symmetry_Int_Tables_number   1
_chemical_formula_structural   K3Sc(AsO4)2
_chemical_formula_sum   'K3 Sc1 As2 O8'
_cell_volume   223.13144049
_cell_formula_units_Z   1
loop_
 _symmetry_equiv_pos_site_id
 _symmetry_equiv_pos_as_xyz
  1  'x, y, z'
loop_
 _atom_site_type_symbol
 _atom_site_label
 _atom_site_symmetry_multiplicity
 _atom_site_fract_x
 _atom_site_fract_y
 _atom_site_fract_z
 _atom_site_occupancy
  K  K0  1  0.666667  0.333333  0.289123  1
  K  K1  1  0.333333  0.666667  0.710877  1
  K  K2  1  0.000000  0.000000  0.000000  1
  Sc  Sc3  1  0.000000  0.000000  0.500000  1
  As  As4  1  0.666667  0.333333  0.741704  1
  As  As5  1  0.333333  0.666667  0.258296  1
  O  O6  1  0.666667  0.333333  0.958643  1
  O  O7  1  0.333333  0.666667  0.041357  1
  O  O8  1  0.828702  0.657405  0.661412  1
  O  O9  1  0.171298  0.342595  0.338588  1
  O  O10  1  0.828702  0.171298  0.661412  1
  O  O11  1  0.171298  0.828702  0.338588  1
  O  O12  1  0.342595  0.171298  0.661412  1
  O  O13  1  0.657405  0.828702  0.338588  1
