# generated using pymatgen
data_Dy5Mn2Co17(Si5P)2
_symmetry_space_group_name_H-M   'P 1'
_cell_length_a   12.16700510
_cell_length_b   12.16046629
_cell_length_c   3.71697400
_cell_angle_alpha   90.00000000
_cell_angle_beta   90.00000000
_cell_angle_gamma   120.09735498
_symmetry_Int_Tables_number   1
_chemical_formula_structural   Dy5Mn2Co17(Si5P)2
_chemical_formula_sum   'Dy5 Mn2 Co17 Si10 P2'
_cell_volume   475.80301314
_cell_formula_units_Z   1
loop_
 _symmetry_equiv_pos_site_id
 _symmetry_equiv_pos_as_xyz
  1  'x, y, z'
loop_
 _atom_site_type_symbol
 _atom_site_label
 _atom_site_symmetry_multiplicity
 _atom_site_fract_x
 _atom_site_fract_y
 _atom_site_fract_z
 _atom_site_occupancy
  Dy  Dy0  1  0.667264  0.332273  0.000000  1
  Dy  Dy1  1  0.332192  0.665942  0.000000  1
  Dy  Dy2  1  0.184292  0.184075  0.500000  1
  Dy  Dy3  1  0.815974  0.001091  0.500000  1
  Dy  Dy4  1  0.001335  0.815524  0.500000  1
  Mn  Mn5  1  0.562285  0.561973  0.000000  1
  Mn  Mn6  1  0.438098  0.999801  0.000000  1
  Co  Co7  1  0.000586  0.441295  0.000000  1
  Co  Co8  1  0.825011  0.198267  0.000000  1
  Co  Co9  1  0.803406  0.622091  0.000000  1
  Co  Co10  1  0.373053  0.176418  0.000000  1
  Co  Co11  1  0.196763  0.822800  0.000000  1
  Co  Co12  1  0.623039  0.803319  0.000000  1
  Co  Co13  1  0.175230  0.373411  0.000000  1
  Co  Co14  1  0.644612  0.124398  0.500000  1
  Co  Co15  1  0.878941  0.520414  0.500000  1
  Co  Co16  1  0.478637  0.357049  0.500000  1
  Co  Co17  1  0.122291  0.642910  0.500000  1
  Co  Co18  1  0.520915  0.879433  0.500000  1
  Co  Co19  1  0.355298  0.479294  0.500000  1
  Co  Co20  1  0.718184  0.717337  0.500000  1
  Co  Co21  1  0.277958  0.999175  0.500000  1
  Co  Co22  1  0.000007  0.278212  0.500000  1
  Co  Co23  1  0.003942  0.004481  0.000000  1
  Si  Si24  1  0.365644  0.367045  0.000000  1
  Si  Si25  1  0.633810  0.001511  0.000000  1
  Si  Si26  1  0.000247  0.628828  0.000000  1
  Si  Si27  1  0.840255  0.317347  0.500000  1
  Si  Si28  1  0.685970  0.520598  0.500000  1
  Si  Si29  1  0.478032  0.163551  0.500000  1
  Si  Si30  1  0.315414  0.836836  0.500000  1
  Si  Si31  1  0.521520  0.686685  0.500000  1
  Si  Si32  1  0.160224  0.477487  0.500000  1
  Si  Si33  1  0.817354  0.816831  0.000000  1
  P  P34  1  0.182200  0.999420  0.000000  1
  P  P35  1  0.000017  0.182878  0.000000  1
