# generated using pymatgen
data_Th2Al9ZnCu12
_symmetry_space_group_name_H-M   'P 1'
_cell_length_a   10.37370386
_cell_length_b   8.19763615
_cell_length_c   7.89611145
_cell_angle_alpha   80.24447325
_cell_angle_beta   51.15133341
_cell_angle_gamma   48.60418832
_symmetry_Int_Tables_number   1
_chemical_formula_structural   Th2Al9ZnCu12
_chemical_formula_sum   'Th2 Al9 Zn1 Cu12'
_cell_volume   356.03309407
_cell_formula_units_Z   1
loop_
 _symmetry_equiv_pos_site_id
 _symmetry_equiv_pos_as_xyz
  1  'x, y, z'
loop_
 _atom_site_type_symbol
 _atom_site_label
 _atom_site_symmetry_multiplicity
 _atom_site_fract_x
 _atom_site_fract_y
 _atom_site_fract_z
 _atom_site_occupancy
  Th  Th0  1  0.000000  0.000000  0.000000  1
  Th  Th1  1  0.250000  0.250000  0.250000  1
  Al  Al2  1  0.750000  0.750000  0.750000  1
  Al  Al3  1  0.758789  0.068580  0.828340  1
  Al  Al4  1  0.828340  0.344291  0.758789  1
  Al  Al5  1  0.068580  0.758789  0.344291  1
  Al  Al6  1  0.344291  0.828340  0.068580  1
  Al  Al7  1  0.492283  0.181397  0.420982  1
  Al  Al8  1  0.420982  0.905337  0.492283  1
  Al  Al9  1  0.181397  0.492283  0.905337  1
  Al  Al10  1  0.905337  0.420982  0.181397  1
  Zn  Zn11  1  0.500000  0.500000  0.500000  1
  Cu  Cu12  1  0.624614  0.125261  0.625004  1
  Cu  Cu13  1  0.625004  0.625121  0.624614  1
  Cu  Cu14  1  0.125261  0.624614  0.625121  1
  Cu  Cu15  1  0.625121  0.625004  0.125261  1
  Cu  Cu16  1  0.490108  0.434108  0.182564  1
  Cu  Cu17  1  0.182564  0.893220  0.490108  1
  Cu  Cu18  1  0.434108  0.490108  0.893220  1
  Cu  Cu19  1  0.893220  0.182564  0.434108  1
  Cu  Cu20  1  0.759543  0.815865  0.067022  1
  Cu  Cu21  1  0.067022  0.357570  0.759543  1
  Cu  Cu22  1  0.815865  0.759543  0.357570  1
  Cu  Cu23  1  0.357570  0.067022  0.815865  1
