# generated using pymatgen
data_ErNiB2Ir
_symmetry_space_group_name_H-M   'P 1'
_cell_length_a   5.05485897
_cell_length_b   5.05485943
_cell_length_c   7.24860449
_cell_angle_alpha   58.70430467
_cell_angle_beta   58.70430381
_cell_angle_gamma   62.08963762
_symmetry_Int_Tables_number   1
_chemical_formula_structural   ErNiB2Ir
_chemical_formula_sum   'Er2 Ni2 B4 Ir2'
_cell_volume   130.15613843
_cell_formula_units_Z   2
loop_
 _symmetry_equiv_pos_site_id
 _symmetry_equiv_pos_as_xyz
  1  'x, y, z'
loop_
 _atom_site_type_symbol
 _atom_site_label
 _atom_site_symmetry_multiplicity
 _atom_site_fract_x
 _atom_site_fract_y
 _atom_site_fract_z
 _atom_site_occupancy
  Er  Er0  1  0.112228  0.887772  0.750000  1
  Er  Er1  1  0.874916  0.125084  0.250000  1
  Ni  Ni2  1  0.530500  0.731095  0.293179  1
  Ni  Ni3  1  0.268905  0.469500  0.206821  1
  B  B4  1  0.167083  0.498421  0.504722  1
  B  B5  1  0.501579  0.832917  0.995278  1
  B  B6  1  0.842615  0.489726  0.470199  1
  B  B7  1  0.510274  0.157385  0.029801  1
  Ir  Ir8  1  0.462378  0.270479  0.697353  1
  Ir  Ir9  1  0.729521  0.537622  0.802647  1
