# generated using pymatgen
data_Tb2Ho4Fe7Co11P12
_symmetry_space_group_name_H-M   'P 1'
_cell_length_a   3.69723300
_cell_length_b   10.51208584
_cell_length_c   12.09474697
_cell_angle_alpha   89.85214541
_cell_angle_beta   90.00000000
_cell_angle_gamma   90.00000000
_symmetry_Int_Tables_number   1
_chemical_formula_structural   Tb2Ho4Fe7Co11P12
_chemical_formula_sum   'Tb2 Ho4 Fe7 Co11 P12'
_cell_volume   470.06840339
_cell_formula_units_Z   1
loop_
 _symmetry_equiv_pos_site_id
 _symmetry_equiv_pos_as_xyz
  1  'x, y, z'
loop_
 _atom_site_type_symbol
 _atom_site_label
 _atom_site_symmetry_multiplicity
 _atom_site_fract_x
 _atom_site_fract_y
 _atom_site_fract_z
 _atom_site_occupancy
  Tb  Tb0  1  0.000000  0.500136  0.523105  1
  Tb  Tb1  1  0.500000  0.998503  0.476599  1
  Ho  Ho2  1  0.500000  0.819591  0.204207  1
  Ho  Ho3  1  0.500000  0.181117  0.204873  1
  Ho  Ho4  1  0.000000  0.680451  0.795703  1
  Ho  Ho5  1  0.000000  0.319023  0.795409  1
  Fe  Fe6  1  0.000000  0.500307  0.987843  1
  Fe  Fe7  1  0.500000  0.999504  0.012134  1
  Fe  Fe8  1  0.500000  0.297818  0.428764  1
  Fe  Fe9  1  0.500000  0.702825  0.429448  1
  Fe  Fe10  1  0.000000  0.202280  0.571613  1
  Fe  Fe11  1  0.500000  0.500714  0.155450  1
  Fe  Fe12  1  0.000000  0.998972  0.843862  1
  Co  Co13  1  0.000000  0.797824  0.571856  1
  Co  Co14  1  0.500000  0.878787  0.710710  1
  Co  Co15  1  0.500000  0.119071  0.711852  1
  Co  Co16  1  0.000000  0.620664  0.288412  1
  Co  Co17  1  0.000000  0.381008  0.288291  1
  Co  Co18  1  0.500000  0.332059  0.994687  1
  Co  Co19  1  0.500000  0.667772  0.994024  1
  Co  Co20  1  0.000000  0.167918  0.005523  1
  Co  Co21  1  0.000000  0.832134  0.005578  1
  Co  Co22  1  0.500000  0.499199  0.701323  1
  Co  Co23  1  0.000000  0.000985  0.299046  1
  P  P24  1  0.500000  0.307239  0.614874  1
  P  P25  1  0.500000  0.690059  0.615316  1
  P  P26  1  0.000000  0.192851  0.385338  1
  P  P27  1  0.000000  0.808343  0.383701  1
  P  P28  1  0.500000  0.499697  0.883818  1
  P  P29  1  0.000000  0.000232  0.116280  1
  P  P30  1  0.500000  0.847489  0.893740  1
  P  P31  1  0.500000  0.152603  0.894214  1
  P  P32  1  0.000000  0.652423  0.106008  1
  P  P33  1  0.000000  0.347627  0.106167  1
  P  P34  1  0.500000  0.499999  0.342698  1
  P  P35  1  0.000000  0.002774  0.657536  1
