# generated using pymatgen
data_Y3Er(MgRh)4
_symmetry_space_group_name_H-M   'P 1'
_cell_length_a   4.12635800
_cell_length_b   7.09745420
_cell_length_c   8.52605515
_cell_angle_alpha   89.92904563
_cell_angle_beta   90.00000000
_cell_angle_gamma   90.00000000
_symmetry_Int_Tables_number   1
_chemical_formula_structural   Y3Er(MgRh)4
_chemical_formula_sum   'Y3 Er1 Mg4 Rh4'
_cell_volume   249.69929016
_cell_formula_units_Z   1
loop_
 _symmetry_equiv_pos_site_id
 _symmetry_equiv_pos_as_xyz
  1  'x, y, z'
loop_
 _atom_site_type_symbol
 _atom_site_label
 _atom_site_symmetry_multiplicity
 _atom_site_fract_x
 _atom_site_fract_y
 _atom_site_fract_z
 _atom_site_occupancy
  Y  Y0  1  0.250000  0.536162  0.177437  1
  Y  Y1  1  0.750000  0.463676  0.823458  1
  Y  Y2  1  0.750000  0.963079  0.675774  1
  Er  Er3  1  0.250000  0.036825  0.323856  1
  Mg  Mg4  1  0.250000  0.637361  0.559635  1
  Mg  Mg5  1  0.750000  0.362927  0.439291  1
  Mg  Mg6  1  0.750000  0.863015  0.060608  1
  Mg  Mg7  1  0.250000  0.137117  0.940033  1
  Rh  Rh8  1  0.250000  0.753190  0.871759  1
  Rh  Rh9  1  0.750000  0.243480  0.130540  1
  Rh  Rh10  1  0.750000  0.750847  0.371435  1
  Rh  Rh11  1  0.250000  0.252322  0.626174  1
