# generated using pymatgen
data_Cs3KInFe3I16
_symmetry_space_group_name_H-M   'P 1'
_cell_length_a   8.37876661
_cell_length_b   9.15427371
_cell_length_c   16.93050549
_cell_angle_alpha   86.69600392
_cell_angle_beta   90.56618205
_cell_angle_gamma   90.34164304
_symmetry_Int_Tables_number   1
_chemical_formula_structural   Cs3KInFe3I16
_chemical_formula_sum   'Cs3 K1 In1 Fe3 I16'
_cell_volume   1296.35481179
_cell_formula_units_Z   1
loop_
 _symmetry_equiv_pos_site_id
 _symmetry_equiv_pos_as_xyz
  1  'x, y, z'
loop_
 _atom_site_type_symbol
 _atom_site_label
 _atom_site_symmetry_multiplicity
 _atom_site_fract_x
 _atom_site_fract_y
 _atom_site_fract_z
 _atom_site_occupancy
  Cs  Cs0  1  0.510142  0.255331  0.641402  1
  Cs  Cs1  1  0.010226  0.744174  0.863375  1
  Cs  Cs2  1  0.493443  0.746571  0.357623  1
  K  K3  1  0.999958  0.251558  0.131819  1
  In  In4  1  0.345640  0.247904  0.359052  1
  Fe  Fe5  1  0.865484  0.752100  0.140025  1
  Fe  Fe6  1  0.644577  0.750316  0.639266  1
  Fe  Fe7  1  0.140898  0.247872  0.863836  1
  I  I8  1  0.870403  0.148121  0.911947  1
  I  I9  1  0.375635  0.849852  0.587789  1
  I  I10  1  0.131668  0.858297  0.089401  1
  I  I11  1  0.638920  0.146527  0.412088  1
  I  I12  1  0.381665  0.405358  0.215901  1
  I  I13  1  0.902502  0.596862  0.269737  1
  I  I14  1  0.599926  0.603493  0.771179  1
  I  I15  1  0.100143  0.398901  0.732954  1
  I  I16  1  0.675550  0.966065  0.160382  1
  I  I17  1  0.133516  0.024074  0.332838  1
  I  I18  1  0.340840  0.043219  0.841896  1
  I  I19  1  0.843846  0.958215  0.661443  1
  I  I20  1  0.227903  0.431758  0.467852  1
  I  I21  1  0.748004  0.580092  0.039558  1
  I  I22  1  0.763663  0.583021  0.539059  1
  I  I23  1  0.255451  0.410319  0.969581  1
