# generated using pymatgen
data_Li2Tb16CdCo4Sn
_symmetry_space_group_name_H-M   'P 1'
_cell_length_a   9.54959245
_cell_length_b   9.54503913
_cell_length_c   9.55311100
_cell_angle_alpha   59.97201834
_cell_angle_beta   59.98780754
_cell_angle_gamma   60.04187333
_symmetry_Int_Tables_number   1
_chemical_formula_structural   Li2Tb16CdCo4Sn
_chemical_formula_sum   'Li2 Tb16 Cd1 Co4 Sn1'
_cell_volume   615.74032781
_cell_formula_units_Z   1
loop_
 _symmetry_equiv_pos_site_id
 _symmetry_equiv_pos_as_xyz
  1  'x, y, z'
loop_
 _atom_site_type_symbol
 _atom_site_label
 _atom_site_symmetry_multiplicity
 _atom_site_fract_x
 _atom_site_fract_y
 _atom_site_fract_z
 _atom_site_occupancy
  Li  Li0  1  0.821515  0.821150  0.532098  1
  Li  Li1  1  0.821515  0.821150  0.825235  1
  Tb  Tb2  1  0.440464  0.441930  0.058803  1
  Tb  Tb3  1  0.595919  0.595751  0.598087  1
  Tb  Tb4  1  0.185935  0.813013  0.811278  1
  Tb  Tb5  1  0.067184  0.067380  0.432718  1
  Tb  Tb6  1  0.438639  0.061278  0.059903  1
  Tb  Tb7  1  0.810781  0.188907  0.811240  1
  Tb  Tb8  1  0.438639  0.061278  0.440180  1
  Tb  Tb9  1  0.595072  0.213660  0.595635  1
  Tb  Tb10  1  0.809220  0.810519  0.190131  1
  Tb  Tb11  1  0.218055  0.594586  0.593680  1
  Tb  Tb12  1  0.810781  0.188907  0.189073  1
  Tb  Tb13  1  0.065131  0.436812  0.436248  1
  Tb  Tb14  1  0.185935  0.813013  0.189774  1
  Tb  Tb15  1  0.595919  0.595751  0.210243  1
  Tb  Tb16  1  0.182746  0.192931  0.812162  1
  Tb  Tb17  1  0.065131  0.436812  0.061809  1
  Cd  Cd18  1  0.836482  0.506789  0.828364  1
  Co  Co19  1  0.394300  0.391502  0.387921  1
  Co  Co20  1  0.826983  0.392873  0.390072  1
  Co  Co21  1  0.393924  0.828802  0.388637  1
  Co  Co22  1  0.394300  0.391502  0.826279  1
  Sn  Sn23  1  0.505433  0.833704  0.830430  1
