# generated using pymatgen
data_CaTbIn8Ir
_symmetry_space_group_name_H-M   'P 1'
_cell_length_a   4.70971300
_cell_length_b   4.70971300
_cell_length_c   12.17457200
_cell_angle_alpha   90.00000000
_cell_angle_beta   90.00000000
_cell_angle_gamma   90.00000000
_symmetry_Int_Tables_number   1
_chemical_formula_structural   CaTbIn8Ir
_chemical_formula_sum   'Ca1 Tb1 In8 Ir1'
_cell_volume   270.04900927
_cell_formula_units_Z   1
loop_
 _symmetry_equiv_pos_site_id
 _symmetry_equiv_pos_as_xyz
  1  'x, y, z'
loop_
 _atom_site_type_symbol
 _atom_site_label
 _atom_site_symmetry_multiplicity
 _atom_site_fract_x
 _atom_site_fract_y
 _atom_site_fract_z
 _atom_site_occupancy
  Ca  Ca0  1  0.500000  0.500000  0.808736  1
  Tb  Tb1  1  0.500000  0.500000  0.195498  1
  In  In2  1  0.000000  0.500000  0.621533  1
  In  In3  1  0.000000  0.000000  0.191285  1
  In  In4  1  0.000000  0.500000  0.376484  1
  In  In5  1  0.500000  0.000000  0.621533  1
  In  In6  1  0.000000  0.000000  0.807069  1
  In  In7  1  0.500000  0.000000  0.376484  1
  In  In8  1  0.000000  0.500000  0.001958  1
  In  In9  1  0.500000  0.000000  0.001958  1
  Ir  Ir10  1  0.500000  0.500000  0.497461  1
