# generated using pymatgen
data_Li2YEr2MgIn3
_symmetry_space_group_name_H-M   'P 1'
_cell_length_a   7.13271862
_cell_length_b   7.15426543
_cell_length_c   4.77573200
_cell_angle_alpha   90.00000000
_cell_angle_beta   90.00000000
_cell_angle_gamma   116.40025089
_symmetry_Int_Tables_number   1
_chemical_formula_structural   Li2YEr2MgIn3
_chemical_formula_sum   'Li2 Y1 Er2 Mg1 In3'
_cell_volume   218.28677294
_cell_formula_units_Z   1
loop_
 _symmetry_equiv_pos_site_id
 _symmetry_equiv_pos_as_xyz
  1  'x, y, z'
loop_
 _atom_site_type_symbol
 _atom_site_label
 _atom_site_symmetry_multiplicity
 _atom_site_fract_x
 _atom_site_fract_y
 _atom_site_fract_z
 _atom_site_occupancy
  Li  Li0  1  0.236480  0.008839  0.500000  1
  Li  Li1  1  0.008753  0.236513  0.500000  1
  Y  Y2  1  0.553827  0.990474  0.000000  1
  Er  Er3  1  0.990330  0.553968  0.000000  1
  Er  Er4  1  0.437300  0.437451  0.000000  1
  Mg  Mg5  1  0.776185  0.775890  0.500000  1
  In  In6  1  0.320972  0.656462  0.500000  1
  In  In7  1  0.657512  0.322440  0.500000  1
  In  In8  1  0.018641  0.017962  0.000000  1
