# generated using pymatgen
data_YbY2Ga3Ge2Ir
_symmetry_space_group_name_H-M   'P 1'
_cell_length_a   7.01015400
_cell_length_b   6.99520997
_cell_length_c   4.24051900
_cell_angle_alpha   90.00000000
_cell_angle_beta   90.00000000
_cell_angle_gamma   120.07068474
_symmetry_Int_Tables_number   1
_chemical_formula_structural   YbY2Ga3Ge2Ir
_chemical_formula_sum   'Yb1 Y2 Ga3 Ge2 Ir1'
_cell_volume   179.95676797
_cell_formula_units_Z   1
loop_
 _symmetry_equiv_pos_site_id
 _symmetry_equiv_pos_as_xyz
  1  'x, y, z'
loop_
 _atom_site_type_symbol
 _atom_site_label
 _atom_site_symmetry_multiplicity
 _atom_site_fract_x
 _atom_site_fract_y
 _atom_site_fract_z
 _atom_site_occupancy
  Yb  Yb0  1  0.413756  0.000000  0.000000  1
  Y  Y1  1  0.000855  0.413838  0.000000  1
  Y  Y2  1  0.587019  0.586163  0.000000  1
  Ga  Ga3  1  0.768116  0.000000  0.500000  1
  Ga  Ga4  1  0.231848  0.230937  0.500000  1
  Ga  Ga5  1  0.000910  0.769063  0.500000  1
  Ge  Ge6  1  0.669867  0.336591  0.500000  1
  Ge  Ge7  1  0.333276  0.663409  0.500000  1
  Ir  Ir8  1  0.994353  0.000000  0.000000  1
