# generated using pymatgen
data_Pr8Dy2Si5Pb
_symmetry_space_group_name_H-M   'P 1'
_cell_length_a   7.73201950
_cell_length_b   7.73201912
_cell_length_c   9.23800400
_cell_angle_alpha   114.73928597
_cell_angle_beta   114.73928467
_cell_angle_gamma   89.99999576
_symmetry_Int_Tables_number   1
_chemical_formula_structural   Pr8Dy2Si5Pb
_chemical_formula_sum   'Pr8 Dy2 Si5 Pb1'
_cell_volume   445.17552356
_cell_formula_units_Z   1
loop_
 _symmetry_equiv_pos_site_id
 _symmetry_equiv_pos_as_xyz
  1  'x, y, z'
loop_
 _atom_site_type_symbol
 _atom_site_label
 _atom_site_symmetry_multiplicity
 _atom_site_fract_x
 _atom_site_fract_y
 _atom_site_fract_z
 _atom_site_occupancy
  Pr  Pr0  1  0.977306  0.827935  0.280312  1
  Pr  Pr1  1  0.303007  0.452377  0.280312  1
  Pr  Pr2  1  0.827935  0.303007  0.280312  1
  Pr  Pr3  1  0.452377  0.977306  0.280312  1
  Pr  Pr4  1  0.047623  0.196993  0.719688  1
  Pr  Pr5  1  0.672065  0.522694  0.719688  1
  Pr  Pr6  1  0.196993  0.672065  0.719688  1
  Pr  Pr7  1  0.522694  0.047623  0.719688  1
  Dy  Dy8  1  0.517590  0.517590  0.035178  1
  Dy  Dy9  1  0.982410  0.982410  0.964822  1
  Si  Si10  1  0.250000  0.250000  0.500000  1
  Si  Si11  1  0.619044  0.880956  0.000000  1
  Si  Si12  1  0.380956  0.119044  0.000000  1
  Si  Si13  1  0.880956  0.380956  0.000000  1
  Si  Si14  1  0.119044  0.619044  0.000000  1
  Pb  Pb15  1  0.750000  0.750000  0.500000  1
