# generated using pymatgen
data_Nd8In3HgPd8
_symmetry_space_group_name_H-M   'P 1'
_cell_length_a   7.91681400
_cell_length_b   7.91681400
_cell_length_c   7.71906600
_cell_angle_alpha   90.00000000
_cell_angle_beta   90.00000000
_cell_angle_gamma   90.00000000
_symmetry_Int_Tables_number   1
_chemical_formula_structural   Nd8In3HgPd8
_chemical_formula_sum   'Nd8 In3 Hg1 Pd8'
_cell_volume   483.79974766
_cell_formula_units_Z   1
loop_
 _symmetry_equiv_pos_site_id
 _symmetry_equiv_pos_as_xyz
  1  'x, y, z'
loop_
 _atom_site_type_symbol
 _atom_site_label
 _atom_site_symmetry_multiplicity
 _atom_site_fract_x
 _atom_site_fract_y
 _atom_site_fract_z
 _atom_site_occupancy
  Nd  Nd0  1  0.175020  0.171732  0.999617  1
  Nd  Nd1  1  0.824980  0.828268  0.999617  1
  Nd  Nd2  1  0.671732  0.324980  0.500383  1
  Nd  Nd3  1  0.328268  0.675020  0.500383  1
  Nd  Nd4  1  0.672995  0.323454  0.999671  1
  Nd  Nd5  1  0.327005  0.676546  0.999671  1
  Nd  Nd6  1  0.823454  0.827005  0.500329  1
  Nd  Nd7  1  0.176546  0.172995  0.500329  1
  In  In8  1  0.500000  0.000000  0.750000  1
  In  In9  1  0.000000  0.500000  0.250000  1
  In  In10  1  0.000000  0.500000  0.750000  1
  Hg  Hg11  1  0.500000  0.000000  0.250000  1
  Pd  Pd12  1  0.368233  0.379249  0.248887  1
  Pd  Pd13  1  0.625571  0.626485  0.751050  1
  Pd  Pd14  1  0.631767  0.620751  0.248887  1
  Pd  Pd15  1  0.873515  0.125571  0.748950  1
  Pd  Pd16  1  0.879249  0.131767  0.251113  1
  Pd  Pd17  1  0.374429  0.373515  0.751050  1
  Pd  Pd18  1  0.120751  0.868233  0.251113  1
  Pd  Pd19  1  0.126485  0.874429  0.748950  1
