# generated using pymatgen
data_Ti13Al9(Co3Pt)2
_symmetry_space_group_name_H-M   'P 1'
_cell_length_a   8.57833296
_cell_length_b   8.61591969
_cell_length_c   8.57833288
_cell_angle_alpha   59.76031806
_cell_angle_beta   60.13554366
_cell_angle_gamma   59.76032735
_symmetry_Int_Tables_number   1
_chemical_formula_structural   Ti13Al9(Co3Pt)2
_chemical_formula_sum   'Ti13 Al9 Co6 Pt2'
_cell_volume   447.14586038
_cell_formula_units_Z   1
loop_
 _symmetry_equiv_pos_site_id
 _symmetry_equiv_pos_as_xyz
  1  'x, y, z'
loop_
 _atom_site_type_symbol
 _atom_site_label
 _atom_site_symmetry_multiplicity
 _atom_site_fract_x
 _atom_site_fract_y
 _atom_site_fract_z
 _atom_site_occupancy
  Ti  Ti0  1  0.206356  0.203864  0.793955  1
  Ti  Ti1  1  0.793955  0.203864  0.206356  1
  Ti  Ti2  1  0.203267  0.796517  0.203267  1
  Ti  Ti3  1  0.806607  0.803899  0.182263  1
  Ti  Ti4  1  0.182263  0.803899  0.806607  1
  Ti  Ti5  1  0.802803  0.187023  0.802803  1
  Ti  Ti6  1  0.379511  0.382853  0.379511  1
  Ti  Ti7  1  0.388265  0.855781  0.388265  1
  Ti  Ti8  1  0.858806  0.391709  0.377369  1
  Ti  Ti9  1  0.377369  0.391709  0.858806  1
  Ti  Ti10  1  0.842061  0.474793  0.842061  1
  Ti  Ti11  1  0.479666  0.831908  0.834010  1
  Ti  Ti12  1  0.834010  0.831908  0.479666  1
  Al  Al13  1  0.152976  0.169513  0.152976  1
  Al  Al14  1  0.162900  0.515882  0.162900  1
  Al  Al15  1  0.517115  0.167149  0.165469  1
  Al  Al16  1  0.165469  0.167149  0.517115  1
  Al  Al17  1  0.620978  0.610939  0.620978  1
  Al  Al18  1  0.615111  0.147722  0.615111  1
  Al  Al19  1  0.147687  0.612372  0.619374  1
  Al  Al20  1  0.619374  0.612372  0.147687  1
  Al  Al21  1  0.832551  0.819197  0.832551  1
  Co  Co22  1  0.003314  0.499071  0.003314  1
  Co  Co23  1  0.498630  0.500345  0.002695  1
  Co  Co24  1  0.002695  0.500345  0.498630  1
  Co  Co25  1  0.499519  0.000480  0.499519  1
  Co  Co26  1  0.501071  0.500522  0.501071  1
  Co  Co27  1  0.004586  0.010973  0.004586  1
  Pt  Pt28  1  0.003479  0.003119  0.497603  1
  Pt  Pt29  1  0.497603  0.003119  0.003479  1
