# generated using pymatgen
data_PaAl10CrFe
_symmetry_space_group_name_H-M   'P 1'
_cell_length_a   6.79925797
_cell_length_b   6.79925923
_cell_length_c   9.01867446
_cell_angle_alpha   89.44795883
_cell_angle_beta   89.44796211
_cell_angle_gamma   97.80135663
_symmetry_Int_Tables_number   1
_chemical_formula_structural   PaAl10CrFe
_chemical_formula_sum   'Pa2 Al20 Cr2 Fe2'
_cell_volume   413.02933993
_cell_formula_units_Z   2
loop_
 _symmetry_equiv_pos_site_id
 _symmetry_equiv_pos_as_xyz
  1  'x, y, z'
loop_
 _atom_site_type_symbol
 _atom_site_label
 _atom_site_symmetry_multiplicity
 _atom_site_fract_x
 _atom_site_fract_y
 _atom_site_fract_z
 _atom_site_occupancy
  Pa  Pa0  1  0.871457  0.128543  0.750000  1
  Pa  Pa1  1  0.128543  0.871457  0.250000  1
  Al  Al2  1  0.624482  0.375316  0.546994  1
  Al  Al3  1  0.375518  0.624684  0.453006  1
  Al  Al4  1  0.375316  0.624482  0.046994  1
  Al  Al5  1  0.624684  0.375518  0.953006  1
  Al  Al6  1  0.227701  0.225979  0.499720  1
  Al  Al7  1  0.772299  0.774021  0.500280  1
  Al  Al8  1  0.774021  0.772299  0.000280  1
  Al  Al9  1  0.225979  0.227701  0.999720  1
  Al  Al10  1  0.843413  0.158929  0.098167  1
  Al  Al11  1  0.156587  0.841071  0.901833  1
  Al  Al12  1  0.158929  0.843413  0.598167  1
  Al  Al13  1  0.841071  0.156587  0.401833  1
  Al  Al14  1  0.866515  0.590428  0.750994  1
  Al  Al15  1  0.133485  0.409572  0.249006  1
  Al  Al16  1  0.409572  0.133485  0.749006  1
  Al  Al17  1  0.590428  0.866515  0.250994  1
  Al  Al18  1  0.218710  0.476556  0.749284  1
  Al  Al19  1  0.781290  0.523444  0.250716  1
  Al  Al20  1  0.523444  0.781290  0.750716  1
  Al  Al21  1  0.476556  0.218710  0.249284  1
  Cr  Cr22  1  0.000000  0.500000  0.500000  1
  Cr  Cr23  1  0.500000  0.000000  0.000000  1
  Fe  Fe24  1  0.000000  0.500000  0.000000  1
  Fe  Fe25  1  0.500000  0.000000  0.500000  1
