# generated using pymatgen
data_TbTm2(FeCo2)3
_symmetry_space_group_name_H-M   'P 1'
_cell_length_a   5.08049585
_cell_length_b   5.08049645
_cell_length_c   8.39010399
_cell_angle_alpha   72.37611012
_cell_angle_beta   72.37611101
_cell_angle_gamma   59.99999322
_symmetry_Int_Tables_number   1
_chemical_formula_structural   TbTm2(FeCo2)3
_chemical_formula_sum   'Tb1 Tm2 Fe3 Co6'
_cell_volume   175.71225001
_cell_formula_units_Z   1
loop_
 _symmetry_equiv_pos_site_id
 _symmetry_equiv_pos_as_xyz
  1  'x, y, z'
loop_
 _atom_site_type_symbol
 _atom_site_label
 _atom_site_symmetry_multiplicity
 _atom_site_fract_x
 _atom_site_fract_y
 _atom_site_fract_z
 _atom_site_occupancy
  Tb  Tb0  1  0.000000  0.000000  0.000000  1
  Tm  Tm1  1  0.141398  0.141398  0.575806  1
  Tm  Tm2  1  0.858602  0.858602  0.424194  1
  Fe  Fe3  1  0.333456  0.333456  0.999632  1
  Fe  Fe4  1  0.666544  0.666544  0.000368  1
  Fe  Fe5  1  0.500000  0.500000  0.500000  1
  Co  Co6  1  0.080615  0.583433  0.752517  1
  Co  Co7  1  0.583433  0.583433  0.752517  1
  Co  Co8  1  0.583433  0.080615  0.752517  1
  Co  Co9  1  0.919385  0.416567  0.247483  1
  Co  Co10  1  0.416567  0.416567  0.247483  1
  Co  Co11  1  0.416567  0.919385  0.247483  1
