# generated using pymatgen
data_Co(SeBr3)3
_symmetry_space_group_name_H-M   'P 1'
_cell_length_a   8.05944825
_cell_length_b   8.56861859
_cell_length_c   13.84198775
_cell_angle_alpha   82.26161770
_cell_angle_beta   86.10356420
_cell_angle_gamma   68.01986514
_symmetry_Int_Tables_number   1
_chemical_formula_structural   Co(SeBr3)3
_chemical_formula_sum   'Co2 Se6 Br18'
_cell_volume   878.19068596
_cell_formula_units_Z   2
loop_
 _symmetry_equiv_pos_site_id
 _symmetry_equiv_pos_as_xyz
  1  'x, y, z'
loop_
 _atom_site_type_symbol
 _atom_site_label
 _atom_site_symmetry_multiplicity
 _atom_site_fract_x
 _atom_site_fract_y
 _atom_site_fract_z
 _atom_site_occupancy
  Co  Co0  1  0.721146  0.782901  0.748939  1
  Co  Co1  1  0.278854  0.217099  0.251061  1
  Se  Se2  1  0.857109  0.917054  0.630532  1
  Se  Se3  1  0.142891  0.082946  0.369468  1
  Se  Se4  1  0.847462  0.848355  0.877079  1
  Se  Se5  1  0.152538  0.151645  0.122921  1
  Se  Se6  1  0.940601  0.512092  0.749480  1
  Se  Se7  1  0.059399  0.487908  0.250520  1
  Br  Br8  1  0.434245  0.006566  0.743099  1
  Br  Br9  1  0.565755  0.993434  0.256901  1
  Br  Br10  1  0.641369  0.609083  0.888948  1
  Br  Br11  1  0.358631  0.390917  0.111052  1
  Br  Br12  1  0.629424  0.629907  0.639406  1
  Br  Br13  1  0.370576  0.370093  0.360594  1
  Br  Br14  1  0.743637  0.937846  0.473199  1
  Br  Br15  1  0.256363  0.062154  0.526801  1
  Br  Br16  1  0.741989  0.212660  0.645412  1
  Br  Br17  1  0.258011  0.787340  0.354588  1
  Br  Br18  1  0.107167  0.912513  0.814983  1
  Br  Br19  1  0.892833  0.087487  0.185017  1
  Br  Br20  1  0.665018  0.112458  0.927856  1
  Br  Br21  1  0.334982  0.887542  0.072144  1
  Br  Br22  1  0.142545  0.520393  0.614003  1
  Br  Br23  1  0.857455  0.479607  0.385997  1
  Br  Br24  1  0.152717  0.450393  0.879652  1
  Br  Br25  1  0.847283  0.549607  0.120348  1
