# generated using pymatgen
data_LiNd16Hg3Pt4
_symmetry_space_group_name_H-M   'P 1'
_cell_length_a   10.00194928
_cell_length_b   10.03270796
_cell_length_c   10.03270800
_cell_angle_alpha   59.99999327
_cell_angle_beta   59.89821194
_cell_angle_gamma   59.89821970
_symmetry_Int_Tables_number   1
_chemical_formula_structural   LiNd16Hg3Pt4
_chemical_formula_sum   'Li1 Nd16 Hg3 Pt4'
_cell_volume   710.78148623
_cell_formula_units_Z   1
loop_
 _symmetry_equiv_pos_site_id
 _symmetry_equiv_pos_as_xyz
  1  'x, y, z'
loop_
 _atom_site_type_symbol
 _atom_site_label
 _atom_site_symmetry_multiplicity
 _atom_site_fract_x
 _atom_site_fract_y
 _atom_site_fract_z
 _atom_site_occupancy
  Li  Li0  1  0.306370  0.564544  0.564544  1
  Nd  Nd1  1  0.349509  0.350079  0.350079  1
  Nd  Nd2  1  0.349509  0.350079  0.950335  1
  Nd  Nd3  1  0.349509  0.950335  0.350079  1
  Nd  Nd4  1  0.940127  0.353292  0.353292  1
  Nd  Nd5  1  0.804434  0.193855  0.193855  1
  Nd  Nd6  1  0.187808  0.812561  0.812561  1
  Nd  Nd7  1  0.187808  0.812561  0.187070  1
  Nd  Nd8  1  0.804434  0.193855  0.807855  1
  Nd  Nd9  1  0.187808  0.187070  0.812561  1
  Nd  Nd10  1  0.804434  0.807855  0.193855  1
  Nd  Nd11  1  0.936375  0.565210  0.565210  1
  Nd  Nd12  1  0.564544  0.935757  0.935757  1
  Nd  Nd13  1  0.564544  0.935757  0.563940  1
  Nd  Nd14  1  0.936375  0.565210  0.933205  1
  Nd  Nd15  1  0.564544  0.563940  0.935757  1
  Nd  Nd16  1  0.936375  0.933205  0.565210  1
  Hg  Hg17  1  0.578498  0.587814  0.587814  1
  Hg  Hg18  1  0.578498  0.587814  0.245874  1
  Hg  Hg19  1  0.578498  0.245874  0.587814  1
  Pt  Pt20  1  0.139869  0.144319  0.144319  1
  Pt  Pt21  1  0.139869  0.144319  0.571494  1
  Pt  Pt22  1  0.139869  0.571494  0.144319  1
  Pt  Pt23  1  0.570394  0.143202  0.143202  1
