# generated using pymatgen
data_Cs5Ag(GeO3)3
_symmetry_space_group_name_H-M   'P 1'
_cell_length_a   6.73543200
_cell_length_b   10.15693495
_cell_length_c   12.20827061
_cell_angle_alpha   86.22715289
_cell_angle_beta   90.00000000
_cell_angle_gamma   90.00000000
_symmetry_Int_Tables_number   1
_chemical_formula_structural   Cs5Ag(GeO3)3
_chemical_formula_sum   'Cs10 Ag2 Ge6 O18'
_cell_volume   833.37416718
_cell_formula_units_Z   2
loop_
 _symmetry_equiv_pos_site_id
 _symmetry_equiv_pos_as_xyz
  1  'x, y, z'
loop_
 _atom_site_type_symbol
 _atom_site_label
 _atom_site_symmetry_multiplicity
 _atom_site_fract_x
 _atom_site_fract_y
 _atom_site_fract_z
 _atom_site_occupancy
  Cs  Cs0  1  0.250000  0.342637  0.063207  1
  Cs  Cs1  1  0.750000  0.952132  0.619496  1
  Cs  Cs2  1  0.250000  0.221015  0.685975  1
  Cs  Cs3  1  0.250000  0.047868  0.380504  1
  Cs  Cs4  1  0.250000  0.730042  0.136800  1
  Cs  Cs5  1  0.250000  0.460474  0.398280  1
  Cs  Cs6  1  0.750000  0.657363  0.936793  1
  Cs  Cs7  1  0.750000  0.539526  0.601720  1
  Cs  Cs8  1  0.750000  0.269958  0.863200  1
  Cs  Cs9  1  0.750000  0.778985  0.314025  1
  Ag  Ag10  1  0.000000  0.000000  0.000000  1
  Ag  Ag11  1  0.500000  0.000000  0.000000  1
  Ge  Ge12  1  0.250000  0.875454  0.802544  1
  Ge  Ge13  1  0.750000  0.124546  0.197456  1
  Ge  Ge14  1  0.250000  0.551338  0.793239  1
  Ge  Ge15  1  0.750000  0.252083  0.439475  1
  Ge  Ge16  1  0.250000  0.747917  0.560525  1
  Ge  Ge17  1  0.750000  0.448662  0.206761  1
  O  O18  1  0.471055  0.759099  0.487116  1
  O  O19  1  0.972414  0.043184  0.162995  1
  O  O20  1  0.472414  0.956816  0.837005  1
  O  O21  1  0.469518  0.468467  0.828805  1
  O  O22  1  0.971055  0.240901  0.512884  1
  O  O23  1  0.030482  0.468467  0.828805  1
  O  O24  1  0.250000  0.708874  0.863765  1
  O  O25  1  0.750000  0.117043  0.344569  1
  O  O26  1  0.750000  0.408099  0.354694  1
  O  O27  1  0.027586  0.956816  0.837005  1
  O  O28  1  0.250000  0.591901  0.645306  1
  O  O29  1  0.527586  0.043184  0.162995  1
  O  O30  1  0.750000  0.291126  0.136235  1
  O  O31  1  0.528945  0.240901  0.512884  1
  O  O32  1  0.530482  0.531533  0.171195  1
  O  O33  1  0.028945  0.759099  0.487116  1
  O  O34  1  0.969518  0.531533  0.171195  1
  O  O35  1  0.250000  0.882957  0.655431  1
