# generated using pymatgen
data_NaMn2VS3
_symmetry_space_group_name_H-M   'P 1'
_cell_length_a   8.34682673
_cell_length_b   8.22742990
_cell_length_c   4.10287000
_cell_angle_alpha   90.00000000
_cell_angle_beta   90.00000000
_cell_angle_gamma   121.28047942
_symmetry_Int_Tables_number   1
_chemical_formula_structural   NaMn2VS3
_chemical_formula_sum   'Na2 Mn4 V2 S6'
_cell_volume   240.79885411
_cell_formula_units_Z   2
loop_
 _symmetry_equiv_pos_site_id
 _symmetry_equiv_pos_as_xyz
  1  'x, y, z'
loop_
 _atom_site_type_symbol
 _atom_site_label
 _atom_site_symmetry_multiplicity
 _atom_site_fract_x
 _atom_site_fract_y
 _atom_site_fract_z
 _atom_site_occupancy
  Na  Na0  1  0.333378  0.673786  0.250000  1
  Na  Na1  1  0.666622  0.326214  0.750000  1
  Mn  Mn2  1  0.805065  0.953956  0.250000  1
  Mn  Mn3  1  0.047540  0.851941  0.250000  1
  Mn  Mn4  1  0.952460  0.148059  0.750000  1
  Mn  Mn5  1  0.194935  0.046044  0.750000  1
  V  V6  1  0.142263  0.186946  0.250000  1
  V  V7  1  0.857737  0.813054  0.750000  1
  S  S8  1  0.908231  0.270834  0.250000  1
  S  S9  1  0.091769  0.729166  0.750000  1
  S  S10  1  0.726094  0.638157  0.250000  1
  S  S11  1  0.358924  0.078888  0.250000  1
  S  S12  1  0.641076  0.921112  0.750000  1
  S  S13  1  0.273906  0.361843  0.750000  1
