# generated using pymatgen
data_UNiOF5
_symmetry_space_group_name_H-M   'P 1'
_cell_length_a   5.73911731
_cell_length_b   5.91939713
_cell_length_c   5.76540400
_cell_angle_alpha   118.52143337
_cell_angle_beta   118.78789210
_cell_angle_gamma   91.74986828
_symmetry_Int_Tables_number   1
_chemical_formula_structural   UNiOF5
_chemical_formula_sum   'U1 Ni1 O1 F5'
_cell_volume   141.93267223
_cell_formula_units_Z   1
loop_
 _symmetry_equiv_pos_site_id
 _symmetry_equiv_pos_as_xyz
  1  'x, y, z'
loop_
 _atom_site_type_symbol
 _atom_site_label
 _atom_site_symmetry_multiplicity
 _atom_site_fract_x
 _atom_site_fract_y
 _atom_site_fract_z
 _atom_site_occupancy
  U  U0  1  0.670719  0.985840  0.318305  1
  Ni  Ni1  1  0.148737  0.464591  0.318750  1
  O  O2  1  0.942755  0.216839  0.356888  1
  F  F3  1  0.363421  0.724105  0.273392  1
  F  F4  1  0.392797  0.226712  0.255100  1
  F  F5  1  0.455361  0.711179  0.799536  1
  F  F6  1  0.924989  0.725205  0.378062  1
  F  F7  1  0.862376  0.240764  0.833444  1
