# generated using pymatgen
data_LiTbDy2(Co4P3)2
_symmetry_space_group_name_H-M   'P 1'
_cell_length_a   3.71152200
_cell_length_b   10.56365100
_cell_length_c   12.18901100
_cell_angle_alpha   90.00000000
_cell_angle_beta   90.00000000
_cell_angle_gamma   90.00000000
_symmetry_Int_Tables_number   1
_chemical_formula_structural   LiTbDy2(Co4P3)2
_chemical_formula_sum   'Li2 Tb2 Dy4 Co16 P12'
_cell_volume   477.89727348
_cell_formula_units_Z   2
loop_
 _symmetry_equiv_pos_site_id
 _symmetry_equiv_pos_as_xyz
  1  'x, y, z'
loop_
 _atom_site_type_symbol
 _atom_site_label
 _atom_site_symmetry_multiplicity
 _atom_site_fract_x
 _atom_site_fract_y
 _atom_site_fract_z
 _atom_site_occupancy
  Li  Li0  1  0.500000  0.500000  0.153237  1
  Li  Li1  1  0.000000  0.000000  0.846763  1
  Tb  Tb2  1  0.000000  0.500000  0.522970  1
  Tb  Tb3  1  0.500000  0.000000  0.477030  1
  Dy  Dy4  1  0.500000  0.819137  0.205897  1
  Dy  Dy5  1  0.500000  0.180863  0.205897  1
  Dy  Dy6  1  0.000000  0.680863  0.794103  1
  Dy  Dy7  1  0.000000  0.319137  0.794103  1
  Co  Co8  1  0.500000  0.500000  0.704313  1
  Co  Co9  1  0.000000  0.000000  0.295687  1
  Co  Co10  1  0.000000  0.500000  0.986824  1
  Co  Co11  1  0.500000  0.000000  0.013176  1
  Co  Co12  1  0.500000  0.332959  0.996815  1
  Co  Co13  1  0.500000  0.667041  0.996815  1
  Co  Co14  1  0.000000  0.167041  0.003185  1
  Co  Co15  1  0.000000  0.832959  0.003185  1
  Co  Co16  1  0.500000  0.296552  0.430986  1
  Co  Co17  1  0.500000  0.703448  0.430986  1
  Co  Co18  1  0.000000  0.203448  0.569014  1
  Co  Co19  1  0.000000  0.796552  0.569014  1
  Co  Co20  1  0.500000  0.878760  0.706661  1
  Co  Co21  1  0.500000  0.121240  0.706661  1
  Co  Co22  1  0.000000  0.621240  0.293339  1
  Co  Co23  1  0.000000  0.378760  0.293339  1
  P  P24  1  0.500000  0.500000  0.884841  1
  P  P25  1  0.000000  0.000000  0.115159  1
  P  P26  1  0.500000  0.500000  0.345841  1
  P  P27  1  0.000000  0.000000  0.654159  1
  P  P28  1  0.500000  0.309101  0.615840  1
  P  P29  1  0.500000  0.690899  0.615840  1
  P  P30  1  0.000000  0.190899  0.384160  1
  P  P31  1  0.000000  0.809101  0.384160  1
  P  P32  1  0.500000  0.843548  0.893812  1
  P  P33  1  0.500000  0.156452  0.893812  1
  P  P34  1  0.000000  0.656452  0.106188  1
  P  P35  1  0.000000  0.343548  0.106188  1
