# generated using pymatgen
data_CePu3P3S
_symmetry_space_group_name_H-M   'P 1'
_cell_length_a   8.05717101
_cell_length_b   4.05127200
_cell_length_c   5.69563702
_cell_angle_alpha   90.00461288
_cell_angle_beta   90.00664945
_cell_angle_gamma   89.99862840
_symmetry_Int_Tables_number   1
_chemical_formula_structural   CePu3P3S
_chemical_formula_sum   'Ce1 Pu3 P3 S1'
_cell_volume   185.91579328
_cell_formula_units_Z   1
loop_
 _symmetry_equiv_pos_site_id
 _symmetry_equiv_pos_as_xyz
  1  'x, y, z'
loop_
 _atom_site_type_symbol
 _atom_site_label
 _atom_site_symmetry_multiplicity
 _atom_site_fract_x
 _atom_site_fract_y
 _atom_site_fract_z
 _atom_site_occupancy
  Ce  Ce0  1  0.874670  0.250000  0.750131  1
  Pu  Pu1  1  0.125334  0.749989  0.249871  1
  Pu  Pu2  1  0.624016  0.749996  0.250115  1
  Pu  Pu3  1  0.375697  0.249992  0.749868  1
  P  P4  1  0.874166  0.249998  0.250153  1
  P  P5  1  0.132384  0.749993  0.749839  1
  P  P6  1  0.618596  0.750025  0.750202  1
  S  S7  1  0.375138  0.249998  0.249822  1
