# generated using pymatgen
data_Ba4In(RuO6)2
_symmetry_space_group_name_H-M   'P 1'
_cell_length_a   10.02909356
_cell_length_b   10.02909486
_cell_length_c   10.02909300
_cell_angle_alpha   33.91354841
_cell_angle_beta   33.91354761
_cell_angle_gamma   33.91355624
_symmetry_Int_Tables_number   1
_chemical_formula_structural   Ba4In(RuO6)2
_chemical_formula_sum   'Ba4 In1 Ru2 O12'
_cell_volume   279.87289346
_cell_formula_units_Z   1
loop_
 _symmetry_equiv_pos_site_id
 _symmetry_equiv_pos_as_xyz
  1  'x, y, z'
loop_
 _atom_site_type_symbol
 _atom_site_label
 _atom_site_symmetry_multiplicity
 _atom_site_fract_x
 _atom_site_fract_y
 _atom_site_fract_z
 _atom_site_occupancy
  Ba  Ba0  1  0.708956  0.708956  0.708956  1
  Ba  Ba1  1  0.291044  0.291044  0.291044  1
  Ba  Ba2  1  0.869923  0.869923  0.869923  1
  Ba  Ba3  1  0.130077  0.130077  0.130077  1
  In  In4  1  0.000000  0.000000  0.000000  1
  Ru  Ru5  1  0.578766  0.578766  0.578766  1
  Ru  Ru6  1  0.421234  0.421234  0.421234  1
  O  O7  1  0.219233  0.694265  0.219233  1
  O  O8  1  0.219233  0.219233  0.694265  1
  O  O9  1  0.694265  0.219233  0.219233  1
  O  O10  1  0.780767  0.305735  0.780767  1
  O  O11  1  0.780767  0.780767  0.305735  1
  O  O12  1  0.305735  0.780767  0.780767  1
  O  O13  1  0.388133  0.857276  0.388133  1
  O  O14  1  0.388133  0.388133  0.857276  1
  O  O15  1  0.857276  0.388133  0.388133  1
  O  O16  1  0.611867  0.142724  0.611867  1
  O  O17  1  0.611867  0.611867  0.142724  1
  O  O18  1  0.142724  0.611867  0.611867  1
