# generated using pymatgen
data_Dy4Y4AlPd24
_symmetry_space_group_name_H-M   'P 1'
_cell_length_a   8.36079309
_cell_length_b   8.36044109
_cell_length_c   8.36042800
_cell_angle_alpha   90.00187778
_cell_angle_beta   89.99179021
_cell_angle_gamma   89.99185867
_symmetry_Int_Tables_number   1
_chemical_formula_structural   Dy4Y4AlPd24
_chemical_formula_sum   'Dy4 Y4 Al1 Pd24'
_cell_volume   584.39321985
_cell_formula_units_Z   1
loop_
 _symmetry_equiv_pos_site_id
 _symmetry_equiv_pos_as_xyz
  1  'x, y, z'
loop_
 _atom_site_type_symbol
 _atom_site_label
 _atom_site_symmetry_multiplicity
 _atom_site_fract_x
 _atom_site_fract_y
 _atom_site_fract_z
 _atom_site_occupancy
  Dy  Dy0  1  0.251577  0.251561  0.251561  1
  Dy  Dy1  1  0.748460  0.748471  0.748471  1
  Dy  Dy2  1  0.748384  0.748386  0.251623  1
  Dy  Dy3  1  0.748384  0.251623  0.748386  1
  Y  Y4  1  0.251459  0.251454  0.748545  1
  Y  Y5  1  0.251461  0.748544  0.251454  1
  Y  Y6  1  0.251526  0.748494  0.748494  1
  Y  Y7  1  0.748515  0.251464  0.251463  1
  Al  Al8  1  0.000034  0.000002  0.000002  1
  Pd  Pd9  1  0.259615  0.499690  0.000350  1
  Pd  Pd10  1  0.740333  0.500304  0.999658  1
  Pd  Pd11  1  0.000027  0.259648  0.500042  1
  Pd  Pd12  1  0.500020  0.259652  0.999995  1
  Pd  Pd13  1  0.999321  0.740350  0.499949  1
  Pd  Pd14  1  0.500641  0.740345  0.000014  1
  Pd  Pd15  1  0.500019  0.999995  0.259652  1
  Pd  Pd16  1  0.259615  0.000350  0.499692  1
  Pd  Pd17  1  0.500641  0.000014  0.740346  1
  Pd  Pd18  1  0.740333  0.999658  0.500303  1
  Pd  Pd19  1  0.000028  0.500042  0.259648  1
  Pd  Pd20  1  0.999321  0.499949  0.740351  1
  Pd  Pd21  1  0.252527  0.499650  0.499647  1
  Pd  Pd22  1  0.747419  0.500344  0.500344  1
  Pd  Pd23  1  0.499993  0.252555  0.500005  1
  Pd  Pd24  1  0.500660  0.747439  0.499992  1
  Pd  Pd25  1  0.499992  0.500005  0.252556  1
  Pd  Pd26  1  0.500660  0.499993  0.747440  1
  Pd  Pd27  1  0.289223  0.000320  0.000320  1
  Pd  Pd28  1  0.710933  0.999684  0.999684  1
  Pd  Pd29  1  0.000026  0.289174  0.000009  1
  Pd  Pd30  1  0.999412  0.710832  0.999997  1
  Pd  Pd31  1  0.000027  0.000008  0.289172  1
  Pd  Pd32  1  0.999412  0.999996  0.710832  1
