# generated using pymatgen
data_Ti19Si16Ir
_symmetry_space_group_name_H-M   'P 1'
_cell_length_a   6.68774536
_cell_length_b   6.68774536
_cell_length_c   12.13895989
_cell_angle_alpha   89.73722460
_cell_angle_beta   90.26277540
_cell_angle_gamma   89.94526527
_symmetry_Int_Tables_number   1
_chemical_formula_structural   Ti19Si16Ir
_chemical_formula_sum   'Ti19 Si16 Ir1'
_cell_volume   542.91468819
_cell_formula_units_Z   1
loop_
 _symmetry_equiv_pos_site_id
 _symmetry_equiv_pos_as_xyz
  1  'x, y, z'
loop_
 _atom_site_type_symbol
 _atom_site_label
 _atom_site_symmetry_multiplicity
 _atom_site_fract_x
 _atom_site_fract_y
 _atom_site_fract_z
 _atom_site_occupancy
  Ti  Ti0  1  0.996318  0.146962  0.624141  1
  Ti  Ti1  1  0.353840  0.500338  0.869636  1
  Ti  Ti2  1  0.648577  0.504147  0.371022  1
  Ti  Ti3  1  0.500338  0.353840  0.130364  1
  Ti  Ti4  1  0.504147  0.648577  0.628978  1
  Ti  Ti5  1  0.003800  0.848477  0.120630  1
  Ti  Ti6  1  0.146962  0.996318  0.375859  1
  Ti  Ti7  1  0.848477  0.003800  0.879370  1
  Ti  Ti8  1  0.000761  0.347255  0.220076  1
  Ti  Ti9  1  0.154596  0.501645  0.468213  1
  Ti  Ti10  1  0.840382  0.501298  0.969668  1
  Ti  Ti11  1  0.501645  0.154596  0.531787  1
  Ti  Ti12  1  0.501298  0.840382  0.030332  1
  Ti  Ti13  1  0.998179  0.655920  0.720446  1
  Ti  Ti14  1  0.347255  0.000761  0.779924  1
  Ti  Ti15  1  0.655920  0.998179  0.279554  1
  Ti  Ti16  1  0.327196  0.671735  0.247383  1
  Ti  Ti17  1  0.671735  0.327196  0.752617  1
  Ti  Ti18  1  0.828271  0.828271  0.500000  1
  Si  Si19  1  0.047568  0.299185  0.816199  1
  Si  Si20  1  0.200071  0.541411  0.061835  1
  Si  Si21  1  0.801113  0.453951  0.564244  1
  Si  Si22  1  0.541411  0.200071  0.938165  1
  Si  Si23  1  0.453951  0.801113  0.435756  1
  Si  Si24  1  0.955289  0.698384  0.314131  1
  Si  Si25  1  0.299185  0.047568  0.183801  1
  Si  Si26  1  0.698384  0.955289  0.685869  1
  Si  Si27  1  0.294372  0.356466  0.673327  1
  Si  Si28  1  0.140628  0.792780  0.921833  1
  Si  Si29  1  0.857474  0.205656  0.423540  1
  Si  Si30  1  0.792780  0.140628  0.078167  1
  Si  Si31  1  0.205656  0.857474  0.576460  1
  Si  Si32  1  0.705749  0.644963  0.173512  1
  Si  Si33  1  0.356466  0.294372  0.326673  1
  Si  Si34  1  0.644963  0.705749  0.826488  1
  Ir  Ir35  1  0.175243  0.175243  0.000000  1
