# generated using pymatgen
data_Pr2Nd4IrI10
_symmetry_space_group_name_H-M   'P 1'
_cell_length_a   8.00515257
_cell_length_b   10.05451668
_cell_length_c   10.02649511
_cell_angle_alpha   107.29874936
_cell_angle_beta   97.01542999
_cell_angle_gamma   105.30042539
_symmetry_Int_Tables_number   1
_chemical_formula_structural   Pr2Nd4IrI10
_chemical_formula_sum   'Pr2 Nd4 Ir1 I10'
_cell_volume   725.35216307
_cell_formula_units_Z   1
loop_
 _symmetry_equiv_pos_site_id
 _symmetry_equiv_pos_as_xyz
  1  'x, y, z'
loop_
 _atom_site_type_symbol
 _atom_site_label
 _atom_site_symmetry_multiplicity
 _atom_site_fract_x
 _atom_site_fract_y
 _atom_site_fract_z
 _atom_site_occupancy
  Pr  Pr0  1  0.616357  0.542429  0.260611  1
  Pr  Pr1  1  0.383643  0.457571  0.739389  1
  Nd  Nd2  1  0.530824  0.209689  0.412950  1
  Nd  Nd3  1  0.469176  0.790311  0.587050  1
  Nd  Nd4  1  0.145565  0.370437  0.329764  1
  Nd  Nd5  1  0.854435  0.629563  0.670236  1
  Ir  Ir6  1  0.500000  0.500000  0.500000  1
  I  I7  1  0.145448  0.045637  0.226518  1
  I  I8  1  0.854552  0.954363  0.773482  1
  I  I9  1  0.237635  0.411253  0.039445  1
  I  I10  1  0.762365  0.588747  0.960555  1
  I  I11  1  0.712688  0.239157  0.150844  1
  I  I12  1  0.287312  0.760843  0.849156  1
  I  I13  1  0.047397  0.681923  0.409847  1
  I  I14  1  0.952603  0.318077  0.590153  1
  I  I15  1  0.413723  0.127940  0.678835  1
  I  I16  1  0.586277  0.872060  0.321165  1
