# generated using pymatgen
data_Ac3NiPd2
_symmetry_space_group_name_H-M   'P 1'
_cell_length_a   4.62111700
_cell_length_b   6.07323541
_cell_length_c   11.82733087
_cell_angle_alpha   83.09322433
_cell_angle_beta   90.00000000
_cell_angle_gamma   90.00000000
_symmetry_Int_Tables_number   1
_chemical_formula_structural   Ac3NiPd2
_chemical_formula_sum   'Ac6 Ni2 Pd4'
_cell_volume   329.52678073
_cell_formula_units_Z   2
loop_
 _symmetry_equiv_pos_site_id
 _symmetry_equiv_pos_as_xyz
  1  'x, y, z'
loop_
 _atom_site_type_symbol
 _atom_site_label
 _atom_site_symmetry_multiplicity
 _atom_site_fract_x
 _atom_site_fract_y
 _atom_site_fract_z
 _atom_site_occupancy
  Ac  Ac0  1  0.250000  0.402696  0.782679  1
  Ac  Ac1  1  0.750000  0.597304  0.217321  1
  Ac  Ac2  1  0.250000  0.113897  0.124048  1
  Ac  Ac3  1  0.750000  0.886103  0.875952  1
  Ac  Ac4  1  0.250000  0.254610  0.458920  1
  Ac  Ac5  1  0.750000  0.745390  0.541080  1
  Ni  Ni6  1  0.250000  0.771854  0.362384  1
  Ni  Ni7  1  0.750000  0.228146  0.637616  1
  Pd  Pd8  1  0.250000  0.640758  0.030672  1
  Pd  Pd9  1  0.750000  0.359242  0.969328  1
  Pd  Pd10  1  0.250000  0.927061  0.692067  1
  Pd  Pd11  1  0.750000  0.072939  0.307933  1
