# generated using pymatgen
data_Ho19Er(Cd3Ru)2
_symmetry_space_group_name_H-M   'P 1'
_cell_length_a   9.53975700
_cell_length_b   9.53975733
_cell_length_c   9.82006700
_cell_angle_alpha   90.00000000
_cell_angle_beta   90.00000000
_cell_angle_gamma   120.00000232
_symmetry_Int_Tables_number   1
_chemical_formula_structural   Ho19Er(Cd3Ru)2
_chemical_formula_sum   'Ho19 Er1 Cd6 Ru2'
_cell_volume   773.96213171
_cell_formula_units_Z   1
loop_
 _symmetry_equiv_pos_site_id
 _symmetry_equiv_pos_as_xyz
  1  'x, y, z'
loop_
 _atom_site_type_symbol
 _atom_site_label
 _atom_site_symmetry_multiplicity
 _atom_site_fract_x
 _atom_site_fract_y
 _atom_site_fract_z
 _atom_site_occupancy
  Ho  Ho0  1  0.000000  0.000000  0.500000  1
  Ho  Ho1  1  0.209776  0.790224  0.440651  1
  Ho  Ho2  1  0.209776  0.419554  0.440651  1
  Ho  Ho3  1  0.580446  0.790224  0.440651  1
  Ho  Ho4  1  0.790224  0.209776  0.559349  1
  Ho  Ho5  1  0.790224  0.580446  0.559349  1
  Ho  Ho6  1  0.419554  0.209776  0.559349  1
  Ho  Ho7  1  0.790262  0.209738  0.940648  1
  Ho  Ho8  1  0.790262  0.580523  0.940648  1
  Ho  Ho9  1  0.419477  0.209738  0.940648  1
  Ho  Ho10  1  0.209738  0.790262  0.059352  1
  Ho  Ho11  1  0.209738  0.419477  0.059352  1
  Ho  Ho12  1  0.580523  0.790262  0.059352  1
  Ho  Ho13  1  0.541205  0.458795  0.249997  1
  Ho  Ho14  1  0.541205  0.082411  0.249997  1
  Ho  Ho15  1  0.917589  0.458795  0.249997  1
  Ho  Ho16  1  0.458795  0.541205  0.750003  1
  Ho  Ho17  1  0.458795  0.917589  0.750003  1
  Ho  Ho18  1  0.082411  0.541205  0.750003  1
  Er  Er19  1  0.000000  0.000000  0.000000  1
  Cd  Cd20  1  0.885380  0.114620  0.249938  1
  Cd  Cd21  1  0.885380  0.770762  0.249938  1
  Cd  Cd22  1  0.229238  0.114620  0.249938  1
  Cd  Cd23  1  0.114620  0.885380  0.750062  1
  Cd  Cd24  1  0.114620  0.229238  0.750062  1
  Cd  Cd25  1  0.770762  0.885380  0.750062  1
  Ru  Ru26  1  0.333333  0.666667  0.249992  1
  Ru  Ru27  1  0.666667  0.333333  0.750008  1
