# generated using pymatgen
data_LuTa2MoO8
_symmetry_space_group_name_H-M   'P 1'
_cell_length_a   5.82650800
_cell_length_b   4.92587586
_cell_length_c   5.25245257
_cell_angle_alpha   88.25111355
_cell_angle_beta   90.00000000
_cell_angle_gamma   90.00000000
_symmetry_Int_Tables_number   1
_chemical_formula_structural   LuTa2MoO8
_chemical_formula_sum   'Lu1 Ta2 Mo1 O8'
_cell_volume   150.67860845
_cell_formula_units_Z   1
loop_
 _symmetry_equiv_pos_site_id
 _symmetry_equiv_pos_as_xyz
  1  'x, y, z'
loop_
 _atom_site_type_symbol
 _atom_site_label
 _atom_site_symmetry_multiplicity
 _atom_site_fract_x
 _atom_site_fract_y
 _atom_site_fract_z
 _atom_site_occupancy
  Lu  Lu0  1  0.680607  0.500000  0.750000  1
  Ta  Ta1  1  0.832121  0.000000  0.250000  1
  Ta  Ta2  1  0.170563  0.000000  0.750000  1
  Mo  Mo3  1  0.338449  0.500000  0.250000  1
  O  O4  1  0.617097  0.741958  0.395292  1
  O  O5  1  0.617097  0.258042  0.104708  1
  O  O6  1  0.375214  0.262008  0.600384  1
  O  O7  1  0.375214  0.737992  0.899616  1
  O  O8  1  0.103152  0.780850  0.437654  1
  O  O9  1  0.103152  0.219150  0.062346  1
  O  O10  1  0.893666  0.205713  0.562063  1
  O  O11  1  0.893666  0.794287  0.937937  1
