# generated using pymatgen
data_Tb6Ga3CuNi12
_symmetry_space_group_name_H-M   'P 1'
_cell_length_a   7.70774768
_cell_length_b   7.62875755
_cell_length_c   7.70774753
_cell_angle_alpha   109.26376180
_cell_angle_beta   109.67788953
_cell_angle_gamma   109.26375578
_symmetry_Int_Tables_number   1
_chemical_formula_structural   Tb6Ga3CuNi12
_chemical_formula_sum   'Tb6 Ga3 Cu1 Ni12'
_cell_volume   349.77793346
_cell_formula_units_Z   1
loop_
 _symmetry_equiv_pos_site_id
 _symmetry_equiv_pos_as_xyz
  1  'x, y, z'
loop_
 _atom_site_type_symbol
 _atom_site_label
 _atom_site_symmetry_multiplicity
 _atom_site_fract_x
 _atom_site_fract_y
 _atom_site_fract_z
 _atom_site_occupancy
  Tb  Tb0  1  0.709415  0.706762  0.000000  1
  Tb  Tb1  1  0.290585  0.997347  0.290585  1
  Tb  Tb2  1  0.000000  0.293238  0.290585  1
  Tb  Tb3  1  0.290585  0.293238  0.000000  1
  Tb  Tb4  1  0.709415  0.002653  0.709415  1
  Tb  Tb5  1  0.000000  0.706762  0.709415  1
  Ga  Ga6  1  0.000000  0.000000  0.500000  1
  Ga  Ga7  1  0.500000  0.000000  0.000000  1
  Ga  Ga8  1  0.500000  0.500000  0.500000  1
  Cu  Cu9  1  0.000000  0.500000  0.000000  1
  Ni  Ni10  1  0.337713  0.337713  0.675426  1
  Ni  Ni11  1  0.662287  0.000000  0.337713  1
  Ni  Ni12  1  0.000000  0.661258  0.337220  1
  Ni  Ni13  1  0.662780  0.338742  0.000000  1
  Ni  Ni14  1  0.337220  0.675962  0.337220  1
  Ni  Ni15  1  0.000000  0.338742  0.662780  1
  Ni  Ni16  1  0.337220  0.661258  0.000000  1
  Ni  Ni17  1  0.337713  0.000000  0.662287  1
  Ni  Ni18  1  0.675426  0.337713  0.337713  1
  Ni  Ni19  1  0.662287  0.662287  0.324574  1
  Ni  Ni20  1  0.662780  0.324038  0.662780  1
  Ni  Ni21  1  0.324574  0.662287  0.662287  1
