# generated using pymatgen
data_Rb4Hf6CoBr18
_symmetry_space_group_name_H-M   'P 1'
_cell_length_a   10.63177439
_cell_length_b   10.88827560
_cell_length_c   11.01831557
_cell_angle_alpha   118.51105419
_cell_angle_beta   100.34502893
_cell_angle_gamma   103.73143376
_symmetry_Int_Tables_number   1
_chemical_formula_structural   Rb4Hf6CoBr18
_chemical_formula_sum   'Rb4 Hf6 Co1 Br18'
_cell_volume   1022.68610746
_cell_formula_units_Z   1
loop_
 _symmetry_equiv_pos_site_id
 _symmetry_equiv_pos_as_xyz
  1  'x, y, z'
loop_
 _atom_site_type_symbol
 _atom_site_label
 _atom_site_symmetry_multiplicity
 _atom_site_fract_x
 _atom_site_fract_y
 _atom_site_fract_z
 _atom_site_occupancy
  Rb  Rb0  1  0.656055  0.537574  0.228320  1
  Rb  Rb1  1  0.343945  0.462426  0.771680  1
  Rb  Rb2  1  0.690745  0.226768  0.564532  1
  Rb  Rb3  1  0.309255  0.773232  0.435468  1
  Hf  Hf4  1  0.150943  0.056694  0.230555  1
  Hf  Hf5  1  0.849057  0.943306  0.769445  1
  Hf  Hf6  1  0.861819  0.125189  0.132052  1
  Hf  Hf7  1  0.138181  0.874811  0.867948  1
  Hf  Hf8  1  0.146267  0.238851  0.045348  1
  Hf  Hf9  1  0.853733  0.761149  0.954652  1
  Co  Co10  1  0.000000  0.000000  0.000000  1
  Br  Br11  1  0.008099  0.402971  0.193176  1
  Br  Br12  1  0.991901  0.597029  0.806824  1
  Br  Br13  1  0.326589  0.328933  0.307005  1
  Br  Br14  1  0.673411  0.671067  0.692995  1
  Br  Br15  1  0.316875  0.512026  0.098767  1
  Br  Br16  1  0.683125  0.487974  0.901233  1
  Br  Br17  1  0.004400  0.799061  0.205954  1
  Br  Br18  1  0.995600  0.200939  0.794046  1
  Br  Br19  1  0.707374  0.267698  0.280379  1
  Br  Br20  1  0.292626  0.732302  0.719621  1
  Br  Br21  1  0.314093  0.126850  0.905417  1
  Br  Br22  1  0.685907  0.873150  0.094583  1
  Br  Br23  1  0.015525  0.201411  0.402101  1
  Br  Br24  1  0.984475  0.798589  0.597899  1
  Br  Br25  1  0.317510  0.924175  0.109425  1
  Br  Br26  1  0.682490  0.075825  0.890575  1
  Br  Br27  1  0.329004  0.120029  0.492584  1
  Br  Br28  1  0.670996  0.879971  0.507416  1
