# generated using pymatgen
data_NaCa21Ga13Sb
_symmetry_space_group_name_H-M   'P 1'
_cell_length_a   11.36819333
_cell_length_b   11.37984560
_cell_length_c   11.36819400
_cell_angle_alpha   59.96609313
_cell_angle_beta   60.06781512
_cell_angle_gamma   59.96609293
_symmetry_Int_Tables_number   1
_chemical_formula_structural   NaCa21Ga13Sb
_chemical_formula_sum   'Na1 Ca21 Ga13 Sb1'
_cell_volume   1039.92828181
_cell_formula_units_Z   1
loop_
 _symmetry_equiv_pos_site_id
 _symmetry_equiv_pos_as_xyz
  1  'x, y, z'
loop_
 _atom_site_type_symbol
 _atom_site_label
 _atom_site_symmetry_multiplicity
 _atom_site_fract_x
 _atom_site_fract_y
 _atom_site_fract_z
 _atom_site_occupancy
  Na  Na0  1  0.502102  0.497898  0.502102  1
  Ca  Ca1  1  0.997182  0.002818  0.997182  1
  Ca  Ca2  1  0.127068  0.135010  0.127068  1
  Ca  Ca3  1  0.389144  0.872932  0.864990  1
  Ca  Ca4  1  0.870936  0.387505  0.870936  1
  Ca  Ca5  1  0.864990  0.872932  0.389144  1
  Ca  Ca6  1  0.127068  0.610856  0.127068  1
  Ca  Ca7  1  0.129379  0.129064  0.612495  1
  Ca  Ca8  1  0.612495  0.129064  0.129379  1
  Ca  Ca9  1  0.870936  0.870621  0.870936  1
  Ca  Ca10  1  0.499714  0.832908  0.499714  1
  Ca  Ca11  1  0.832234  0.499554  0.500446  1
  Ca  Ca12  1  0.506835  0.833780  0.166220  1
  Ca  Ca13  1  0.167092  0.500286  0.832336  1
  Ca  Ca14  1  0.832336  0.500286  0.167092  1
  Ca  Ca15  1  0.500446  0.499554  0.832234  1
  Ca  Ca16  1  0.166220  0.833780  0.506835  1
  Ca  Ca17  1  0.500446  0.167766  0.832234  1
  Ca  Ca18  1  0.506835  0.493165  0.166220  1
  Ca  Ca19  1  0.832234  0.167766  0.500446  1
  Ca  Ca20  1  0.166220  0.493165  0.506835  1
  Ca  Ca21  1  0.499714  0.167664  0.499714  1
  Ga  Ga22  1  0.217714  0.782286  0.783001  1
  Ga  Ga23  1  0.783001  0.216999  0.217714  1
  Ga  Ga24  1  0.783001  0.782286  0.217714  1
  Ga  Ga25  1  0.217714  0.216999  0.783001  1
  Ga  Ga26  1  0.781161  0.218839  0.781161  1
  Ga  Ga27  1  0.308762  0.309676  0.308761  1
  Ga  Ga28  1  0.927198  0.691239  0.690324  1
  Ga  Ga29  1  0.690277  0.929551  0.690277  1
  Ga  Ga30  1  0.690324  0.691239  0.927198  1
  Ga  Ga31  1  0.308761  0.072802  0.308761  1
  Ga  Ga32  1  0.310104  0.309723  0.070449  1
  Ga  Ga33  1  0.070449  0.309723  0.310104  1
  Ga  Ga34  1  0.690277  0.689896  0.690276  1
  Sb  Sb35  1  0.219632  0.780368  0.219632  1
