# generated using pymatgen
data_Zr6SiBiPb
_symmetry_space_group_name_H-M   'P 1'
_cell_length_a   3.96523200
_cell_length_b   7.71848381
_cell_length_c   7.71848500
_cell_angle_alpha   120.00000083
_cell_angle_beta   90.00000000
_cell_angle_gamma   90.00000000
_symmetry_Int_Tables_number   1
_chemical_formula_structural   Zr6SiBiPb
_chemical_formula_sum   'Zr6 Si1 Bi1 Pb1'
_cell_volume   204.58005559
_cell_formula_units_Z   1
loop_
 _symmetry_equiv_pos_site_id
 _symmetry_equiv_pos_as_xyz
  1  'x, y, z'
loop_
 _atom_site_type_symbol
 _atom_site_label
 _atom_site_symmetry_multiplicity
 _atom_site_fract_x
 _atom_site_fract_y
 _atom_site_fract_z
 _atom_site_occupancy
  Zr  Zr0  1  0.500000  0.763460  0.760411  1
  Zr  Zr1  1  0.500000  0.996952  0.236540  1
  Zr  Zr2  1  0.500000  0.239589  0.003048  1
  Zr  Zr3  1  0.000000  0.384479  0.384572  1
  Zr  Zr4  1  0.000000  0.000094  0.615521  1
  Zr  Zr5  1  0.000000  0.615428  0.999906  1
  Si  Si6  1  0.000000  0.000000  0.000000  1
  Bi  Bi7  1  0.500000  0.333333  0.666667  1
  Pb  Pb8  1  0.500000  0.666667  0.333333  1
