# generated using pymatgen
data_DyHo3B16Ir3Ru
_symmetry_space_group_name_H-M   'P 1'
_cell_length_a   3.56270500
_cell_length_b   5.96337012
_cell_length_c   11.56585713
_cell_angle_alpha   90.09051781
_cell_angle_beta   90.00000000
_cell_angle_gamma   90.00000000
_symmetry_Int_Tables_number   1
_chemical_formula_structural   DyHo3B16Ir3Ru
_chemical_formula_sum   'Dy1 Ho3 B16 Ir3 Ru1'
_cell_volume   245.72475407
_cell_formula_units_Z   1
loop_
 _symmetry_equiv_pos_site_id
 _symmetry_equiv_pos_as_xyz
  1  'x, y, z'
loop_
 _atom_site_type_symbol
 _atom_site_label
 _atom_site_symmetry_multiplicity
 _atom_site_fract_x
 _atom_site_fract_y
 _atom_site_fract_z
 _atom_site_occupancy
  Dy  Dy0  1  0.000000  0.631636  0.646991  1
  Ho  Ho1  1  0.000000  0.370099  0.351315  1
  Ho  Ho2  1  0.000000  0.131133  0.851508  1
  Ho  Ho3  1  0.000000  0.868148  0.151107  1
  B  B4  1  0.500000  0.972710  0.691616  1
  B  B5  1  0.500000  0.024383  0.307611  1
  B  B6  1  0.500000  0.474201  0.807427  1
  B  B7  1  0.500000  0.525300  0.192723  1
  B  B8  1  0.500000  0.792024  0.812576  1
  B  B9  1  0.500000  0.208769  0.187739  1
  B  B10  1  0.500000  0.291469  0.687236  1
  B  B11  1  0.500000  0.709904  0.313741  1
  B  B12  1  0.500000  0.863924  0.969807  1
  B  B13  1  0.500000  0.135980  0.030100  1
  B  B14  1  0.500000  0.363379  0.529587  1
  B  B15  1  0.500000  0.635495  0.468705  1
  B  B16  1  0.500000  0.886604  0.545301  1
  B  B17  1  0.500000  0.111430  0.452203  1
  B  B18  1  0.500000  0.387527  0.953042  1
  B  B19  1  0.500000  0.612572  0.047337  1
  Ir  Ir20  1  0.000000  0.644350  0.903028  1
  Ir  Ir21  1  0.000000  0.355637  0.096158  1
  Ir  Ir22  1  0.000000  0.143438  0.597083  1
  Ru  Ru23  1  0.000000  0.859888  0.406055  1
