# generated using pymatgen
data_Tb7Dy4ErRu4
_symmetry_space_group_name_H-M   'P 1'
_cell_length_a   6.32680082
_cell_length_b   7.29731536
_cell_length_c   9.22242802
_cell_angle_alpha   90.01411379
_cell_angle_beta   90.15980661
_cell_angle_gamma   90.04473799
_symmetry_Int_Tables_number   1
_chemical_formula_structural   Tb7Dy4ErRu4
_chemical_formula_sum   'Tb7 Dy4 Er1 Ru4'
_cell_volume   425.78535191
_cell_formula_units_Z   1
loop_
 _symmetry_equiv_pos_site_id
 _symmetry_equiv_pos_as_xyz
  1  'x, y, z'
loop_
 _atom_site_type_symbol
 _atom_site_label
 _atom_site_symmetry_multiplicity
 _atom_site_fract_x
 _atom_site_fract_y
 _atom_site_fract_z
 _atom_site_occupancy
  Tb  Tb0  1  0.669664  0.322897  0.935405  1
  Tb  Tb1  1  0.830539  0.823143  0.565118  1
  Tb  Tb2  1  0.330251  0.676761  0.434855  1
  Tb  Tb3  1  0.865664  0.539709  0.249595  1
  Tb  Tb4  1  0.634204  0.040548  0.249322  1
  Tb  Tb5  1  0.135184  0.459622  0.750464  1
  Tb  Tb6  1  0.364891  0.960233  0.750629  1
  Dy  Dy7  1  0.329890  0.676986  0.064963  1
  Dy  Dy8  1  0.169503  0.177161  0.434180  1
  Dy  Dy9  1  0.669799  0.322902  0.565059  1
  Dy  Dy10  1  0.831030  0.823772  0.935533  1
  Er  Er11  1  0.169207  0.176268  0.065496  1
  Ru  Ru12  1  0.040968  0.885519  0.249069  1
  Ru  Ru13  1  0.458180  0.384427  0.249276  1
  Ru  Ru14  1  0.960031  0.115145  0.751280  1
  Ru  Ru15  1  0.540994  0.614910  0.749755  1
