# generated using pymatgen
data_Hf6Al16OsPd6
_symmetry_space_group_name_H-M   'P 1'
_cell_length_a   8.77712359
_cell_length_b   8.76023107
_cell_length_c   8.77712364
_cell_angle_alpha   60.06365255
_cell_angle_beta   59.87734056
_cell_angle_gamma   60.06364998
_symmetry_Int_Tables_number   1
_chemical_formula_structural   Hf6Al16OsPd6
_chemical_formula_sum   'Hf6 Al16 Os1 Pd6'
_cell_volume   477.21839445
_cell_formula_units_Z   1
loop_
 _symmetry_equiv_pos_site_id
 _symmetry_equiv_pos_as_xyz
  1  'x, y, z'
loop_
 _atom_site_type_symbol
 _atom_site_label
 _atom_site_symmetry_multiplicity
 _atom_site_fract_x
 _atom_site_fract_y
 _atom_site_fract_z
 _atom_site_occupancy
  Hf  Hf0  1  0.678621  0.316178  0.321379  1
  Hf  Hf1  1  0.321379  0.683822  0.678621  1
  Hf  Hf2  1  0.316100  0.683900  0.316100  1
  Hf  Hf3  1  0.321379  0.316178  0.678621  1
  Hf  Hf4  1  0.683900  0.316100  0.683900  1
  Hf  Hf5  1  0.678621  0.683822  0.321379  1
  Al  Al6  1  0.336312  0.335250  0.336312  1
  Al  Al7  1  0.336244  0.336655  0.990446  1
  Al  Al8  1  0.990446  0.336655  0.336244  1
  Al  Al9  1  0.336312  0.992124  0.336312  1
  Al  Al10  1  0.663688  0.664750  0.663688  1
  Al  Al11  1  0.663756  0.663345  0.009554  1
  Al  Al12  1  0.663688  0.007876  0.663688  1
  Al  Al13  1  0.009554  0.663345  0.663756  1
  Al  Al14  1  0.120478  0.119381  0.120478  1
  Al  Al15  1  0.129674  0.116481  0.637367  1
  Al  Al16  1  0.637367  0.116481  0.129674  1
  Al  Al17  1  0.120478  0.639667  0.120478  1
  Al  Al18  1  0.879523  0.880620  0.879523  1
  Al  Al19  1  0.870327  0.883520  0.362634  1
  Al  Al20  1  0.879523  0.360334  0.879523  1
  Al  Al21  1  0.362634  0.883520  0.870327  1
  Os  Os22  1  0.500000  0.000000  0.500000  1
  Pd  Pd23  1  0.500000  0.000000  0.000000  1
  Pd  Pd24  1  0.000000  0.500000  0.500000  1
  Pd  Pd25  1  0.000000  0.500000  0.000000  1
  Pd  Pd26  1  0.000000  0.000000  0.500000  1
  Pd  Pd27  1  0.500000  0.500000  0.000000  1
  Pd  Pd28  1  0.000000  0.000000  0.000000  1
