# generated using pymatgen
data_Ce4InHgRh4
_symmetry_space_group_name_H-M   'P 1'
_cell_length_a   7.68825734
_cell_length_b   7.68840234
_cell_length_c   3.71542700
_cell_angle_alpha   90.00000000
_cell_angle_beta   90.00000000
_cell_angle_gamma   90.03423589
_symmetry_Int_Tables_number   1
_chemical_formula_structural   Ce4InHgRh4
_chemical_formula_sum   'Ce4 In1 Hg1 Rh4'
_cell_volume   219.62039553
_cell_formula_units_Z   1
loop_
 _symmetry_equiv_pos_site_id
 _symmetry_equiv_pos_as_xyz
  1  'x, y, z'
loop_
 _atom_site_type_symbol
 _atom_site_label
 _atom_site_symmetry_multiplicity
 _atom_site_fract_x
 _atom_site_fract_y
 _atom_site_fract_z
 _atom_site_occupancy
  Ce  Ce0  1  0.670758  0.170317  0.500000  1
  Ce  Ce1  1  0.329242  0.829683  0.500000  1
  Ce  Ce2  1  0.170313  0.329263  0.500000  1
  Ce  Ce3  1  0.829687  0.670737  0.500000  1
  In  In4  1  0.500000  0.500000  0.000000  1
  Hg  Hg5  1  0.000000  0.000000  0.000000  1
  Rh  Rh6  1  0.139136  0.633063  0.000000  1
  Rh  Rh7  1  0.860864  0.366937  0.000000  1
  Rh  Rh8  1  0.632982  0.860880  0.000000  1
  Rh  Rh9  1  0.367018  0.139120  0.000000  1
