# generated using pymatgen
data_Ho3Er17(Bi2As)4
_symmetry_space_group_name_H-M   'P 1'
_cell_length_a   7.99194900
_cell_length_b   9.09726500
_cell_length_c   11.98473200
_cell_angle_alpha   90.00000000
_cell_angle_beta   89.99674237
_cell_angle_gamma   90.00000000
_symmetry_Int_Tables_number   1
_chemical_formula_structural   Ho3Er17(Bi2As)4
_chemical_formula_sum   'Ho3 Er17 Bi8 As4'
_cell_volume   871.34847625
_cell_formula_units_Z   1
loop_
 _symmetry_equiv_pos_site_id
 _symmetry_equiv_pos_as_xyz
  1  'x, y, z'
loop_
 _atom_site_type_symbol
 _atom_site_label
 _atom_site_symmetry_multiplicity
 _atom_site_fract_x
 _atom_site_fract_y
 _atom_site_fract_z
 _atom_site_occupancy
  Ho  Ho0  1  0.865734  0.750000  0.792640  1
  Ho  Ho1  1  0.365698  0.250000  0.707325  1
  Ho  Ho2  1  0.134257  0.250000  0.207339  1
  Er  Er3  1  0.817034  0.556462  0.062949  1
  Er  Er4  1  0.682941  0.943532  0.562911  1
  Er  Er5  1  0.182933  0.056545  0.937104  1
  Er  Er6  1  0.317062  0.443434  0.437083  1
  Er  Er7  1  0.182933  0.443455  0.937104  1
  Er  Er8  1  0.317062  0.056566  0.437083  1
  Er  Er9  1  0.817034  0.943538  0.062949  1
  Er  Er10  1  0.682941  0.556468  0.562911  1
  Er  Er11  1  0.156323  0.750000  0.210739  1
  Er  Er12  1  0.343772  0.750000  0.710762  1
  Er  Er13  1  0.843756  0.250000  0.789292  1
  Er  Er14  1  0.656246  0.250000  0.289245  1
  Er  Er15  1  0.463711  0.750000  0.000078  1
  Er  Er16  1  0.036298  0.750000  0.500015  1
  Er  Er17  1  0.536294  0.250000  0.000015  1
  Er  Er18  1  0.963689  0.250000  0.500000  1
  Er  Er19  1  0.634262  0.750000  0.292667  1
  Bi  Bi20  1  0.925483  0.510137  0.326907  1
  Bi  Bi21  1  0.574348  0.989972  0.826914  1
  Bi  Bi22  1  0.074362  0.010026  0.673072  1
  Bi  Bi23  1  0.425742  0.490075  0.173148  1
  Bi  Bi24  1  0.074362  0.489974  0.673072  1
  Bi  Bi25  1  0.425742  0.009925  0.173148  1
  Bi  Bi26  1  0.925483  0.989863  0.326907  1
  Bi  Bi27  1  0.574348  0.510028  0.826914  1
  As  As28  1  0.412742  0.750000  0.478563  1
  As  As29  1  0.087465  0.750000  0.978790  1
  As  As30  1  0.587414  0.250000  0.521168  1
  As  As31  1  0.912532  0.250000  0.021186  1
