# generated using pymatgen
data_La2Pr3USe10
_symmetry_space_group_name_H-M   'P 1'
_cell_length_a   7.96202500
_cell_length_b   8.52179142
_cell_length_c   12.60645600
_cell_angle_alpha   90.00000000
_cell_angle_beta   90.00000000
_cell_angle_gamma   89.94863289
_symmetry_Int_Tables_number   1
_chemical_formula_structural   La2Pr3USe10
_chemical_formula_sum   'La4 Pr6 U2 Se20'
_cell_volume   855.35672672
_cell_formula_units_Z   2
loop_
 _symmetry_equiv_pos_site_id
 _symmetry_equiv_pos_as_xyz
  1  'x, y, z'
loop_
 _atom_site_type_symbol
 _atom_site_label
 _atom_site_symmetry_multiplicity
 _atom_site_fract_x
 _atom_site_fract_y
 _atom_site_fract_z
 _atom_site_occupancy
  La  La0  1  0.526013  0.502010  0.323156  1
  La  La1  1  0.973987  0.997990  0.823156  1
  La  La2  1  0.479864  0.998601  0.676993  1
  La  La3  1  0.020136  0.501399  0.176993  1
  Pr  Pr4  1  0.480855  0.503224  0.678896  1
  Pr  Pr5  1  0.019145  0.996776  0.178896  1
  Pr  Pr6  1  0.525919  0.000457  0.321580  1
  Pr  Pr7  1  0.974081  0.499543  0.821580  1
  Pr  Pr8  1  0.078893  0.749566  0.491713  1
  Pr  Pr9  1  0.421107  0.750434  0.991713  1
  U  U10  1  0.941609  0.249405  0.505713  1
  U  U11  1  0.558391  0.250595  0.005713  1
  Se  Se12  1  0.837751  0.970338  0.596686  1
  Se  Se13  1  0.662249  0.529662  0.096686  1
  Se  Se14  1  0.163583  0.446096  0.402967  1
  Se  Se15  1  0.336417  0.053904  0.902967  1
  Se  Se16  1  0.165136  0.052933  0.402727  1
  Se  Se17  1  0.334864  0.447067  0.902727  1
  Se  Se18  1  0.835989  0.528906  0.596831  1
  Se  Se19  1  0.664011  0.971094  0.096831  1
  Se  Se20  1  0.824076  0.752678  0.310955  1
  Se  Se21  1  0.675924  0.747322  0.810955  1
  Se  Se22  1  0.168965  0.252196  0.681071  1
  Se  Se23  1  0.331035  0.247804  0.181071  1
  Se  Se24  1  0.463310  0.750075  0.499310  1
  Se  Se25  1  0.036690  0.749925  0.999310  1
  Se  Se26  1  0.550775  0.250368  0.500369  1
  Se  Se27  1  0.949225  0.249632  0.000369  1
  Se  Se28  1  0.199711  0.747016  0.720051  1
  Se  Se29  1  0.300289  0.752984  0.220051  1
  Se  Se30  1  0.807551  0.247446  0.290981  1
  Se  Se31  1  0.692449  0.252554  0.790981  1
