# generated using pymatgen
data_Dy3HoV3PtF28
_symmetry_space_group_name_H-M   'P 1'
_cell_length_a   5.52381997
_cell_length_b   8.85184073
_cell_length_c   11.82534048
_cell_angle_alpha   62.99095702
_cell_angle_beta   89.87672694
_cell_angle_gamma   89.89021631
_symmetry_Int_Tables_number   1
_chemical_formula_structural   Dy3HoV3PtF28
_chemical_formula_sum   'Dy3 Ho1 V3 Pt1 F28'
_cell_volume   515.14734546
_cell_formula_units_Z   1
loop_
 _symmetry_equiv_pos_site_id
 _symmetry_equiv_pos_as_xyz
  1  'x, y, z'
loop_
 _atom_site_type_symbol
 _atom_site_label
 _atom_site_symmetry_multiplicity
 _atom_site_fract_x
 _atom_site_fract_y
 _atom_site_fract_z
 _atom_site_occupancy
  Dy  Dy0  1  0.258115  0.188680  0.734627  1
  Dy  Dy1  1  0.239120  0.188677  0.229435  1
  Dy  Dy2  1  0.742119  0.807147  0.270490  1
  Ho  Ho3  1  0.759148  0.811187  0.767317  1
  V  V4  1  0.752988  0.275151  0.955098  1
  V  V5  1  0.256057  0.724474  0.547062  1
  V  V6  1  0.246183  0.726841  0.044159  1
  Pt  Pt7  1  0.742871  0.270672  0.456200  1
  F  F8  1  0.454428  0.709444  0.923064  1
  F  F9  1  0.935115  0.301907  0.583662  1
  F  F10  1  0.543446  0.293442  0.075271  1
  F  F11  1  0.050080  0.707658  0.425360  1
  F  F12  1  0.439518  0.282647  0.539821  1
  F  F13  1  0.965662  0.716675  0.952292  1
  F  F14  1  0.538069  0.716693  0.455541  1
  F  F15  1  0.034694  0.286178  0.046009  1
  F  F16  1  0.764381  0.507013  0.863555  1
  F  F17  1  0.270816  0.490580  0.637448  1
  F  F18  1  0.234631  0.494556  0.137258  1
  F  F19  1  0.731388  0.518168  0.354548  1
  F  F20  1  0.757732  0.044513  0.046340  1
  F  F21  1  0.257017  0.955114  0.455406  1
  F  F22  1  0.242125  0.959145  0.951650  1
  F  F23  1  0.743741  0.022006  0.549707  1
  F  F24  1  0.985098  0.724860  0.646156  1
  F  F25  1  0.481054  0.268027  0.859959  1
  F  F26  1  0.040523  0.269564  0.364828  1
  F  F27  1  0.517836  0.736928  0.137938  1
  F  F28  1  0.042114  0.750871  0.165888  1
  F  F29  1  0.554034  0.249382  0.323003  1
  F  F30  1  0.959887  0.254328  0.832974  1
  F  F31  1  0.459875  0.742028  0.671518  1
  F  F32  1  0.419399  0.972195  0.230738  1
  F  F33  1  0.919484  0.027567  0.269241  1
  F  F34  1  0.582515  0.030447  0.766558  1
  F  F35  1  0.078739  0.975234  0.729879  1
