# generated using pymatgen
data_Li3Tb3As2Au
_symmetry_space_group_name_H-M   'P 1'
_cell_length_a   6.95911600
_cell_length_b   6.95911579
_cell_length_c   4.16528300
_cell_angle_alpha   90.00000000
_cell_angle_beta   90.00000000
_cell_angle_gamma   120.00000100
_symmetry_Int_Tables_number   1
_chemical_formula_structural   Li3Tb3As2Au
_chemical_formula_sum   'Li3 Tb3 As2 Au1'
_cell_volume   174.69612803
_cell_formula_units_Z   1
loop_
 _symmetry_equiv_pos_site_id
 _symmetry_equiv_pos_as_xyz
  1  'x, y, z'
loop_
 _atom_site_type_symbol
 _atom_site_label
 _atom_site_symmetry_multiplicity
 _atom_site_fract_x
 _atom_site_fract_y
 _atom_site_fract_z
 _atom_site_occupancy
  Li  Li0  1  0.758230  0.758230  0.500000  1
  Li  Li1  1  0.241770  0.000000  0.500000  1
  Li  Li2  1  0.000000  0.241770  0.500000  1
  Tb  Tb3  1  0.416340  0.416340  0.000000  1
  Tb  Tb4  1  0.583660  0.000000  0.000000  1
  Tb  Tb5  1  0.000000  0.583660  0.000000  1
  As  As6  1  0.666667  0.333333  0.500000  1
  As  As7  1  0.333333  0.666667  0.500000  1
  Au  Au8  1  0.000000  0.000000  0.000000  1
