# generated using pymatgen
data_Sm4Ho5TmSi8
_symmetry_space_group_name_H-M   'P 1'
_cell_length_a   7.74563585
_cell_length_b   7.74549300
_cell_length_c   14.25854500
_cell_angle_alpha   90.00000000
_cell_angle_beta   90.08662089
_cell_angle_gamma   90.00000000
_symmetry_Int_Tables_number   1
_chemical_formula_structural   Sm4Ho5TmSi8
_chemical_formula_sum   'Sm8 Ho10 Tm2 Si16'
_cell_volume   855.42286702
_cell_formula_units_Z   2
loop_
 _symmetry_equiv_pos_site_id
 _symmetry_equiv_pos_as_xyz
  1  'x, y, z'
loop_
 _atom_site_type_symbol
 _atom_site_label
 _atom_site_symmetry_multiplicity
 _atom_site_fract_x
 _atom_site_fract_y
 _atom_site_fract_z
 _atom_site_occupancy
  Sm  Sm0  1  0.641661  0.993054  0.458561  1
  Sm  Sm1  1  0.358463  0.006928  0.958449  1
  Sm  Sm2  1  0.992920  0.641589  0.541446  1
  Sm  Sm3  1  0.493144  0.858430  0.208466  1
  Sm  Sm4  1  0.507080  0.141589  0.708554  1
  Sm  Sm5  1  0.858339  0.493054  0.791439  1
  Sm  Sm6  1  0.141537  0.506928  0.291551  1
  Sm  Sm7  1  0.006856  0.358430  0.041534  1
  Ho  Ho8  1  0.492271  0.360698  0.124254  1
  Ho  Ho9  1  0.992017  0.139352  0.625626  1
  Ho  Ho10  1  0.860740  0.008034  0.874531  1
  Ho  Ho11  1  0.139174  0.992157  0.374082  1
  Ho  Ho12  1  0.507983  0.639352  0.624374  1
  Ho  Ho13  1  0.360826  0.492157  0.875918  1
  Ho  Ho14  1  0.639260  0.508034  0.375469  1
  Ho  Ho15  1  0.007729  0.860698  0.125746  1
  Ho  Ho16  1  0.317817  0.317579  0.499964  1
  Ho  Ho17  1  0.182183  0.817579  0.750036  1
  Tm  Tm18  1  0.817509  0.182241  0.249938  1
  Tm  Tm19  1  0.682491  0.682241  0.000062  1
  Si  Si20  1  0.291407  0.937541  0.561452  1
  Si  Si21  1  0.708888  0.062227  0.062039  1
  Si  Si22  1  0.937235  0.291053  0.437893  1
  Si  Si23  1  0.438068  0.208550  0.311399  1
  Si  Si24  1  0.562765  0.791053  0.812107  1
  Si  Si25  1  0.208593  0.437541  0.688548  1
  Si  Si26  1  0.791112  0.562227  0.187961  1
  Si  Si27  1  0.061932  0.708550  0.938601  1
  Si  Si28  1  0.796055  0.847397  0.687655  1
  Si  Si29  1  0.203815  0.152581  0.187753  1
  Si  Si30  1  0.847260  0.796429  0.312207  1
  Si  Si31  1  0.347558  0.704161  0.437614  1
  Si  Si32  1  0.652740  0.296429  0.937793  1
  Si  Si33  1  0.703945  0.347397  0.562345  1
  Si  Si34  1  0.296185  0.652581  0.062247  1
  Si  Si35  1  0.152442  0.204161  0.812386  1
