# generated using pymatgen
data_Tb7YHf12Si15Ge
_symmetry_space_group_name_H-M   'P 1'
_cell_length_a   7.29702707
_cell_length_b   7.30333083
_cell_length_c   13.40848301
_cell_angle_alpha   89.92903253
_cell_angle_beta   89.99361467
_cell_angle_gamma   89.96786941
_symmetry_Int_Tables_number   1
_chemical_formula_structural   Tb7YHf12Si15Ge
_chemical_formula_sum   'Tb7 Y1 Hf12 Si15 Ge1'
_cell_volume   714.57229439
_cell_formula_units_Z   1
loop_
 _symmetry_equiv_pos_site_id
 _symmetry_equiv_pos_as_xyz
  1  'x, y, z'
loop_
 _atom_site_type_symbol
 _atom_site_label
 _atom_site_symmetry_multiplicity
 _atom_site_fract_x
 _atom_site_fract_y
 _atom_site_fract_z
 _atom_site_occupancy
  Tb  Tb0  1  0.003881  0.656093  0.715242  1
  Tb  Tb1  1  0.154919  0.497577  0.466032  1
  Tb  Tb2  1  0.504247  0.843494  0.034537  1
  Tb  Tb3  1  0.843984  0.503969  0.964988  1
  Tb  Tb4  1  0.496620  0.155552  0.535646  1
  Tb  Tb5  1  0.343803  0.996138  0.784856  1
  Tb  Tb6  1  0.656995  0.002850  0.284627  1
  Y  Y7  1  0.994998  0.344021  0.214680  1
  Hf  Hf8  1  0.174390  0.174658  0.999876  1
  Hf  Hf9  1  0.825534  0.825660  0.500173  1
  Hf  Hf10  1  0.325552  0.676901  0.249518  1
  Hf  Hf11  1  0.674570  0.325518  0.749975  1
  Hf  Hf12  1  0.148384  0.994103  0.374228  1
  Hf  Hf13  1  0.850492  0.004290  0.874328  1
  Hf  Hf14  1  0.504285  0.649597  0.624391  1
  Hf  Hf15  1  0.350393  0.495655  0.875680  1
  Hf  Hf16  1  0.495713  0.350387  0.123286  1
  Hf  Hf17  1  0.651914  0.506259  0.376331  1
  Hf  Hf18  1  0.995504  0.149643  0.625791  1
  Hf  Hf19  1  0.003818  0.850151  0.125433  1
  Si  Si20  1  0.636698  0.705110  0.816948  1
  Si  Si21  1  0.204898  0.863410  0.567068  1
  Si  Si22  1  0.136714  0.795027  0.932840  1
  Si  Si23  1  0.794986  0.136741  0.066891  1
  Si  Si24  1  0.863270  0.204684  0.433023  1
  Si  Si25  1  0.295106  0.363296  0.683010  1
  Si  Si26  1  0.704671  0.636457  0.182933  1
  Si  Si27  1  0.294844  0.045909  0.183816  1
  Si  Si28  1  0.705034  0.951183  0.685568  1
  Si  Si29  1  0.451429  0.795132  0.435489  1
  Si  Si30  1  0.204912  0.548488  0.064570  1
  Si  Si31  1  0.548684  0.204861  0.935188  1
  Si  Si32  1  0.794888  0.451337  0.564788  1
  Si  Si33  1  0.048573  0.295046  0.814464  1
  Si  Si34  1  0.951532  0.704557  0.314428  1
  Ge  Ge35  1  0.363765  0.296247  0.319359  1
