# generated using pymatgen
data_Sc2Re3B4
_symmetry_space_group_name_H-M   'P 1'
_cell_length_a   6.09165700
_cell_length_b   6.09165700
_cell_length_c   11.25340900
_cell_angle_alpha   90.00000000
_cell_angle_beta   90.00000000
_cell_angle_gamma   90.00000000
_symmetry_Int_Tables_number   1
_chemical_formula_structural   Sc2Re3B4
_chemical_formula_sum   'Sc8 Re12 B16'
_cell_volume   417.59470846
_cell_formula_units_Z   4
loop_
 _symmetry_equiv_pos_site_id
 _symmetry_equiv_pos_as_xyz
  1  'x, y, z'
loop_
 _atom_site_type_symbol
 _atom_site_label
 _atom_site_symmetry_multiplicity
 _atom_site_fract_x
 _atom_site_fract_y
 _atom_site_fract_z
 _atom_site_occupancy
  Sc  Sc0  1  0.995193  0.654221  0.038464  1
  Sc  Sc1  1  0.004807  0.345779  0.538464  1
  Sc  Sc2  1  0.345779  0.004807  0.461536  1
  Sc  Sc3  1  0.154221  0.504807  0.788464  1
  Sc  Sc4  1  0.845779  0.495193  0.288464  1
  Sc  Sc5  1  0.504807  0.154221  0.211536  1
  Sc  Sc6  1  0.495193  0.845779  0.711536  1
  Sc  Sc7  1  0.654221  0.995193  0.961536  1
  Re  Re8  1  0.673856  0.673856  0.500000  1
  Re  Re9  1  0.173856  0.826144  0.250000  1
  Re  Re10  1  0.326144  0.326144  0.000000  1
  Re  Re11  1  0.005806  0.848921  0.625545  1
  Re  Re12  1  0.994194  0.151079  0.125545  1
  Re  Re13  1  0.848921  0.005806  0.374455  1
  Re  Re14  1  0.348921  0.494194  0.375545  1
  Re  Re15  1  0.651079  0.505806  0.875545  1
  Re  Re16  1  0.494194  0.348921  0.624455  1
  Re  Re17  1  0.505806  0.651079  0.124455  1
  Re  Re18  1  0.151079  0.994194  0.874455  1
  Re  Re19  1  0.826144  0.173856  0.750000  1
  B  B20  1  0.059433  0.708106  0.441737  1
  B  B21  1  0.641743  0.290170  0.439885  1
  B  B22  1  0.358257  0.709830  0.939885  1
  B  B23  1  0.209830  0.141743  0.689885  1
  B  B24  1  0.290170  0.641743  0.560115  1
  B  B25  1  0.709830  0.358257  0.060115  1
  B  B26  1  0.790170  0.858257  0.189885  1
  B  B27  1  0.141743  0.209830  0.310115  1
  B  B28  1  0.940567  0.291894  0.941737  1
  B  B29  1  0.708106  0.059433  0.558263  1
  B  B30  1  0.208106  0.440567  0.191737  1
  B  B31  1  0.791894  0.559433  0.691737  1
  B  B32  1  0.440567  0.208106  0.808263  1
  B  B33  1  0.559433  0.791894  0.308263  1
  B  B34  1  0.291894  0.940567  0.058263  1
  B  B35  1  0.858257  0.790170  0.810115  1
