# generated using pymatgen
data_Pr7SmSe12
_symmetry_space_group_name_H-M   'P 1'
_cell_length_a   4.21565100
_cell_length_b   11.23739606
_cell_length_c   11.59123406
_cell_angle_alpha   90.01214874
_cell_angle_beta   90.00000000
_cell_angle_gamma   90.00000000
_symmetry_Int_Tables_number   1
_chemical_formula_structural   Pr7SmSe12
_chemical_formula_sum   'Pr7 Sm1 Se12'
_cell_volume   549.11082298
_cell_formula_units_Z   1
loop_
 _symmetry_equiv_pos_site_id
 _symmetry_equiv_pos_as_xyz
  1  'x, y, z'
loop_
 _atom_site_type_symbol
 _atom_site_label
 _atom_site_symmetry_multiplicity
 _atom_site_fract_x
 _atom_site_fract_y
 _atom_site_fract_z
 _atom_site_occupancy
  Pr  Pr0  1  0.250000  0.998245  0.694574  1
  Pr  Pr1  1  0.750000  0.002754  0.305605  1
  Pr  Pr2  1  0.750000  0.497031  0.806690  1
  Pr  Pr3  1  0.250000  0.501240  0.193038  1
  Pr  Pr4  1  0.250000  0.313081  0.511353  1
  Pr  Pr5  1  0.750000  0.686763  0.488556  1
  Pr  Pr6  1  0.750000  0.813691  0.988729  1
  Sm  Sm7  1  0.250000  0.186915  0.011003  1
  Se  Se8  1  0.750000  0.058389  0.882035  1
  Se  Se9  1  0.250000  0.946301  0.119180  1
  Se  Se10  1  0.250000  0.555814  0.620774  1
  Se  Se11  1  0.750000  0.443710  0.379341  1
  Se  Se12  1  0.250000  0.874888  0.454917  1
  Se  Se13  1  0.750000  0.125281  0.545098  1
  Se  Se14  1  0.750000  0.370942  0.044298  1
  Se  Se15  1  0.250000  0.624905  0.955091  1
  Se  Se16  1  0.250000  0.300011  0.773590  1
  Se  Se17  1  0.750000  0.699221  0.228192  1
  Se  Se18  1  0.750000  0.801218  0.728602  1
  Se  Se19  1  0.250000  0.199599  0.269333  1
