# generated using pymatgen
data_Tb6Nd2Hf11Si16Pd
_symmetry_space_group_name_H-M   'P 1'
_cell_length_a   7.31750846
_cell_length_b   7.31898341
_cell_length_c   13.32988601
_cell_angle_alpha   89.80271449
_cell_angle_beta   90.19246025
_cell_angle_gamma   89.87758818
_symmetry_Int_Tables_number   1
_chemical_formula_structural   Tb6Nd2Hf11Si16Pd
_chemical_formula_sum   'Tb6 Nd2 Hf11 Si16 Pd1'
_cell_volume   713.89510629
_cell_formula_units_Z   1
loop_
 _symmetry_equiv_pos_site_id
 _symmetry_equiv_pos_as_xyz
  1  'x, y, z'
loop_
 _atom_site_type_symbol
 _atom_site_label
 _atom_site_symmetry_multiplicity
 _atom_site_fract_x
 _atom_site_fract_y
 _atom_site_fract_z
 _atom_site_occupancy
  Tb  Tb0  1  0.155781  0.495208  0.464316  1
  Tb  Tb1  1  0.498622  0.848454  0.032793  1
  Tb  Tb2  1  0.848257  0.498874  0.967140  1
  Tb  Tb3  1  0.495688  0.155641  0.535223  1
  Tb  Tb4  1  0.346172  0.997710  0.789337  1
  Tb  Tb5  1  0.653293  0.005092  0.283556  1
  Nd  Nd6  1  0.996370  0.344497  0.210135  1
  Nd  Nd7  1  0.007136  0.654330  0.716743  1
  Hf  Hf8  1  0.824379  0.825453  0.500049  1
  Hf  Hf9  1  0.322543  0.677950  0.248887  1
  Hf  Hf10  1  0.676785  0.321344  0.751456  1
  Hf  Hf11  1  0.147023  0.996916  0.373380  1
  Hf  Hf12  1  0.854442  0.003074  0.879081  1
  Hf  Hf13  1  0.504072  0.646650  0.626056  1
  Hf  Hf14  1  0.354312  0.492012  0.878486  1
  Hf  Hf15  1  0.491791  0.354791  0.121795  1
  Hf  Hf16  1  0.646671  0.504889  0.373842  1
  Hf  Hf17  1  0.996316  0.146860  0.626415  1
  Hf  Hf18  1  0.003044  0.856003  0.121449  1
  Si  Si19  1  0.362560  0.295481  0.316088  1
  Si  Si20  1  0.636332  0.705244  0.820189  1
  Si  Si21  1  0.208888  0.863886  0.566466  1
  Si  Si22  1  0.133857  0.784114  0.930936  1
  Si  Si23  1  0.777370  0.130790  0.069587  1
  Si  Si24  1  0.861466  0.206264  0.432365  1
  Si  Si25  1  0.298967  0.357381  0.684988  1
  Si  Si26  1  0.701681  0.641382  0.180800  1
  Si  Si27  1  0.293818  0.053415  0.185598  1
  Si  Si28  1  0.704604  0.951371  0.686784  1
  Si  Si29  1  0.450551  0.795641  0.435153  1
  Si  Si30  1  0.211019  0.564492  0.063362  1
  Si  Si31  1  0.560223  0.209250  0.936135  1
  Si  Si32  1  0.793781  0.448209  0.563981  1
  Si  Si33  1  0.056700  0.288187  0.815601  1
  Si  Si34  1  0.948817  0.708414  0.313880  1
  Pd  Pd35  1  0.176668  0.170728  0.997947  1
