# generated using pymatgen
data_Er4B16IrOs2Rh
_symmetry_space_group_name_H-M   'P 1'
_cell_length_a   3.55596200
_cell_length_b   5.94825611
_cell_length_c   11.52776173
_cell_angle_alpha   89.92017429
_cell_angle_beta   90.00000000
_cell_angle_gamma   90.00000000
_symmetry_Int_Tables_number   1
_chemical_formula_structural   Er4B16IrOs2Rh
_chemical_formula_sum   'Er4 B16 Ir1 Os2 Rh1'
_cell_volume   243.83235910
_cell_formula_units_Z   1
loop_
 _symmetry_equiv_pos_site_id
 _symmetry_equiv_pos_as_xyz
  1  'x, y, z'
loop_
 _atom_site_type_symbol
 _atom_site_label
 _atom_site_symmetry_multiplicity
 _atom_site_fract_x
 _atom_site_fract_y
 _atom_site_fract_z
 _atom_site_occupancy
  Er  Er0  1  0.000000  0.629844  0.350877  1
  Er  Er1  1  0.000000  0.370011  0.648569  1
  Er  Er2  1  0.000000  0.130230  0.149810  1
  Er  Er3  1  0.000000  0.869629  0.850560  1
  B  B4  1  0.500000  0.789547  0.188026  1
  B  B5  1  0.500000  0.209729  0.812167  1
  B  B6  1  0.500000  0.290253  0.313205  1
  B  B7  1  0.500000  0.709624  0.686709  1
  B  B8  1  0.500000  0.863486  0.029490  1
  B  B9  1  0.500000  0.135945  0.970659  1
  B  B10  1  0.500000  0.364226  0.469879  1
  B  B11  1  0.500000  0.635754  0.529789  1
  B  B12  1  0.500000  0.887138  0.453145  1
  B  B13  1  0.500000  0.112822  0.546675  1
  B  B14  1  0.500000  0.387137  0.047316  1
  B  B15  1  0.500000  0.612933  0.952080  1
  B  B16  1  0.500000  0.974303  0.307846  1
  B  B17  1  0.500000  0.025463  0.691893  1
  B  B18  1  0.500000  0.477919  0.193683  1
  B  B19  1  0.500000  0.522614  0.806293  1
  Ir  Ir20  1  0.000000  0.357685  0.904289  1
  Os  Os21  1  0.000000  0.142386  0.406840  1
  Os  Os22  1  0.000000  0.857229  0.593951  1
  Rh  Rh23  1  0.000000  0.644094  0.096247  1
