# generated using pymatgen
data_Tb2Ni5As4Rh
_symmetry_space_group_name_H-M   'P 1'
_cell_length_a   3.92989100
_cell_length_b   10.92498947
_cell_length_c   12.90548733
_cell_angle_alpha   89.80701805
_cell_angle_beta   90.00000000
_cell_angle_gamma   90.00000000
_symmetry_Int_Tables_number   1
_chemical_formula_structural   Tb2Ni5As4Rh
_chemical_formula_sum   'Tb6 Ni15 As12 Rh3'
_cell_volume   554.08127962
_cell_formula_units_Z   3
loop_
 _symmetry_equiv_pos_site_id
 _symmetry_equiv_pos_as_xyz
  1  'x, y, z'
loop_
 _atom_site_type_symbol
 _atom_site_label
 _atom_site_symmetry_multiplicity
 _atom_site_fract_x
 _atom_site_fract_y
 _atom_site_fract_z
 _atom_site_occupancy
  Tb  Tb0  1  0.000000  0.499702  0.524301  1
  Tb  Tb1  1  0.500000  0.999845  0.475855  1
  Tb  Tb2  1  0.500000  0.815131  0.208866  1
  Tb  Tb3  1  0.500000  0.183404  0.208815  1
  Tb  Tb4  1  0.000000  0.688083  0.790349  1
  Tb  Tb5  1  0.000000  0.314119  0.791992  1
  Ni  Ni6  1  0.500000  0.500406  0.696815  1
  Ni  Ni7  1  0.000000  0.999901  0.302497  1
  Ni  Ni8  1  0.000000  0.501423  0.978616  1
  Ni  Ni9  1  0.500000  0.000048  0.021320  1
  Ni  Ni10  1  0.500000  0.666870  0.992742  1
  Ni  Ni11  1  0.000000  0.163739  0.007793  1
  Ni  Ni12  1  0.000000  0.832646  0.006952  1
  Ni  Ni13  1  0.500000  0.302490  0.427425  1
  Ni  Ni14  1  0.500000  0.697141  0.427012  1
  Ni  Ni15  1  0.000000  0.197477  0.572189  1
  Ni  Ni16  1  0.000000  0.803110  0.572643  1
  Ni  Ni17  1  0.500000  0.877991  0.707669  1
  Ni  Ni18  1  0.500000  0.120961  0.707089  1
  Ni  Ni19  1  0.000000  0.622070  0.292495  1
  Ni  Ni20  1  0.000000  0.379040  0.293729  1
  As  As21  1  0.500000  0.505314  0.870803  1
  As  As22  1  0.000000  0.998458  0.127081  1
  As  As23  1  0.500000  0.499798  0.351251  1
  As  As24  1  0.000000  0.999883  0.648598  1
  As  As25  1  0.500000  0.313419  0.613744  1
  As  As26  1  0.500000  0.686494  0.612342  1
  As  As27  1  0.000000  0.186039  0.387022  1
  As  As28  1  0.000000  0.813583  0.386923  1
  As  As29  1  0.500000  0.848115  0.892741  1
  As  As30  1  0.500000  0.144428  0.889503  1
  As  As31  1  0.000000  0.652421  0.107989  1
  As  As32  1  0.000000  0.349808  0.111445  1
  Rh  Rh33  1  0.500000  0.507136  0.161581  1
  Rh  Rh34  1  0.000000  0.997232  0.839457  1
  Rh  Rh35  1  0.500000  0.332273  0.992357  1
