# generated using pymatgen
data_Pr6Al24Fe3Pt5
_symmetry_space_group_name_H-M   'P 1'
_cell_length_a   8.93484000
_cell_length_b   8.94814192
_cell_length_c   9.55828052
_cell_angle_alpha   89.99844542
_cell_angle_beta   90.00000000
_cell_angle_gamma   119.95083728
_symmetry_Int_Tables_number   1
_chemical_formula_structural   Pr6Al24Fe3Pt5
_chemical_formula_sum   'Pr6 Al24 Fe3 Pt5'
_cell_volume   662.13261654
_cell_formula_units_Z   1
loop_
 _symmetry_equiv_pos_site_id
 _symmetry_equiv_pos_as_xyz
  1  'x, y, z'
loop_
 _atom_site_type_symbol
 _atom_site_label
 _atom_site_symmetry_multiplicity
 _atom_site_fract_x
 _atom_site_fract_y
 _atom_site_fract_z
 _atom_site_occupancy
  Pr  Pr0  1  0.190163  0.380327  0.252337  1
  Pr  Pr1  1  0.809837  0.619673  0.747663  1
  Pr  Pr2  1  0.619798  0.810799  0.249884  1
  Pr  Pr3  1  0.380202  0.189201  0.750116  1
  Pr  Pr4  1  0.191002  0.810799  0.249884  1
  Pr  Pr5  1  0.808998  0.189201  0.750116  1
  Al  Al6  1  0.333458  0.666918  0.023292  1
  Al  Al7  1  0.666542  0.333082  0.976708  1
  Al  Al8  1  0.660564  0.321127  0.522468  1
  Al  Al9  1  0.339436  0.678873  0.477532  1
  Al  Al10  1  0.158989  0.317976  0.573539  1
  Al  Al11  1  0.841011  0.682024  0.426461  1
  Al  Al12  1  0.678182  0.846364  0.573050  1
  Al  Al13  1  0.841605  0.683211  0.074805  1
  Al  Al14  1  0.321818  0.153636  0.426950  1
  Al  Al15  1  0.158395  0.316789  0.925195  1
  Al  Al16  1  0.168183  0.846364  0.573050  1
  Al  Al17  1  0.317712  0.158900  0.076655  1
  Al  Al18  1  0.831817  0.153636  0.426950  1
  Al  Al19  1  0.682288  0.841100  0.923345  1
  Al  Al20  1  0.841186  0.158900  0.076655  1
  Al  Al21  1  0.158814  0.841100  0.923345  1
  Al  Al22  1  0.562250  0.124499  0.258913  1
  Al  Al23  1  0.437750  0.875501  0.741087  1
  Al  Al24  1  0.870214  0.434586  0.250320  1
  Al  Al25  1  0.129786  0.565414  0.749680  1
  Al  Al26  1  0.564372  0.434586  0.250320  1
  Al  Al27  1  0.435628  0.565414  0.749680  1
  Al  Al28  1  0.000749  0.001499  0.250779  1
  Al  Al29  1  0.999251  0.998501  0.749221  1
  Fe  Fe30  1  0.500000  0.000000  0.500000  1
  Fe  Fe31  1  0.000000  0.000000  0.000000  1
  Fe  Fe32  1  0.000000  0.000000  0.500000  1
  Pt  Pt33  1  0.500000  0.000000  0.000000  1
  Pt  Pt34  1  0.000000  0.500000  0.000000  1
  Pt  Pt35  1  0.500000  0.500000  0.000000  1
  Pt  Pt36  1  0.000000  0.500000  0.500000  1
  Pt  Pt37  1  0.500000  0.500000  0.500000  1
