# generated using pymatgen
data_Al11(ReTc)2
_symmetry_space_group_name_H-M   'P 1'
_cell_length_a   5.18255770
_cell_length_b   5.17979979
_cell_length_c   9.01735966
_cell_angle_alpha   105.06421965
_cell_angle_beta   90.41952747
_cell_angle_gamma   99.61297491
_symmetry_Int_Tables_number   1
_chemical_formula_structural   Al11(ReTc)2
_chemical_formula_sum   'Al11 Re2 Tc2'
_cell_volume   230.13933758
_cell_formula_units_Z   1
loop_
 _symmetry_equiv_pos_site_id
 _symmetry_equiv_pos_as_xyz
  1  'x, y, z'
loop_
 _atom_site_type_symbol
 _atom_site_label
 _atom_site_symmetry_multiplicity
 _atom_site_fract_x
 _atom_site_fract_y
 _atom_site_fract_z
 _atom_site_occupancy
  Al  Al0  1  0.801668  0.262631  0.633373  1
  Al  Al1  1  0.198332  0.737369  0.366627  1
  Al  Al2  1  0.144406  0.462019  0.871037  1
  Al  Al3  1  0.855594  0.537981  0.128963  1
  Al  Al4  1  0.000000  0.000000  0.000000  1
  Al  Al5  1  0.498265  0.095949  0.871724  1
  Al  Al6  1  0.501735  0.904051  0.128276  1
  Al  Al7  1  0.566273  0.322079  0.377041  1
  Al  Al8  1  0.433727  0.677921  0.622959  1
  Al  Al9  1  0.943197  0.806383  0.669211  1
  Al  Al10  1  0.056803  0.193617  0.330789  1
  Re  Re11  1  0.661515  0.610660  0.868308  1
  Re  Re12  1  0.338485  0.389340  0.131692  1
  Tc  Tc13  1  0.280956  0.153588  0.602653  1
  Tc  Tc14  1  0.719044  0.846412  0.397347  1
