# generated using pymatgen
data_TbAl3NiHg
_symmetry_space_group_name_H-M   'P 1'
_cell_length_a   8.14963980
_cell_length_b   8.14963908
_cell_length_c   6.66528900
_cell_angle_alpha   90.00000000
_cell_angle_beta   90.00000000
_cell_angle_gamma   150.96832180
_symmetry_Int_Tables_number   1
_chemical_formula_structural   TbAl3NiHg
_chemical_formula_sum   'Tb2 Al6 Ni2 Hg2'
_cell_volume   214.83246091
_cell_formula_units_Z   2
loop_
 _symmetry_equiv_pos_site_id
 _symmetry_equiv_pos_as_xyz
  1  'x, y, z'
loop_
 _atom_site_type_symbol
 _atom_site_label
 _atom_site_symmetry_multiplicity
 _atom_site_fract_x
 _atom_site_fract_y
 _atom_site_fract_z
 _atom_site_occupancy
  Tb  Tb0  1  0.876243  0.123757  0.250000  1
  Tb  Tb1  1  0.123757  0.876243  0.750000  1
  Al  Al2  1  0.308684  0.691316  0.553129  1
  Al  Al3  1  0.691316  0.308684  0.446871  1
  Al  Al4  1  0.691316  0.308684  0.053129  1
  Al  Al5  1  0.308684  0.691316  0.946871  1
  Al  Al6  1  0.921318  0.078682  0.750000  1
  Al  Al7  1  0.078682  0.921318  0.250000  1
  Ni  Ni8  1  0.225504  0.774496  0.250000  1
  Ni  Ni9  1  0.774496  0.225504  0.750000  1
  Hg  Hg10  1  0.500000  0.500000  0.000000  1
  Hg  Hg11  1  0.500000  0.500000  0.500000  1
