# generated using pymatgen
data_Y3Ho5Re2(TcB12)2
_symmetry_space_group_name_H-M   'P 1'
_cell_length_a   3.67920300
_cell_length_b   9.16033305
_cell_length_c   11.54511604
_cell_angle_alpha   90.04921013
_cell_angle_beta   90.00000000
_cell_angle_gamma   90.00000000
_symmetry_Int_Tables_number   1
_chemical_formula_structural   Y3Ho5Re2(TcB12)2
_chemical_formula_sum   'Y3 Ho5 Re2 Tc2 B24'
_cell_volume   389.10172578
_cell_formula_units_Z   1
loop_
 _symmetry_equiv_pos_site_id
 _symmetry_equiv_pos_as_xyz
  1  'x, y, z'
loop_
 _atom_site_type_symbol
 _atom_site_label
 _atom_site_symmetry_multiplicity
 _atom_site_fract_x
 _atom_site_fract_y
 _atom_site_fract_z
 _atom_site_occupancy
  Y  Y0  1  0.000000  0.323707  0.414091  1
  Y  Y1  1  0.000000  0.676222  0.585953  1
  Y  Y2  1  0.000000  0.823362  0.085974  1
  Ho  Ho3  1  0.000000  0.176483  0.914033  1
  Ho  Ho4  1  0.000000  0.942322  0.369828  1
  Ho  Ho5  1  0.000000  0.057865  0.630169  1
  Ho  Ho6  1  0.000000  0.443669  0.130396  1
  Ho  Ho7  1  0.000000  0.556075  0.869510  1
  Re  Re8  1  0.000000  0.138842  0.179276  1
  Re  Re9  1  0.000000  0.861493  0.820573  1
  Tc  Tc10  1  0.000000  0.638952  0.320441  1
  Tc  Tc11  1  0.000000  0.360892  0.679743  1
  B  B12  1  0.500000  0.553517  0.432685  1
  B  B13  1  0.500000  0.446404  0.567401  1
  B  B14  1  0.500000  0.053647  0.066908  1
  B  B15  1  0.500000  0.946988  0.932823  1
  B  B16  1  0.500000  0.749045  0.418330  1
  B  B17  1  0.500000  0.251002  0.581800  1
  B  B18  1  0.500000  0.249388  0.081193  1
  B  B19  1  0.500000  0.750580  0.918391  1
  B  B20  1  0.500000  0.791951  0.265572  1
  B  B21  1  0.500000  0.207963  0.734748  1
  B  B22  1  0.500000  0.292201  0.234414  1
  B  B23  1  0.500000  0.707776  0.765495  1
  B  B24  1  0.500000  0.630763  0.185744  1
  B  B25  1  0.500000  0.368868  0.814482  1
  B  B26  1  0.500000  0.130489  0.314409  1
  B  B27  1  0.500000  0.869622  0.685576  1
  B  B28  1  0.500000  0.982328  0.211976  1
  B  B29  1  0.500000  0.018189  0.788159  1
  B  B30  1  0.500000  0.482564  0.287976  1
  B  B31  1  0.500000  0.517272  0.712042  1
  B  B32  1  0.500000  0.599784  0.027767  1
  B  B33  1  0.500000  0.399738  0.972088  1
  B  B34  1  0.500000  0.099615  0.472036  1
  B  B35  1  0.500000  0.900421  0.528001  1
