# generated using pymatgen
data_Er3Al12NiOs3
_symmetry_space_group_name_H-M   'P 1'
_cell_length_a   8.80380583
_cell_length_b   8.80380602
_cell_length_c   9.49735993
_cell_angle_alpha   90.52016387
_cell_angle_beta   89.47983436
_cell_angle_gamma   120.20463721
_symmetry_Int_Tables_number   1
_chemical_formula_structural   Er3Al12NiOs3
_chemical_formula_sum   'Er6 Al24 Ni2 Os6'
_cell_volume   636.13808164
_cell_formula_units_Z   2
loop_
 _symmetry_equiv_pos_site_id
 _symmetry_equiv_pos_as_xyz
  1  'x, y, z'
loop_
 _atom_site_type_symbol
 _atom_site_label
 _atom_site_symmetry_multiplicity
 _atom_site_fract_x
 _atom_site_fract_y
 _atom_site_fract_z
 _atom_site_occupancy
  Er  Er0  1  0.198187  0.389073  0.251111  1
  Er  Er1  1  0.801813  0.610927  0.748889  1
  Er  Er2  1  0.610927  0.801813  0.251111  1
  Er  Er3  1  0.389073  0.198187  0.748889  1
  Er  Er4  1  0.193428  0.806572  0.252962  1
  Er  Er5  1  0.806572  0.193428  0.747038  1
  Al  Al6  1  0.331911  0.668089  0.022403  1
  Al  Al7  1  0.668089  0.331911  0.977597  1
  Al  Al8  1  0.666994  0.333006  0.515944  1
  Al  Al9  1  0.333006  0.666994  0.484056  1
  Al  Al10  1  0.161968  0.326662  0.577143  1
  Al  Al11  1  0.838032  0.673338  0.422857  1
  Al  Al12  1  0.673338  0.838032  0.577143  1
  Al  Al13  1  0.836199  0.672162  0.075760  1
  Al  Al14  1  0.326662  0.161968  0.422857  1
  Al  Al15  1  0.163801  0.327838  0.924240  1
  Al  Al16  1  0.163115  0.836885  0.578002  1
  Al  Al17  1  0.327838  0.163801  0.075760  1
  Al  Al18  1  0.836885  0.163115  0.421998  1
  Al  Al19  1  0.672162  0.836199  0.924240  1
  Al  Al20  1  0.837021  0.162979  0.077674  1
  Al  Al21  1  0.162979  0.837021  0.922326  1
  Al  Al22  1  0.560943  0.119564  0.245144  1
  Al  Al23  1  0.439057  0.880436  0.754856  1
  Al  Al24  1  0.880436  0.439057  0.245144  1
  Al  Al25  1  0.119564  0.560943  0.754856  1
  Al  Al26  1  0.562508  0.437492  0.247759  1
  Al  Al27  1  0.437492  0.562508  0.752241  1
  Al  Al28  1  0.000687  0.999313  0.250235  1
  Al  Al29  1  0.999313  0.000687  0.749765  1
  Ni  Ni30  1  0.500000  0.000000  0.000000  1
  Ni  Ni31  1  0.000000  0.500000  0.000000  1
  Os  Os32  1  0.500000  0.000000  0.500000  1
  Os  Os33  1  0.500000  0.500000  0.000000  1
  Os  Os34  1  0.000000  0.500000  0.500000  1
  Os  Os35  1  0.500000  0.500000  0.500000  1
  Os  Os36  1  0.000000  0.000000  0.000000  1
  Os  Os37  1  0.000000  0.000000  0.500000  1
