# generated using pymatgen
data_Ta2BeNb4B3Ru10
_symmetry_space_group_name_H-M   'P 1'
_cell_length_a   9.47069004
_cell_length_b   9.47057787
_cell_length_c   3.05231200
_cell_angle_alpha   90.00000000
_cell_angle_beta   90.00000000
_cell_angle_gamma   90.17104231
_symmetry_Int_Tables_number   1
_chemical_formula_structural   Ta2BeNb4B3Ru10
_chemical_formula_sum   'Ta2 Be1 Nb4 B3 Ru10'
_cell_volume   273.76951806
_cell_formula_units_Z   1
loop_
 _symmetry_equiv_pos_site_id
 _symmetry_equiv_pos_as_xyz
  1  'x, y, z'
loop_
 _atom_site_type_symbol
 _atom_site_label
 _atom_site_symmetry_multiplicity
 _atom_site_fract_x
 _atom_site_fract_y
 _atom_site_fract_z
 _atom_site_occupancy
  Ta  Ta0  1  0.500519  0.501236  0.000000  1
  Ta  Ta1  1  0.998761  0.999482  0.000000  1
  Be  Be2  1  0.621107  0.878892  0.000000  1
  Nb  Nb3  1  0.823707  0.676294  0.000000  1
  Nb  Nb4  1  0.176079  0.323919  0.000000  1
  Nb  Nb5  1  0.325065  0.824362  0.000000  1
  Nb  Nb6  1  0.675638  0.174935  0.000000  1
  B  B7  1  0.379690  0.120310  0.000000  1
  B  B8  1  0.121450  0.621459  0.000000  1
  B  B9  1  0.878542  0.378549  0.000000  1
  Ru  Ru10  1  0.569406  0.712555  0.500000  1
  Ru  Ru11  1  0.427386  0.282792  0.500000  1
  Ru  Ru12  1  0.072727  0.781342  0.500000  1
  Ru  Ru13  1  0.929464  0.219132  0.500000  1
  Ru  Ru14  1  0.280867  0.570532  0.500000  1
  Ru  Ru15  1  0.718656  0.427275  0.500000  1
  Ru  Ru16  1  0.217212  0.072616  0.500000  1
  Ru  Ru17  1  0.787445  0.930594  0.500000  1
  Ru  Ru18  1  0.496671  0.003333  0.500000  1
  Ru  Ru19  1  0.999610  0.500391  0.500000  1
