# generated using pymatgen
data_Pr7ZnPt2
_symmetry_space_group_name_H-M   'P 1'
_cell_length_a   3.90852800
_cell_length_b   12.39257800
_cell_length_c   12.39257800
_cell_angle_alpha   90.00000000
_cell_angle_beta   90.00000000
_cell_angle_gamma   90.00000000
_symmetry_Int_Tables_number   1
_chemical_formula_structural   Pr7ZnPt2
_chemical_formula_sum   'Pr14 Zn2 Pt4'
_cell_volume   600.25605503
_cell_formula_units_Z   2
loop_
 _symmetry_equiv_pos_site_id
 _symmetry_equiv_pos_as_xyz
  1  'x, y, z'
loop_
 _atom_site_type_symbol
 _atom_site_label
 _atom_site_symmetry_multiplicity
 _atom_site_fract_x
 _atom_site_fract_y
 _atom_site_fract_z
 _atom_site_occupancy
  Pr  Pr0  1  0.500000  0.000000  0.500000  1
  Pr  Pr1  1  0.500000  0.500000  0.000000  1
  Pr  Pr2  1  0.000000  0.318084  0.818084  1
  Pr  Pr3  1  0.000000  0.681916  0.181916  1
  Pr  Pr4  1  0.000000  0.181916  0.318084  1
  Pr  Pr5  1  0.000000  0.818084  0.681916  1
  Pr  Pr6  1  0.500000  0.556627  0.700242  1
  Pr  Pr7  1  0.500000  0.443373  0.299758  1
  Pr  Pr8  1  0.500000  0.943373  0.200242  1
  Pr  Pr9  1  0.500000  0.056627  0.799758  1
  Pr  Pr10  1  0.500000  0.700242  0.443373  1
  Pr  Pr11  1  0.500000  0.299758  0.556627  1
  Pr  Pr12  1  0.500000  0.200242  0.056627  1
  Pr  Pr13  1  0.500000  0.799758  0.943373  1
  Zn  Zn14  1  0.000000  0.500000  0.500000  1
  Zn  Zn15  1  0.000000  0.000000  0.000000  1
  Pt  Pt16  1  0.000000  0.133687  0.633687  1
  Pt  Pt17  1  0.000000  0.866313  0.366313  1
  Pt  Pt18  1  0.000000  0.366313  0.133687  1
  Pt  Pt19  1  0.000000  0.633687  0.866313  1
