# generated using pymatgen
data_Ti6SnHgBi3
_symmetry_space_group_name_H-M   'P 1'
_cell_length_a   9.42327500
_cell_length_b   9.42327565
_cell_length_c   5.80592300
_cell_angle_alpha   90.00000000
_cell_angle_beta   90.00000000
_cell_angle_gamma   120.00000122
_symmetry_Int_Tables_number   1
_chemical_formula_structural   Ti6SnHgBi3
_chemical_formula_sum   'Ti12 Sn2 Hg2 Bi6'
_cell_volume   446.48375172
_cell_formula_units_Z   2
loop_
 _symmetry_equiv_pos_site_id
 _symmetry_equiv_pos_as_xyz
  1  'x, y, z'
loop_
 _atom_site_type_symbol
 _atom_site_label
 _atom_site_symmetry_multiplicity
 _atom_site_fract_x
 _atom_site_fract_y
 _atom_site_fract_z
 _atom_site_occupancy
  Ti  Ti0  1  0.842979  0.685958  0.750000  1
  Ti  Ti1  1  0.157021  0.842979  0.250000  1
  Ti  Ti2  1  0.685958  0.842979  0.250000  1
  Ti  Ti3  1  0.314042  0.157021  0.750000  1
  Ti  Ti4  1  0.842979  0.157021  0.750000  1
  Ti  Ti5  1  0.157021  0.314042  0.250000  1
  Ti  Ti6  1  0.500000  0.000000  0.500000  1
  Ti  Ti7  1  0.500000  0.500000  0.000000  1
  Ti  Ti8  1  0.000000  0.500000  0.000000  1
  Ti  Ti9  1  0.000000  0.500000  0.500000  1
  Ti  Ti10  1  0.500000  0.000000  0.000000  1
  Ti  Ti11  1  0.500000  0.500000  0.500000  1
  Sn  Sn12  1  0.666667  0.333333  0.750000  1
  Sn  Sn13  1  0.333333  0.666667  0.250000  1
  Hg  Hg14  1  0.000000  0.000000  0.500000  1
  Hg  Hg15  1  0.000000  0.000000  0.000000  1
  Bi  Bi16  1  0.198912  0.397826  0.750000  1
  Bi  Bi17  1  0.801088  0.198912  0.250000  1
  Bi  Bi18  1  0.397826  0.198912  0.250000  1
  Bi  Bi19  1  0.602174  0.801088  0.750000  1
  Bi  Bi20  1  0.198912  0.801088  0.750000  1
  Bi  Bi21  1  0.801088  0.602174  0.250000  1
