# generated using pymatgen
data_Cd6RhIO12
_symmetry_space_group_name_H-M   'P 1'
_cell_length_a   5.73868832
_cell_length_b   5.60162847
_cell_length_c   9.86004727
_cell_angle_alpha   55.84216107
_cell_angle_beta   90.50553812
_cell_angle_gamma   90.57790901
_symmetry_Int_Tables_number   1
_chemical_formula_structural   Cd6RhIO12
_chemical_formula_sum   'Cd6 Rh1 I1 O12'
_cell_volume   262.26812301
_cell_formula_units_Z   1
loop_
 _symmetry_equiv_pos_site_id
 _symmetry_equiv_pos_as_xyz
  1  'x, y, z'
loop_
 _atom_site_type_symbol
 _atom_site_label
 _atom_site_symmetry_multiplicity
 _atom_site_fract_x
 _atom_site_fract_y
 _atom_site_fract_z
 _atom_site_occupancy
  Cd  Cd0  1  0.958098  0.270746  0.226532  1
  Cd  Cd1  1  0.448751  0.772677  0.241672  1
  Cd  Cd2  1  0.041902  0.729254  0.773468  1
  Cd  Cd3  1  0.551249  0.227323  0.758328  1
  Cd  Cd4  1  0.000000  0.500000  0.500000  1
  Cd  Cd5  1  0.500000  0.500000  0.000000  1
  Rh  Rh6  1  0.000000  0.000000  0.000000  1
  I  I7  1  0.500000  0.000000  0.500000  1
  O  O8  1  0.277380  0.907112  0.919588  1
  O  O9  1  0.775910  0.072857  0.584207  1
  O  O10  1  0.722620  0.092888  0.080412  1
  O  O11  1  0.224090  0.927143  0.415793  1
  O  O12  1  0.179911  0.249278  0.046020  1
  O  O13  1  0.669781  0.773775  0.444533  1
  O  O14  1  0.820089  0.750722  0.953980  1
  O  O15  1  0.330219  0.226225  0.555467  1
  O  O16  1  0.425036  0.661164  0.713960  1
  O  O17  1  0.924463  0.344244  0.769209  1
  O  O18  1  0.574964  0.338836  0.286040  1
  O  O19  1  0.075537  0.655756  0.230791  1
