# generated using pymatgen
data_YHo5Er2(B6Ru)4
_symmetry_space_group_name_H-M   'P 1'
_cell_length_a   3.64487800
_cell_length_b   9.11387836
_cell_length_c   11.48673101
_cell_angle_alpha   90.01793357
_cell_angle_beta   90.00000000
_cell_angle_gamma   90.00000000
_symmetry_Int_Tables_number   1
_chemical_formula_structural   YHo5Er2(B6Ru)4
_chemical_formula_sum   'Y1 Ho5 Er2 B24 Ru4'
_cell_volume   381.57740813
_cell_formula_units_Z   1
loop_
 _symmetry_equiv_pos_site_id
 _symmetry_equiv_pos_as_xyz
  1  'x, y, z'
loop_
 _atom_site_type_symbol
 _atom_site_label
 _atom_site_symmetry_multiplicity
 _atom_site_fract_x
 _atom_site_fract_y
 _atom_site_fract_z
 _atom_site_occupancy
  Y  Y0  1  0.000000  0.322461  0.414097  1
  Ho  Ho1  1  0.000000  0.677501  0.585904  1
  Ho  Ho2  1  0.000000  0.822157  0.085761  1
  Ho  Ho3  1  0.000000  0.177859  0.914237  1
  Ho  Ho4  1  0.000000  0.943661  0.372127  1
  Ho  Ho5  1  0.000000  0.056125  0.627946  1
  Er  Er6  1  0.000000  0.443755  0.127602  1
  Er  Er7  1  0.000000  0.556275  0.872328  1
  B  B8  1  0.500000  0.554317  0.433048  1
  B  B9  1  0.500000  0.446151  0.567197  1
  B  B10  1  0.500000  0.054301  0.066704  1
  B  B11  1  0.500000  0.945684  0.933265  1
  B  B12  1  0.500000  0.748053  0.419730  1
  B  B13  1  0.500000  0.251903  0.580611  1
  B  B14  1  0.500000  0.248676  0.080037  1
  B  B15  1  0.500000  0.751342  0.919912  1
  B  B16  1  0.500000  0.791001  0.265760  1
  B  B17  1  0.500000  0.209001  0.734271  1
  B  B18  1  0.500000  0.291459  0.233540  1
  B  B19  1  0.500000  0.708462  0.766197  1
  B  B20  1  0.500000  0.631450  0.184691  1
  B  B21  1  0.500000  0.368603  0.815286  1
  B  B22  1  0.500000  0.131754  0.314698  1
  B  B23  1  0.500000  0.867953  0.685129  1
  B  B24  1  0.500000  0.983495  0.212556  1
  B  B25  1  0.500000  0.016439  0.787432  1
  B  B26  1  0.500000  0.483469  0.286787  1
  B  B27  1  0.500000  0.516878  0.713072  1
  B  B28  1  0.500000  0.606807  0.029468  1
  B  B29  1  0.500000  0.393212  0.970515  1
  B  B30  1  0.500000  0.107864  0.470287  1
  B  B31  1  0.500000  0.891773  0.529814  1
  Ru  Ru32  1  0.000000  0.637858  0.320739  1
  Ru  Ru33  1  0.000000  0.362449  0.679397  1
  Ru  Ru34  1  0.000000  0.138133  0.178522  1
  Ru  Ru35  1  0.000000  0.861722  0.821334  1
