# generated using pymatgen
data_Nd4Al18Pd5W
_symmetry_space_group_name_H-M   'P 1'
_cell_length_a   7.69695707
_cell_length_b   7.69695659
_cell_length_c   9.67598780
_cell_angle_alpha   89.72144462
_cell_angle_beta   89.72144327
_cell_angle_gamma   118.93060018
_symmetry_Int_Tables_number   1
_chemical_formula_structural   Nd4Al18Pd5W
_chemical_formula_sum   'Nd4 Al18 Pd5 W1'
_cell_volume   501.67673458
_cell_formula_units_Z   1
loop_
 _symmetry_equiv_pos_site_id
 _symmetry_equiv_pos_as_xyz
  1  'x, y, z'
loop_
 _atom_site_type_symbol
 _atom_site_label
 _atom_site_symmetry_multiplicity
 _atom_site_fract_x
 _atom_site_fract_y
 _atom_site_fract_z
 _atom_site_occupancy
  Nd  Nd0  1  0.995440  0.678011  0.248126  1
  Nd  Nd1  1  0.004560  0.321989  0.751874  1
  Nd  Nd2  1  0.678011  0.995440  0.248126  1
  Nd  Nd3  1  0.321989  0.004560  0.751874  1
  Al  Al4  1  0.138753  0.138753  0.248585  1
  Al  Al5  1  0.861247  0.861247  0.751415  1
  Al  Al6  1  0.005423  0.335613  0.074828  1
  Al  Al7  1  0.994577  0.664387  0.925172  1
  Al  Al8  1  0.996335  0.660794  0.576988  1
  Al  Al9  1  0.339206  0.003665  0.423012  1
  Al  Al10  1  0.003665  0.339206  0.423012  1
  Al  Al11  1  0.660794  0.996335  0.576988  1
  Al  Al12  1  0.664387  0.994577  0.925172  1
  Al  Al13  1  0.335613  0.005423  0.074828  1
  Al  Al14  1  0.334948  0.334948  0.550289  1
  Al  Al15  1  0.665052  0.665052  0.449711  1
  Al  Al16  1  0.666170  0.666170  0.047385  1
  Al  Al17  1  0.333830  0.333830  0.952615  1
  Al  Al18  1  0.343781  0.549806  0.250450  1
  Al  Al19  1  0.656219  0.450194  0.749550  1
  Al  Al20  1  0.549806  0.343781  0.250450  1
  Al  Al21  1  0.450194  0.656219  0.749550  1
  Pd  Pd22  1  0.671492  0.328508  0.000000  1
  Pd  Pd23  1  0.328508  0.671492  0.000000  1
  Pd  Pd24  1  0.328621  0.671379  0.500000  1
  Pd  Pd25  1  0.671379  0.328621  0.500000  1
  Pd  Pd26  1  0.000000  0.000000  0.500000  1
  W  W27  1  0.000000  0.000000  0.000000  1
