# generated using pymatgen
data_Pr8Er12Zn3Sn13
_symmetry_space_group_name_H-M   'P 1'
_cell_length_a   7.88181556
_cell_length_b   8.38155726
_cell_length_c   15.47826900
_cell_angle_alpha   90.00000000
_cell_angle_beta   90.00000000
_cell_angle_gamma   89.41902642
_symmetry_Int_Tables_number   1
_chemical_formula_structural   Pr8Er12Zn3Sn13
_chemical_formula_sum   'Pr8 Er12 Zn3 Sn13'
_cell_volume   1022.47111378
_cell_formula_units_Z   1
loop_
 _symmetry_equiv_pos_site_id
 _symmetry_equiv_pos_as_xyz
  1  'x, y, z'
loop_
 _atom_site_type_symbol
 _atom_site_label
 _atom_site_symmetry_multiplicity
 _atom_site_fract_x
 _atom_site_fract_y
 _atom_site_fract_z
 _atom_site_occupancy
  Pr  Pr0  1  0.502399  0.318410  0.906295  1
  Pr  Pr1  1  0.002114  0.183446  0.593709  1
  Pr  Pr2  1  0.497839  0.679290  0.408944  1
  Pr  Pr3  1  0.995760  0.818114  0.095562  1
  Pr  Pr4  1  0.497839  0.679290  0.091056  1
  Pr  Pr5  1  0.995760  0.818114  0.404438  1
  Pr  Pr6  1  0.502399  0.318410  0.593705  1
  Pr  Pr7  1  0.002114  0.183446  0.906291  1
  Er  Er8  1  0.342618  0.827323  0.869474  1
  Er  Er9  1  0.838750  0.671203  0.629894  1
  Er  Er10  1  0.647442  0.172613  0.371574  1
  Er  Er11  1  0.171364  0.334270  0.125953  1
  Er  Er12  1  0.647442  0.172613  0.128426  1
  Er  Er13  1  0.171364  0.334270  0.374047  1
  Er  Er14  1  0.342618  0.827323  0.630526  1
  Er  Er15  1  0.838750  0.671203  0.870106  1
  Er  Er16  1  0.190314  0.499514  0.750000  1
  Er  Er17  1  0.690634  0.003457  0.750000  1
  Er  Er18  1  0.812923  0.498464  0.250000  1
  Er  Er19  1  0.317217  0.994147  0.250000  1
  Zn  Zn20  1  0.545929  0.619608  0.750000  1
  Zn  Zn21  1  0.044702  0.880007  0.750000  1
  Zn  Zn22  1  0.456498  0.382249  0.250000  1
  Sn  Sn23  1  0.318093  0.036352  0.038048  1
  Sn  Sn24  1  0.822750  0.459312  0.459937  1
  Sn  Sn25  1  0.682189  0.963016  0.540375  1
  Sn  Sn26  1  0.178067  0.540755  0.958173  1
  Sn  Sn27  1  0.682189  0.963016  0.959625  1
  Sn  Sn28  1  0.178067  0.540755  0.541827  1
  Sn  Sn29  1  0.318093  0.036352  0.461952  1
  Sn  Sn30  1  0.822750  0.459312  0.040063  1
  Sn  Sn31  1  0.956946  0.126944  0.250000  1
  Sn  Sn32  1  0.298817  0.130539  0.750000  1
  Sn  Sn33  1  0.798912  0.369891  0.750000  1
  Sn  Sn34  1  0.686176  0.856706  0.250000  1
  Sn  Sn35  1  0.202164  0.630266  0.250000  1
