# generated using pymatgen
data_TbCe(CdRh)2
_symmetry_space_group_name_H-M   'P 1'
_cell_length_a   3.86350400
_cell_length_b   7.30533397
_cell_length_c   9.27254400
_cell_angle_alpha   92.93320855
_cell_angle_beta   90.00000000
_cell_angle_gamma   90.00000000
_symmetry_Int_Tables_number   1
_chemical_formula_structural   TbCe(CdRh)2
_chemical_formula_sum   'Tb2 Ce2 Cd4 Rh4'
_cell_volume   261.36714064
_cell_formula_units_Z   2
loop_
 _symmetry_equiv_pos_site_id
 _symmetry_equiv_pos_as_xyz
  1  'x, y, z'
loop_
 _atom_site_type_symbol
 _atom_site_label
 _atom_site_symmetry_multiplicity
 _atom_site_fract_x
 _atom_site_fract_y
 _atom_site_fract_z
 _atom_site_occupancy
  Tb  Tb0  1  0.750000  0.960146  0.683726  1
  Tb  Tb1  1  0.250000  0.039854  0.316274  1
  Ce  Ce2  1  0.250000  0.534189  0.192142  1
  Ce  Ce3  1  0.750000  0.465811  0.807858  1
  Cd  Cd4  1  0.250000  0.646348  0.548502  1
  Cd  Cd5  1  0.750000  0.353652  0.451498  1
  Cd  Cd6  1  0.750000  0.864163  0.054875  1
  Cd  Cd7  1  0.250000  0.135837  0.945125  1
  Rh  Rh8  1  0.250000  0.724782  0.847959  1
  Rh  Rh9  1  0.750000  0.275218  0.152041  1
  Rh  Rh10  1  0.750000  0.749534  0.338895  1
  Rh  Rh11  1  0.250000  0.250466  0.661105  1
