# generated using pymatgen
data_Tb5Pr8Ho4Sc3Si15Ge
_symmetry_space_group_name_H-M   'P 1'
_cell_length_a   7.44640128
_cell_length_b   7.80234062
_cell_length_c   14.78209080
_cell_angle_alpha   90.03284331
_cell_angle_beta   89.82118270
_cell_angle_gamma   89.94605998
_symmetry_Int_Tables_number   1
_chemical_formula_structural   Tb5Pr8Ho4Sc3Si15Ge
_chemical_formula_sum   'Tb5 Pr8 Ho4 Sc3 Si15 Ge1'
_cell_volume   858.82529676
_cell_formula_units_Z   1
loop_
 _symmetry_equiv_pos_site_id
 _symmetry_equiv_pos_as_xyz
  1  'x, y, z'
loop_
 _atom_site_type_symbol
 _atom_site_label
 _atom_site_symmetry_multiplicity
 _atom_site_fract_x
 _atom_site_fract_y
 _atom_site_fract_z
 _atom_site_occupancy
  Tb  Tb0  1  0.821677  0.322547  0.876420  1
  Tb  Tb1  1  0.821216  0.322481  0.623272  1
  Tb  Tb2  1  0.318735  0.179396  0.876731  1
  Tb  Tb3  1  0.179915  0.678228  0.125633  1
  Tb  Tb4  1  0.680252  0.821906  0.125784  1
  Pr  Pr5  1  0.020593  0.179653  0.400603  1
  Pr  Pr6  1  0.521696  0.319302  0.400386  1
  Pr  Pr7  1  0.476730  0.679827  0.901910  1
  Pr  Pr8  1  0.478757  0.680735  0.598264  1
  Pr  Pr9  1  0.978269  0.819017  0.597573  1
  Pr  Pr10  1  0.978798  0.818046  0.902454  1
  Pr  Pr11  1  0.521616  0.319889  0.099352  1
  Pr  Pr12  1  0.021552  0.180369  0.099052  1
  Ho  Ho13  1  0.320361  0.177375  0.623906  1
  Ho  Ho14  1  0.679738  0.822480  0.373996  1
  Ho  Ho15  1  0.650979  0.988324  0.750247  1
  Ho  Ho16  1  0.178675  0.678893  0.374071  1
  Sc  Sc17  1  0.847079  0.486342  0.250130  1
  Sc  Sc18  1  0.347023  0.013486  0.249964  1
  Sc  Sc19  1  0.153122  0.513591  0.751060  1
  Si  Si20  1  0.268960  0.873388  0.749817  1
  Si  Si21  1  0.480021  0.603942  0.250622  1
  Si  Si22  1  0.025764  0.107691  0.749517  1
  Si  Si23  1  0.520607  0.393736  0.749711  1
  Si  Si24  1  0.980935  0.897629  0.250417  1
  Si  Si25  1  0.724540  0.126557  0.250082  1
  Si  Si26  1  0.854852  0.530598  0.041366  1
  Si  Si27  1  0.355227  0.969385  0.041477  1
  Si  Si28  1  0.145152  0.469270  0.961118  1
  Si  Si29  1  0.645098  0.031462  0.537679  1
  Si  Si30  1  0.354361  0.968677  0.458679  1
  Si  Si31  1  0.850104  0.532301  0.457274  1
  Si  Si32  1  0.776244  0.620743  0.749899  1
  Si  Si33  1  0.224102  0.373667  0.250332  1
  Si  Si34  1  0.645186  0.031398  0.961911  1
  Ge  Ge35  1  0.152063  0.467670  0.539294  1
