# generated using pymatgen
data_TbPr3(TcB4)4
_symmetry_space_group_name_H-M   'P 1'
_cell_length_a   3.67308300
_cell_length_b   6.06330414
_cell_length_c   11.74029664
_cell_angle_alpha   90.12558812
_cell_angle_beta   90.00000178
_cell_angle_gamma   89.99998505
_symmetry_Int_Tables_number   1
_chemical_formula_structural   TbPr3(TcB4)4
_chemical_formula_sum   'Tb1 Pr3 Tc4 B16'
_cell_volume   261.46774587
_cell_formula_units_Z   1
loop_
 _symmetry_equiv_pos_site_id
 _symmetry_equiv_pos_as_xyz
  1  'x, y, z'
loop_
 _atom_site_type_symbol
 _atom_site_label
 _atom_site_symmetry_multiplicity
 _atom_site_fract_x
 _atom_site_fract_y
 _atom_site_fract_z
 _atom_site_occupancy
  Tb  Tb0  1  0.000001  0.625852  0.350146  1
  Pr  Pr1  1  0.000000  0.374277  0.649806  1
  Pr  Pr2  1  0.000000  0.125649  0.151569  1
  Pr  Pr3  1  0.999999  0.874293  0.849127  1
  Tc  Tc4  1  0.000000  0.629516  0.088204  1
  Tc  Tc5  1  0.999999  0.370947  0.914913  1
  Tc  Tc6  1  0.000000  0.130867  0.412595  1
  Tc  Tc7  1  0.000000  0.868370  0.584239  1
  B  B8  1  0.500000  0.781687  0.185520  1
  B  B9  1  0.500000  0.218415  0.817215  1
  B  B10  1  0.500000  0.285883  0.317062  1
  B  B11  1  0.500000  0.718561  0.681698  1
  B  B12  1  0.500000  0.859321  0.033443  1
  B  B13  1  0.500000  0.140664  0.968501  1
  B  B14  1  0.500000  0.361483  0.466488  1
  B  B15  1  0.500000  0.638737  0.529503  1
  B  B16  1  0.500000  0.885471  0.452166  1
  B  B17  1  0.500000  0.110486  0.543915  1
  B  B18  1  0.500000  0.389436  0.047008  1
  B  B19  1  0.500000  0.611794  0.955290  1
  B  B20  1  0.500000  0.973432  0.310180  1
  B  B21  1  0.500000  0.023329  0.688060  1
  B  B22  1  0.500000  0.478035  0.192323  1
  B  B23  1  0.500000  0.523497  0.811029  1
