# generated using pymatgen
data_La12Al3Ga5Ir8
_symmetry_space_group_name_H-M   'P 1'
_cell_length_a   5.86570800
_cell_length_b   8.25160850
_cell_length_c   13.79692507
_cell_angle_alpha   90.02560115
_cell_angle_beta   90.00000000
_cell_angle_gamma   90.00000000
_symmetry_Int_Tables_number   1
_chemical_formula_structural   La12Al3Ga5Ir8
_chemical_formula_sum   'La12 Al3 Ga5 Ir8'
_cell_volume   667.79216083
_cell_formula_units_Z   1
loop_
 _symmetry_equiv_pos_site_id
 _symmetry_equiv_pos_as_xyz
  1  'x, y, z'
loop_
 _atom_site_type_symbol
 _atom_site_label
 _atom_site_symmetry_multiplicity
 _atom_site_fract_x
 _atom_site_fract_y
 _atom_site_fract_z
 _atom_site_occupancy
  La  La0  1  0.632918  0.256112  0.250888  1
  La  La1  1  0.368381  0.745360  0.748923  1
  La  La2  1  0.368381  0.754640  0.251077  1
  La  La3  1  0.632918  0.243888  0.749112  1
  La  La4  1  0.147756  0.398606  0.097398  1
  La  La5  1  0.852374  0.601079  0.902995  1
  La  La6  1  0.849720  0.599880  0.596759  1
  La  La7  1  0.849720  0.900120  0.403241  1
  La  La8  1  0.149468  0.396401  0.403708  1
  La  La9  1  0.149468  0.103599  0.596292  1
  La  La10  1  0.147756  0.101394  0.902602  1
  La  La11  1  0.852374  0.898921  0.097005  1
  Al  Al12  1  0.613478  0.250000  0.000000  1
  Al  Al13  1  0.386218  0.750000  0.000000  1
  Al  Al14  1  0.382979  0.750000  0.500000  1
  Ga  Ga15  1  0.140639  0.105563  0.249948  1
  Ga  Ga16  1  0.861039  0.893222  0.749686  1
  Ga  Ga17  1  0.861039  0.606778  0.250314  1
  Ga  Ga18  1  0.140639  0.394437  0.750052  1
  Ga  Ga19  1  0.625801  0.250000  0.500000  1
  Ir  Ir20  1  0.359605  0.030027  0.090393  1
  Ir  Ir21  1  0.640345  0.970152  0.909211  1
  Ir  Ir22  1  0.636542  0.965793  0.591892  1
  Ir  Ir23  1  0.636542  0.534207  0.408108  1
  Ir  Ir24  1  0.356974  0.027665  0.409590  1
  Ir  Ir25  1  0.356974  0.472335  0.590410  1
  Ir  Ir26  1  0.359605  0.469973  0.909607  1
  Ir  Ir27  1  0.640345  0.529848  0.090789  1
