# generated using pymatgen
data_YTh3InGaNi4
_symmetry_space_group_name_H-M   'P 1'
_cell_length_a   7.48271358
_cell_length_b   7.50125507
_cell_length_c   3.68068100
_cell_angle_alpha   90.00000000
_cell_angle_beta   90.00000000
_cell_angle_gamma   91.25372354
_symmetry_Int_Tables_number   1
_chemical_formula_structural   YTh3InGaNi4
_chemical_formula_sum   'Y1 Th3 In1 Ga1 Ni4'
_cell_volume   206.54622188
_cell_formula_units_Z   1
loop_
 _symmetry_equiv_pos_site_id
 _symmetry_equiv_pos_as_xyz
  1  'x, y, z'
loop_
 _atom_site_type_symbol
 _atom_site_label
 _atom_site_symmetry_multiplicity
 _atom_site_fract_x
 _atom_site_fract_y
 _atom_site_fract_z
 _atom_site_occupancy
  Y  Y0  1  0.814858  0.668027  0.500000  1
  Th  Th1  1  0.669400  0.183553  0.500000  1
  Th  Th2  1  0.335772  0.812982  0.500000  1
  Th  Th3  1  0.181330  0.334350  0.500000  1
  In  In4  1  0.996941  0.991882  0.000000  1
  Ga  Ga5  1  0.507470  0.503274  0.000000  1
  Ni  Ni6  1  0.131131  0.620083  0.000000  1
  Ni  Ni7  1  0.877003  0.371820  0.000000  1
  Ni  Ni8  1  0.614321  0.882130  0.000000  1
  Ni  Ni9  1  0.371776  0.131897  0.000000  1
