# generated using pymatgen
data_Nb5V7Fe4(Si2C)4
_symmetry_space_group_name_H-M   'P 1'
_cell_length_a   7.80616508
_cell_length_b   7.85644822
_cell_length_c   7.85644738
_cell_angle_alpha   59.95248870
_cell_angle_beta   60.21148771
_cell_angle_gamma   60.21149308
_symmetry_Int_Tables_number   1
_chemical_formula_structural   Nb5V7Fe4(Si2C)4
_chemical_formula_sum   'Nb5 V7 Fe4 Si8 C4'
_cell_volume   341.66378573
_cell_formula_units_Z   1
loop_
 _symmetry_equiv_pos_site_id
 _symmetry_equiv_pos_as_xyz
  1  'x, y, z'
loop_
 _atom_site_type_symbol
 _atom_site_label
 _atom_site_symmetry_multiplicity
 _atom_site_fract_x
 _atom_site_fract_y
 _atom_site_fract_z
 _atom_site_occupancy
  Nb  Nb0  1  0.804119  0.804399  0.196158  1
  Nb  Nb1  1  0.195325  0.196158  0.804399  1
  Nb  Nb2  1  0.804119  0.196158  0.804399  1
  Nb  Nb3  1  0.195325  0.804399  0.196158  1
  Nb  Nb4  1  0.197541  0.802459  0.802459  1
  V  V5  1  0.809034  0.190966  0.190966  1
  V  V6  1  0.437676  0.433531  0.066559  1
  V  V7  1  0.062234  0.066559  0.433531  1
  V  V8  1  0.437676  0.066559  0.433531  1
  V  V9  1  0.062234  0.433531  0.066559  1
  V  V10  1  0.066670  0.433330  0.433330  1
  V  V11  1  0.429536  0.070464  0.070464  1
  Fe  Fe12  1  0.122905  0.625048  0.625048  1
  Fe  Fe13  1  0.625151  0.126098  0.623601  1
  Fe  Fe14  1  0.625151  0.623601  0.126098  1
  Fe  Fe15  1  0.626998  0.625048  0.625048  1
  Si  Si16  1  0.759090  0.411094  0.411094  1
  Si  Si17  1  0.412754  0.761333  0.413162  1
  Si  Si18  1  0.412754  0.413162  0.761333  1
  Si  Si19  1  0.418724  0.411094  0.411094  1
  Si  Si20  1  0.503394  0.832555  0.832555  1
  Si  Si21  1  0.830502  0.498504  0.840490  1
  Si  Si22  1  0.830502  0.840490  0.498504  1
  Si  Si23  1  0.831494  0.832555  0.832555  1
  C  C24  1  0.617797  0.131443  0.131443  1
  C  C25  1  0.130992  0.608915  0.129101  1
  C  C26  1  0.130992  0.129101  0.608915  1
  C  C27  1  0.119317  0.131443  0.131443  1
