# generated using pymatgen
data_Er5In2SnCl
_symmetry_space_group_name_H-M   'P 1'
_cell_length_a   9.01579700
_cell_length_b   9.00401857
_cell_length_c   6.62958100
_cell_angle_alpha   90.00000000
_cell_angle_beta   90.00000000
_cell_angle_gamma   120.04327837
_symmetry_Int_Tables_number   1
_chemical_formula_structural   Er5In2SnCl
_chemical_formula_sum   'Er10 In4 Sn2 Cl2'
_cell_volume   465.87312480
_cell_formula_units_Z   2
loop_
 _symmetry_equiv_pos_site_id
 _symmetry_equiv_pos_as_xyz
  1  'x, y, z'
loop_
 _atom_site_type_symbol
 _atom_site_label
 _atom_site_symmetry_multiplicity
 _atom_site_fract_x
 _atom_site_fract_y
 _atom_site_fract_z
 _atom_site_occupancy
  Er  Er0  1  0.667282  0.334563  0.000000  1
  Er  Er1  1  0.333364  0.666729  0.500000  1
  Er  Er2  1  0.667282  0.334563  0.500000  1
  Er  Er3  1  0.333364  0.666729  0.000000  1
  Er  Er4  1  0.739359  0.998958  0.750000  1
  Er  Er5  1  0.740946  0.739978  0.250000  1
  Er  Er6  1  0.999609  0.259178  0.250000  1
  Er  Er7  1  0.999032  0.739978  0.750000  1
  Er  Er8  1  0.259569  0.259178  0.750000  1
  Er  Er9  1  0.259599  0.998958  0.250000  1
  In  In10  1  0.608594  0.608284  0.750000  1
  In  In11  1  0.999690  0.608284  0.250000  1
  In  In12  1  0.607194  0.999976  0.250000  1
  In  In13  1  0.392782  0.999976  0.750000  1
  Sn  Sn14  1  0.000541  0.391347  0.750000  1
  Sn  Sn15  1  0.390806  0.391347  0.250000  1
  Cl  Cl16  1  0.000493  0.000986  0.500000  1
  Cl  Cl17  1  0.000493  0.000986  0.000000  1
