# generated using pymatgen
data_LuTh3AlGa17Ir6
_symmetry_space_group_name_H-M   'P 1'
_cell_length_a   7.68198546
_cell_length_b   7.69672554
_cell_length_c   9.46636467
_cell_angle_alpha   89.98757690
_cell_angle_beta   89.97051435
_cell_angle_gamma   119.78537602
_symmetry_Int_Tables_number   1
_chemical_formula_structural   LuTh3AlGa17Ir6
_chemical_formula_sum   'Lu1 Th3 Al1 Ga17 Ir6'
_cell_volume   485.76745054
_cell_formula_units_Z   1
loop_
 _symmetry_equiv_pos_site_id
 _symmetry_equiv_pos_as_xyz
  1  'x, y, z'
loop_
 _atom_site_type_symbol
 _atom_site_label
 _atom_site_symmetry_multiplicity
 _atom_site_fract_x
 _atom_site_fract_y
 _atom_site_fract_z
 _atom_site_occupancy
  Lu  Lu0  1  0.327661  0.003945  0.749386  1
  Th  Th1  1  0.996816  0.670534  0.249853  1
  Th  Th2  1  0.001258  0.329278  0.748930  1
  Th  Th3  1  0.669837  0.995800  0.249859  1
  Al  Al4  1  0.337293  0.333076  0.945072  1
  Ga  Ga5  1  0.136547  0.132862  0.249687  1
  Ga  Ga6  1  0.870552  0.868661  0.749681  1
  Ga  Ga7  1  0.004432  0.335161  0.078486  1
  Ga  Ga8  1  0.003428  0.671331  0.916191  1
  Ga  Ga9  1  0.003119  0.671636  0.583811  1
  Ga  Ga10  1  0.335167  0.003499  0.427202  1
  Ga  Ga11  1  0.005113  0.335336  0.419710  1
  Ga  Ga12  1  0.657231  0.996400  0.583772  1
  Ga  Ga13  1  0.657444  0.996854  0.916288  1
  Ga  Ga14  1  0.335122  0.002692  0.071137  1
  Ga  Ga15  1  0.335043  0.329770  0.565684  1
  Ga  Ga16  1  0.663451  0.663219  0.443589  1
  Ga  Ga17  1  0.665661  0.665371  0.056508  1
  Ga  Ga18  1  0.343364  0.543718  0.250083  1
  Ga  Ga19  1  0.651656  0.448161  0.750046  1
  Ga  Ga20  1  0.543504  0.339155  0.250041  1
  Ga  Ga21  1  0.453243  0.659228  0.749995  1
  Ir  Ir22  1  0.672910  0.329614  0.999084  1
  Ir  Ir23  1  0.327153  0.668489  0.999364  1
  Ir  Ir24  1  0.327129  0.671525  0.499606  1
  Ir  Ir25  1  0.676297  0.329987  0.499689  1
  Ir  Ir26  1  0.002232  0.004481  0.997970  1
  Ir  Ir27  1  0.997337  0.000222  0.499274  1
