# generated using pymatgen
data_AcNdZn5Sn
_symmetry_space_group_name_H-M   'P 1'
_cell_length_a   8.68700166
_cell_length_b   8.68700153
_cell_length_c   9.21562500
_cell_angle_alpha   90.00000000
_cell_angle_beta   90.00000000
_cell_angle_gamma   149.30594719
_symmetry_Int_Tables_number   1
_chemical_formula_structural   AcNdZn5Sn
_chemical_formula_sum   'Ac2 Nd2 Zn10 Sn2'
_cell_volume   354.99392613
_cell_formula_units_Z   2
loop_
 _symmetry_equiv_pos_site_id
 _symmetry_equiv_pos_as_xyz
  1  'x, y, z'
loop_
 _atom_site_type_symbol
 _atom_site_label
 _atom_site_symmetry_multiplicity
 _atom_site_fract_x
 _atom_site_fract_y
 _atom_site_fract_z
 _atom_site_occupancy
  Ac  Ac0  1  0.000000  0.000000  0.500000  1
  Ac  Ac1  1  0.000000  0.000000  0.000000  1
  Nd  Nd2  1  0.207544  0.792456  0.250000  1
  Nd  Nd3  1  0.792456  0.207544  0.750000  1
  Zn  Zn4  1  0.811633  0.188367  0.389287  1
  Zn  Zn5  1  0.188367  0.811633  0.610713  1
  Zn  Zn6  1  0.811633  0.188367  0.110713  1
  Zn  Zn7  1  0.188367  0.811633  0.889287  1
  Zn  Zn8  1  0.660277  0.339723  0.486198  1
  Zn  Zn9  1  0.339723  0.660277  0.513802  1
  Zn  Zn10  1  0.660277  0.339723  0.013802  1
  Zn  Zn11  1  0.339723  0.660277  0.986198  1
  Zn  Zn12  1  0.396549  0.603451  0.250000  1
  Zn  Zn13  1  0.603451  0.396549  0.750000  1
  Sn  Sn14  1  0.562548  0.437452  0.250000  1
  Sn  Sn15  1  0.437452  0.562548  0.750000  1
