# generated using pymatgen
data_Ga12ReTcIr2
_symmetry_space_group_name_H-M   'P 1'
_cell_length_a   6.59761322
_cell_length_b   6.59761295
_cell_length_c   6.83476300
_cell_angle_alpha   90.00000000
_cell_angle_beta   90.00000000
_cell_angle_gamma   89.76329134
_symmetry_Int_Tables_number   1
_chemical_formula_structural   Ga12ReTcIr2
_chemical_formula_sum   'Ga12 Re1 Tc1 Ir2'
_cell_volume   297.50443191
_cell_formula_units_Z   1
loop_
 _symmetry_equiv_pos_site_id
 _symmetry_equiv_pos_as_xyz
  1  'x, y, z'
loop_
 _atom_site_type_symbol
 _atom_site_label
 _atom_site_symmetry_multiplicity
 _atom_site_fract_x
 _atom_site_fract_y
 _atom_site_fract_z
 _atom_site_occupancy
  Ga  Ga0  1  0.999502  0.498791  0.500000  1
  Ga  Ga1  1  0.500159  0.000106  0.000000  1
  Ga  Ga2  1  0.501209  0.000498  0.500000  1
  Ga  Ga3  1  0.999894  0.499841  0.000000  1
  Ga  Ga4  1  0.347447  0.652553  0.239394  1
  Ga  Ga5  1  0.653135  0.346865  0.240046  1
  Ga  Ga6  1  0.155805  0.156232  0.730873  1
  Ga  Ga7  1  0.843768  0.844195  0.730873  1
  Ga  Ga8  1  0.653135  0.346865  0.759954  1
  Ga  Ga9  1  0.347447  0.652553  0.760606  1
  Ga  Ga10  1  0.843768  0.844195  0.269127  1
  Ga  Ga11  1  0.155805  0.156232  0.269127  1
  Re  Re12  1  0.160998  0.839002  0.500000  1
  Tc  Tc13  1  0.838262  0.161738  0.500000  1
  Ir  Ir14  1  0.340672  0.341006  0.000000  1
  Ir  Ir15  1  0.658994  0.659328  0.000000  1
