# generated using pymatgen
data_Dy11HoCo6Sn
_symmetry_space_group_name_H-M   'P 1'
_cell_length_a   8.34847758
_cell_length_b   8.34847775
_cell_length_c   8.34867201
_cell_angle_alpha   109.47060697
_cell_angle_beta   109.47561576
_cell_angle_gamma   109.46649896
_symmetry_Int_Tables_number   1
_chemical_formula_structural   Dy11HoCo6Sn
_chemical_formula_sum   'Dy11 Ho1 Co6 Sn1'
_cell_volume   447.93513079
_cell_formula_units_Z   1
loop_
 _symmetry_equiv_pos_site_id
 _symmetry_equiv_pos_as_xyz
  1  'x, y, z'
loop_
 _atom_site_type_symbol
 _atom_site_label
 _atom_site_symmetry_multiplicity
 _atom_site_fract_x
 _atom_site_fract_y
 _atom_site_fract_z
 _atom_site_occupancy
  Dy  Dy0  1  0.193754  0.303330  0.497083  1
  Dy  Dy1  1  0.193734  0.696670  0.890404  1
  Dy  Dy2  1  0.806233  0.303358  0.109591  1
  Dy  Dy3  1  0.696680  0.502929  0.806238  1
  Dy  Dy4  1  0.303359  0.497085  0.193772  1
  Dy  Dy5  1  0.696687  0.890413  0.193772  1
  Dy  Dy6  1  0.303311  0.109559  0.806238  1
  Dy  Dy7  1  0.502920  0.806229  0.696670  1
  Dy  Dy8  1  0.497112  0.193800  0.303338  1
  Dy  Dy9  1  0.109539  0.806225  0.303338  1
  Dy  Dy10  1  0.890440  0.193751  0.696670  1
  Ho  Ho11  1  0.806247  0.696623  0.502872  1
  Co  Co12  1  0.886388  0.386427  0.499993  1
  Co  Co13  1  0.113566  0.613606  0.499993  1
  Co  Co14  1  0.386407  0.500000  0.886407  1
  Co  Co15  1  0.613619  0.500012  0.113632  1
  Co  Co16  1  0.500011  0.886396  0.386407  1
  Co  Co17  1  0.500000  0.113599  0.613598  1
  Sn  Sn18  1  0.999993  0.999988  0.999981  1
