# generated using pymatgen
data_Nd8Mg5CdAg20
_symmetry_space_group_name_H-M   'P 1'
_cell_length_a   8.73247492
_cell_length_b   8.73247491
_cell_length_c   10.45725166
_cell_angle_alpha   90.03316139
_cell_angle_beta   89.96683686
_cell_angle_gamma   107.82960549
_symmetry_Int_Tables_number   1
_chemical_formula_structural   Nd8Mg5CdAg20
_chemical_formula_sum   'Nd8 Mg5 Cd1 Ag20'
_cell_volume   759.12973305
_cell_formula_units_Z   1
loop_
 _symmetry_equiv_pos_site_id
 _symmetry_equiv_pos_as_xyz
  1  'x, y, z'
loop_
 _atom_site_type_symbol
 _atom_site_label
 _atom_site_symmetry_multiplicity
 _atom_site_fract_x
 _atom_site_fract_y
 _atom_site_fract_z
 _atom_site_occupancy
  Nd  Nd0  1  0.701585  0.299420  0.000528  1
  Nd  Nd1  1  0.296434  0.700383  0.001536  1
  Nd  Nd2  1  0.799420  0.201585  0.499472  1
  Nd  Nd3  1  0.200383  0.796434  0.498464  1
  Nd  Nd4  1  0.302044  0.305287  0.203332  1
  Nd  Nd5  1  0.695996  0.695912  0.796478  1
  Nd  Nd6  1  0.195912  0.195996  0.703522  1
  Nd  Nd7  1  0.805287  0.802044  0.296668  1
  Mg  Mg8  1  0.980280  0.480280  0.750000  1
  Mg  Mg9  1  0.479915  0.979915  0.750000  1
  Mg  Mg10  1  0.520177  0.020177  0.250000  1
  Mg  Mg11  1  0.999713  0.999672  0.999498  1
  Mg  Mg12  1  0.499672  0.499713  0.500502  1
  Cd  Cd13  1  0.024550  0.524550  0.250000  1
  Ag  Ag14  1  0.098235  0.096921  0.405019  1
  Ag  Ag15  1  0.902041  0.902111  0.595368  1
  Ag  Ag16  1  0.402111  0.402041  0.904632  1
  Ag  Ag17  1  0.596921  0.598235  0.094981  1
  Ag  Ag18  1  0.892829  0.170926  0.205982  1
  Ag  Ag19  1  0.106725  0.826631  0.793209  1
  Ag  Ag20  1  0.606536  0.326210  0.706352  1
  Ag  Ag21  1  0.670926  0.392829  0.294018  1
  Ag  Ag22  1  0.398146  0.674940  0.294184  1
  Ag  Ag23  1  0.326631  0.606725  0.706791  1
  Ag  Ag24  1  0.826210  0.106536  0.793648  1
  Ag  Ag25  1  0.174940  0.898146  0.205816  1
  Ag  Ag26  1  0.929963  0.659964  0.022034  1
  Ag  Ag27  1  0.067911  0.338921  0.972865  1
  Ag  Ag28  1  0.567728  0.841135  0.525323  1
  Ag  Ag29  1  0.159964  0.429963  0.477966  1
  Ag  Ag30  1  0.432105  0.158656  0.474687  1
  Ag  Ag31  1  0.838921  0.567911  0.527135  1
  Ag  Ag32  1  0.341135  0.067728  0.974677  1
  Ag  Ag33  1  0.658656  0.932105  0.025313  1
