# generated using pymatgen
data_Rb4TbUTe6
_symmetry_space_group_name_H-M   'P 1'
_cell_length_a   8.20196982
_cell_length_b   8.20196964
_cell_length_c   8.98245689
_cell_angle_alpha   81.11225516
_cell_angle_beta   81.11225629
_cell_angle_gamma   120.02559023
_symmetry_Int_Tables_number   1
_chemical_formula_structural   Rb4TbUTe6
_chemical_formula_sum   'Rb4 Tb1 U1 Te6'
_cell_volume   497.55538858
_cell_formula_units_Z   1
loop_
 _symmetry_equiv_pos_site_id
 _symmetry_equiv_pos_as_xyz
  1  'x, y, z'
loop_
 _atom_site_type_symbol
 _atom_site_label
 _atom_site_symmetry_multiplicity
 _atom_site_fract_x
 _atom_site_fract_y
 _atom_site_fract_z
 _atom_site_occupancy
  Rb  Rb0  1  0.500022  0.499978  0.000000  1
  Rb  Rb1  1  0.655391  0.344609  0.500000  1
  Rb  Rb2  1  0.344538  0.655462  0.500000  1
  Rb  Rb3  1  0.000051  0.999949  0.500000  1
  Tb  Tb4  1  0.832350  0.167650  0.000000  1
  U  U5  1  0.167707  0.832293  0.000000  1
  Te  Te6  1  0.814741  0.805475  0.200031  1
  Te  Te7  1  0.194525  0.185259  0.799969  1
  Te  Te8  1  0.421815  0.047816  0.202858  1
  Te  Te9  1  0.559119  0.942444  0.796937  1
  Te  Te10  1  0.952184  0.578185  0.797142  1
  Te  Te11  1  0.057556  0.440881  0.203063  1
