# generated using pymatgen
data_CeY9(Al2Ru3)2
_symmetry_space_group_name_H-M   'P 1'
_cell_length_a   8.43699976
_cell_length_b   8.43700010
_cell_length_c   8.31877603
_cell_angle_alpha   110.21283865
_cell_angle_beta   109.23369789
_cell_angle_gamma   109.54378794
_symmetry_Int_Tables_number   1
_chemical_formula_structural   CeY9(Al2Ru3)2
_chemical_formula_sum   'Ce1 Y9 Al4 Ru6'
_cell_volume   452.54220340
_cell_formula_units_Z   1
loop_
 _symmetry_equiv_pos_site_id
 _symmetry_equiv_pos_as_xyz
  1  'x, y, z'
loop_
 _atom_site_type_symbol
 _atom_site_label
 _atom_site_symmetry_multiplicity
 _atom_site_fract_x
 _atom_site_fract_y
 _atom_site_fract_z
 _atom_site_occupancy
  Ce  Ce0  1  0.194208  0.944208  0.250000  1
  Y  Y1  1  0.780278  0.786408  0.784180  1
  Y  Y2  1  0.316907  0.566907  0.750000  1
  Y  Y3  1  0.753514  0.319550  0.568608  1
  Y  Y4  1  0.569024  0.748266  0.316833  1
  Y  Y5  1  0.716908  0.499929  0.997725  1
  Y  Y6  1  0.002205  0.719182  0.502275  1
  Y  Y7  1  0.502228  0.996098  0.715820  1
  Y  Y8  1  0.250942  0.184906  0.931392  1
  Y  Y9  1  0.931432  0.252190  0.183167  1
  Al  Al10  1  0.412986  0.414185  0.408174  1
  Al  Al11  1  0.091809  0.497524  0.004426  1
  Al  Al12  1  0.993097  0.087383  0.495574  1
  Al  Al13  1  0.506010  0.004812  0.091826  1
  Ru  Ru14  1  0.877177  0.127177  0.750000  1
  Ru  Ru15  1  0.740639  0.872278  0.120203  1
  Ru  Ru16  1  0.131806  0.763880  0.911076  1
  Ru  Ru17  1  0.252075  0.620437  0.379797  1
  Ru  Ru18  1  0.352803  0.220730  0.588924  1
  Ru  Ru19  1  0.623951  0.373951  0.250000  1
