# generated using pymatgen
data_Y4Lu4Re(B8Ir)3
_symmetry_space_group_name_H-M   'P 1'
_cell_length_a   3.63131100
_cell_length_b   9.11343821
_cell_length_c   11.47291812
_cell_angle_alpha   90.12647097
_cell_angle_beta   90.00000000
_cell_angle_gamma   90.00000000
_symmetry_Int_Tables_number   1
_chemical_formula_structural   Y4Lu4Re(B8Ir)3
_chemical_formula_sum   'Y4 Lu4 Re1 B24 Ir3'
_cell_volume   379.68071139
_cell_formula_units_Z   1
loop_
 _symmetry_equiv_pos_site_id
 _symmetry_equiv_pos_as_xyz
  1  'x, y, z'
loop_
 _atom_site_type_symbol
 _atom_site_label
 _atom_site_symmetry_multiplicity
 _atom_site_fract_x
 _atom_site_fract_y
 _atom_site_fract_z
 _atom_site_occupancy
  Y  Y0  1  0.000000  0.319829  0.414090  1
  Y  Y1  1  0.000000  0.683459  0.589755  1
  Y  Y2  1  0.000000  0.819633  0.082771  1
  Y  Y3  1  0.000000  0.176932  0.912358  1
  Lu  Lu4  1  0.000000  0.943964  0.373243  1
  Lu  Lu5  1  0.000000  0.053061  0.626583  1
  Lu  Lu6  1  0.000000  0.443753  0.126160  1
  Lu  Lu7  1  0.000000  0.557358  0.874563  1
  Re  Re8  1  0.000000  0.861906  0.820817  1
  B  B9  1  0.500000  0.554368  0.433911  1
  B  B10  1  0.500000  0.446839  0.566908  1
  B  B11  1  0.500000  0.054284  0.066743  1
  B  B12  1  0.500000  0.946285  0.933098  1
  B  B13  1  0.500000  0.752064  0.419795  1
  B  B14  1  0.500000  0.248561  0.579859  1
  B  B15  1  0.500000  0.250954  0.079715  1
  B  B16  1  0.500000  0.749996  0.919171  1
  B  B17  1  0.500000  0.792781  0.264751  1
  B  B18  1  0.500000  0.207170  0.733630  1
  B  B19  1  0.500000  0.293559  0.235014  1
  B  B20  1  0.500000  0.707437  0.765899  1
  B  B21  1  0.500000  0.630134  0.183647  1
  B  B22  1  0.500000  0.369320  0.816405  1
  B  B23  1  0.500000  0.130933  0.316324  1
  B  B24  1  0.500000  0.869742  0.684718  1
  B  B25  1  0.500000  0.981780  0.213828  1
  B  B26  1  0.500000  0.017523  0.785829  1
  B  B27  1  0.500000  0.481402  0.286568  1
  B  B28  1  0.500000  0.517999  0.714824  1
  B  B29  1  0.500000  0.603806  0.029597  1
  B  B30  1  0.500000  0.393721  0.971589  1
  B  B31  1  0.500000  0.105379  0.470679  1
  B  B32  1  0.500000  0.895497  0.527393  1
  Ir  Ir33  1  0.000000  0.638333  0.321349  1
  Ir  Ir34  1  0.000000  0.361545  0.678972  1
  Ir  Ir35  1  0.000000  0.138693  0.179443  1
