# generated using pymatgen
data_Lu11ThCo4
_symmetry_space_group_name_H-M   'P 1'
_cell_length_a   6.12471738
_cell_length_b   6.83532940
_cell_length_c   9.26783000
_cell_angle_alpha   90.00000000
_cell_angle_beta   90.00000000
_cell_angle_gamma   90.87969655
_symmetry_Int_Tables_number   1
_chemical_formula_structural   Lu11ThCo4
_chemical_formula_sum   'Lu11 Th1 Co4'
_cell_volume   387.94697529
_cell_formula_units_Z   1
loop_
 _symmetry_equiv_pos_site_id
 _symmetry_equiv_pos_as_xyz
  1  'x, y, z'
loop_
 _atom_site_type_symbol
 _atom_site_label
 _atom_site_symmetry_multiplicity
 _atom_site_fract_x
 _atom_site_fract_y
 _atom_site_fract_z
 _atom_site_occupancy
  Lu  Lu0  1  0.328555  0.676867  0.064765  1
  Lu  Lu1  1  0.175182  0.174872  0.433740  1
  Lu  Lu2  1  0.675964  0.321762  0.569428  1
  Lu  Lu3  1  0.822504  0.828060  0.929929  1
  Lu  Lu4  1  0.675964  0.321762  0.930572  1
  Lu  Lu5  1  0.822504  0.828060  0.570071  1
  Lu  Lu6  1  0.328555  0.676867  0.435235  1
  Lu  Lu7  1  0.175182  0.174872  0.066260  1
  Lu  Lu8  1  0.637049  0.040515  0.250000  1
  Lu  Lu9  1  0.139597  0.457220  0.750000  1
  Lu  Lu10  1  0.359814  0.957420  0.750000  1
  Th  Th11  1  0.851219  0.551846  0.250000  1
  Co  Co12  1  0.043069  0.875079  0.250000  1
  Co  Co13  1  0.463209  0.388024  0.250000  1
  Co  Co14  1  0.957182  0.114345  0.750000  1
  Co  Co15  1  0.544453  0.612427  0.750000  1
