# generated using pymatgen
data_NaHo(PtRh)2
_symmetry_space_group_name_H-M   'P 1'
_cell_length_a   5.33912472
_cell_length_b   5.33912296
_cell_length_c   5.33912403
_cell_angle_alpha   119.60047285
_cell_angle_beta   120.51953150
_cell_angle_gamma   89.89794603
_symmetry_Int_Tables_number   1
_chemical_formula_structural   NaHo(PtRh)2
_chemical_formula_sum   'Na1 Ho1 Pt2 Rh2'
_cell_volume   107.51404932
_cell_formula_units_Z   1
loop_
 _symmetry_equiv_pos_site_id
 _symmetry_equiv_pos_as_xyz
  1  'x, y, z'
loop_
 _atom_site_type_symbol
 _atom_site_label
 _atom_site_symmetry_multiplicity
 _atom_site_fract_x
 _atom_site_fract_y
 _atom_site_fract_z
 _atom_site_occupancy
  Na  Na0  1  0.875856  0.125856  0.750000  1
  Ho  Ho1  1  0.123924  0.873924  0.250000  1
  Pt  Pt2  1  0.500156  0.499609  0.499453  1
  Pt  Pt3  1  0.500156  0.000704  0.000547  1
  Rh  Rh4  1  0.499516  0.499953  0.999563  1
  Rh  Rh5  1  0.000389  0.499953  0.500437  1
