# generated using pymatgen
data_TbLu3S4
_symmetry_space_group_name_H-M   'P 1'
_cell_length_a   12.57169414
_cell_length_b   12.57169353
_cell_length_c   12.57169553
_cell_angle_alpha   17.64788553
_cell_angle_beta   17.64789331
_cell_angle_gamma   17.64788473
_symmetry_Int_Tables_number   1
_chemical_formula_structural   TbLu3S4
_chemical_formula_sum   'Tb1 Lu3 S4'
_cell_volume   159.40203821
_cell_formula_units_Z   1
loop_
 _symmetry_equiv_pos_site_id
 _symmetry_equiv_pos_as_xyz
  1  'x, y, z'
loop_
 _atom_site_type_symbol
 _atom_site_label
 _atom_site_symmetry_multiplicity
 _atom_site_fract_x
 _atom_site_fract_y
 _atom_site_fract_z
 _atom_site_occupancy
  Tb  Tb0  1  0.000000  0.000000  0.000000  1
  Lu  Lu1  1  0.249096  0.249096  0.249096  1
  Lu  Lu2  1  0.500000  0.500000  0.500000  1
  Lu  Lu3  1  0.750904  0.750904  0.750904  1
  S  S4  1  0.377696  0.377696  0.377696  1
  S  S5  1  0.125856  0.125856  0.125856  1
  S  S6  1  0.622304  0.622304  0.622304  1
  S  S7  1  0.874144  0.874144  0.874144  1
