# generated using pymatgen
data_Li4La2HoSn4
_symmetry_space_group_name_H-M   'P 1'
_cell_length_a   8.86260136
_cell_length_b   8.86140592
_cell_length_c   8.86140586
_cell_angle_alpha   148.65609284
_cell_angle_beta   133.12424975
_cell_angle_gamma   57.47532896
_symmetry_Int_Tables_number   1
_chemical_formula_structural   Li4La2HoSn4
_chemical_formula_sum   'Li4 La2 Ho1 Sn4'
_cell_volume   262.25790075
_cell_formula_units_Z   1
loop_
 _symmetry_equiv_pos_site_id
 _symmetry_equiv_pos_as_xyz
  1  'x, y, z'
loop_
 _atom_site_type_symbol
 _atom_site_label
 _atom_site_symmetry_multiplicity
 _atom_site_fract_x
 _atom_site_fract_y
 _atom_site_fract_z
 _atom_site_occupancy
  Li  Li0  1  0.982349  0.672616  0.309732  1
  Li  Li1  1  0.017651  0.327384  0.690268  1
  Li  Li2  1  0.362870  0.672608  0.690263  1
  Li  Li3  1  0.637130  0.327392  0.309737  1
  La  La4  1  0.369399  0.869382  0.500016  1
  La  La5  1  0.630601  0.130618  0.499984  1
  Ho  Ho6  1  0.000000  0.000000  0.000000  1
  Sn  Sn7  1  0.707172  0.500043  0.207129  1
  Sn  Sn8  1  0.292828  0.499957  0.792871  1
  Sn  Sn9  1  0.209289  0.209276  0.000013  1
  Sn  Sn10  1  0.790711  0.790724  0.999987  1
