# generated using pymatgen
data_Tm3Hf3Sn6(IrRh2)2
_symmetry_space_group_name_H-M   'P 1'
_cell_length_a   7.45978100
_cell_length_b   7.45978051
_cell_length_c   7.45862700
_cell_angle_alpha   90.00000000
_cell_angle_beta   90.00000000
_cell_angle_gamma   120.00000660
_symmetry_Int_Tables_number   1
_chemical_formula_structural   Tm3Hf3Sn6(IrRh2)2
_chemical_formula_sum   'Tm3 Hf3 Sn6 Ir2 Rh4'
_cell_volume   359.45259158
_cell_formula_units_Z   1
loop_
 _symmetry_equiv_pos_site_id
 _symmetry_equiv_pos_as_xyz
  1  'x, y, z'
loop_
 _atom_site_type_symbol
 _atom_site_label
 _atom_site_symmetry_multiplicity
 _atom_site_fract_x
 _atom_site_fract_y
 _atom_site_fract_z
 _atom_site_occupancy
  Tm  Tm0  1  0.999981  0.406796  0.748230  1
  Tm  Tm1  1  0.593204  0.593186  0.748230  1
  Tm  Tm2  1  0.406814  0.000019  0.748230  1
  Hf  Hf3  1  0.999746  0.394033  0.251011  1
  Hf  Hf4  1  0.605967  0.605714  0.251011  1
  Hf  Hf5  1  0.394286  0.000254  0.251011  1
  Sn  Sn6  1  0.265162  0.265304  0.494972  1
  Sn  Sn7  1  0.000142  0.734838  0.494972  1
  Sn  Sn8  1  0.000160  0.732817  0.004528  1
  Sn  Sn9  1  0.734696  0.999858  0.494972  1
  Sn  Sn10  1  0.732657  0.999840  0.004528  1
  Sn  Sn11  1  0.267183  0.267343  0.004528  1
  Ir  Ir12  1  0.333333  0.666667  0.465512  1
  Ir  Ir13  1  0.666667  0.333333  0.465966  1
  Rh  Rh14  1  0.333333  0.666667  0.036621  1
  Rh  Rh15  1  0.000000  0.000000  0.749960  1
  Rh  Rh16  1  0.000000  0.000000  0.249757  1
  Rh  Rh17  1  0.666667  0.333333  0.035965  1
