# generated using pymatgen
data_Nd3Dy7(In2Pd)4
_symmetry_space_group_name_H-M   'P 1'
_cell_length_a   3.68272300
_cell_length_b   8.21632163
_cell_length_c   18.42463500
_cell_angle_alpha   89.79886552
_cell_angle_beta   90.00000000
_cell_angle_gamma   90.00000000
_symmetry_Int_Tables_number   1
_chemical_formula_structural   Nd3Dy7(In2Pd)4
_chemical_formula_sum   'Nd3 Dy7 In8 Pd4'
_cell_volume   557.49721541
_cell_formula_units_Z   1
loop_
 _symmetry_equiv_pos_site_id
 _symmetry_equiv_pos_as_xyz
  1  'x, y, z'
loop_
 _atom_site_type_symbol
 _atom_site_label
 _atom_site_symmetry_multiplicity
 _atom_site_fract_x
 _atom_site_fract_y
 _atom_site_fract_z
 _atom_site_occupancy
  Nd  Nd0  1  0.000000  0.741217  0.281928  1
  Nd  Nd1  1  0.000000  0.999576  0.998971  1
  Nd  Nd2  1  0.000000  0.500350  0.500298  1
  Dy  Dy3  1  0.000000  0.121331  0.416432  1
  Dy  Dy4  1  0.000000  0.880574  0.585977  1
  Dy  Dy5  1  0.000000  0.380201  0.914458  1
  Dy  Dy6  1  0.000000  0.619257  0.083847  1
  Dy  Dy7  1  0.000000  0.241306  0.218458  1
  Dy  Dy8  1  0.000000  0.757814  0.781044  1
  Dy  Dy9  1  0.000000  0.257604  0.719101  1
  In  In10  1  0.500000  0.416393  0.348029  1
  In  In11  1  0.500000  0.578374  0.652289  1
  In  In12  1  0.500000  0.078370  0.847765  1
  In  In13  1  0.500000  0.924245  0.150627  1
  In  In14  1  0.500000  0.297971  0.066862  1
  In  In15  1  0.500000  0.700469  0.931826  1
  In  In16  1  0.500000  0.200875  0.568352  1
  In  In17  1  0.500000  0.802412  0.435182  1
  Pd  Pd18  1  0.500000  0.033338  0.304239  1
  Pd  Pd19  1  0.500000  0.975567  0.696835  1
  Pd  Pd20  1  0.500000  0.475173  0.803459  1
  Pd  Pd21  1  0.500000  0.517582  0.194019  1
