# generated using pymatgen
data_CaPrNd2(SiPd2)4
_symmetry_space_group_name_H-M   'P 1'
_cell_length_a   5.67300657
_cell_length_b   6.99655100
_cell_length_c   7.53213817
_cell_angle_alpha   90.00000000
_cell_angle_beta   89.81428316
_cell_angle_gamma   90.00000000
_symmetry_Int_Tables_number   1
_chemical_formula_structural   CaPrNd2(SiPd2)4
_chemical_formula_sum   'Ca1 Pr1 Nd2 Si4 Pd8'
_cell_volume   298.96013902
_cell_formula_units_Z   1
loop_
 _symmetry_equiv_pos_site_id
 _symmetry_equiv_pos_as_xyz
  1  'x, y, z'
loop_
 _atom_site_type_symbol
 _atom_site_label
 _atom_site_symmetry_multiplicity
 _atom_site_fract_x
 _atom_site_fract_y
 _atom_site_fract_z
 _atom_site_occupancy
  Ca  Ca0  1  0.862271  0.250000  0.473402  1
  Pr  Pr1  1  0.136642  0.750000  0.527639  1
  Nd  Nd2  1  0.642383  0.250000  0.969857  1
  Nd  Nd3  1  0.356975  0.750000  0.027782  1
  Si  Si4  1  0.855495  0.750000  0.875898  1
  Si  Si5  1  0.143308  0.250000  0.128294  1
  Si  Si6  1  0.360106  0.250000  0.622734  1
  Si  Si7  1  0.639324  0.750000  0.374777  1
  Pd  Pd8  1  0.593766  0.552351  0.673744  1
  Pd  Pd9  1  0.407100  0.446783  0.327703  1
  Pd  Pd10  1  0.098737  0.446753  0.825808  1
  Pd  Pd11  1  0.407100  0.053217  0.327703  1
  Pd  Pd12  1  0.902146  0.552716  0.172554  1
  Pd  Pd13  1  0.593766  0.947649  0.673744  1
  Pd  Pd14  1  0.902146  0.947284  0.172554  1
  Pd  Pd15  1  0.098737  0.053247  0.825808  1
