# generated using pymatgen
data_Tm4ScSiNiBi
_symmetry_space_group_name_H-M   'P 1'
_cell_length_a   8.32748364
_cell_length_b   8.32748376
_cell_length_c   8.60871800
_cell_angle_alpha   125.69168555
_cell_angle_beta   125.69168223
_cell_angle_gamma   78.09712614
_symmetry_Int_Tables_number   1
_chemical_formula_structural   Tm4ScSiNiBi
_chemical_formula_sum   'Tm8 Sc2 Si2 Ni2 Bi2'
_cell_volume   385.55675097
_cell_formula_units_Z   2
loop_
 _symmetry_equiv_pos_site_id
 _symmetry_equiv_pos_as_xyz
  1  'x, y, z'
loop_
 _atom_site_type_symbol
 _atom_site_label
 _atom_site_symmetry_multiplicity
 _atom_site_fract_x
 _atom_site_fract_y
 _atom_site_fract_z
 _atom_site_occupancy
  Tm  Tm0  1  0.778331  0.278331  0.791450  1
  Tm  Tm1  1  0.221669  0.721669  0.208550  1
  Tm  Tm2  1  0.486881  0.986881  0.208550  1
  Tm  Tm3  1  0.297057  0.464828  0.500000  1
  Tm  Tm4  1  0.035172  0.202943  0.500000  1
  Tm  Tm5  1  0.513119  0.013119  0.791450  1
  Tm  Tm6  1  0.702943  0.535172  0.500000  1
  Tm  Tm7  1  0.964828  0.797057  0.500000  1
  Sc  Sc8  1  0.000000  0.000000  0.000000  1
  Sc  Sc9  1  0.500000  0.500000  0.000000  1
  Si  Si10  1  0.152187  0.652187  0.804375  1
  Si  Si11  1  0.847813  0.347813  0.195625  1
  Ni  Ni12  1  0.634713  0.865287  0.500000  1
  Ni  Ni13  1  0.365287  0.134713  0.500000  1
  Bi  Bi14  1  0.250000  0.250000  0.000000  1
  Bi  Bi15  1  0.750000  0.750000  0.000000  1
