# generated using pymatgen
data_CeThSbNO
_symmetry_space_group_name_H-M   'P 1'
_cell_length_a   7.07618310
_cell_length_b   7.07618352
_cell_length_c   7.07618385
_cell_angle_alpha   146.90771251
_cell_angle_beta   146.92292992
_cell_angle_gamma   47.48918152
_symmetry_Int_Tables_number   1
_chemical_formula_structural   CeThSbNO
_chemical_formula_sum   'Ce1 Th1 Sb1 N1 O1'
_cell_volume   105.16996046
_cell_formula_units_Z   1
loop_
 _symmetry_equiv_pos_site_id
 _symmetry_equiv_pos_as_xyz
  1  'x, y, z'
loop_
 _atom_site_type_symbol
 _atom_site_label
 _atom_site_symmetry_multiplicity
 _atom_site_fract_x
 _atom_site_fract_y
 _atom_site_fract_z
 _atom_site_occupancy
  Ce  Ce0  1  0.342814  0.342814  0.000000  1
  Th  Th1  1  0.659294  0.659294  0.000000  1
  Sb  Sb2  1  0.997542  0.997542  0.000000  1
  N  N3  1  0.751139  0.251139  0.500000  1
  O  O4  1  0.249210  0.749210  0.500000  1
