# generated using pymatgen
data_Ho3Lu3Ru2
_symmetry_space_group_name_H-M   'P 1'
_cell_length_a   7.29403999
_cell_length_b   8.94800200
_cell_length_c   6.21544651
_cell_angle_alpha   90.00000000
_cell_angle_beta   89.89671658
_cell_angle_gamma   90.00000000
_symmetry_Int_Tables_number   1
_chemical_formula_structural   Ho3Lu3Ru2
_chemical_formula_sum   'Ho6 Lu6 Ru4'
_cell_volume   405.66341241
_cell_formula_units_Z   2
loop_
 _symmetry_equiv_pos_site_id
 _symmetry_equiv_pos_as_xyz
  1  'x, y, z'
loop_
 _atom_site_type_symbol
 _atom_site_label
 _atom_site_symmetry_multiplicity
 _atom_site_fract_x
 _atom_site_fract_y
 _atom_site_fract_z
 _atom_site_occupancy
  Ho  Ho0  1  0.961656  0.750000  0.127822  1
  Ho  Ho1  1  0.675905  0.062468  0.165602  1
  Ho  Ho2  1  0.675905  0.437533  0.165602  1
  Ho  Ho3  1  0.460523  0.750000  0.372441  1
  Ho  Ho4  1  0.538261  0.250000  0.628978  1
  Ho  Ho5  1  0.039512  0.250000  0.871007  1
  Lu  Lu6  1  0.175595  0.063474  0.335104  1
  Lu  Lu7  1  0.175595  0.436527  0.335104  1
  Lu  Lu8  1  0.824685  0.563805  0.664942  1
  Lu  Lu9  1  0.824685  0.936195  0.664942  1
  Lu  Lu10  1  0.323711  0.563840  0.834060  1
  Lu  Lu11  1  0.323711  0.936160  0.834060  1
  Ru  Ru12  1  0.381916  0.250000  0.039062  1
  Ru  Ru13  1  0.884508  0.250000  0.462271  1
  Ru  Ru14  1  0.117164  0.750000  0.539509  1
  Ru  Ru15  1  0.616671  0.750000  0.959492  1
