# generated using pymatgen
data_KSm10(C2I9)2
_symmetry_space_group_name_H-M   'P 1'
_cell_length_a   11.55331164
_cell_length_b   11.59534871
_cell_length_c   11.68706548
_cell_angle_alpha   113.27044261
_cell_angle_beta   87.13488999
_cell_angle_gamma   119.52944723
_symmetry_Int_Tables_number   1
_chemical_formula_structural   KSm10(C2I9)2
_chemical_formula_sum   'K1 Sm10 C4 I18'
_cell_volume   1230.77158882
_cell_formula_units_Z   1
loop_
 _symmetry_equiv_pos_site_id
 _symmetry_equiv_pos_as_xyz
  1  'x, y, z'
loop_
 _atom_site_type_symbol
 _atom_site_label
 _atom_site_symmetry_multiplicity
 _atom_site_fract_x
 _atom_site_fract_y
 _atom_site_fract_z
 _atom_site_occupancy
  K  K0  1  0.500000  0.000000  0.500000  1
  Sm  Sm1  1  0.671791  0.721885  0.707619  1
  Sm  Sm2  1  0.277483  0.354581  0.016263  1
  Sm  Sm3  1  0.093066  0.396541  0.295405  1
  Sm  Sm4  1  0.965553  0.038514  0.324816  1
  Sm  Sm5  1  0.906934  0.603459  0.704595  1
  Sm  Sm6  1  0.107453  0.944031  0.000600  1
  Sm  Sm7  1  0.034447  0.961486  0.675184  1
  Sm  Sm8  1  0.328209  0.278115  0.292381  1
  Sm  Sm9  1  0.722517  0.645419  0.983737  1
  Sm  Sm10  1  0.892547  0.055969  0.999400  1
  C  C11  1  0.152195  0.221727  0.123974  1
  C  C12  1  0.847805  0.778273  0.876026  1
  C  C13  1  0.921397  0.852680  0.802186  1
  C  C14  1  0.078603  0.147320  0.197814  1
  I  I15  1  0.447806  0.529858  0.830387  1
  I  I16  1  0.386078  0.037727  0.158314  1
  I  I17  1  0.773604  0.856136  0.501057  1
  I  I18  1  0.835051  0.311911  0.153661  1
  I  I19  1  0.552194  0.470142  0.169613  1
  I  I20  1  0.226396  0.143864  0.498943  1
  I  I21  1  0.317813  0.095034  0.830768  1
  I  I22  1  0.682187  0.904966  0.169232  1
  I  I23  1  0.978192  0.756808  0.168652  1
  I  I24  1  0.931595  0.299004  0.502442  1
  I  I25  1  0.021808  0.243192  0.831348  1
  I  I26  1  0.068405  0.700996  0.497558  1
  I  I27  1  0.264854  0.628046  0.187684  1
  I  I28  1  0.735146  0.371954  0.812316  1
  I  I29  1  0.639186  0.429429  0.496693  1
  I  I30  1  0.164949  0.688089  0.846339  1
  I  I31  1  0.613922  0.962273  0.841686  1
  I  I32  1  0.360814  0.570571  0.503307  1
