# generated using pymatgen
data_Tb2YAl3Cu2Pd
_symmetry_space_group_name_H-M   'P 1'
_cell_length_a   7.09554403
_cell_length_b   7.11898624
_cell_length_c   4.01763400
_cell_angle_alpha   90.00000000
_cell_angle_beta   90.00000000
_cell_angle_gamma   119.90189068
_symmetry_Int_Tables_number   1
_chemical_formula_structural   Tb2YAl3Cu2Pd
_chemical_formula_sum   'Tb2 Y1 Al3 Cu2 Pd1'
_cell_volume   175.92734824
_cell_formula_units_Z   1
loop_
 _symmetry_equiv_pos_site_id
 _symmetry_equiv_pos_as_xyz
  1  'x, y, z'
loop_
 _atom_site_type_symbol
 _atom_site_label
 _atom_site_symmetry_multiplicity
 _atom_site_fract_x
 _atom_site_fract_y
 _atom_site_fract_z
 _atom_site_occupancy
  Tb  Tb0  1  0.999331  0.413056  0.500000  1
  Tb  Tb1  1  0.586774  0.586434  0.500000  1
  Y  Y2  1  0.413507  0.000830  0.500000  1
  Al  Al3  1  0.000794  0.766585  0.000000  1
  Al  Al4  1  0.233579  0.233754  0.000000  1
  Al  Al5  1  0.765882  0.999447  0.000000  1
  Cu  Cu6  1  0.666962  0.333724  0.000000  1
  Cu  Cu7  1  0.999965  0.999997  0.500000  1
  Pd  Pd8  1  0.333205  0.666175  0.000000  1
