# generated using pymatgen
data_DyTh2(InNi)3
_symmetry_space_group_name_H-M   'P 1'
_cell_length_a   7.37496900
_cell_length_b   7.46605600
_cell_length_c   3.98791000
_cell_angle_alpha   90.00000000
_cell_angle_beta   90.00000000
_cell_angle_gamma   119.59723186
_symmetry_Int_Tables_number   1
_chemical_formula_structural   DyTh2(InNi)3
_chemical_formula_sum   'Dy1 Th2 In3 Ni3'
_cell_volume   190.93069943
_cell_formula_units_Z   1
loop_
 _symmetry_equiv_pos_site_id
 _symmetry_equiv_pos_as_xyz
  1  'x, y, z'
loop_
 _atom_site_type_symbol
 _atom_site_label
 _atom_site_symmetry_multiplicity
 _atom_site_fract_x
 _atom_site_fract_y
 _atom_site_fract_z
 _atom_site_occupancy
  Dy  Dy0  1  0.413316  0.000000  0.500000  1
  Th  Th1  1  0.998961  0.416498  0.500000  1
  Th  Th2  1  0.582464  0.583502  0.500000  1
  In  In3  1  0.745038  0.000000  0.000000  1
  In  In4  1  0.009641  0.761746  0.000000  1
  In  In5  1  0.247895  0.238254  0.000000  1
  Ni  Ni6  1  0.332549  0.657347  0.000000  1
  Ni  Ni7  1  0.675202  0.342653  0.000000  1
  Ni  Ni8  1  0.994933  0.000000  0.500000  1
