# generated using pymatgen
data_DyPa3(GeIr)4
_symmetry_space_group_name_H-M   'P 1'
_cell_length_a   4.34060300
_cell_length_b   6.95402641
_cell_length_c   7.67425928
_cell_angle_alpha   90.46602925
_cell_angle_beta   90.00000000
_cell_angle_gamma   90.00000000
_symmetry_Int_Tables_number   1
_chemical_formula_structural   DyPa3(GeIr)4
_chemical_formula_sum   'Dy1 Pa3 Ge4 Ir4'
_cell_volume   231.63730505
_cell_formula_units_Z   1
loop_
 _symmetry_equiv_pos_site_id
 _symmetry_equiv_pos_as_xyz
  1  'x, y, z'
loop_
 _atom_site_type_symbol
 _atom_site_label
 _atom_site_symmetry_multiplicity
 _atom_site_fract_x
 _atom_site_fract_y
 _atom_site_fract_z
 _atom_site_occupancy
  Dy  Dy0  1  0.250000  0.491827  0.201123  1
  Pa  Pa1  1  0.750000  0.505039  0.796646  1
  Pa  Pa2  1  0.250000  0.992110  0.300198  1
  Pa  Pa3  1  0.750000  0.006164  0.702751  1
  Ge  Ge4  1  0.250000  0.812503  0.919573  1
  Ge  Ge5  1  0.250000  0.322260  0.581518  1
  Ge  Ge6  1  0.750000  0.185009  0.086498  1
  Ge  Ge7  1  0.750000  0.679605  0.409069  1
  Ir  Ir8  1  0.250000  0.727654  0.589403  1
  Ir  Ir9  1  0.250000  0.221505  0.906667  1
  Ir  Ir10  1  0.750000  0.788866  0.086848  1
  Ir  Ir11  1  0.750000  0.267459  0.419706  1
