# generated using pymatgen
data_Er20(IrPt3)3
_symmetry_space_group_name_H-M   'P 1'
_cell_length_a   10.98529900
_cell_length_b   10.98529900
_cell_length_c   6.30729100
_cell_angle_alpha   90.00000000
_cell_angle_beta   90.00000000
_cell_angle_gamma   90.00000000
_symmetry_Int_Tables_number   1
_chemical_formula_structural   Er20(IrPt3)3
_chemical_formula_sum   'Er20 Ir3 Pt9'
_cell_volume   761.14365746
_cell_formula_units_Z   1
loop_
 _symmetry_equiv_pos_site_id
 _symmetry_equiv_pos_as_xyz
  1  'x, y, z'
loop_
 _atom_site_type_symbol
 _atom_site_label
 _atom_site_symmetry_multiplicity
 _atom_site_fract_x
 _atom_site_fract_y
 _atom_site_fract_z
 _atom_site_occupancy
  Er  Er0  1  0.293219  0.087729  0.377739  1
  Er  Er1  1  0.292714  0.912196  0.871570  1
  Er  Er2  1  0.707286  0.087804  0.871570  1
  Er  Er3  1  0.706781  0.912271  0.377739  1
  Er  Er4  1  0.587804  0.792714  0.871570  1
  Er  Er5  1  0.587729  0.206781  0.377739  1
  Er  Er6  1  0.412271  0.793219  0.377739  1
  Er  Er7  1  0.412196  0.207286  0.871570  1
  Er  Er8  1  0.205392  0.412934  0.625299  1
  Er  Er9  1  0.205369  0.587577  0.125744  1
  Er  Er10  1  0.794631  0.412423  0.125744  1
  Er  Er11  1  0.794608  0.587066  0.625299  1
  Er  Er12  1  0.912423  0.705369  0.125744  1
  Er  Er13  1  0.912934  0.294608  0.625299  1
  Er  Er14  1  0.087066  0.705392  0.625299  1
  Er  Er15  1  0.087577  0.294631  0.125744  1
  Er  Er16  1  0.000000  0.000000  0.500362  1
  Er  Er17  1  0.000000  0.000000  0.000606  1
  Er  Er18  1  0.500000  0.500000  0.000606  1
  Er  Er19  1  0.500000  0.500000  0.500362  1
  Ir  Ir20  1  0.500000  0.000000  0.618782  1
  Ir  Ir21  1  0.000000  0.500000  0.880075  1
  Ir  Ir22  1  0.000000  0.500000  0.379863  1
  Pt  Pt23  1  0.845866  0.153516  0.249861  1
  Pt  Pt24  1  0.846243  0.846180  0.750063  1
  Pt  Pt25  1  0.153757  0.153820  0.750063  1
  Pt  Pt26  1  0.154134  0.846484  0.249861  1
  Pt  Pt27  1  0.653820  0.346243  0.750063  1
  Pt  Pt28  1  0.653516  0.654134  0.249861  1
  Pt  Pt29  1  0.346484  0.345866  0.249861  1
  Pt  Pt30  1  0.346180  0.653757  0.750063  1
  Pt  Pt31  1  0.500000  0.000000  0.118235  1
