# generated using pymatgen
data_Na3LuP7Ir8
_symmetry_space_group_name_H-M   'P 1'
_cell_length_a   3.96201800
_cell_length_b   12.64516368
_cell_length_c   12.99628185
_cell_angle_alpha   79.79774525
_cell_angle_beta   90.00000000
_cell_angle_gamma   90.00000000
_symmetry_Int_Tables_number   1
_chemical_formula_structural   Na3LuP7Ir8
_chemical_formula_sum   'Na6 Lu2 P14 Ir16'
_cell_volume   640.82340874
_cell_formula_units_Z   2
loop_
 _symmetry_equiv_pos_site_id
 _symmetry_equiv_pos_as_xyz
  1  'x, y, z'
loop_
 _atom_site_type_symbol
 _atom_site_label
 _atom_site_symmetry_multiplicity
 _atom_site_fract_x
 _atom_site_fract_y
 _atom_site_fract_z
 _atom_site_occupancy
  Na  Na0  1  0.750000  0.480219  0.708074  1
  Na  Na1  1  0.250000  0.519781  0.291926  1
  Na  Na2  1  0.750000  0.712690  0.890527  1
  Na  Na3  1  0.250000  0.098497  0.796240  1
  Na  Na4  1  0.750000  0.901503  0.203760  1
  Na  Na5  1  0.250000  0.287310  0.109473  1
  Lu  Lu6  1  0.750000  0.784524  0.571291  1
  Lu  Lu7  1  0.250000  0.215476  0.428709  1
  P  P8  1  0.250000  0.908859  0.412622  1
  P  P9  1  0.750000  0.476015  0.129231  1
  P  P10  1  0.250000  0.523985  0.870769  1
  P  P11  1  0.750000  0.091141  0.587378  1
  P  P12  1  0.250000  0.740976  0.080677  1
  P  P13  1  0.750000  0.259024  0.919323  1
  P  P14  1  0.750000  0.157072  0.279259  1
  P  P15  1  0.250000  0.842928  0.720741  1
  P  P16  1  0.250000  0.060987  0.096203  1
  P  P17  1  0.750000  0.939013  0.903797  1
  P  P18  1  0.250000  0.300601  0.688203  1
  P  P19  1  0.750000  0.699399  0.311797  1
  P  P20  1  0.250000  0.607496  0.563437  1
  P  P21  1  0.750000  0.392504  0.436563  1
  Ir  Ir22  1  0.250000  0.983131  0.574576  1
  Ir  Ir23  1  0.750000  0.016869  0.425424  1
  Ir  Ir24  1  0.250000  0.664498  0.720295  1
  Ir  Ir25  1  0.750000  0.335502  0.279705  1
  Ir  Ir26  1  0.250000  0.557280  0.046498  1
  Ir  Ir27  1  0.750000  0.442720  0.953502  1
  Ir  Ir28  1  0.250000  0.063777  0.270534  1
  Ir  Ir29  1  0.750000  0.936223  0.729466  1
  Ir  Ir30  1  0.250000  0.421300  0.525224  1
  Ir  Ir31  1  0.750000  0.578700  0.474776  1
  Ir  Ir32  1  0.250000  0.917918  0.001270  1
  Ir  Ir33  1  0.750000  0.082082  0.998730  1
  Ir  Ir34  1  0.250000  0.729725  0.400298  1
  Ir  Ir35  1  0.750000  0.270275  0.599702  1
  Ir  Ir36  1  0.250000  0.336897  0.857265  1
  Ir  Ir37  1  0.750000  0.663103  0.142735  1
