# generated using pymatgen
data_Nb5Si2Sn
_symmetry_space_group_name_H-M   'P 1'
_cell_length_a   7.74885656
_cell_length_b   7.74885674
_cell_length_c   7.74885898
_cell_angle_alpha   128.07248245
_cell_angle_beta   128.07248760
_cell_angle_gamma   76.50763490
_symmetry_Int_Tables_number   1
_chemical_formula_structural   Nb5Si2Sn
_chemical_formula_sum   'Nb10 Si4 Sn2'
_cell_volume   280.12487505
_cell_formula_units_Z   2
loop_
 _symmetry_equiv_pos_site_id
 _symmetry_equiv_pos_as_xyz
  1  'x, y, z'
loop_
 _atom_site_type_symbol
 _atom_site_label
 _atom_site_symmetry_multiplicity
 _atom_site_fract_x
 _atom_site_fract_y
 _atom_site_fract_z
 _atom_site_occupancy
  Nb  Nb0  1  0.019297  0.196691  0.500000  1
  Nb  Nb1  1  0.519297  0.019297  0.822607  1
  Nb  Nb2  1  0.196691  0.696691  0.177393  1
  Nb  Nb3  1  0.480703  0.980703  0.177393  1
  Nb  Nb4  1  0.696691  0.519297  0.500000  1
  Nb  Nb5  1  0.980703  0.803309  0.500000  1
  Nb  Nb6  1  0.303309  0.480703  0.500000  1
  Nb  Nb7  1  0.803309  0.303309  0.822607  1
  Nb  Nb8  1  0.500000  0.500000  0.000000  1
  Nb  Nb9  1  0.000000  0.000000  0.000000  1
  Si  Si10  1  0.131538  0.631538  0.763076  1
  Si  Si11  1  0.631538  0.868462  0.500000  1
  Si  Si12  1  0.368462  0.131538  0.500000  1
  Si  Si13  1  0.868462  0.368462  0.236924  1
  Sn  Sn14  1  0.750000  0.750000  0.000000  1
  Sn  Sn15  1  0.250000  0.250000  0.000000  1
