# generated using pymatgen
data_Tb2V3Co9P7
_symmetry_space_group_name_H-M   'P 1'
_cell_length_a   3.64550600
_cell_length_b   9.05392201
_cell_length_c   9.05444802
_cell_angle_alpha   120.00265075
_cell_angle_beta   90.00000000
_cell_angle_gamma   90.00000000
_symmetry_Int_Tables_number   1
_chemical_formula_structural   Tb2V3Co9P7
_chemical_formula_sum   'Tb2 V3 Co9 P7'
_cell_volume   258.80673700
_cell_formula_units_Z   1
loop_
 _symmetry_equiv_pos_site_id
 _symmetry_equiv_pos_as_xyz
  1  'x, y, z'
loop_
 _atom_site_type_symbol
 _atom_site_label
 _atom_site_symmetry_multiplicity
 _atom_site_fract_x
 _atom_site_fract_y
 _atom_site_fract_z
 _atom_site_occupancy
  Tb  Tb0  1  0.000000  0.666645  0.333324  1
  Tb  Tb1  1  0.500000  0.333361  0.666676  1
  V  V2  1  0.500000  0.119008  0.900919  1
  V  V3  1  0.500000  0.099072  0.218083  1
  V  V4  1  0.500000  0.781913  0.881011  1
  Co  Co5  1  0.000000  0.371534  0.939813  1
  Co  Co6  1  0.000000  0.060215  0.431720  1
  Co  Co7  1  0.000000  0.568279  0.628442  1
  Co  Co8  1  0.000000  0.879865  0.722391  1
  Co  Co9  1  0.000000  0.277559  0.157428  1
  Co  Co10  1  0.000000  0.842525  0.120152  1
  Co  Co11  1  0.500000  0.950548  0.565625  1
  Co  Co12  1  0.500000  0.434377  0.384909  1
  Co  Co13  1  0.500000  0.615090  0.049472  1
  P  P14  1  0.000000  0.111503  0.701183  1
  P  P15  1  0.000000  0.298809  0.410305  1
  P  P16  1  0.000000  0.589715  0.888532  1
  P  P17  1  0.500000  0.708984  0.593722  1
  P  P18  1  0.500000  0.406259  0.115259  1
  P  P19  1  0.500000  0.884732  0.291019  1
  P  P20  1  0.000000  0.000008  0.000015  1
