# generated using pymatgen
data_ThZn2PtAu3
_symmetry_space_group_name_H-M   'P 1'
_cell_length_a   5.60092356
_cell_length_b   5.60092462
_cell_length_c   5.68999758
_cell_angle_alpha   103.17485624
_cell_angle_beta   103.17487708
_cell_angle_gamma   122.47303601
_symmetry_Int_Tables_number   1
_chemical_formula_structural   ThZn2PtAu3
_chemical_formula_sum   'Th1 Zn2 Pt1 Au3'
_cell_volume   132.62399613
_cell_formula_units_Z   1
loop_
 _symmetry_equiv_pos_site_id
 _symmetry_equiv_pos_as_xyz
  1  'x, y, z'
loop_
 _atom_site_type_symbol
 _atom_site_label
 _atom_site_symmetry_multiplicity
 _atom_site_fract_x
 _atom_site_fract_y
 _atom_site_fract_z
 _atom_site_occupancy
  Th  Th0  1  0.009988  0.009988  0.019977  1
  Zn  Zn1  1  0.249018  0.749018  0.498036  1
  Zn  Zn2  1  0.749018  0.249018  0.498036  1
  Pt  Pt3  1  0.291526  0.291526  0.583052  1
  Au  Au4  1  0.706498  0.706498  0.412995  1
  Au  Au5  1  0.690076  0.303875  0.993951  1
  Au  Au6  1  0.303875  0.690076  0.993951  1
