# generated using pymatgen
data_CeNd2Th(NiB4)4
_symmetry_space_group_name_H-M   'P 1'
_cell_length_a   6.93227922
_cell_length_b   6.93227765
_cell_length_c   6.93227907
_cell_angle_alpha   112.74530305
_cell_angle_beta   112.74529098
_cell_angle_gamma   103.10459695
_symmetry_Int_Tables_number   1
_chemical_formula_structural   CeNd2Th(NiB4)4
_chemical_formula_sum   'Ce1 Nd2 Th1 Ni4 B16'
_cell_volume   254.11340193
_cell_formula_units_Z   1
loop_
 _symmetry_equiv_pos_site_id
 _symmetry_equiv_pos_as_xyz
  1  'x, y, z'
loop_
 _atom_site_type_symbol
 _atom_site_label
 _atom_site_symmetry_multiplicity
 _atom_site_fract_x
 _atom_site_fract_y
 _atom_site_fract_z
 _atom_site_occupancy
  Ce  Ce0  1  0.250000  0.750000  0.500000  1
  Nd  Nd1  1  0.795724  0.795724  0.000000  1
  Nd  Nd2  1  0.204276  0.204276  0.000000  1
  Th  Th3  1  0.750000  0.250000  0.500000  1
  Ni  Ni4  1  0.270581  0.500272  0.770310  1
  Ni  Ni5  1  0.729963  0.500272  0.229690  1
  Ni  Ni6  1  0.499728  0.729419  0.229690  1
  Ni  Ni7  1  0.499728  0.270037  0.770310  1
  B  B8  1  0.276524  0.112004  0.389039  1
  B  B9  1  0.722965  0.887485  0.610961  1
  B  B10  1  0.276524  0.887485  0.164520  1
  B  B11  1  0.722965  0.112004  0.835480  1
  B  B12  1  0.112515  0.723476  0.835480  1
  B  B13  1  0.887996  0.277035  0.164520  1
  B  B14  1  0.112515  0.277035  0.389039  1
  B  B15  1  0.887996  0.723476  0.610961  1
  B  B16  1  0.113184  0.111489  0.529215  1
  B  B17  1  0.582273  0.583967  0.470785  1
  B  B18  1  0.113184  0.583967  0.001694  1
  B  B19  1  0.582273  0.111489  0.998306  1
  B  B20  1  0.888511  0.886816  0.470785  1
  B  B21  1  0.416033  0.417727  0.529215  1
  B  B22  1  0.888511  0.417727  0.001694  1
  B  B23  1  0.416033  0.886816  0.998306  1
