# generated using pymatgen
data_YHo(PaAl5)3
_symmetry_space_group_name_H-M   'P 1'
_cell_length_a   12.60911850
_cell_length_b   12.60911865
_cell_length_c   12.60911808
_cell_angle_alpha   28.08604084
_cell_angle_beta   28.08604189
_cell_angle_gamma   28.08604363
_symmetry_Int_Tables_number   1
_chemical_formula_structural   YHo(PaAl5)3
_chemical_formula_sum   'Y1 Ho1 Pa3 Al15'
_cell_volume   392.51214702
_cell_formula_units_Z   1
loop_
 _symmetry_equiv_pos_site_id
 _symmetry_equiv_pos_as_xyz
  1  'x, y, z'
loop_
 _atom_site_type_symbol
 _atom_site_label
 _atom_site_symmetry_multiplicity
 _atom_site_fract_x
 _atom_site_fract_y
 _atom_site_fract_z
 _atom_site_occupancy
  Y  Y0  1  0.999725  0.999725  0.999725  1
  Ho  Ho1  1  0.599567  0.599567  0.599567  1
  Pa  Pa2  1  0.130839  0.130839  0.130839  1
  Pa  Pa3  1  0.869131  0.869131  0.869131  1
  Pa  Pa4  1  0.400909  0.400909  0.400909  1
  Al  Al5  1  0.132324  0.635340  0.635340  1
  Al  Al6  1  0.635340  0.635340  0.132324  1
  Al  Al7  1  0.635340  0.132324  0.635340  1
  Al  Al8  1  0.364532  0.871852  0.364532  1
  Al  Al9  1  0.364532  0.364532  0.871852  1
  Al  Al10  1  0.871852  0.364532  0.364532  1
  Al  Al11  1  0.429936  0.883228  0.883228  1
  Al  Al12  1  0.883228  0.883228  0.429936  1
  Al  Al13  1  0.883228  0.429936  0.883228  1
  Al  Al14  1  0.116513  0.568082  0.116513  1
  Al  Al15  1  0.116513  0.116513  0.568082  1
  Al  Al16  1  0.568082  0.116513  0.116513  1
  Al  Al17  1  0.498064  0.498064  0.002280  1
  Al  Al18  1  0.498064  0.002280  0.498064  1
  Al  Al19  1  0.002280  0.498064  0.498064  1
