# generated using pymatgen
data_Lu2FeCoI2
_symmetry_space_group_name_H-M   'P 1'
_cell_length_a   3.92569700
_cell_length_b   3.92569646
_cell_length_c   12.43165200
_cell_angle_alpha   90.00000000
_cell_angle_beta   90.00000000
_cell_angle_gamma   119.99999609
_symmetry_Int_Tables_number   1
_chemical_formula_structural   Lu2FeCoI2
_chemical_formula_sum   'Lu2 Fe1 Co1 I2'
_cell_volume   165.91780215
_cell_formula_units_Z   1
loop_
 _symmetry_equiv_pos_site_id
 _symmetry_equiv_pos_as_xyz
  1  'x, y, z'
loop_
 _atom_site_type_symbol
 _atom_site_label
 _atom_site_symmetry_multiplicity
 _atom_site_fract_x
 _atom_site_fract_y
 _atom_site_fract_z
 _atom_site_occupancy
  Lu  Lu0  1  0.000000  0.000000  0.146576  1
  Lu  Lu1  1  0.000000  0.000000  0.853735  1
  Fe  Fe2  1  0.666667  0.333335  0.004074  1
  Co  Co3  1  0.333333  0.666666  0.995130  1
  I  I4  1  0.333333  0.666666  0.317385  1
  I  I5  1  0.666667  0.333335  0.683101  1
