# generated using pymatgen
data_LaPr(PaPt2)2
_symmetry_space_group_name_H-M   'P 1'
_cell_length_a   4.50346300
_cell_length_b   5.75672264
_cell_length_c   7.41044368
_cell_angle_alpha   89.64304274
_cell_angle_beta   90.00000000
_cell_angle_gamma   90.00000000
_symmetry_Int_Tables_number   1
_chemical_formula_structural   LaPr(PaPt2)2
_chemical_formula_sum   'La1 Pr1 Pa2 Pt4'
_cell_volume   192.11341263
_cell_formula_units_Z   1
loop_
 _symmetry_equiv_pos_site_id
 _symmetry_equiv_pos_as_xyz
  1  'x, y, z'
loop_
 _atom_site_type_symbol
 _atom_site_label
 _atom_site_symmetry_multiplicity
 _atom_site_fract_x
 _atom_site_fract_y
 _atom_site_fract_z
 _atom_site_occupancy
  La  La0  1  0.250000  0.349939  0.684457  1
  Pr  Pr1  1  0.750000  0.847906  0.817819  1
  Pa  Pa2  1  0.250000  0.147945  0.177647  1
  Pa  Pa3  1  0.750000  0.654184  0.321117  1
  Pt  Pt4  1  0.250000  0.840369  0.521838  1
  Pt  Pt5  1  0.250000  0.659068  0.077303  1
  Pt  Pt6  1  0.750000  0.169925  0.421557  1
  Pt  Pt7  1  0.750000  0.330664  0.978262  1
