# generated using pymatgen
data_Tm2Si2Tc
_symmetry_space_group_name_H-M   'P 1'
_cell_length_a   5.72342648
_cell_length_b   5.72342660
_cell_length_c   9.97334936
_cell_angle_alpha   63.77386537
_cell_angle_beta   63.77386456
_cell_angle_gamma   42.60703268
_symmetry_Int_Tables_number   1
_chemical_formula_structural   Tm2Si2Tc
_chemical_formula_sum   'Tm4 Si4 Tc2'
_cell_volume   194.70416762
_cell_formula_units_Z   2
loop_
 _symmetry_equiv_pos_site_id
 _symmetry_equiv_pos_as_xyz
  1  'x, y, z'
loop_
 _atom_site_type_symbol
 _atom_site_label
 _atom_site_symmetry_multiplicity
 _atom_site_fract_x
 _atom_site_fract_y
 _atom_site_fract_z
 _atom_site_occupancy
  Tm  Tm0  1  0.004675  0.004675  0.322645  1
  Tm  Tm1  1  0.995325  0.995325  0.677355  1
  Tm  Tm2  1  0.812653  0.812653  0.109648  1
  Tm  Tm3  1  0.187347  0.187347  0.890352  1
  Si  Si4  1  0.640466  0.640466  0.439660  1
  Si  Si5  1  0.359534  0.359534  0.560340  1
  Si  Si6  1  0.503482  0.503482  0.121525  1
  Si  Si7  1  0.496518  0.496518  0.878475  1
  Tc  Tc8  1  0.727766  0.727766  0.630287  1
  Tc  Tc9  1  0.272234  0.272234  0.369713  1
