# generated using pymatgen
data_Ho8TaTi6Nb4Si16Ir
_symmetry_space_group_name_H-M   'P 1'
_cell_length_a   7.03248602
_cell_length_b   7.04114874
_cell_length_c   12.90426200
_cell_angle_alpha   90.15257413
_cell_angle_beta   89.81407827
_cell_angle_gamma   89.67620830
_symmetry_Int_Tables_number   1
_chemical_formula_structural   Ho8TaTi6Nb4Si16Ir
_chemical_formula_sum   'Ho8 Ta1 Ti6 Nb4 Si16 Ir1'
_cell_volume   638.96164016
_cell_formula_units_Z   1
loop_
 _symmetry_equiv_pos_site_id
 _symmetry_equiv_pos_as_xyz
  1  'x, y, z'
loop_
 _atom_site_type_symbol
 _atom_site_label
 _atom_site_symmetry_multiplicity
 _atom_site_fract_x
 _atom_site_fract_y
 _atom_site_fract_z
 _atom_site_occupancy
  Ho  Ho0  1  0.341473  0.001852  0.467011  1
  Ho  Ho1  1  0.497144  0.842094  0.718287  1
  Ho  Ho2  1  0.501514  0.157621  0.215978  1
  Ho  Ho3  1  0.842051  0.497548  0.281668  1
  Ho  Ho4  1  0.157799  0.500886  0.784297  1
  Ho  Ho5  1  0.657308  0.998753  0.968503  1
  Ho  Ho6  1  0.001472  0.341532  0.532436  1
  Ho  Ho7  1  0.998501  0.658868  0.031577  1
  Ta  Ta8  1  0.174126  0.827649  0.247751  1
  Ti  Ti9  1  0.507841  0.349289  0.628400  1
  Ti  Ti10  1  0.657808  0.491011  0.875390  1
  Ti  Ti11  1  0.349408  0.507898  0.373107  1
  Ti  Ti12  1  0.848489  0.991941  0.373941  1
  Ti  Ti13  1  0.003277  0.147128  0.124983  1
  Ti  Ti14  1  0.991338  0.848686  0.626096  1
  Nb  Nb15  1  0.826318  0.175292  0.752089  1
  Nb  Nb16  1  0.673199  0.672579  0.499861  1
  Nb  Nb17  1  0.147376  0.000686  0.874676  1
  Nb  Nb18  1  0.493792  0.657509  0.124642  1
  Si  Si19  1  0.204485  0.133916  0.683335  1
  Si  Si20  1  0.372420  0.701313  0.932687  1
  Si  Si21  1  0.631188  0.296618  0.434340  1
  Si  Si22  1  0.702232  0.369013  0.066993  1
  Si  Si23  1  0.296381  0.631332  0.565628  1
  Si  Si24  1  0.797307  0.868303  0.183630  1
  Si  Si25  1  0.132918  0.202799  0.315615  1
  Si  Si26  1  0.863841  0.794217  0.816683  1
  Si  Si27  1  0.288715  0.955026  0.061366  1
  Si  Si28  1  0.547115  0.794930  0.315244  1
  Si  Si29  1  0.447797  0.211007  0.817808  1
  Si  Si30  1  0.793185  0.547704  0.685229  1
  Si  Si31  1  0.208729  0.448021  0.182178  1
  Si  Si32  1  0.708075  0.048417  0.564101  1
  Si  Si33  1  0.953597  0.290351  0.938554  1
  Si  Si34  1  0.048435  0.708154  0.435681  1
  Ir  Ir35  1  0.333346  0.330056  0.000238  1
