# generated using pymatgen
data_HoTmBe4Ru5
_symmetry_space_group_name_H-M   'P 1'
_cell_length_a   3.20871700
_cell_length_b   8.79680995
_cell_length_c   10.19603300
_cell_angle_alpha   89.96181284
_cell_angle_beta   90.00000000
_cell_angle_gamma   90.00000000
_symmetry_Int_Tables_number   1
_chemical_formula_structural   HoTmBe4Ru5
_chemical_formula_sum   'Ho2 Tm2 Be8 Ru10'
_cell_volume   287.79799283
_cell_formula_units_Z   2
loop_
 _symmetry_equiv_pos_site_id
 _symmetry_equiv_pos_as_xyz
  1  'x, y, z'
loop_
 _atom_site_type_symbol
 _atom_site_label
 _atom_site_symmetry_multiplicity
 _atom_site_fract_x
 _atom_site_fract_y
 _atom_site_fract_z
 _atom_site_occupancy
  Ho  Ho0  1  0.500000  0.664880  0.683240  1
  Ho  Ho1  1  0.500000  0.335120  0.316760  1
  Tm  Tm2  1  0.500000  0.834895  0.182853  1
  Tm  Tm3  1  0.500000  0.165105  0.817147  1
  Be  Be4  1  0.500000  0.966304  0.593584  1
  Be  Be5  1  0.500000  0.033696  0.406416  1
  Be  Be6  1  0.500000  0.839067  0.906945  1
  Be  Be7  1  0.500000  0.160933  0.093055  1
  Be  Be8  1  0.500000  0.661936  0.406564  1
  Be  Be9  1  0.500000  0.338064  0.593436  1
  Be  Be10  1  0.500000  0.466173  0.906554  1
  Be  Be11  1  0.500000  0.533827  0.093446  1
  Ru  Ru12  1  0.000000  0.657137  0.955858  1
  Ru  Ru13  1  0.000000  0.342863  0.044142  1
  Ru  Ru14  1  0.000000  0.843608  0.455012  1
  Ru  Ru15  1  0.000000  0.156392  0.544988  1
  Ru  Ru16  1  0.000000  0.000000  0.000000  1
  Ru  Ru17  1  0.000000  0.409941  0.753789  1
  Ru  Ru18  1  0.000000  0.590059  0.246211  1
  Ru  Ru19  1  0.000000  0.500000  0.500000  1
  Ru  Ru20  1  0.000000  0.912568  0.746907  1
  Ru  Ru21  1  0.000000  0.087432  0.253093  1
