# generated using pymatgen
data_La12Nd2PdAu5
_symmetry_space_group_name_H-M   'P 1'
_cell_length_a   10.64393000
_cell_length_b   10.59253581
_cell_length_c   6.61973153
_cell_angle_alpha   90.09944043
_cell_angle_beta   90.00000000
_cell_angle_gamma   120.16063060
_symmetry_Int_Tables_number   1
_chemical_formula_structural   La12Nd2PdAu5
_chemical_formula_sum   'La12 Nd2 Pd1 Au5'
_cell_volume   645.30770124
_cell_formula_units_Z   1
loop_
 _symmetry_equiv_pos_site_id
 _symmetry_equiv_pos_as_xyz
  1  'x, y, z'
loop_
 _atom_site_type_symbol
 _atom_site_label
 _atom_site_symmetry_multiplicity
 _atom_site_fract_x
 _atom_site_fract_y
 _atom_site_fract_z
 _atom_site_occupancy
  La  La0  1  0.128444  0.870723  0.250220  1
  La  La1  1  0.742279  0.870723  0.250220  1
  La  La2  1  0.129708  0.259416  0.257985  1
  La  La3  1  0.878693  0.131659  0.748408  1
  La  La4  1  0.252967  0.131659  0.748408  1
  La  La5  1  0.871979  0.743958  0.750295  1
  La  La6  1  0.536407  0.460612  0.449143  1
  La  La7  1  0.924205  0.460612  0.449143  1
  La  La8  1  0.537189  0.074379  0.452059  1
  La  La9  1  0.456596  0.536969  0.947535  1
  La  La10  1  0.080374  0.536969  0.947535  1
  La  La11  1  0.462974  0.925948  0.951410  1
  Nd  Nd12  1  0.331114  0.662230  0.442140  1
  Nd  Nd13  1  0.666601  0.333201  0.934624  1
  Pd  Pd14  1  0.188848  0.377694  0.687638  1
  Au  Au15  1  0.810949  0.188924  0.182887  1
  Au  Au16  1  0.377974  0.188924  0.182887  1
  Au  Au17  1  0.810367  0.620737  0.184435  1
  Au  Au18  1  0.190296  0.812331  0.684407  1
  Au  Au19  1  0.622035  0.812331  0.684407  1
