# generated using pymatgen
data_SbAsI18
_symmetry_space_group_name_H-M   'P 1'
_cell_length_a   10.26691777
_cell_length_b   10.28981764
_cell_length_c   10.30835832
_cell_angle_alpha   88.94734686
_cell_angle_beta   89.01479350
_cell_angle_gamma   88.89863886
_symmetry_Int_Tables_number   1
_chemical_formula_structural   SbAsI18
_chemical_formula_sum   'Sb1 As1 I18'
_cell_volume   1088.48409285
_cell_formula_units_Z   1
loop_
 _symmetry_equiv_pos_site_id
 _symmetry_equiv_pos_as_xyz
  1  'x, y, z'
loop_
 _atom_site_type_symbol
 _atom_site_label
 _atom_site_symmetry_multiplicity
 _atom_site_fract_x
 _atom_site_fract_y
 _atom_site_fract_z
 _atom_site_occupancy
  Sb  Sb0  1  0.000000  0.000000  0.000000  1
  As  As1  1  0.500000  0.500000  0.500000  1
  I  I2  1  0.782144  0.470445  0.501388  1
  I  I3  1  0.500122  0.781485  0.470036  1
  I  I4  1  0.469959  0.500739  0.780881  1
  I  I5  1  0.217856  0.529555  0.498612  1
  I  I6  1  0.499878  0.218515  0.529964  1
  I  I7  1  0.530041  0.499261  0.219119  1
  I  I8  1  0.892307  0.381289  0.747862  1
  I  I9  1  0.746614  0.891227  0.380368  1
  I  I10  1  0.381325  0.747128  0.891598  1
  I  I11  1  0.107693  0.618711  0.252138  1
  I  I12  1  0.253386  0.108773  0.619632  1
  I  I13  1  0.618675  0.252872  0.108402  1
  I  I14  1  0.013828  0.976914  0.703030  1
  I  I15  1  0.701970  0.013721  0.976040  1
  I  I16  1  0.975777  0.702602  0.012926  1
  I  I17  1  0.986172  0.023086  0.296970  1
  I  I18  1  0.298030  0.986279  0.023960  1
  I  I19  1  0.024223  0.297398  0.987074  1
