# generated using pymatgen
data_Pr2Ho2ScGa4
_symmetry_space_group_name_H-M   'P 1'
_cell_length_a   7.58876000
_cell_length_b   7.90098400
_cell_length_c   15.17983800
_cell_angle_alpha   90.00000000
_cell_angle_beta   90.00000000
_cell_angle_gamma   90.00000000
_symmetry_Int_Tables_number   1
_chemical_formula_structural   Pr2Ho2ScGa4
_chemical_formula_sum   'Pr8 Ho8 Sc4 Ga16'
_cell_volume   910.16291763
_cell_formula_units_Z   4
loop_
 _symmetry_equiv_pos_site_id
 _symmetry_equiv_pos_as_xyz
  1  'x, y, z'
loop_
 _atom_site_type_symbol
 _atom_site_label
 _atom_site_symmetry_multiplicity
 _atom_site_fract_x
 _atom_site_fract_y
 _atom_site_fract_z
 _atom_site_occupancy
  Pr  Pr0  1  0.017752  0.178568  0.403088  1
  Pr  Pr1  1  0.517752  0.321432  0.403088  1
  Pr  Pr2  1  0.482248  0.678568  0.903088  1
  Pr  Pr3  1  0.482248  0.678568  0.596912  1
  Pr  Pr4  1  0.982248  0.821432  0.596912  1
  Pr  Pr5  1  0.982248  0.821432  0.903088  1
  Pr  Pr6  1  0.517752  0.321432  0.096912  1
  Pr  Pr7  1  0.017752  0.178568  0.096912  1
  Ho  Ho8  1  0.325472  0.175248  0.624259  1
  Ho  Ho9  1  0.674528  0.824752  0.375741  1
  Ho  Ho10  1  0.174528  0.675248  0.375741  1
  Ho  Ho11  1  0.825472  0.324752  0.875741  1
  Ho  Ho12  1  0.825472  0.324752  0.624259  1
  Ho  Ho13  1  0.325472  0.175248  0.875741  1
  Ho  Ho14  1  0.174528  0.675248  0.124259  1
  Ho  Ho15  1  0.674528  0.824752  0.124259  1
  Sc  Sc16  1  0.658067  0.991813  0.750000  1
  Sc  Sc17  1  0.841933  0.491813  0.250000  1
  Sc  Sc18  1  0.341933  0.008187  0.250000  1
  Sc  Sc19  1  0.158067  0.508187  0.750000  1
  Ga  Ga20  1  0.280945  0.873473  0.750000  1
  Ga  Ga21  1  0.474855  0.608050  0.250000  1
  Ga  Ga22  1  0.025145  0.108050  0.750000  1
  Ga  Ga23  1  0.525145  0.391950  0.750000  1
  Ga  Ga24  1  0.153219  0.468429  0.541006  1
  Ga  Ga25  1  0.974855  0.891950  0.250000  1
  Ga  Ga26  1  0.719055  0.126527  0.250000  1
  Ga  Ga27  1  0.846781  0.531571  0.041006  1
  Ga  Ga28  1  0.346781  0.968429  0.041006  1
  Ga  Ga29  1  0.153219  0.468429  0.958994  1
  Ga  Ga30  1  0.653219  0.031571  0.541006  1
  Ga  Ga31  1  0.346781  0.968429  0.458994  1
  Ga  Ga32  1  0.846781  0.531571  0.458994  1
  Ga  Ga33  1  0.780945  0.626527  0.750000  1
  Ga  Ga34  1  0.219055  0.373473  0.250000  1
  Ga  Ga35  1  0.653219  0.031571  0.958994  1
