# generated using pymatgen
data_EuSb11
_symmetry_space_group_name_H-M   'P 1'
_cell_length_a   4.38456700
_cell_length_b   4.38456726
_cell_length_c   21.56605900
_cell_angle_alpha   90.00000000
_cell_angle_beta   90.00000000
_cell_angle_gamma   119.99999046
_symmetry_Int_Tables_number   1
_chemical_formula_structural   EuSb11
_chemical_formula_sum   'Eu1 Sb11'
_cell_volume   359.04998283
_cell_formula_units_Z   1
loop_
 _symmetry_equiv_pos_site_id
 _symmetry_equiv_pos_as_xyz
  1  'x, y, z'
loop_
 _atom_site_type_symbol
 _atom_site_label
 _atom_site_symmetry_multiplicity
 _atom_site_fract_x
 _atom_site_fract_y
 _atom_site_fract_z
 _atom_site_occupancy
  Eu  Eu0  1  0.000000  0.000000  0.000000  1
  Sb  Sb1  1  0.666667  0.333333  0.170758  1
  Sb  Sb2  1  0.333333  0.666667  0.829242  1
  Sb  Sb3  1  0.666667  0.333333  0.419139  1
  Sb  Sb4  1  0.333333  0.666667  0.580861  1
  Sb  Sb5  1  0.000000  0.000000  0.500000  1
  Sb  Sb6  1  0.666667  0.333333  0.907542  1
  Sb  Sb7  1  0.333333  0.666667  0.092458  1
  Sb  Sb8  1  0.000000  0.000000  0.743998  1
  Sb  Sb9  1  0.000000  0.000000  0.256002  1
  Sb  Sb10  1  0.666667  0.333333  0.664727  1
  Sb  Sb11  1  0.333333  0.666667  0.335273  1
