# generated using pymatgen
data_Lu4Al5Re2W
_symmetry_space_group_name_H-M   'P 1'
_cell_length_a   5.48592400
_cell_length_b   5.48718537
_cell_length_c   8.78237600
_cell_angle_alpha   90.00000000
_cell_angle_beta   90.00000000
_cell_angle_gamma   119.99239605
_symmetry_Int_Tables_number   1
_chemical_formula_structural   Lu4Al5Re2W
_chemical_formula_sum   'Lu4 Al5 Re2 W1'
_cell_volume   228.96829431
_cell_formula_units_Z   1
loop_
 _symmetry_equiv_pos_site_id
 _symmetry_equiv_pos_as_xyz
  1  'x, y, z'
loop_
 _atom_site_type_symbol
 _atom_site_label
 _atom_site_symmetry_multiplicity
 _atom_site_fract_x
 _atom_site_fract_y
 _atom_site_fract_z
 _atom_site_occupancy
  Lu  Lu0  1  0.666890  0.333781  0.053314  1
  Lu  Lu1  1  0.666890  0.333781  0.446687  1
  Lu  Lu2  1  0.333876  0.667751  0.557435  1
  Lu  Lu3  1  0.333876  0.667751  0.942565  1
  Al  Al4  1  0.150005  0.809133  0.250000  1
  Al  Al5  1  0.659128  0.809133  0.250000  1
  Al  Al6  1  0.331382  0.170463  0.750000  1
  Al  Al7  1  0.839083  0.170463  0.750000  1
  Al  Al8  1  0.838453  0.676906  0.750000  1
  Re  Re9  1  0.011160  0.022320  0.007901  1
  Re  Re10  1  0.011160  0.022320  0.492099  1
  W  W11  1  0.158096  0.316193  0.250000  1
