# generated using pymatgen
data_La2Ga5IrPt2
_symmetry_space_group_name_H-M   'P 1'
_cell_length_a   8.74320739
_cell_length_b   8.74294009
_cell_length_c   8.74350270
_cell_angle_alpha   140.18047323
_cell_angle_beta   107.61360310
_cell_angle_gamma   85.94800842
_symmetry_Int_Tables_number   1
_chemical_formula_structural   La2Ga5IrPt2
_chemical_formula_sum   'La4 Ga10 Ir2 Pt4'
_cell_volume   393.35063254
_cell_formula_units_Z   2
loop_
 _symmetry_equiv_pos_site_id
 _symmetry_equiv_pos_as_xyz
  1  'x, y, z'
loop_
 _atom_site_type_symbol
 _atom_site_label
 _atom_site_symmetry_multiplicity
 _atom_site_fract_x
 _atom_site_fract_y
 _atom_site_fract_z
 _atom_site_occupancy
  La  La0  1  0.092068  0.864209  0.227714  1
  La  La1  1  0.636499  0.364367  0.272295  1
  La  La2  1  0.907932  0.135791  0.772286  1
  La  La3  1  0.363501  0.635633  0.727705  1
  Ga  Ga4  1  0.290508  0.040520  0.750026  1
  Ga  Ga5  1  0.290478  0.540488  0.249967  1
  Ga  Ga6  1  0.000002  0.249994  0.250013  1
  Ga  Ga7  1  0.245011  0.405912  0.839262  1
  Ga  Ga8  1  0.754989  0.594088  0.160738  1
  Ga  Ga9  1  0.709522  0.459512  0.750033  1
  Ga  Ga10  1  0.566643  0.905773  0.660735  1
  Ga  Ga11  1  0.709492  0.959480  0.249974  1
  Ga  Ga12  1  0.433357  0.094227  0.339265  1
  Ga  Ga13  1  0.999998  0.750006  0.749987  1
  Ir  Ir14  1  0.500055  0.750033  0.249987  1
  Ir  Ir15  1  0.499945  0.249967  0.750013  1
  Pt  Pt16  1  0.044441  0.645397  0.399179  1
  Pt  Pt17  1  0.753767  0.854678  0.899084  1
  Pt  Pt18  1  0.955559  0.354603  0.600821  1
  Pt  Pt19  1  0.246233  0.145322  0.100916  1
