# generated using pymatgen
data_CaAgAu(SeO4)4
_symmetry_space_group_name_H-M   'P 1'
_cell_length_a   6.78511768
_cell_length_b   6.78511767
_cell_length_c   9.03262987
_cell_angle_alpha   74.96028145
_cell_angle_beta   74.96028462
_cell_angle_gamma   89.50451347
_symmetry_Int_Tables_number   1
_chemical_formula_structural   CaAgAu(SeO4)4
_chemical_formula_sum   'Ca1 Ag1 Au1 Se4 O16'
_cell_volume   387.07356525
_cell_formula_units_Z   1
loop_
 _symmetry_equiv_pos_site_id
 _symmetry_equiv_pos_as_xyz
  1  'x, y, z'
loop_
 _atom_site_type_symbol
 _atom_site_label
 _atom_site_symmetry_multiplicity
 _atom_site_fract_x
 _atom_site_fract_y
 _atom_site_fract_z
 _atom_site_occupancy
  Ca  Ca0  1  0.000000  0.000000  0.000000  1
  Ag  Ag1  1  0.500000  0.500000  0.500000  1
  Au  Au2  1  0.000000  0.000000  0.500000  1
  Se  Se3  1  0.084617  0.587258  0.740833  1
  Se  Se4  1  0.587258  0.084617  0.740833  1
  Se  Se5  1  0.915383  0.412742  0.259167  1
  Se  Se6  1  0.412742  0.915383  0.259167  1
  O  O7  1  0.345946  0.636383  0.669215  1
  O  O8  1  0.636383  0.345946  0.669215  1
  O  O9  1  0.654054  0.363617  0.330785  1
  O  O10  1  0.363617  0.654054  0.330785  1
  O  O11  1  0.013212  0.711739  0.876998  1
  O  O12  1  0.711739  0.013212  0.876998  1
  O  O13  1  0.986788  0.288261  0.123002  1
  O  O14  1  0.288261  0.986788  0.123002  1
  O  O15  1  0.979110  0.690189  0.582628  1
  O  O16  1  0.690189  0.979110  0.582628  1
  O  O17  1  0.020890  0.309811  0.417372  1
  O  O18  1  0.309811  0.020890  0.417372  1
  O  O19  1  0.025677  0.341425  0.788830  1
  O  O20  1  0.341425  0.025677  0.788830  1
  O  O21  1  0.974323  0.658575  0.211170  1
  O  O22  1  0.658575  0.974323  0.211170  1
