# generated using pymatgen
data_Sr4Fe5NiN6
_symmetry_space_group_name_H-M   'P 1'
_cell_length_a   6.54918713
_cell_length_b   6.54918758
_cell_length_c   6.30366884
_cell_angle_alpha   88.14652780
_cell_angle_beta   88.14652352
_cell_angle_gamma   118.02564600
_symmetry_Int_Tables_number   1
_chemical_formula_structural   Sr4Fe5NiN6
_chemical_formula_sum   'Sr4 Fe5 Ni1 N6'
_cell_volume   238.19960872
_cell_formula_units_Z   1
loop_
 _symmetry_equiv_pos_site_id
 _symmetry_equiv_pos_as_xyz
  1  'x, y, z'
loop_
 _atom_site_type_symbol
 _atom_site_label
 _atom_site_symmetry_multiplicity
 _atom_site_fract_x
 _atom_site_fract_y
 _atom_site_fract_z
 _atom_site_occupancy
  Sr  Sr0  1  0.823960  0.671599  0.894059  1
  Sr  Sr1  1  0.328401  0.176040  0.605941  1
  Sr  Sr2  1  0.168759  0.324835  0.099937  1
  Sr  Sr3  1  0.675165  0.831241  0.400063  1
  Fe  Fe4  1  0.192868  0.807132  0.250000  1
  Fe  Fe5  1  0.555497  0.154205  0.106416  1
  Fe  Fe6  1  0.429864  0.832517  0.894709  1
  Fe  Fe7  1  0.845795  0.444503  0.393584  1
  Fe  Fe8  1  0.167483  0.570136  0.605291  1
  Ni  Ni9  1  0.809191  0.190809  0.750000  1
  N  N10  1  0.415192  0.584808  0.750000  1
  N  N11  1  0.599145  0.400855  0.250000  1
  N  N12  1  0.014089  0.735057  0.497822  1
  N  N13  1  0.721357  0.011710  0.003391  1
  N  N14  1  0.988290  0.278643  0.496609  1
  N  N15  1  0.264943  0.985911  0.002178  1
