# generated using pymatgen
data_Li18CrCu5F36
_symmetry_space_group_name_H-M   'P 1'
_cell_length_a   8.46315179
_cell_length_b   8.46315144
_cell_length_c   10.10373600
_cell_angle_alpha   86.18345852
_cell_angle_beta   86.18345868
_cell_angle_gamma   61.54142321
_symmetry_Int_Tables_number   1
_chemical_formula_structural   Li18CrCu5F36
_chemical_formula_sum   'Li18 Cr1 Cu5 F36'
_cell_volume   634.31939042
_cell_formula_units_Z   1
loop_
 _symmetry_equiv_pos_site_id
 _symmetry_equiv_pos_as_xyz
  1  'x, y, z'
loop_
 _atom_site_type_symbol
 _atom_site_label
 _atom_site_symmetry_multiplicity
 _atom_site_fract_x
 _atom_site_fract_y
 _atom_site_fract_z
 _atom_site_occupancy
  Li  Li0  1  0.939687  0.658232  0.433202  1
  Li  Li1  1  0.995452  0.285109  0.234351  1
  Li  Li2  1  0.655542  0.941860  0.930580  1
  Li  Li3  1  0.878048  0.455825  0.945645  1
  Li  Li4  1  0.453386  0.877713  0.449537  1
  Li  Li5  1  0.677416  0.368071  0.459840  1
  Li  Li6  1  0.814371  0.185835  0.750229  1
  Li  Li7  1  0.627909  0.324820  0.039311  1
  Li  Li8  1  0.712577  0.008322  0.270112  1
  Li  Li9  1  0.289645  0.994814  0.733566  1
  Li  Li10  1  0.371006  0.673488  0.958677  1
  Li  Li11  1  0.186702  0.814042  0.251518  1
  Li  Li12  1  0.325447  0.629073  0.539986  1
  Li  Li13  1  0.539911  0.126086  0.552605  1
  Li  Li14  1  0.125214  0.539275  0.052499  1
  Li  Li15  1  0.342196  0.062536  0.066015  1
  Li  Li16  1  0.006008  0.710396  0.767891  1
  Li  Li17  1  0.059859  0.343778  0.568037  1
  Cr  Cr18  1  0.660661  0.665793  0.202952  1
  Cu  Cu19  1  0.000417  0.999757  0.000375  1
  Cu  Cu20  1  0.000172  0.999755  0.501165  1
  Cu  Cu21  1  0.665644  0.661008  0.703166  1
  Cu  Cu22  1  0.333909  0.339278  0.296651  1
  Cu  Cu23  1  0.339056  0.334473  0.795232  1
  F  F24  1  0.935173  0.919985  0.166549  1
  F  F25  1  0.919167  0.935119  0.667068  1
  F  F26  1  0.892283  0.568751  0.106242  1
  F  F27  1  0.894407  0.583999  0.606720  1
  F  F28  1  0.735322  0.774204  0.335448  1
  F  F29  1  0.773090  0.732007  0.836878  1
  F  F30  1  0.913458  0.239443  0.064190  1
  F  F31  1  0.580678  0.895442  0.103275  1
  F  F32  1  0.761989  0.439738  0.305802  1
  F  F33  1  0.907575  0.237935  0.566769  1
  F  F34  1  0.567310  0.892353  0.609539  1
  F  F35  1  0.756135  0.433740  0.801227  1
  F  F36  1  0.584922  0.568051  0.065147  1
  F  F37  1  0.760335  0.088428  0.437240  1
  F  F38  1  0.432357  0.756633  0.303939  1
  F  F39  1  0.570668  0.588008  0.564148  1
  F  F40  1  0.761900  0.093549  0.934442  1
  F  F41  1  0.442088  0.759628  0.804427  1
  F  F42  1  0.557709  0.240403  0.195468  1
  F  F43  1  0.238637  0.907088  0.066013  1
  F  F44  1  0.430355  0.411368  0.435262  1
  F  F45  1  0.566652  0.244350  0.697907  1
  F  F46  1  0.239067  0.912932  0.565520  1
  F  F47  1  0.411002  0.428836  0.934694  1
  F  F48  1  0.243702  0.566271  0.198584  1
  F  F49  1  0.432407  0.107626  0.390143  1
  F  F50  1  0.093364  0.761654  0.435453  1
  F  F51  1  0.240076  0.558453  0.694729  1
  F  F52  1  0.415109  0.105742  0.891210  1
  F  F53  1  0.087896  0.760300  0.936410  1
  F  F54  1  0.225672  0.268711  0.163143  1
  F  F55  1  0.269153  0.226462  0.661284  1
  F  F56  1  0.105360  0.416953  0.393738  1
  F  F57  1  0.108244  0.431975  0.888750  1
  F  F58  1  0.081366  0.063676  0.335103  1
  F  F59  1  0.065138  0.080850  0.834393  1
