# generated using pymatgen
data_Ba2EuSc2F12
_symmetry_space_group_name_H-M   'P 1'
_cell_length_a   9.42719500
_cell_length_b   5.67134500
_cell_length_c   9.42719500
_cell_angle_alpha   90.00000000
_cell_angle_beta   90.00000000
_cell_angle_gamma   90.00000000
_symmetry_Int_Tables_number   1
_chemical_formula_structural   Ba2EuSc2F12
_chemical_formula_sum   'Ba4 Eu2 Sc4 F24'
_cell_volume   504.02380442
_cell_formula_units_Z   2
loop_
 _symmetry_equiv_pos_site_id
 _symmetry_equiv_pos_as_xyz
  1  'x, y, z'
loop_
 _atom_site_type_symbol
 _atom_site_label
 _atom_site_symmetry_multiplicity
 _atom_site_fract_x
 _atom_site_fract_y
 _atom_site_fract_z
 _atom_site_occupancy
  Ba  Ba0  1  0.320194  0.500000  0.179807  1
  Ba  Ba1  1  0.820194  0.500000  0.320194  1
  Ba  Ba2  1  0.179807  0.500000  0.679806  1
  Ba  Ba3  1  0.679806  0.500000  0.820194  1
  Eu  Eu4  1  0.000000  0.000000  0.000000  1
  Eu  Eu5  1  0.500000  0.000000  0.500000  1
  Sc  Sc6  1  0.634497  0.000000  0.134497  1
  Sc  Sc7  1  0.134497  0.000000  0.365503  1
  Sc  Sc8  1  0.865503  0.000000  0.634497  1
  Sc  Sc9  1  0.365503  0.000000  0.865503  1
  F  F10  1  0.500000  0.219009  0.000000  1
  F  F11  1  0.500000  0.780991  0.000000  1
  F  F12  1  0.778437  0.247036  0.055324  1
  F  F13  1  0.778437  0.752963  0.055324  1
  F  F14  1  0.289850  0.000000  0.210150  1
  F  F15  1  0.055324  0.247036  0.221564  1
  F  F16  1  0.055324  0.752963  0.221564  1
  F  F17  1  0.555325  0.247036  0.278436  1
  F  F18  1  0.555325  0.752963  0.278436  1
  F  F19  1  0.789850  0.000000  0.289850  1
  F  F20  1  0.278436  0.247036  0.444676  1
  F  F21  1  0.278436  0.752963  0.444676  1
  F  F22  1  0.000000  0.219009  0.500000  1
  F  F23  1  0.000000  0.780991  0.500000  1
  F  F24  1  0.721563  0.247036  0.555325  1
  F  F25  1  0.721563  0.752963  0.555325  1
  F  F26  1  0.210150  0.000000  0.710150  1
  F  F27  1  0.444676  0.247036  0.721563  1
  F  F28  1  0.444676  0.752963  0.721563  1
  F  F29  1  0.944676  0.247036  0.778437  1
  F  F30  1  0.944676  0.752963  0.778437  1
  F  F31  1  0.710150  0.000000  0.789850  1
  F  F32  1  0.221564  0.247036  0.944676  1
  F  F33  1  0.221564  0.752963  0.944676  1
