# generated using pymatgen
data_Lu6Al16IrOs6
_symmetry_space_group_name_H-M   'P 1'
_cell_length_a   8.88895402
_cell_length_b   8.88895437
_cell_length_c   8.88895400
_cell_angle_alpha   60.00000138
_cell_angle_beta   60.00000007
_cell_angle_gamma   60.00000135
_symmetry_Int_Tables_number   1
_chemical_formula_structural   Lu6Al16IrOs6
_chemical_formula_sum   'Lu6 Al16 Ir1 Os6'
_cell_volume   496.63463841
_cell_formula_units_Z   1
loop_
 _symmetry_equiv_pos_site_id
 _symmetry_equiv_pos_as_xyz
  1  'x, y, z'
loop_
 _atom_site_type_symbol
 _atom_site_label
 _atom_site_symmetry_multiplicity
 _atom_site_fract_x
 _atom_site_fract_y
 _atom_site_fract_z
 _atom_site_occupancy
  Lu  Lu0  1  0.211418  0.788582  0.788582  1
  Lu  Lu1  1  0.788582  0.211418  0.211418  1
  Lu  Lu2  1  0.788582  0.211418  0.788582  1
  Lu  Lu3  1  0.788582  0.788582  0.211418  1
  Lu  Lu4  1  0.211418  0.788582  0.211418  1
  Lu  Lu5  1  0.211418  0.211418  0.788582  1
  Al  Al6  1  0.834382  0.834382  0.834382  1
  Al  Al7  1  0.834382  0.834382  0.496857  1
  Al  Al8  1  0.496857  0.834382  0.834382  1
  Al  Al9  1  0.834382  0.496857  0.834382  1
  Al  Al10  1  0.165618  0.165618  0.165618  1
  Al  Al11  1  0.165618  0.165618  0.503143  1
  Al  Al12  1  0.165618  0.503143  0.165618  1
  Al  Al13  1  0.503143  0.165618  0.165618  1
  Al  Al14  1  0.622292  0.622292  0.622292  1
  Al  Al15  1  0.622292  0.622292  0.133122  1
  Al  Al16  1  0.133122  0.622292  0.622292  1
  Al  Al17  1  0.622292  0.133122  0.622292  1
  Al  Al18  1  0.377708  0.377708  0.377708  1
  Al  Al19  1  0.377708  0.377708  0.866878  1
  Al  Al20  1  0.377708  0.866878  0.377708  1
  Al  Al21  1  0.866878  0.377708  0.377708  1
  Ir  Ir22  1  0.500000  0.500000  0.500000  1
  Os  Os23  1  0.000000  0.500000  0.500000  1
  Os  Os24  1  0.500000  0.000000  0.000000  1
  Os  Os25  1  0.500000  0.000000  0.500000  1
  Os  Os26  1  0.500000  0.500000  0.000000  1
  Os  Os27  1  0.000000  0.500000  0.000000  1
  Os  Os28  1  0.000000  0.000000  0.500000  1
