# generated using pymatgen
data_Ce4Ho(FeB3)2
_symmetry_space_group_name_H-M   'P 1'
_cell_length_a   5.30504616
_cell_length_b   5.30504787
_cell_length_c   8.66757185
_cell_angle_alpha   72.17994138
_cell_angle_beta   72.17995598
_cell_angle_gamma   59.99998777
_symmetry_Int_Tables_number   1
_chemical_formula_structural   Ce4Ho(FeB3)2
_chemical_formula_sum   'Ce4 Ho1 Fe2 B6'
_cell_volume   197.62527258
_cell_formula_units_Z   1
loop_
 _symmetry_equiv_pos_site_id
 _symmetry_equiv_pos_as_xyz
  1  'x, y, z'
loop_
 _atom_site_type_symbol
 _atom_site_label
 _atom_site_symmetry_multiplicity
 _atom_site_fract_x
 _atom_site_fract_y
 _atom_site_fract_z
 _atom_site_occupancy
  Ce  Ce0  1  0.748458  0.748458  0.754626  1
  Ce  Ce1  1  0.251542  0.251542  0.245374  1
  Ce  Ce2  1  0.584361  0.584361  0.246917  1
  Ce  Ce3  1  0.415639  0.415639  0.753083  1
  Ho  Ho4  1  0.000000  0.000000  0.000000  1
  Fe  Fe5  1  0.881109  0.881109  0.356676  1
  Fe  Fe6  1  0.118891  0.118891  0.643325  1
  B  B7  1  0.500000  0.167973  0.500000  1
  B  B8  1  0.832027  0.500000  0.500000  1
  B  B9  1  0.167973  0.832027  0.500000  1
  B  B10  1  0.167973  0.500000  0.500000  1
  B  B11  1  0.832027  0.167973  0.500000  1
  B  B12  1  0.500000  0.832027  0.500000  1
