# generated using pymatgen
data_Tb3YbLu4(B6Ru)4
_symmetry_space_group_name_H-M   'P 1'
_cell_length_a   3.62439900
_cell_length_b   9.07748626
_cell_length_c   11.47363400
_cell_angle_alpha   89.93236869
_cell_angle_beta   90.00000000
_cell_angle_gamma   90.00000000
_symmetry_Int_Tables_number   1
_chemical_formula_structural   Tb3YbLu4(B6Ru)4
_chemical_formula_sum   'Tb3 Yb1 Lu4 B24 Ru4'
_cell_volume   377.48725352
_cell_formula_units_Z   1
loop_
 _symmetry_equiv_pos_site_id
 _symmetry_equiv_pos_as_xyz
  1  'x, y, z'
loop_
 _atom_site_type_symbol
 _atom_site_label
 _atom_site_symmetry_multiplicity
 _atom_site_fract_x
 _atom_site_fract_y
 _atom_site_fract_z
 _atom_site_occupancy
  Tb  Tb0  1  0.000000  0.676417  0.584989  1
  Tb  Tb1  1  0.000000  0.822073  0.086401  1
  Tb  Tb2  1  0.000000  0.178497  0.914516  1
  Yb  Yb3  1  0.000000  0.322806  0.413746  1
  Lu  Lu4  1  0.000000  0.944427  0.371683  1
  Lu  Lu5  1  0.000000  0.057811  0.627384  1
  Lu  Lu6  1  0.000000  0.443175  0.129340  1
  Lu  Lu7  1  0.000000  0.555875  0.872245  1
  B  B8  1  0.500000  0.554056  0.432049  1
  B  B9  1  0.500000  0.445020  0.567511  1
  B  B10  1  0.500000  0.054129  0.067339  1
  B  B11  1  0.500000  0.945278  0.932042  1
  B  B12  1  0.500000  0.749730  0.418669  1
  B  B13  1  0.500000  0.250559  0.580882  1
  B  B14  1  0.500000  0.249343  0.081356  1
  B  B15  1  0.500000  0.750054  0.918945  1
  B  B16  1  0.500000  0.791905  0.266129  1
  B  B17  1  0.500000  0.209034  0.734039  1
  B  B18  1  0.500000  0.291072  0.234229  1
  B  B19  1  0.500000  0.708448  0.766092  1
  B  B20  1  0.500000  0.630616  0.185374  1
  B  B21  1  0.500000  0.369565  0.815642  1
  B  B22  1  0.500000  0.130698  0.315105  1
  B  B23  1  0.500000  0.869628  0.684384  1
  B  B24  1  0.500000  0.983221  0.212828  1
  B  B25  1  0.500000  0.017058  0.786410  1
  B  B26  1  0.500000  0.482703  0.287145  1
  B  B27  1  0.500000  0.516729  0.713374  1
  B  B28  1  0.500000  0.603731  0.028705  1
  B  B29  1  0.500000  0.396372  0.971908  1
  B  B30  1  0.500000  0.101979  0.471949  1
  B  B31  1  0.500000  0.897721  0.528041  1
  Ru  Ru32  1  0.000000  0.639827  0.319685  1
  Ru  Ru33  1  0.000000  0.361129  0.680849  1
  Ru  Ru34  1  0.000000  0.137910  0.179201  1
  Ru  Ru35  1  0.000000  0.861404  0.819811  1
