# generated using pymatgen
data_Pr10CdSn19Pt8
_symmetry_space_group_name_H-M   'P 1'
_cell_length_a   14.27810756
_cell_length_b   14.29372025
_cell_length_c   4.69908900
_cell_angle_alpha   90.00000000
_cell_angle_beta   90.00000000
_cell_angle_gamma   90.37966098
_symmetry_Int_Tables_number   1
_chemical_formula_structural   Pr10CdSn19Pt8
_chemical_formula_sum   'Pr10 Cd1 Sn19 Pt8'
_cell_volume   959.00321577
_cell_formula_units_Z   1
loop_
 _symmetry_equiv_pos_site_id
 _symmetry_equiv_pos_as_xyz
  1  'x, y, z'
loop_
 _atom_site_type_symbol
 _atom_site_label
 _atom_site_symmetry_multiplicity
 _atom_site_fract_x
 _atom_site_fract_y
 _atom_site_fract_z
 _atom_site_occupancy
  Pr  Pr0  1  0.502554  0.505287  0.000000  1
  Pr  Pr1  1  0.996635  0.998078  0.000000  1
  Pr  Pr2  1  0.680719  0.178533  0.500000  1
  Pr  Pr3  1  0.321048  0.817448  0.500000  1
  Pr  Pr4  1  0.180909  0.320822  0.500000  1
  Pr  Pr5  1  0.821532  0.680463  0.500000  1
  Pr  Pr6  1  0.891705  0.390866  0.500000  1
  Pr  Pr7  1  0.108893  0.608441  0.500000  1
  Pr  Pr8  1  0.391557  0.108159  0.500000  1
  Pr  Pr9  1  0.606826  0.896055  0.500000  1
  Cd  Cd10  1  0.649455  0.698214  0.000000  1
  Sn  Sn11  1  0.569096  0.069514  0.000000  1
  Sn  Sn12  1  0.429802  0.931339  0.000000  1
  Sn  Sn13  1  0.069627  0.430826  0.000000  1
  Sn  Sn14  1  0.932206  0.569450  0.000000  1
  Sn  Sn15  1  0.349597  0.295904  0.000000  1
  Sn  Sn16  1  0.150450  0.796562  0.000000  1
  Sn  Sn17  1  0.848184  0.202181  0.000000  1
  Sn  Sn18  1  0.294422  0.650137  0.000000  1
  Sn  Sn19  1  0.703539  0.346813  0.000000  1
  Sn  Sn20  1  0.202800  0.151494  0.000000  1
  Sn  Sn21  1  0.787875  0.843989  0.000000  1
  Sn  Sn22  1  0.662955  0.509104  0.500000  1
  Sn  Sn23  1  0.340176  0.501963  0.500000  1
  Sn  Sn24  1  0.161559  0.997506  0.500000  1
  Sn  Sn25  1  0.835851  0.996143  0.500000  1
  Sn  Sn26  1  0.510898  0.671297  0.500000  1
  Sn  Sn27  1  0.503886  0.339820  0.500000  1
  Sn  Sn28  1  0.000207  0.161756  0.500000  1
  Sn  Sn29  1  0.998157  0.837918  0.500000  1
  Pt  Pt30  1  0.748711  0.528525  0.000000  1
  Pt  Pt31  1  0.257515  0.463403  0.000000  1
  Pt  Pt32  1  0.243102  0.966302  0.000000  1
  Pt  Pt33  1  0.756669  0.033187  0.000000  1
  Pt  Pt34  1  0.459127  0.745119  0.000000  1
  Pt  Pt35  1  0.534116  0.255724  0.000000  1
  Pt  Pt36  1  0.034636  0.243551  0.000000  1
  Pt  Pt37  1  0.963005  0.758110  0.000000  1
