# generated using pymatgen
data_La12Ga3SiI12
_symmetry_space_group_name_H-M   'P 1'
_cell_length_a   11.17285795
_cell_length_b   11.06627305
_cell_length_c   11.06631723
_cell_angle_alpha   109.27505344
_cell_angle_beta   109.66648526
_cell_angle_gamma   109.66661655
_symmetry_Int_Tables_number   1
_chemical_formula_structural   La12Ga3SiI12
_chemical_formula_sum   'La12 Ga3 Si1 I12'
_cell_volume   1050.73932767
_cell_formula_units_Z   1
loop_
 _symmetry_equiv_pos_site_id
 _symmetry_equiv_pos_as_xyz
  1  'x, y, z'
loop_
 _atom_site_type_symbol
 _atom_site_label
 _atom_site_symmetry_multiplicity
 _atom_site_fract_x
 _atom_site_fract_y
 _atom_site_fract_z
 _atom_site_occupancy
  La  La0  1  0.471140  0.489086  0.233246  1
  La  La1  1  0.750004  0.237062  0.262942  1
  La  La2  1  0.749997  0.012499  0.487487  1
  La  La3  1  0.237486  0.474983  0.487495  1
  La  La4  1  0.262104  0.744157  0.233242  1
  La  La5  1  0.028870  0.266761  0.010914  1
  La  La6  1  0.012936  0.025872  0.262929  1
  La  La7  1  0.482053  0.744162  0.010917  1
  La  La8  1  0.487063  0.237068  0.474133  1
  La  La9  1  0.017946  0.489092  0.755852  1
  La  La10  1  0.262511  0.012504  0.025017  1
  La  La11  1  0.237893  0.266755  0.755844  1
  Ga  Ga12  1  0.250000  0.250264  0.249734  1
  Ga  Ga13  1  0.499736  0.999472  0.249734  1
  Ga  Ga14  1  0.000264  0.250264  0.500527  1
  Si  Si15  1  0.249999  0.500000  0.999999  1
  I  I16  1  0.250000  0.757604  0.742396  1
  I  I17  1  0.514522  0.507434  0.758034  1
  I  I18  1  0.985478  0.741965  0.992565  1
  I  I19  1  0.743514  0.250602  0.758037  1
  I  I20  1  0.992395  0.984792  0.742395  1
  I  I21  1  0.249999  0.993275  0.506722  1
  I  I22  1  0.756723  0.513448  0.506723  1
  I  I23  1  0.507089  0.250601  0.992563  1
  I  I24  1  0.756487  0.741964  0.249398  1
  I  I25  1  0.743274  0.993274  0.986550  1
  I  I26  1  0.992911  0.507435  0.249397  1
  I  I27  1  0.507604  0.757605  0.515209  1
