# generated using pymatgen
data_CeFePPt
_symmetry_space_group_name_H-M   'P 1'
_cell_length_a   9.19158600
_cell_length_b   9.19158630
_cell_length_c   3.98685600
_cell_angle_alpha   90.00000000
_cell_angle_beta   90.00000000
_cell_angle_gamma   156.12981811
_symmetry_Int_Tables_number   1
_chemical_formula_structural   CeFePPt
_chemical_formula_sum   'Ce2 Fe2 P2 Pt2'
_cell_volume   136.30378098
_cell_formula_units_Z   2
loop_
 _symmetry_equiv_pos_site_id
 _symmetry_equiv_pos_as_xyz
  1  'x, y, z'
loop_
 _atom_site_type_symbol
 _atom_site_label
 _atom_site_symmetry_multiplicity
 _atom_site_fract_x
 _atom_site_fract_y
 _atom_site_fract_z
 _atom_site_occupancy
  Ce  Ce0  1  0.115001  0.884999  0.750000  1
  Ce  Ce1  1  0.884999  0.115001  0.250000  1
  Fe  Fe2  1  0.251152  0.748848  0.250000  1
  Fe  Fe3  1  0.748848  0.251152  0.750000  1
  P  P4  1  0.311799  0.688201  0.750000  1
  P  P5  1  0.688201  0.311799  0.250000  1
  Pt  Pt6  1  0.552559  0.447441  0.250000  1
  Pt  Pt7  1  0.447441  0.552559  0.750000  1
