# generated using pymatgen
data_DyPaB6W
_symmetry_space_group_name_H-M   'P 1'
_cell_length_a   3.73698100
_cell_length_b   9.25377500
_cell_length_c   11.59846800
_cell_angle_alpha   90.00000000
_cell_angle_beta   90.00000000
_cell_angle_gamma   90.00000000
_symmetry_Int_Tables_number   1
_chemical_formula_structural   DyPaB6W
_chemical_formula_sum   'Dy4 Pa4 B24 W4'
_cell_volume   401.08872533
_cell_formula_units_Z   4
loop_
 _symmetry_equiv_pos_site_id
 _symmetry_equiv_pos_as_xyz
  1  'x, y, z'
loop_
 _atom_site_type_symbol
 _atom_site_label
 _atom_site_symmetry_multiplicity
 _atom_site_fract_x
 _atom_site_fract_y
 _atom_site_fract_z
 _atom_site_occupancy
  Dy  Dy0  1  0.000000  0.945961  0.374914  1
  Dy  Dy1  1  0.000000  0.054039  0.625086  1
  Dy  Dy2  1  0.000000  0.445961  0.125086  1
  Dy  Dy3  1  0.000000  0.554039  0.874914  1
  Pa  Pa4  1  0.000000  0.322248  0.412736  1
  Pa  Pa5  1  0.000000  0.677752  0.587264  1
  Pa  Pa6  1  0.000000  0.822248  0.087264  1
  Pa  Pa7  1  0.000000  0.177752  0.912736  1
  B  B8  1  0.500000  0.552372  0.433492  1
  B  B9  1  0.500000  0.447628  0.566508  1
  B  B10  1  0.500000  0.052372  0.066508  1
  B  B11  1  0.500000  0.947628  0.933492  1
  B  B12  1  0.500000  0.747725  0.421315  1
  B  B13  1  0.500000  0.252275  0.578685  1
  B  B14  1  0.500000  0.247725  0.078685  1
  B  B15  1  0.500000  0.752275  0.921315  1
  B  B16  1  0.500000  0.793861  0.265697  1
  B  B17  1  0.500000  0.206139  0.734303  1
  B  B18  1  0.500000  0.293861  0.234303  1
  B  B19  1  0.500000  0.706139  0.765697  1
  B  B20  1  0.500000  0.633971  0.185678  1
  B  B21  1  0.500000  0.366029  0.814322  1
  B  B22  1  0.500000  0.133971  0.314322  1
  B  B23  1  0.500000  0.866029  0.685678  1
  B  B24  1  0.500000  0.981386  0.212883  1
  B  B25  1  0.500000  0.018614  0.787117  1
  B  B26  1  0.500000  0.481386  0.287117  1
  B  B27  1  0.500000  0.518614  0.712883  1
  B  B28  1  0.500000  0.616518  0.032638  1
  B  B29  1  0.500000  0.383482  0.967362  1
  B  B30  1  0.500000  0.116518  0.467362  1
  B  B31  1  0.500000  0.883482  0.532638  1
  W  W32  1  0.000000  0.638541  0.322124  1
  W  W33  1  0.000000  0.361459  0.677876  1
  W  W34  1  0.000000  0.138541  0.177876  1
  W  W35  1  0.000000  0.861459  0.822124  1
