# generated using pymatgen
data_Tb5HoCo10(P3Ir2)4
_symmetry_space_group_name_H-M   'P 1'
_cell_length_a   3.79211800
_cell_length_b   10.81806243
_cell_length_c   12.53213964
_cell_angle_alpha   89.92439704
_cell_angle_beta   90.00000000
_cell_angle_gamma   90.00000000
_symmetry_Int_Tables_number   1
_chemical_formula_structural   Tb5HoCo10(P3Ir2)4
_chemical_formula_sum   'Tb5 Ho1 Co10 P12 Ir8'
_cell_volume   514.11014463
_cell_formula_units_Z   1
loop_
 _symmetry_equiv_pos_site_id
 _symmetry_equiv_pos_as_xyz
  1  'x, y, z'
loop_
 _atom_site_type_symbol
 _atom_site_label
 _atom_site_symmetry_multiplicity
 _atom_site_fract_x
 _atom_site_fract_y
 _atom_site_fract_z
 _atom_site_occupancy
  Tb  Tb0  1  0.000000  0.499572  0.521254  1
  Tb  Tb1  1  0.500000  0.000079  0.478786  1
  Tb  Tb2  1  0.500000  0.815109  0.196792  1
  Tb  Tb3  1  0.500000  0.184602  0.197283  1
  Tb  Tb4  1  0.000000  0.684929  0.803088  1
  Ho  Ho5  1  0.000000  0.315756  0.802695  1
  Co  Co6  1  0.000000  0.499873  0.991587  1
  Co  Co7  1  0.500000  0.000563  0.007773  1
  Co  Co8  1  0.500000  0.879970  0.716088  1
  Co  Co9  1  0.500000  0.121175  0.717119  1
  Co  Co10  1  0.000000  0.620075  0.283529  1
  Co  Co11  1  0.000000  0.379449  0.283901  1
  Co  Co12  1  0.500000  0.333028  0.995096  1
  Co  Co13  1  0.500000  0.666765  0.995662  1
  Co  Co14  1  0.000000  0.167693  0.003852  1
  Co  Co15  1  0.000000  0.833297  0.004169  1
  P  P16  1  0.500000  0.309547  0.625669  1
  P  P17  1  0.500000  0.689890  0.624940  1
  P  P18  1  0.000000  0.190113  0.375382  1
  P  P19  1  0.000000  0.809371  0.374928  1
  P  P20  1  0.500000  0.500010  0.894529  1
  P  P21  1  0.000000  0.000200  0.105082  1
  P  P22  1  0.500000  0.843515  0.897554  1
  P  P23  1  0.500000  0.157832  0.896998  1
  P  P24  1  0.000000  0.656669  0.102231  1
  P  P25  1  0.000000  0.343368  0.102657  1
  P  P26  1  0.500000  0.499789  0.343956  1
  P  P27  1  0.000000  0.999676  0.656002  1
  Ir  Ir28  1  0.500000  0.298100  0.426374  1
  Ir  Ir29  1  0.500000  0.701021  0.426211  1
  Ir  Ir30  1  0.000000  0.201642  0.574772  1
  Ir  Ir31  1  0.000000  0.798433  0.573868  1
  Ir  Ir32  1  0.500000  0.499214  0.159091  1
  Ir  Ir33  1  0.000000  0.000384  0.840649  1
  Ir  Ir34  1  0.500000  0.499213  0.709355  1
  Ir  Ir35  1  0.000000  0.000080  0.291077  1
