# generated using pymatgen
data_CaPrIr2O7
_symmetry_space_group_name_H-M   'P 1'
_cell_length_a   7.34936202
_cell_length_b   7.35999603
_cell_length_c   7.35999600
_cell_angle_alpha   60.33398596
_cell_angle_beta   60.04778960
_cell_angle_gamma   60.04778272
_symmetry_Int_Tables_number   1
_chemical_formula_structural   CaPrIr2O7
_chemical_formula_sum   'Ca2 Pr2 Ir4 O14'
_cell_volume   282.41575757
_cell_formula_units_Z   2
loop_
 _symmetry_equiv_pos_site_id
 _symmetry_equiv_pos_as_xyz
  1  'x, y, z'
loop_
 _atom_site_type_symbol
 _atom_site_label
 _atom_site_symmetry_multiplicity
 _atom_site_fract_x
 _atom_site_fract_y
 _atom_site_fract_z
 _atom_site_occupancy
  Ca  Ca0  1  0.125000  0.625000  0.625000  1
  Ca  Ca1  1  0.625000  0.625000  0.625000  1
  Pr  Pr2  1  0.625000  0.125000  0.625000  1
  Pr  Pr3  1  0.625000  0.625000  0.125000  1
  Ir  Ir4  1  0.625000  0.125000  0.125000  1
  Ir  Ir5  1  0.125000  0.625000  0.125000  1
  Ir  Ir6  1  0.125000  0.125000  0.625000  1
  Ir  Ir7  1  0.125000  0.125000  0.125000  1
  O  O8  1  0.201441  0.202113  0.798138  1
  O  O9  1  0.201441  0.798138  0.202113  1
  O  O10  1  0.455286  0.044714  0.044714  1
  O  O11  1  0.196953  0.803047  0.803047  1
  O  O12  1  0.053047  0.446953  0.446953  1
  O  O13  1  0.798308  0.798138  0.202113  1
  O  O14  1  0.451692  0.451862  0.047887  1
  O  O15  1  0.495656  0.504344  0.504344  1
  O  O16  1  0.048559  0.047887  0.451862  1
  O  O17  1  0.451692  0.047887  0.451862  1
  O  O18  1  0.048559  0.451862  0.047887  1
  O  O19  1  0.754344  0.745656  0.745656  1
  O  O20  1  0.798308  0.202113  0.798138  1
  O  O21  1  0.794714  0.205286  0.205286  1
