# generated using pymatgen
data_La4RuBr6
_symmetry_space_group_name_H-M   'P 1'
_cell_length_a   4.36706500
_cell_length_b   14.01796100
_cell_length_c   14.56567400
_cell_angle_alpha   90.00000000
_cell_angle_beta   90.00000000
_cell_angle_gamma   90.00000000
_symmetry_Int_Tables_number   1
_chemical_formula_structural   La4RuBr6
_chemical_formula_sum   'La8 Ru2 Br12'
_cell_volume   891.67191743
_cell_formula_units_Z   2
loop_
 _symmetry_equiv_pos_site_id
 _symmetry_equiv_pos_as_xyz
  1  'x, y, z'
loop_
 _atom_site_type_symbol
 _atom_site_label
 _atom_site_symmetry_multiplicity
 _atom_site_fract_x
 _atom_site_fract_y
 _atom_site_fract_z
 _atom_site_occupancy
  La  La0  1  0.500000  0.109319  0.350099  1
  La  La1  1  0.500000  0.890681  0.649901  1
  La  La2  1  0.500000  0.609319  0.149901  1
  La  La3  1  0.500000  0.390681  0.850099  1
  La  La4  1  0.000000  0.123806  0.584191  1
  La  La5  1  0.000000  0.876194  0.415809  1
  La  La6  1  0.000000  0.623806  0.915809  1
  La  La7  1  0.000000  0.376194  0.084191  1
  Ru  Ru8  1  0.500000  0.000000  0.500000  1
  Ru  Ru9  1  0.500000  0.500000  0.000000  1
  Br  Br10  1  0.500000  0.237798  0.173053  1
  Br  Br11  1  0.500000  0.762202  0.826947  1
  Br  Br12  1  0.500000  0.737798  0.326947  1
  Br  Br13  1  0.500000  0.262202  0.673053  1
  Br  Br14  1  0.000000  0.249606  0.414456  1
  Br  Br15  1  0.000000  0.750394  0.585544  1
  Br  Br16  1  0.000000  0.749606  0.085544  1
  Br  Br17  1  0.000000  0.250394  0.914456  1
  Br  Br18  1  0.000000  0.999650  0.244274  1
  Br  Br19  1  0.000000  0.000350  0.755726  1
  Br  Br20  1  0.000000  0.499650  0.255726  1
  Br  Br21  1  0.000000  0.500350  0.744274  1
