# generated using pymatgen
data_Nb6Ga4Co2CN
_symmetry_space_group_name_H-M   'P 1'
_cell_length_a   8.22689788
_cell_length_b   8.20467012
_cell_length_c   8.20482272
_cell_angle_alpha   59.83708637
_cell_angle_beta   59.90991060
_cell_angle_gamma   59.90858974
_symmetry_Int_Tables_number   1
_chemical_formula_structural   Nb6Ga4Co2CN
_chemical_formula_sum   'Nb12 Ga8 Co4 C2 N2'
_cell_volume   390.58742588
_cell_formula_units_Z   2
loop_
 _symmetry_equiv_pos_site_id
 _symmetry_equiv_pos_as_xyz
  1  'x, y, z'
loop_
 _atom_site_type_symbol
 _atom_site_label
 _atom_site_symmetry_multiplicity
 _atom_site_fract_x
 _atom_site_fract_y
 _atom_site_fract_z
 _atom_site_occupancy
  Nb  Nb0  1  0.690438  0.307889  0.692702  1
  Nb  Nb1  1  0.942866  0.557161  0.557109  1
  Nb  Nb2  1  0.559520  0.940470  0.940465  1
  Nb  Nb3  1  0.941063  0.557302  0.942132  1
  Nb  Nb4  1  0.559513  0.557326  0.942116  1
  Nb  Nb5  1  0.941034  0.942114  0.557299  1
  Nb  Nb6  1  0.690491  0.692697  0.307867  1
  Nb  Nb7  1  0.307135  0.692835  0.692896  1
  Nb  Nb8  1  0.690460  0.309541  0.309543  1
  Nb  Nb9  1  0.308955  0.307874  0.692714  1
  Nb  Nb10  1  0.559541  0.942118  0.557307  1
  Nb  Nb11  1  0.308941  0.692699  0.307867  1
  Ga  Ga12  1  0.332938  0.333556  0.333564  1
  Ga  Ga13  1  0.250065  0.916460  0.916451  1
  Ga  Ga14  1  0.916694  0.250489  0.916163  1
  Ga  Ga15  1  0.916648  0.916115  0.250518  1
  Ga  Ga16  1  0.333382  0.999518  0.333796  1
  Ga  Ga17  1  0.333307  0.333842  0.999494  1
  Ga  Ga18  1  0.999958  0.333614  0.333501  1
  Ga  Ga19  1  0.917018  0.916400  0.916513  1
  Co  Co20  1  0.124997  0.125000  0.125004  1
  Co  Co21  1  0.624995  0.125007  0.125001  1
  Co  Co22  1  0.125005  0.625000  0.124998  1
  Co  Co23  1  0.124998  0.124999  0.625001  1
  C  C24  1  0.625024  0.625028  0.624952  1
  C  C25  1  0.125002  0.624945  0.625027  1
  N  N26  1  0.625016  0.125004  0.624989  1
  N  N27  1  0.624999  0.624995  0.125011  1
