# generated using pymatgen
data_Ba6Sn8AsI
_symmetry_space_group_name_H-M   'P 1'
_cell_length_a   9.29937342
_cell_length_b   9.29937329
_cell_length_c   9.38189714
_cell_angle_alpha   119.70946217
_cell_angle_beta   119.70945512
_cell_angle_gamma   90.00000217
_symmetry_Int_Tables_number   1
_chemical_formula_structural   Ba6Sn8AsI
_chemical_formula_sum   'Ba6 Sn8 As1 I1'
_cell_volume   578.69977172
_cell_formula_units_Z   1
loop_
 _symmetry_equiv_pos_site_id
 _symmetry_equiv_pos_as_xyz
  1  'x, y, z'
loop_
 _atom_site_type_symbol
 _atom_site_label
 _atom_site_symmetry_multiplicity
 _atom_site_fract_x
 _atom_site_fract_y
 _atom_site_fract_z
 _atom_site_occupancy
  Ba  Ba0  1  0.236850  0.236850  0.473700  1
  Ba  Ba1  1  0.763150  0.763150  0.526300  1
  Ba  Ba2  1  0.680357  0.152572  0.000000  1
  Ba  Ba3  1  0.319643  0.847428  0.000000  1
  Ba  Ba4  1  0.847428  0.680357  0.000000  1
  Ba  Ba5  1  0.152572  0.319643  0.000000  1
  Sn  Sn6  1  0.336323  0.832793  0.389163  1
  Sn  Sn7  1  0.663677  0.167207  0.610837  1
  Sn  Sn8  1  0.052841  0.556371  0.389163  1
  Sn  Sn9  1  0.556371  0.336323  0.389163  1
  Sn  Sn10  1  0.167207  0.947159  0.610837  1
  Sn  Sn11  1  0.947159  0.443629  0.610837  1
  Sn  Sn12  1  0.443629  0.663677  0.610837  1
  Sn  Sn13  1  0.832793  0.052841  0.389163  1
  As  As14  1  0.000000  0.000000  0.000000  1
  I  I15  1  0.500000  0.500000  0.000000  1
