# generated using pymatgen
data_Tb16Cd4PdRu3
_symmetry_space_group_name_H-M   'P 1'
_cell_length_a   9.63228031
_cell_length_b   9.73865447
_cell_length_c   9.73865400
_cell_angle_alpha   60.00000158
_cell_angle_beta   59.63400795
_cell_angle_gamma   59.63400764
_symmetry_Int_Tables_number   1
_chemical_formula_structural   Tb16Cd4PdRu3
_chemical_formula_sum   'Tb16 Cd4 Pd1 Ru3'
_cell_volume   642.37292233
_cell_formula_units_Z   1
loop_
 _symmetry_equiv_pos_site_id
 _symmetry_equiv_pos_as_xyz
  1  'x, y, z'
loop_
 _atom_site_type_symbol
 _atom_site_label
 _atom_site_symmetry_multiplicity
 _atom_site_fract_x
 _atom_site_fract_y
 _atom_site_fract_z
 _atom_site_occupancy
  Tb  Tb0  1  0.343794  0.351970  0.351970  1
  Tb  Tb1  1  0.343794  0.351970  0.952267  1
  Tb  Tb2  1  0.343794  0.952267  0.351970  1
  Tb  Tb3  1  0.966265  0.344579  0.344579  1
  Tb  Tb4  1  0.816824  0.189303  0.189303  1
  Tb  Tb5  1  0.188713  0.810969  0.810969  1
  Tb  Tb6  1  0.188713  0.810969  0.189348  1
  Tb  Tb7  1  0.816824  0.189303  0.804570  1
  Tb  Tb8  1  0.188713  0.189348  0.810969  1
  Tb  Tb9  1  0.816824  0.804570  0.189303  1
  Tb  Tb10  1  0.933368  0.564130  0.564130  1
  Tb  Tb11  1  0.557423  0.937913  0.937913  1
  Tb  Tb12  1  0.557423  0.937913  0.566752  1
  Tb  Tb13  1  0.933368  0.564130  0.938373  1
  Tb  Tb14  1  0.557423  0.566752  0.937913  1
  Tb  Tb15  1  0.933368  0.938373  0.564130  1
  Cd  Cd16  1  0.581250  0.578901  0.578901  1
  Cd  Cd17  1  0.581250  0.578901  0.260947  1
  Cd  Cd18  1  0.581250  0.260947  0.578901  1
  Cd  Cd19  1  0.257084  0.580972  0.580972  1
  Pd  Pd20  1  0.572639  0.142454  0.142454  1
  Ru  Ru21  1  0.146632  0.137749  0.137749  1
  Ru  Ru22  1  0.146632  0.137749  0.577870  1
  Ru  Ru23  1  0.146632  0.577870  0.137749  1
