# generated using pymatgen
data_Ho3Zr(Al8Pt3)3
_symmetry_space_group_name_H-M   'P 1'
_cell_length_a   7.52357928
_cell_length_b   7.53196165
_cell_length_c   13.10608530
_cell_angle_alpha   84.55345561
_cell_angle_beta   79.03056663
_cell_angle_gamma   59.90715250
_symmetry_Int_Tables_number   1
_chemical_formula_structural   Ho3Zr(Al8Pt3)3
_chemical_formula_sum   'Ho3 Zr1 Al24 Pt9'
_cell_volume   630.84202278
_cell_formula_units_Z   1
loop_
 _symmetry_equiv_pos_site_id
 _symmetry_equiv_pos_as_xyz
  1  'x, y, z'
loop_
 _atom_site_type_symbol
 _atom_site_label
 _atom_site_symmetry_multiplicity
 _atom_site_fract_x
 _atom_site_fract_y
 _atom_site_fract_z
 _atom_site_occupancy
  Ho  Ho0  1  0.606370  0.831617  0.192173  1
  Ho  Ho1  1  0.733997  0.498682  0.807519  1
  Ho  Ho2  1  0.266332  0.501315  0.192392  1
  Zr  Zr3  1  0.393362  0.168281  0.809172  1
  Al  Al4  1  0.682124  0.836309  0.942172  1
  Al  Al5  1  0.316599  0.166433  0.054348  1
  Al  Al6  1  0.146419  0.832731  0.562231  1
  Al  Al7  1  0.853312  0.167258  0.438203  1
  Al  Al8  1  0.479697  0.166777  0.560528  1
  Al  Al9  1  0.519633  0.833771  0.441126  1
  Al  Al10  1  0.217351  0.165372  0.329645  1
  Al  Al11  1  0.779777  0.836851  0.672485  1
  Al  Al12  1  0.436047  0.504596  0.672769  1
  Al  Al13  1  0.562580  0.493549  0.329185  1
  Al  Al14  1  0.111178  0.159615  0.671701  1
  Al  Al15  1  0.890371  0.839868  0.330381  1
  Al  Al16  1  0.353755  0.496719  0.942252  1
  Al  Al17  1  0.647377  0.500373  0.055533  1
  Al  Al18  1  0.018582  0.167930  0.950670  1
  Al  Al19  1  0.984503  0.832471  0.047011  1
  Al  Al20  1  0.186817  0.499257  0.441167  1
  Al  Al21  1  0.813603  0.500431  0.558955  1
  Al  Al22  1  0.733738  0.163889  0.183523  1
  Al  Al23  1  0.266270  0.840876  0.816369  1
  Al  Al24  1  0.065964  0.626554  0.815062  1
  Al  Al25  1  0.938956  0.368488  0.184450  1
  Al  Al26  1  0.850935  0.041642  0.815641  1
  Al  Al27  1  0.144775  0.958590  0.183843  1
  Pt  Pt28  1  0.119501  0.491055  0.639268  1
  Pt  Pt29  1  0.879373  0.508592  0.361272  1
  Pt  Pt30  1  0.657400  0.171947  0.998927  1
  Pt  Pt31  1  0.343800  0.827831  0.999424  1
  Pt  Pt32  1  0.537474  0.166644  0.361615  1
  Pt  Pt33  1  0.463203  0.832579  0.639186  1
  Pt  Pt34  1  0.778117  0.176346  0.637825  1
  Pt  Pt35  1  0.221052  0.824536  0.362887  1
  Pt  Pt36  1  0.999652  0.500225  0.999089  1
