# generated using pymatgen
data_Ho2MnCo11As7
_symmetry_space_group_name_H-M   'P 1'
_cell_length_a   9.38189586
_cell_length_b   9.41267116
_cell_length_c   3.73441600
_cell_angle_alpha   90.00000000
_cell_angle_beta   90.00000000
_cell_angle_gamma   120.23847716
_symmetry_Int_Tables_number   1
_chemical_formula_structural   Ho2MnCo11As7
_chemical_formula_sum   'Ho2 Mn1 Co11 As7'
_cell_volume   284.91030909
_cell_formula_units_Z   1
loop_
 _symmetry_equiv_pos_site_id
 _symmetry_equiv_pos_as_xyz
  1  'x, y, z'
loop_
 _atom_site_type_symbol
 _atom_site_label
 _atom_site_symmetry_multiplicity
 _atom_site_fract_x
 _atom_site_fract_y
 _atom_site_fract_z
 _atom_site_occupancy
  Ho  Ho0  1  0.665827  0.334938  0.000000  1
  Ho  Ho1  1  0.998391  0.996946  0.500000  1
  Mn  Mn2  1  0.217214  0.449301  0.500000  1
  Co  Co3  1  0.765674  0.724238  0.000000  1
  Co  Co4  1  0.275642  0.039569  0.000000  1
  Co  Co5  1  0.959794  0.233315  0.000000  1
  Co  Co6  1  0.490321  0.946632  0.000000  1
  Co  Co7  1  0.055831  0.546591  0.000000  1
  Co  Co8  1  0.452103  0.512226  0.000000  1
  Co  Co9  1  0.713784  0.097487  0.500000  1
  Co  Co10  1  0.899769  0.614563  0.500000  1
  Co  Co11  1  0.384665  0.284245  0.500000  1
  Co  Co12  1  0.558648  0.765492  0.500000  1
  Co  Co13  1  0.232977  0.790396  0.500000  1
  As  As14  1  0.447723  0.072741  0.500000  1
  As  As15  1  0.921966  0.372031  0.500000  1
  As  As16  1  0.624611  0.552437  0.500000  1
  As  As17  1  0.742623  0.959618  0.000000  1
  As  As18  1  0.039580  0.781857  0.000000  1
  As  As19  1  0.217200  0.252390  0.000000  1
  As  As20  1  0.335655  0.672990  0.000000  1
