# generated using pymatgen
data_Er3Nb(Co4P3)2
_symmetry_space_group_name_H-M   'P 1'
_cell_length_a   3.69015900
_cell_length_b   10.60002500
_cell_length_c   12.28604300
_cell_angle_alpha   90.00000000
_cell_angle_beta   90.00000000
_cell_angle_gamma   90.00000000
_symmetry_Int_Tables_number   1
_chemical_formula_structural   Er3Nb(Co4P3)2
_chemical_formula_sum   'Er6 Nb2 Co16 P12'
_cell_volume   480.57812624
_cell_formula_units_Z   2
loop_
 _symmetry_equiv_pos_site_id
 _symmetry_equiv_pos_as_xyz
  1  'x, y, z'
loop_
 _atom_site_type_symbol
 _atom_site_label
 _atom_site_symmetry_multiplicity
 _atom_site_fract_x
 _atom_site_fract_y
 _atom_site_fract_z
 _atom_site_occupancy
  Er  Er0  1  0.000000  0.500000  0.527088  1
  Er  Er1  1  0.500000  0.000000  0.472912  1
  Er  Er2  1  0.500000  0.820869  0.205307  1
  Er  Er3  1  0.500000  0.179131  0.205307  1
  Er  Er4  1  0.000000  0.679131  0.794693  1
  Er  Er5  1  0.000000  0.320869  0.794693  1
  Nb  Nb6  1  0.500000  0.500000  0.157630  1
  Nb  Nb7  1  0.000000  0.000000  0.842370  1
  Co  Co8  1  0.500000  0.500000  0.701948  1
  Co  Co9  1  0.000000  0.000000  0.298052  1
  Co  Co10  1  0.000000  0.500000  0.985841  1
  Co  Co11  1  0.500000  0.000000  0.014159  1
  Co  Co12  1  0.500000  0.332399  0.991590  1
  Co  Co13  1  0.500000  0.667601  0.991590  1
  Co  Co14  1  0.000000  0.167601  0.008410  1
  Co  Co15  1  0.000000  0.832399  0.008410  1
  Co  Co16  1  0.500000  0.295403  0.432633  1
  Co  Co17  1  0.500000  0.704597  0.432633  1
  Co  Co18  1  0.000000  0.204597  0.567367  1
  Co  Co19  1  0.000000  0.795403  0.567367  1
  Co  Co20  1  0.500000  0.876766  0.704105  1
  Co  Co21  1  0.500000  0.123234  0.704105  1
  Co  Co22  1  0.000000  0.623234  0.295895  1
  Co  Co23  1  0.000000  0.376766  0.295895  1
  P  P24  1  0.500000  0.500000  0.881467  1
  P  P25  1  0.000000  0.000000  0.118533  1
  P  P26  1  0.500000  0.500000  0.357282  1
  P  P27  1  0.000000  0.000000  0.642718  1
  P  P28  1  0.500000  0.311761  0.615856  1
  P  P29  1  0.500000  0.688239  0.615856  1
  P  P30  1  0.000000  0.188239  0.384144  1
  P  P31  1  0.000000  0.811761  0.384144  1
  P  P32  1  0.500000  0.840755  0.892513  1
  P  P33  1  0.500000  0.159245  0.892513  1
  P  P34  1  0.000000  0.659245  0.107487  1
  P  P35  1  0.000000  0.340755  0.107487  1
