# generated using pymatgen
data_Li2La2PtRh
_symmetry_space_group_name_H-M   'P 1'
_cell_length_a   4.09004500
_cell_length_b   7.27018222
_cell_length_c   8.74261081
_cell_angle_alpha   90.01743569
_cell_angle_beta   90.00000000
_cell_angle_gamma   90.00000000
_symmetry_Int_Tables_number   1
_chemical_formula_structural   Li2La2PtRh
_chemical_formula_sum   'Li4 La4 Pt2 Rh2'
_cell_volume   259.96477656
_cell_formula_units_Z   2
loop_
 _symmetry_equiv_pos_site_id
 _symmetry_equiv_pos_as_xyz
  1  'x, y, z'
loop_
 _atom_site_type_symbol
 _atom_site_label
 _atom_site_symmetry_multiplicity
 _atom_site_fract_x
 _atom_site_fract_y
 _atom_site_fract_z
 _atom_site_occupancy
  Li  Li0  1  0.250000  0.625827  0.552335  1
  Li  Li1  1  0.750000  0.374173  0.447665  1
  Li  Li2  1  0.750000  0.875456  0.051905  1
  Li  Li3  1  0.250000  0.124544  0.948095  1
  La  La4  1  0.250000  0.552158  0.186531  1
  La  La5  1  0.750000  0.447842  0.813469  1
  La  La6  1  0.750000  0.957973  0.679602  1
  La  La7  1  0.250000  0.042027  0.320398  1
  Pt  Pt8  1  0.250000  0.745242  0.877692  1
  Pt  Pt9  1  0.750000  0.254758  0.122308  1
  Rh  Rh10  1  0.750000  0.763032  0.370797  1
  Rh  Rh11  1  0.250000  0.236968  0.629203  1
