# generated using pymatgen
data_Y2PPd14
_symmetry_space_group_name_H-M   'P 1'
_cell_length_a   8.92135200
_cell_length_b   8.92135200
_cell_length_c   7.07922300
_cell_angle_alpha   90.00000000
_cell_angle_beta   90.00000000
_cell_angle_gamma   90.00000000
_symmetry_Int_Tables_number   1
_chemical_formula_structural   Y2PPd14
_chemical_formula_sum   'Y4 P2 Pd28'
_cell_volume   563.43905044
_cell_formula_units_Z   2
loop_
 _symmetry_equiv_pos_site_id
 _symmetry_equiv_pos_as_xyz
  1  'x, y, z'
loop_
 _atom_site_type_symbol
 _atom_site_label
 _atom_site_symmetry_multiplicity
 _atom_site_fract_x
 _atom_site_fract_y
 _atom_site_fract_z
 _atom_site_occupancy
  Y  Y0  1  0.500000  0.000000  0.933343  1
  Y  Y1  1  0.000000  0.500000  0.066657  1
  Y  Y2  1  0.000000  0.000000  0.500000  1
  Y  Y3  1  0.500000  0.500000  0.500000  1
  P  P4  1  0.500000  0.000000  0.448355  1
  P  P5  1  0.000000  0.500000  0.551645  1
  Pd  Pd6  1  0.336522  0.836522  0.614225  1
  Pd  Pd7  1  0.336522  0.163478  0.614225  1
  Pd  Pd8  1  0.663478  0.836522  0.614225  1
  Pd  Pd9  1  0.663478  0.163478  0.614225  1
  Pd  Pd10  1  0.163478  0.663478  0.385775  1
  Pd  Pd11  1  0.163478  0.336522  0.385775  1
  Pd  Pd12  1  0.836522  0.663478  0.385775  1
  Pd  Pd13  1  0.836522  0.336522  0.385775  1
  Pd  Pd14  1  0.500000  0.771732  0.258130  1
  Pd  Pd15  1  0.500000  0.228268  0.258130  1
  Pd  Pd16  1  0.271732  0.000000  0.258130  1
  Pd  Pd17  1  0.728268  0.000000  0.258130  1
  Pd  Pd18  1  0.000000  0.728268  0.741870  1
  Pd  Pd19  1  0.000000  0.271732  0.741870  1
  Pd  Pd20  1  0.228268  0.500000  0.741870  1
  Pd  Pd21  1  0.771732  0.500000  0.741870  1
  Pd  Pd22  1  0.500000  0.349080  0.852965  1
  Pd  Pd23  1  0.500000  0.650920  0.852965  1
  Pd  Pd24  1  0.849080  0.000000  0.852965  1
  Pd  Pd25  1  0.150920  0.000000  0.852965  1
  Pd  Pd26  1  0.000000  0.150920  0.147035  1
  Pd  Pd27  1  0.000000  0.849080  0.147035  1
  Pd  Pd28  1  0.650920  0.500000  0.147035  1
  Pd  Pd29  1  0.349080  0.500000  0.147035  1
  Pd  Pd30  1  0.250000  0.750000  0.000000  1
  Pd  Pd31  1  0.250000  0.250000  0.000000  1
  Pd  Pd32  1  0.750000  0.750000  0.000000  1
  Pd  Pd33  1  0.750000  0.250000  0.000000  1
