# generated using pymatgen
data_Sn14Ru5Pt
_symmetry_space_group_name_H-M   'P 1'
_cell_length_a   8.22858196
_cell_length_b   8.22858342
_cell_length_c   8.22858205
_cell_angle_alpha   109.62015303
_cell_angle_beta   109.17378764
_cell_angle_gamma   109.62013645
_symmetry_Int_Tables_number   1
_chemical_formula_structural   Sn14Ru5Pt
_chemical_formula_sum   'Sn14 Ru5 Pt1'
_cell_volume   428.88848092
_cell_formula_units_Z   1
loop_
 _symmetry_equiv_pos_site_id
 _symmetry_equiv_pos_as_xyz
  1  'x, y, z'
loop_
 _atom_site_type_symbol
 _atom_site_label
 _atom_site_symmetry_multiplicity
 _atom_site_fract_x
 _atom_site_fract_y
 _atom_site_fract_z
 _atom_site_occupancy
  Sn  Sn0  1  0.252655  0.746481  0.506174  1
  Sn  Sn1  1  0.759693  0.253519  0.506174  1
  Sn  Sn2  1  0.750395  0.500000  0.250395  1
  Sn  Sn3  1  0.250395  0.500000  0.750395  1
  Sn  Sn4  1  0.506174  0.746481  0.252655  1
  Sn  Sn5  1  0.506174  0.253519  0.759693  1
  Sn  Sn6  1  0.992910  0.000000  0.324019  1
  Sn  Sn7  1  0.675812  0.000000  0.999714  1
  Sn  Sn8  1  0.992910  0.668891  0.992910  1
  Sn  Sn9  1  0.324019  0.331109  0.324019  1
  Sn  Sn10  1  0.999714  0.323902  0.999714  1
  Sn  Sn11  1  0.675812  0.676098  0.675812  1
  Sn  Sn12  1  0.324019  0.000000  0.992910  1
  Sn  Sn13  1  0.999714  0.000000  0.675812  1
  Ru  Ru14  1  0.999722  0.344164  0.343886  1
  Ru  Ru15  1  0.999722  0.655836  0.655558  1
  Ru  Ru16  1  0.343886  0.344164  0.999722  1
  Ru  Ru17  1  0.655558  0.655836  0.999722  1
  Ru  Ru18  1  0.650126  0.000000  0.650126  1
  Pt  Pt19  1  0.340591  0.000000  0.340591  1
