# generated using pymatgen
data_Tm8Sc4InCo4Os
_symmetry_space_group_name_H-M   'P 1'
_cell_length_a   8.02608379
_cell_length_b   8.02608379
_cell_length_c   8.02608281
_cell_angle_alpha   110.97650999
_cell_angle_beta   111.57477593
_cell_angle_gamma   105.92027682
_symmetry_Int_Tables_number   1
_chemical_formula_structural   Tm8Sc4InCo4Os
_chemical_formula_sum   'Tm8 Sc4 In1 Co4 Os1'
_cell_volume   396.85660246
_cell_formula_units_Z   1
loop_
 _symmetry_equiv_pos_site_id
 _symmetry_equiv_pos_as_xyz
  1  'x, y, z'
loop_
 _atom_site_type_symbol
 _atom_site_label
 _atom_site_symmetry_multiplicity
 _atom_site_fract_x
 _atom_site_fract_y
 _atom_site_fract_z
 _atom_site_occupancy
  Tm  Tm0  1  0.185923  0.277519  0.463441  1
  Tm  Tm1  1  0.814077  0.722481  0.536559  1
  Tm  Tm2  1  0.185923  0.722481  0.908404  1
  Tm  Tm3  1  0.814077  0.277519  0.091596  1
  Tm  Tm4  1  0.312539  0.615701  0.303161  1
  Tm  Tm5  1  0.687461  0.384299  0.696839  1
  Tm  Tm6  1  0.312539  0.009377  0.696839  1
  Tm  Tm7  1  0.687461  0.990623  0.303161  1
  Sc  Sc8  1  0.413053  0.219884  0.193168  1
  Sc  Sc9  1  0.586947  0.780116  0.806832  1
  Sc  Sc10  1  0.026716  0.219884  0.806832  1
  Sc  Sc11  1  0.973284  0.780116  0.193168  1
  In  In12  1  0.500000  0.500000  0.000000  1
  Co  Co13  1  0.368856  0.000000  0.368856  1
  Co  Co14  1  0.631144  0.000000  0.631144  1
  Co  Co15  1  0.112925  0.612925  0.500000  1
  Co  Co16  1  0.887075  0.387075  0.500000  1
  Os  Os17  1  0.000000  0.000000  0.000000  1
