# generated using pymatgen
data_Sr6Sc3Fe(IrO9)2
_symmetry_space_group_name_H-M   'P 1'
_cell_length_a   9.87400184
_cell_length_b   9.87400100
_cell_length_c   5.68803911
_cell_angle_alpha   73.34278823
_cell_angle_beta   73.34278129
_cell_angle_gamma   48.78983596
_symmetry_Int_Tables_number   1
_chemical_formula_structural   Sr6Sc3Fe(IrO9)2
_chemical_formula_sum   'Sr6 Sc3 Fe1 Ir2 O18'
_cell_volume   395.99131410
_cell_formula_units_Z   1
loop_
 _symmetry_equiv_pos_site_id
 _symmetry_equiv_pos_as_xyz
  1  'x, y, z'
loop_
 _atom_site_type_symbol
 _atom_site_label
 _atom_site_symmetry_multiplicity
 _atom_site_fract_x
 _atom_site_fract_y
 _atom_site_fract_z
 _atom_site_occupancy
  Sr  Sr0  1  0.919136  0.400306  0.839701  1
  Sr  Sr1  1  0.232547  0.767453  0.500000  1
  Sr  Sr2  1  0.599694  0.080864  0.160299  1
  Sr  Sr3  1  0.767453  0.232547  0.500000  1
  Sr  Sr4  1  0.080864  0.599694  0.160299  1
  Sr  Sr5  1  0.400306  0.919136  0.839701  1
  Sc  Sc6  1  0.500000  0.500000  0.000000  1
  Sc  Sc7  1  0.834680  0.834680  0.665725  1
  Sc  Sc8  1  0.165320  0.165320  0.334275  1
  Fe  Fe9  1  0.000000  0.000000  0.000000  1
  Ir  Ir10  1  0.333447  0.333447  0.666096  1
  Ir  Ir11  1  0.666553  0.666553  0.333904  1
  O  O12  1  0.428915  0.908114  0.331006  1
  O  O13  1  0.749493  0.250507  0.000000  1
  O  O14  1  0.091886  0.571085  0.668994  1
  O  O15  1  0.908114  0.428915  0.331006  1
  O  O16  1  0.250507  0.749493  0.000000  1
  O  O17  1  0.571085  0.091886  0.668994  1
  O  O18  1  0.073566  0.073566  0.205902  1
  O  O19  1  0.397445  0.397445  0.888033  1
  O  O20  1  0.729626  0.729626  0.556753  1
  O  O21  1  0.602555  0.602555  0.111967  1
  O  O22  1  0.926434  0.926434  0.794098  1
  O  O23  1  0.270374  0.270374  0.443247  1
  O  O24  1  0.571589  0.571589  0.619722  1
  O  O25  1  0.904073  0.904073  0.313233  1
  O  O26  1  0.239454  0.239454  0.952961  1
  O  O27  1  0.095927  0.095927  0.686767  1
  O  O28  1  0.428411  0.428411  0.380278  1
  O  O29  1  0.760546  0.760546  0.047039  1
