# generated using pymatgen
data_Li4LuAl3H8
_symmetry_space_group_name_H-M   'P 1'
_cell_length_a   6.06902524
_cell_length_b   5.84608847
_cell_length_c   5.84626312
_cell_angle_alpha   109.05792694
_cell_angle_beta   110.16568703
_cell_angle_gamma   107.72273005
_symmetry_Int_Tables_number   1
_chemical_formula_structural   Li4LuAl3H8
_chemical_formula_sum   'Li4 Lu1 Al3 H8'
_cell_volume   162.44778611
_cell_formula_units_Z   1
loop_
 _symmetry_equiv_pos_site_id
 _symmetry_equiv_pos_as_xyz
  1  'x, y, z'
loop_
 _atom_site_type_symbol
 _atom_site_label
 _atom_site_symmetry_multiplicity
 _atom_site_fract_x
 _atom_site_fract_y
 _atom_site_fract_z
 _atom_site_occupancy
  Li  Li0  1  0.875000  0.625000  0.750000  1
  Li  Li1  1  0.875000  0.125000  0.250000  1
  Li  Li2  1  0.875000  0.125000  0.750000  1
  Li  Li3  1  0.375000  0.125000  0.250000  1
  Lu  Lu4  1  0.375000  0.625000  0.750000  1
  Al  Al5  1  0.375000  0.125000  0.750000  1
  Al  Al6  1  0.375000  0.625000  0.250000  1
  Al  Al7  1  0.875000  0.625000  0.250000  1
  H  H8  1  0.645117  0.066136  0.907325  1
  H  H9  1  0.105884  0.511219  0.919234  1
  H  H10  1  0.544026  0.900922  0.208560  1
  H  H11  1  0.104883  0.183864  0.592675  1
  H  H12  1  0.545528  0.335674  0.644506  1
  H  H13  1  0.644116  0.738781  0.580766  1
  H  H14  1  0.205974  0.349078  0.291440  1
  H  H15  1  0.204472  0.914326  0.855494  1
