# generated using pymatgen
data_Li4DyTm3Si8
_symmetry_space_group_name_H-M   'P 1'
_cell_length_a   3.76766700
_cell_length_b   7.59066115
_cell_length_c   10.07098498
_cell_angle_alpha   89.99996314
_cell_angle_beta   90.00000000
_cell_angle_gamma   90.00000000
_symmetry_Int_Tables_number   1
_chemical_formula_structural   Li4DyTm3Si8
_chemical_formula_sum   'Li4 Dy1 Tm3 Si8'
_cell_volume   288.02094034
_cell_formula_units_Z   1
loop_
 _symmetry_equiv_pos_site_id
 _symmetry_equiv_pos_as_xyz
  1  'x, y, z'
loop_
 _atom_site_type_symbol
 _atom_site_label
 _atom_site_symmetry_multiplicity
 _atom_site_fract_x
 _atom_site_fract_y
 _atom_site_fract_z
 _atom_site_occupancy
  Li  Li0  1  0.250000  0.990146  0.393641  1
  Li  Li1  1  0.750000  0.013729  0.607567  1
  Li  Li2  1  0.250000  0.486389  0.106701  1
  Li  Li3  1  0.750000  0.511714  0.894811  1
  Dy  Dy4  1  0.750000  0.362088  0.362687  1
  Tm  Tm5  1  0.250000  0.135546  0.862339  1
  Tm  Tm6  1  0.750000  0.861103  0.136831  1
  Tm  Tm7  1  0.250000  0.638559  0.636648  1
  Si  Si8  1  0.750000  0.262052  0.064534  1
  Si  Si9  1  0.250000  0.733853  0.933677  1
  Si  Si10  1  0.750000  0.768134  0.433558  1
  Si  Si11  1  0.250000  0.236116  0.568092  1
  Si  Si12  1  0.750000  0.843877  0.818428  1
  Si  Si13  1  0.250000  0.152631  0.179503  1
  Si  Si14  1  0.750000  0.346997  0.682182  1
  Si  Si15  1  0.250000  0.657064  0.318800  1
