# generated using pymatgen
data_Ce3Tm(AlIr)4
_symmetry_space_group_name_H-M   'P 1'
_cell_length_a   6.84777357
_cell_length_b   4.32796500
_cell_length_c   7.93031402
_cell_angle_alpha   90.00000000
_cell_angle_beta   89.44777114
_cell_angle_gamma   90.00000000
_symmetry_Int_Tables_number   1
_chemical_formula_structural   Ce3Tm(AlIr)4
_chemical_formula_sum   'Ce3 Tm1 Al4 Ir4'
_cell_volume   235.01920018
_cell_formula_units_Z   1
loop_
 _symmetry_equiv_pos_site_id
 _symmetry_equiv_pos_as_xyz
  1  'x, y, z'
loop_
 _atom_site_type_symbol
 _atom_site_label
 _atom_site_symmetry_multiplicity
 _atom_site_fract_x
 _atom_site_fract_y
 _atom_site_fract_z
 _atom_site_occupancy
  Ce  Ce0  1  0.464223  0.250000  0.316219  1
  Ce  Ce1  1  0.033700  0.750000  0.822038  1
  Ce  Ce2  1  0.536368  0.750000  0.683068  1
  Tm  Tm3  1  0.963365  0.250000  0.183320  1
  Al  Al4  1  0.864716  0.250000  0.557893  1
  Al  Al5  1  0.360525  0.250000  0.940883  1
  Al  Al6  1  0.133495  0.750000  0.435222  1
  Al  Al7  1  0.642052  0.750000  0.064274  1
  Ir  Ir8  1  0.738299  0.250000  0.879792  1
  Ir  Ir9  1  0.239264  0.250000  0.618616  1
  Ir  Ir10  1  0.262412  0.750000  0.116353  1
  Ir  Ir11  1  0.761581  0.750000  0.382322  1
