# generated using pymatgen
data_Lu5In4RuPt
_symmetry_space_group_name_H-M   'P 1'
_cell_length_a   3.54287200
_cell_length_b   7.96589219
_cell_length_c   18.10481428
_cell_angle_alpha   89.88319750
_cell_angle_beta   90.00000000
_cell_angle_gamma   90.00000000
_symmetry_Int_Tables_number   1
_chemical_formula_structural   Lu5In4RuPt
_chemical_formula_sum   'Lu10 In8 Ru2 Pt2'
_cell_volume   510.95547651
_cell_formula_units_Z   2
loop_
 _symmetry_equiv_pos_site_id
 _symmetry_equiv_pos_as_xyz
  1  'x, y, z'
loop_
 _atom_site_type_symbol
 _atom_site_label
 _atom_site_symmetry_multiplicity
 _atom_site_fract_x
 _atom_site_fract_y
 _atom_site_fract_z
 _atom_site_occupancy
  Lu  Lu0  1  0.000000  0.115753  0.412401  1
  Lu  Lu1  1  0.000000  0.884247  0.587599  1
  Lu  Lu2  1  0.000000  0.382415  0.914506  1
  Lu  Lu3  1  0.000000  0.617585  0.085494  1
  Lu  Lu4  1  0.000000  0.237767  0.222348  1
  Lu  Lu5  1  0.000000  0.762233  0.777652  1
  Lu  Lu6  1  0.000000  0.248815  0.719889  1
  Lu  Lu7  1  0.000000  0.751185  0.280111  1
  Lu  Lu8  1  0.000000  0.000000  0.000000  1
  Lu  Lu9  1  0.000000  0.500000  0.500000  1
  In  In10  1  0.500000  0.423581  0.352334  1
  In  In11  1  0.500000  0.576419  0.647666  1
  In  In12  1  0.500000  0.070937  0.850524  1
  In  In13  1  0.500000  0.929063  0.149476  1
  In  In14  1  0.500000  0.291233  0.065387  1
  In  In15  1  0.500000  0.708767  0.934613  1
  In  In16  1  0.500000  0.206520  0.567311  1
  In  In17  1  0.500000  0.793480  0.432689  1
  Ru  Ru18  1  0.500000  0.023688  0.303504  1
  Ru  Ru19  1  0.500000  0.976312  0.696496  1
  Pt  Pt20  1  0.500000  0.474601  0.803785  1
  Pt  Pt21  1  0.500000  0.525399  0.196215  1
