# generated using pymatgen
data_Ho16In2Hg2IrRh3
_symmetry_space_group_name_H-M   'P 1'
_cell_length_a   9.56179862
_cell_length_b   9.58330232
_cell_length_c   9.56234000
_cell_angle_alpha   60.07233850
_cell_angle_beta   59.99813396
_cell_angle_gamma   60.16266996
_symmetry_Int_Tables_number   1
_chemical_formula_structural   Ho16In2Hg2IrRh3
_chemical_formula_sum   'Ho16 In2 Hg2 Ir1 Rh3'
_cell_volume   620.67798280
_cell_formula_units_Z   1
loop_
 _symmetry_equiv_pos_site_id
 _symmetry_equiv_pos_as_xyz
  1  'x, y, z'
loop_
 _atom_site_type_symbol
 _atom_site_label
 _atom_site_symmetry_multiplicity
 _atom_site_fract_x
 _atom_site_fract_y
 _atom_site_fract_z
 _atom_site_occupancy
  Ho  Ho0  1  0.186633  0.186696  0.813336  1
  Ho  Ho1  1  0.600286  0.600664  0.199381  1
  Ho  Ho2  1  0.438775  0.059840  0.441137  1
  Ho  Ho3  1  0.440384  0.440569  0.059523  1
  Ho  Ho4  1  0.812573  0.184587  0.813902  1
  Ho  Ho5  1  0.185088  0.812542  0.189366  1
  Ho  Ho6  1  0.438775  0.059840  0.060248  1
  Ho  Ho7  1  0.185088  0.812542  0.813004  1
  Ho  Ho8  1  0.060094  0.438839  0.060230  1
  Ho  Ho9  1  0.811974  0.812808  0.187609  1
  Ho  Ho10  1  0.197079  0.601841  0.600540  1
  Ho  Ho11  1  0.060094  0.438839  0.440837  1
  Ho  Ho12  1  0.061118  0.060664  0.439109  1
  Ho  Ho13  1  0.812573  0.184587  0.188938  1
  Ho  Ho14  1  0.601646  0.196736  0.600809  1
  Ho  Ho15  1  0.600286  0.600664  0.599669  1
  In  In16  1  0.503428  0.832444  0.832064  1
  In  In17  1  0.832332  0.503473  0.832098  1
  Hg  Hg18  1  0.835368  0.835443  0.835946  1
  Hg  Hg19  1  0.835368  0.835443  0.493245  1
  Ir  Ir20  1  0.392364  0.823328  0.392154  1
  Rh  Rh21  1  0.392725  0.392613  0.392676  1
  Rh  Rh22  1  0.823224  0.392386  0.392196  1
  Rh  Rh23  1  0.392725  0.392613  0.821987  1
