# generated using pymatgen
data_Nd2Ge6AsRh12
_symmetry_space_group_name_H-M   'P 1'
_cell_length_a   10.03652918
_cell_length_b   10.01704319
_cell_length_c   3.95823836
_cell_angle_alpha   90.14179255
_cell_angle_beta   90.03599669
_cell_angle_gamma   120.13070326
_symmetry_Int_Tables_number   1
_chemical_formula_structural   Nd2Ge6AsRh12
_chemical_formula_sum   'Nd2 Ge6 As1 Rh12'
_cell_volume   344.17540432
_cell_formula_units_Z   1
loop_
 _symmetry_equiv_pos_site_id
 _symmetry_equiv_pos_as_xyz
  1  'x, y, z'
loop_
 _atom_site_type_symbol
 _atom_site_label
 _atom_site_symmetry_multiplicity
 _atom_site_fract_x
 _atom_site_fract_y
 _atom_site_fract_z
 _atom_site_occupancy
  Nd  Nd0  1  0.334827  0.667775  0.748738  1
  Nd  Nd1  1  0.665564  0.331762  0.251595  1
  Ge  Ge2  1  0.999912  0.000518  0.496914  1
  Ge  Ge3  1  0.399935  0.288763  0.750375  1
  Ge  Ge4  1  0.710483  0.111264  0.750319  1
  Ge  Ge5  1  0.113028  0.401334  0.250273  1
  Ge  Ge6  1  0.598976  0.711387  0.250050  1
  Ge  Ge7  1  0.289916  0.889099  0.249676  1
  As  As8  1  0.887829  0.598826  0.750812  1
  Rh  Rh9  1  0.620675  0.558090  0.751263  1
  Rh  Rh10  1  0.441202  0.060775  0.751748  1
  Rh  Rh11  1  0.939391  0.383110  0.751414  1
  Rh  Rh12  1  0.382062  0.441640  0.249189  1
  Rh  Rh13  1  0.558461  0.939558  0.247737  1
  Rh  Rh14  1  0.061665  0.618938  0.248833  1
  Rh  Rh15  1  0.117978  0.855366  0.748449  1
  Rh  Rh16  1  0.141764  0.262913  0.747818  1
  Rh  Rh17  1  0.739039  0.880311  0.749073  1
  Rh  Rh18  1  0.879951  0.143479  0.251741  1
  Rh  Rh19  1  0.856328  0.735865  0.252397  1
  Rh  Rh20  1  0.261014  0.119227  0.251585  1
