# generated using pymatgen
data_Th2AlC2
_symmetry_space_group_name_H-M   'P 1'
_cell_length_a   6.96833480
_cell_length_b   6.96833432
_cell_length_c   6.96833510
_cell_angle_alpha   148.23104162
_cell_angle_beta   148.23103224
_cell_angle_gamma   45.54442198
_symmetry_Int_Tables_number   1
_chemical_formula_structural   Th2AlC2
_chemical_formula_sum   'Th2 Al1 C2'
_cell_volume   93.48619555
_cell_formula_units_Z   1
loop_
 _symmetry_equiv_pos_site_id
 _symmetry_equiv_pos_as_xyz
  1  'x, y, z'
loop_
 _atom_site_type_symbol
 _atom_site_label
 _atom_site_symmetry_multiplicity
 _atom_site_fract_x
 _atom_site_fract_y
 _atom_site_fract_z
 _atom_site_occupancy
  Th  Th0  1  0.349594  0.349594  0.000000  1
  Th  Th1  1  0.650406  0.650406  0.000000  1
  Al  Al2  1  0.000000  0.000000  0.000000  1
  C  C3  1  0.160202  0.160202  0.000000  1
  C  C4  1  0.839798  0.839798  0.000000  1
