# generated using pymatgen
data_Dy7YTi11Si16Ru
_symmetry_space_group_name_H-M   'P 1'
_cell_length_a   7.03570583
_cell_length_b   7.03541797
_cell_length_c   12.88910731
_cell_angle_alpha   89.97796805
_cell_angle_beta   90.01624207
_cell_angle_gamma   89.84977607
_symmetry_Int_Tables_number   1
_chemical_formula_structural   Dy7YTi11Si16Ru
_chemical_formula_sum   'Dy7 Y1 Ti11 Si16 Ru1'
_cell_volume   637.99734856
_cell_formula_units_Z   1
loop_
 _symmetry_equiv_pos_site_id
 _symmetry_equiv_pos_as_xyz
  1  'x, y, z'
loop_
 _atom_site_type_symbol
 _atom_site_label
 _atom_site_symmetry_multiplicity
 _atom_site_fract_x
 _atom_site_fract_y
 _atom_site_fract_z
 _atom_site_occupancy
  Dy  Dy0  1  0.001639  0.341680  0.531836  1
  Dy  Dy1  1  0.659524  0.996049  0.967307  1
  Dy  Dy2  1  0.159257  0.503097  0.781949  1
  Dy  Dy3  1  0.840518  0.499688  0.285069  1
  Dy  Dy4  1  0.503137  0.159241  0.218016  1
  Dy  Dy5  1  0.499681  0.840529  0.714997  1
  Dy  Dy6  1  0.341703  0.001639  0.468175  1
  Y  Y7  1  0.995817  0.659702  0.032592  1
  Ti  Ti8  1  0.344120  0.507536  0.374427  1
  Ti  Ti9  1  0.849226  0.995875  0.375687  1
  Ti  Ti10  1  0.006209  0.151863  0.124730  1
  Ti  Ti11  1  0.995930  0.849208  0.624309  1
  Ti  Ti12  1  0.507519  0.344181  0.625559  1
  Ti  Ti13  1  0.151936  0.006363  0.875201  1
  Ti  Ti14  1  0.825074  0.172472  0.748619  1
  Ti  Ti15  1  0.172523  0.825123  0.251514  1
  Ti  Ti16  1  0.326324  0.326048  0.999963  1
  Ti  Ti17  1  0.492709  0.651399  0.127931  1
  Ti  Ti18  1  0.651272  0.492734  0.871994  1
  Si  Si19  1  0.046681  0.712797  0.435518  1
  Si  Si20  1  0.952169  0.291174  0.934332  1
  Si  Si21  1  0.712799  0.046662  0.564464  1
  Si  Si22  1  0.208088  0.452966  0.184592  1
  Si  Si23  1  0.790378  0.550163  0.682130  1
  Si  Si24  1  0.453094  0.207872  0.815589  1
  Si  Si25  1  0.550158  0.790366  0.317863  1
  Si  Si26  1  0.291587  0.952341  0.065624  1
  Si  Si27  1  0.797289  0.868848  0.185577  1
  Si  Si28  1  0.300281  0.626819  0.565632  1
  Si  Si29  1  0.703220  0.369022  0.065447  1
  Si  Si30  1  0.626832  0.300278  0.434350  1
  Si  Si31  1  0.369427  0.703482  0.934499  1
  Si  Si32  1  0.130893  0.203357  0.315829  1
  Si  Si33  1  0.203352  0.130885  0.684187  1
  Si  Si34  1  0.868575  0.797503  0.814498  1
  Ru  Ru35  1  0.671059  0.671039  0.499995  1
