# generated using pymatgen
data_TbGd3(ZnRh)4
_symmetry_space_group_name_H-M   'P 1'
_cell_length_a   4.06477000
_cell_length_b   7.02577311
_cell_length_c   8.15882623
_cell_angle_alpha   90.06360226
_cell_angle_beta   90.00000000
_cell_angle_gamma   90.00000000
_symmetry_Int_Tables_number   1
_chemical_formula_structural   TbGd3(ZnRh)4
_chemical_formula_sum   'Tb1 Gd3 Zn4 Rh4'
_cell_volume   233.00085399
_cell_formula_units_Z   1
loop_
 _symmetry_equiv_pos_site_id
 _symmetry_equiv_pos_as_xyz
  1  'x, y, z'
loop_
 _atom_site_type_symbol
 _atom_site_label
 _atom_site_symmetry_multiplicity
 _atom_site_fract_x
 _atom_site_fract_y
 _atom_site_fract_z
 _atom_site_occupancy
  Tb  Tb0  1  0.750000  0.961959  0.685368  1
  Gd  Gd1  1  0.250000  0.537179  0.184338  1
  Gd  Gd2  1  0.750000  0.462611  0.815505  1
  Gd  Gd3  1  0.250000  0.037327  0.316143  1
  Zn  Zn4  1  0.250000  0.135437  0.935370  1
  Zn  Zn5  1  0.750000  0.865078  0.063184  1
  Zn  Zn6  1  0.250000  0.636743  0.563798  1
  Zn  Zn7  1  0.750000  0.363489  0.436484  1
  Rh  Rh8  1  0.750000  0.743119  0.378042  1
  Rh  Rh9  1  0.250000  0.256566  0.622049  1
  Rh  Rh10  1  0.750000  0.244486  0.121380  1
  Rh  Rh11  1  0.250000  0.756006  0.878341  1
