# generated using pymatgen
data_Dy2Y4Al24Os7Ru
_symmetry_space_group_name_H-M   'P 1'
_cell_length_a   8.84243009
_cell_length_b   8.84327250
_cell_length_c   9.57554400
_cell_angle_alpha   89.99788650
_cell_angle_beta   90.00240798
_cell_angle_gamma   120.01296670
_symmetry_Int_Tables_number   1
_chemical_formula_structural   Dy2Y4Al24Os7Ru
_chemical_formula_sum   'Dy2 Y4 Al24 Os7 Ru1'
_cell_volume   648.36859369
_cell_formula_units_Z   1
loop_
 _symmetry_equiv_pos_site_id
 _symmetry_equiv_pos_as_xyz
  1  'x, y, z'
loop_
 _atom_site_type_symbol
 _atom_site_label
 _atom_site_symmetry_multiplicity
 _atom_site_fract_x
 _atom_site_fract_y
 _atom_site_fract_z
 _atom_site_occupancy
  Dy  Dy0  1  0.806659  0.613532  0.750472  1
  Dy  Dy1  1  0.386509  0.193333  0.750473  1
  Y  Y2  1  0.193043  0.807039  0.249492  1
  Y  Y3  1  0.192991  0.385965  0.249484  1
  Y  Y4  1  0.613992  0.807028  0.249483  1
  Y  Y5  1  0.806801  0.193124  0.750524  1
  Al  Al6  1  0.560565  0.439440  0.249915  1
  Al  Al7  1  0.560568  0.121122  0.249918  1
  Al  Al8  1  0.878876  0.439433  0.249919  1
  Al  Al9  1  0.439410  0.560591  0.750079  1
  Al  Al10  1  0.439348  0.878870  0.750085  1
  Al  Al11  1  0.121136  0.560653  0.750084  1
  Al  Al12  1  0.324881  0.162384  0.423920  1
  Al  Al13  1  0.837569  0.162455  0.423866  1
  Al  Al14  1  0.837637  0.675135  0.423919  1
  Al  Al15  1  0.675143  0.837552  0.576231  1
  Al  Al16  1  0.162384  0.837588  0.576323  1
  Al  Al17  1  0.162427  0.324841  0.576231  1
  Al  Al18  1  0.675201  0.837588  0.923755  1
  Al  Al19  1  0.162344  0.837626  0.923652  1
  Al  Al20  1  0.162391  0.324784  0.923753  1
  Al  Al21  1  0.324819  0.162346  0.076104  1
  Al  Al22  1  0.837606  0.162419  0.076168  1
  Al  Al23  1  0.837675  0.675197  0.076106  1
  Al  Al24  1  0.666619  0.333330  0.515699  1
  Al  Al25  1  0.333346  0.666695  0.484545  1
  Al  Al26  1  0.333352  0.666696  0.015421  1
  Al  Al27  1  0.666622  0.333322  0.984370  1
  Al  Al28  1  0.000001  0.999980  0.248233  1
  Al  Al29  1  0.000171  0.999851  0.751771  1
  Os  Os30  1  0.999992  0.000008  0.499944  1
  Os  Os31  1  0.500059  0.499940  0.500163  1
  Os  Os32  1  0.499969  0.000061  0.500078  1
  Os  Os33  1  0.999939  0.500032  0.500077  1
  Os  Os34  1  0.500066  0.499935  0.999808  1
  Os  Os35  1  0.499956  0.000052  0.999923  1
  Os  Os36  1  0.999947  0.500043  0.999924  1
  Ru  Ru37  1  0.999987  0.000012  0.000088  1
