# generated using pymatgen
data_PrFeOs2C
_symmetry_space_group_name_H-M   'P 1'
_cell_length_a   3.99159819
_cell_length_b   5.76294392
_cell_length_c   7.39090900
_cell_angle_alpha   90.00000000
_cell_angle_beta   90.00000000
_cell_angle_gamma   69.70220364
_symmetry_Int_Tables_number   1
_chemical_formula_structural   PrFeOs2C
_chemical_formula_sum   'Pr2 Fe2 Os4 C2'
_cell_volume   159.45812582
_cell_formula_units_Z   2
loop_
 _symmetry_equiv_pos_site_id
 _symmetry_equiv_pos_as_xyz
  1  'x, y, z'
loop_
 _atom_site_type_symbol
 _atom_site_label
 _atom_site_symmetry_multiplicity
 _atom_site_fract_x
 _atom_site_fract_y
 _atom_site_fract_z
 _atom_site_occupancy
  Pr  Pr0  1  0.959632  0.080334  0.250001  1
  Pr  Pr1  1  0.040369  0.919665  0.750000  1
  Fe  Fe2  1  0.228646  0.543018  0.250001  1
  Fe  Fe3  1  0.771353  0.456983  0.750000  1
  Os  Os4  1  0.672205  0.655467  0.059796  1
  Os  Os5  1  0.672205  0.655467  0.440204  1
  Os  Os6  1  0.327795  0.344533  0.559797  1
  Os  Os7  1  0.327795  0.344533  0.940203  1
  C  C8  1  0.500001  0.000000  0.000000  1
  C  C9  1  0.500001  0.000000  0.500000  1
