# generated using pymatgen
data_K2Zr6PCl17
_symmetry_space_group_name_H-M   'P 1'
_cell_length_a   9.79924672
_cell_length_b   9.79924591
_cell_length_c   9.79924700
_cell_angle_alpha   105.22455075
_cell_angle_beta   105.22454946
_cell_angle_gamma   118.34598357
_symmetry_Int_Tables_number   1
_chemical_formula_structural   K2Zr6PCl17
_chemical_formula_sum   'K2 Zr6 P1 Cl17'
_cell_volume   711.14666500
_cell_formula_units_Z   1
loop_
 _symmetry_equiv_pos_site_id
 _symmetry_equiv_pos_as_xyz
  1  'x, y, z'
loop_
 _atom_site_type_symbol
 _atom_site_label
 _atom_site_symmetry_multiplicity
 _atom_site_fract_x
 _atom_site_fract_y
 _atom_site_fract_z
 _atom_site_occupancy
  K  K0  1  0.250002  0.749998  0.500000  1
  K  K1  1  0.749998  0.250002  0.500000  1
  Zr  Zr2  1  0.242019  0.242020  0.999968  1
  Zr  Zr3  1  0.757981  0.757980  0.000032  1
  Zr  Zr4  1  0.194314  0.069426  0.263799  1
  Zr  Zr5  1  0.930531  0.194341  0.124877  1
  Zr  Zr6  1  0.805686  0.930574  0.736201  1
  Zr  Zr7  1  0.069469  0.805659  0.875123  1
  P  P8  1  0.000000  0.000000  0.000000  1
  Cl  Cl9  1  0.868973  0.723832  0.592600  1
  Cl  Cl10  1  0.276230  0.868812  0.145141  1
  Cl  Cl11  1  0.132119  0.603208  0.735315  1
  Cl  Cl12  1  0.541216  0.669803  0.723085  1
  Cl  Cl13  1  0.867881  0.396792  0.264685  1
  Cl  Cl14  1  0.458784  0.330197  0.276915  1
  Cl  Cl15  1  0.818232  0.541215  0.871572  1
  Cl  Cl16  1  0.396683  0.131953  0.528878  1
  Cl  Cl17  1  0.603317  0.868047  0.471122  1
  Cl  Cl18  1  0.131027  0.276168  0.407400  1
  Cl  Cl19  1  0.330206  0.053258  0.871342  1
  Cl  Cl20  1  0.946692  0.818145  0.277020  1
  Cl  Cl21  1  0.723770  0.131188  0.854859  1
  Cl  Cl22  1  0.500000  0.500000  0.000000  1
  Cl  Cl23  1  0.181768  0.458785  0.128428  1
  Cl  Cl24  1  0.053308  0.181855  0.722980  1
  Cl  Cl25  1  0.669794  0.946742  0.128658  1
