# generated using pymatgen
data_Er16In6OsPt
_symmetry_space_group_name_H-M   'P 1'
_cell_length_a   10.35123000
_cell_length_b   10.35123024
_cell_length_c   6.99073000
_cell_angle_alpha   90.00000000
_cell_angle_beta   90.00000000
_cell_angle_gamma   119.99999283
_symmetry_Int_Tables_number   1
_chemical_formula_structural   Er16In6OsPt
_chemical_formula_sum   'Er16 In6 Os1 Pt1'
_cell_volume   648.68987491
_cell_formula_units_Z   1
loop_
 _symmetry_equiv_pos_site_id
 _symmetry_equiv_pos_as_xyz
  1  'x, y, z'
loop_
 _atom_site_type_symbol
 _atom_site_label
 _atom_site_symmetry_multiplicity
 _atom_site_fract_x
 _atom_site_fract_y
 _atom_site_fract_z
 _atom_site_occupancy
  Er  Er0  1  0.530726  0.061452  0.795017  1
  Er  Er1  1  0.938548  0.469274  0.795017  1
  Er  Er2  1  0.530726  0.469274  0.795017  1
  Er  Er3  1  0.466090  0.932180  0.292620  1
  Er  Er4  1  0.067820  0.533910  0.292620  1
  Er  Er5  1  0.466090  0.533910  0.292620  1
  Er  Er6  1  0.824554  0.649109  0.499810  1
  Er  Er7  1  0.350891  0.175446  0.499810  1
  Er  Er8  1  0.824554  0.175446  0.499810  1
  Er  Er9  1  0.176720  0.353439  0.000856  1
  Er  Er10  1  0.646561  0.823280  0.000856  1
  Er  Er11  1  0.176720  0.823280  0.000856  1
  Er  Er12  1  0.666667  0.333333  0.171068  1
  Er  Er13  1  0.333333  0.666667  0.671478  1
  Er  Er14  1  0.000000  0.000000  0.776809  1
  Er  Er15  1  0.000000  0.000000  0.279947  1
  In  In16  1  0.836844  0.673688  0.039185  1
  In  In17  1  0.326312  0.163156  0.039185  1
  In  In18  1  0.836844  0.163156  0.039185  1
  In  In19  1  0.162664  0.325327  0.538944  1
  In  In20  1  0.674673  0.837336  0.538944  1
  In  In21  1  0.162664  0.837336  0.538944  1
  Os  Os22  1  0.333333  0.666667  0.068214  1
  Pt  Pt23  1  0.666667  0.333333  0.569089  1
