# generated using pymatgen
data_Gd4OsCl4
_symmetry_space_group_name_H-M   'P 1'
_cell_length_a   8.80297812
_cell_length_b   8.80297824
_cell_length_c   6.56356518
_cell_angle_alpha   90.00993090
_cell_angle_beta   90.00993661
_cell_angle_gamma   89.39125428
_symmetry_Int_Tables_number   1
_chemical_formula_structural   Gd4OsCl4
_chemical_formula_sum   'Gd8 Os2 Cl8'
_cell_volume   508.59785882
_cell_formula_units_Z   2
loop_
 _symmetry_equiv_pos_site_id
 _symmetry_equiv_pos_as_xyz
  1  'x, y, z'
loop_
 _atom_site_type_symbol
 _atom_site_label
 _atom_site_symmetry_multiplicity
 _atom_site_fract_x
 _atom_site_fract_y
 _atom_site_fract_z
 _atom_site_occupancy
  Gd  Gd0  1  0.105434  0.742999  0.987662  1
  Gd  Gd1  1  0.257001  0.894566  0.512338  1
  Gd  Gd2  1  0.894566  0.257001  0.012338  1
  Gd  Gd3  1  0.742999  0.105434  0.487662  1
  Gd  Gd4  1  0.744451  0.896128  0.003858  1
  Gd  Gd5  1  0.103872  0.255549  0.496142  1
  Gd  Gd6  1  0.255549  0.103872  0.996142  1
  Gd  Gd7  1  0.896128  0.744451  0.503858  1
  Os  Os8  1  0.004824  0.995176  0.250000  1
  Os  Os9  1  0.995176  0.004824  0.750000  1
  Cl  Cl10  1  0.415162  0.823971  0.912234  1
  Cl  Cl11  1  0.176029  0.584838  0.587766  1
  Cl  Cl12  1  0.584838  0.176029  0.087766  1
  Cl  Cl13  1  0.823971  0.415162  0.412234  1
  Cl  Cl14  1  0.820588  0.587833  0.911250  1
  Cl  Cl15  1  0.412167  0.179412  0.588750  1
  Cl  Cl16  1  0.179412  0.412167  0.088750  1
  Cl  Cl17  1  0.587833  0.820588  0.411250  1
