# generated using pymatgen
data_Zr8Fe2OsPt
_symmetry_space_group_name_H-M   'P 1'
_cell_length_a   8.69604148
_cell_length_b   8.69604180
_cell_length_c   8.69660400
_cell_angle_alpha   59.99786897
_cell_angle_beta   59.99786776
_cell_angle_gamma   59.99209541
_symmetry_Int_Tables_number   1
_chemical_formula_structural   Zr8Fe2OsPt
_chemical_formula_sum   'Zr16 Fe4 Os2 Pt2'
_cell_volume   464.98396381
_cell_formula_units_Z   2
loop_
 _symmetry_equiv_pos_site_id
 _symmetry_equiv_pos_as_xyz
  1  'x, y, z'
loop_
 _atom_site_type_symbol
 _atom_site_label
 _atom_site_symmetry_multiplicity
 _atom_site_fract_x
 _atom_site_fract_y
 _atom_site_fract_z
 _atom_site_occupancy
  Zr  Zr0  1  0.052241  0.648274  0.649743  1
  Zr  Zr1  1  0.648274  0.052241  0.649743  1
  Zr  Zr2  1  0.647572  0.647572  0.055367  1
  Zr  Zr3  1  0.647572  0.647572  0.649489  1
  Zr  Zr4  1  0.801784  0.801784  0.198216  1
  Zr  Zr5  1  0.199191  0.199191  0.800809  1
  Zr  Zr6  1  0.799846  0.197867  0.804433  1
  Zr  Zr7  1  0.197867  0.799846  0.197855  1
  Zr  Zr8  1  0.197867  0.799846  0.804433  1
  Zr  Zr9  1  0.799846  0.197867  0.197855  1
  Zr  Zr10  1  0.437915  0.437915  0.062085  1
  Zr  Zr11  1  0.062428  0.062428  0.437572  1
  Zr  Zr12  1  0.437934  0.068994  0.437402  1
  Zr  Zr13  1  0.068994  0.437934  0.055670  1
  Zr  Zr14  1  0.068994  0.437934  0.437402  1
  Zr  Zr15  1  0.437934  0.068994  0.055670  1
  Fe  Fe16  1  0.418838  0.860052  0.860555  1
  Fe  Fe17  1  0.860052  0.418838  0.860555  1
  Fe  Fe18  1  0.860390  0.860390  0.417475  1
  Fe  Fe19  1  0.860390  0.860390  0.861745  1
  Os  Os20  1  0.415432  0.415432  0.748940  1
  Os  Os21  1  0.415432  0.415432  0.420197  1
  Pt  Pt22  1  0.748469  0.414738  0.418397  1
  Pt  Pt23  1  0.414738  0.748469  0.418397  1
