# generated using pymatgen
data_Li2LaYb2AlSn3
_symmetry_space_group_name_H-M   'P 1'
_cell_length_a   7.61922415
_cell_length_b   7.51293628
_cell_length_c   4.68610900
_cell_angle_alpha   90.00000000
_cell_angle_beta   90.00000000
_cell_angle_gamma   120.59632122
_symmetry_Int_Tables_number   1
_chemical_formula_structural   Li2LaYb2AlSn3
_chemical_formula_sum   'Li2 La1 Yb2 Al1 Sn3'
_cell_volume   230.89915308
_cell_formula_units_Z   1
loop_
 _symmetry_equiv_pos_site_id
 _symmetry_equiv_pos_as_xyz
  1  'x, y, z'
loop_
 _atom_site_type_symbol
 _atom_site_label
 _atom_site_symmetry_multiplicity
 _atom_site_fract_x
 _atom_site_fract_y
 _atom_site_fract_z
 _atom_site_occupancy
  Li  Li0  1  0.239564  0.999328  0.500000  1
  Li  Li1  1  0.993471  0.233297  0.500000  1
  La  La2  1  0.005589  0.570670  0.000000  1
  Yb  Yb3  1  0.429453  0.429360  0.000000  1
  Yb  Yb4  1  0.572753  0.005664  0.000000  1
  Al  Al5  1  0.756923  0.754488  0.500000  1
  Sn  Sn6  1  0.346524  0.672984  0.500000  1
  Sn  Sn7  1  0.665697  0.337335  0.500000  1
  Sn  Sn8  1  0.990027  0.996875  0.000000  1
