# generated using pymatgen
data_Y3Er5Tc3B24Os
_symmetry_space_group_name_H-M   'P 1'
_cell_length_a   3.66270700
_cell_length_b   9.13636915
_cell_length_c   11.52327601
_cell_angle_alpha   89.94246543
_cell_angle_beta   90.00000000
_cell_angle_gamma   90.00000000
_symmetry_Int_Tables_number   1
_chemical_formula_structural   Y3Er5Tc3B24Os
_chemical_formula_sum   'Y3 Er5 Tc3 B24 Os1'
_cell_volume   385.61290795
_cell_formula_units_Z   1
loop_
 _symmetry_equiv_pos_site_id
 _symmetry_equiv_pos_as_xyz
  1  'x, y, z'
loop_
 _atom_site_type_symbol
 _atom_site_label
 _atom_site_symmetry_multiplicity
 _atom_site_fract_x
 _atom_site_fract_y
 _atom_site_fract_z
 _atom_site_occupancy
  Y  Y0  1  0.000000  0.323130  0.413891  1
  Y  Y1  1  0.000000  0.675953  0.584515  1
  Y  Y2  1  0.000000  0.822613  0.087132  1
  Er  Er3  1  0.000000  0.178174  0.914433  1
  Er  Er4  1  0.000000  0.942774  0.370011  1
  Er  Er5  1  0.000000  0.058136  0.630154  1
  Er  Er6  1  0.000000  0.442835  0.129912  1
  Er  Er7  1  0.000000  0.556759  0.869559  1
  Tc  Tc8  1  0.000000  0.638958  0.319852  1
  Tc  Tc9  1  0.000000  0.360842  0.681035  1
  Tc  Tc10  1  0.000000  0.138371  0.178166  1
  B  B11  1  0.500000  0.553272  0.432661  1
  B  B12  1  0.500000  0.446501  0.567255  1
  B  B13  1  0.500000  0.053483  0.066640  1
  B  B14  1  0.500000  0.946682  0.932711  1
  B  B15  1  0.500000  0.749191  0.418532  1
  B  B16  1  0.500000  0.250486  0.581747  1
  B  B17  1  0.500000  0.249615  0.080845  1
  B  B18  1  0.500000  0.750855  0.918140  1
  B  B19  1  0.500000  0.792085  0.265674  1
  B  B20  1  0.500000  0.207899  0.735351  1
  B  B21  1  0.500000  0.291904  0.234375  1
  B  B22  1  0.500000  0.708876  0.765488  1
  B  B23  1  0.500000  0.630447  0.185431  1
  B  B24  1  0.500000  0.368875  0.815504  1
  B  B25  1  0.500000  0.130137  0.314090  1
  B  B26  1  0.500000  0.869608  0.685721  1
  B  B27  1  0.500000  0.981999  0.212016  1
  B  B28  1  0.500000  0.017540  0.788202  1
  B  B29  1  0.500000  0.482027  0.287633  1
  B  B30  1  0.500000  0.517491  0.712240  1
  B  B31  1  0.500000  0.600863  0.027765  1
  B  B32  1  0.500000  0.399423  0.971820  1
  B  B33  1  0.500000  0.100688  0.472170  1
  B  B34  1  0.500000  0.899479  0.528400  1
  Os  Os35  1  0.000000  0.862029  0.820928  1
