# generated using pymatgen
data_Y2Mn6Co6P7
_symmetry_space_group_name_H-M   'P 1'
_cell_length_a   9.07212800
_cell_length_b   9.07212686
_cell_length_c   3.63439800
_cell_angle_alpha   90.00000000
_cell_angle_beta   90.00000000
_cell_angle_gamma   120.00000415
_symmetry_Int_Tables_number   1
_chemical_formula_structural   Y2Mn6Co6P7
_chemical_formula_sum   'Y2 Mn6 Co6 P7'
_cell_volume   259.04867907
_cell_formula_units_Z   1
loop_
 _symmetry_equiv_pos_site_id
 _symmetry_equiv_pos_as_xyz
  1  'x, y, z'
loop_
 _atom_site_type_symbol
 _atom_site_label
 _atom_site_symmetry_multiplicity
 _atom_site_fract_x
 _atom_site_fract_y
 _atom_site_fract_z
 _atom_site_occupancy
  Y  Y0  1  0.666667  0.333333  0.000000  1
  Y  Y1  1  0.333333  0.666667  0.500000  1
  Mn  Mn2  1  0.880009  0.723409  0.000000  1
  Mn  Mn3  1  0.276591  0.156600  0.000000  1
  Mn  Mn4  1  0.843400  0.119991  0.000000  1
  Mn  Mn5  1  0.119270  0.895832  0.500000  1
  Mn  Mn6  1  0.104168  0.223438  0.500000  1
  Mn  Mn7  1  0.776562  0.880730  0.500000  1
  Co  Co8  1  0.369109  0.940158  0.000000  1
  Co  Co9  1  0.059842  0.428951  0.000000  1
  Co  Co10  1  0.571049  0.630891  0.000000  1
  Co  Co11  1  0.949674  0.561371  0.500000  1
  Co  Co12  1  0.438629  0.388303  0.500000  1
  Co  Co13  1  0.611697  0.050326  0.500000  1
  P  P14  1  0.111034  0.698776  0.000000  1
  P  P15  1  0.301224  0.412258  0.000000  1
  P  P16  1  0.587742  0.888966  0.000000  1
  P  P17  1  0.712321  0.593967  0.500000  1
  P  P18  1  0.406033  0.118355  0.500000  1
  P  P19  1  0.881645  0.287679  0.500000  1
  P  P20  1  0.000000  0.000000  0.000000  1
