# generated using pymatgen
data_Zn22PtRh2
_symmetry_space_group_name_H-M   'P 1'
_cell_length_a   7.78730532
_cell_length_b   7.78730572
_cell_length_c   7.82594119
_cell_angle_alpha   72.31106122
_cell_angle_beta   72.31105945
_cell_angle_gamma   57.89882451
_symmetry_Int_Tables_number   1
_chemical_formula_structural   Zn22PtRh2
_chemical_formula_sum   'Zn22 Pt1 Rh2'
_cell_volume   377.00841350
_cell_formula_units_Z   1
loop_
 _symmetry_equiv_pos_site_id
 _symmetry_equiv_pos_as_xyz
  1  'x, y, z'
loop_
 _atom_site_type_symbol
 _atom_site_label
 _atom_site_symmetry_multiplicity
 _atom_site_fract_x
 _atom_site_fract_y
 _atom_site_fract_z
 _atom_site_occupancy
  Zn  Zn0  1  0.340916  0.736792  0.316800  1
  Zn  Zn1  1  0.656011  0.264679  0.685307  1
  Zn  Zn2  1  0.264679  0.656011  0.685307  1
  Zn  Zn3  1  0.736792  0.340916  0.316800  1
  Zn  Zn4  1  0.679678  0.318693  0.999069  1
  Zn  Zn5  1  0.318693  0.679678  0.999069  1
  Zn  Zn6  1  0.832515  0.832515  0.780564  1
  Zn  Zn7  1  0.169256  0.169256  0.217587  1
  Zn  Zn8  1  0.974819  0.974819  0.174123  1
  Zn  Zn9  1  0.025475  0.025475  0.824932  1
  Zn  Zn10  1  0.351832  0.351832  0.276678  1
  Zn  Zn11  1  0.646652  0.646652  0.722086  1
  Zn  Zn12  1  0.686706  0.686706  0.380088  1
  Zn  Zn13  1  0.315056  0.315056  0.620202  1
  Zn  Zn14  1  0.659233  0.023633  0.459921  1
  Zn  Zn15  1  0.341602  0.975226  0.539541  1
  Zn  Zn16  1  0.975226  0.341602  0.539541  1
  Zn  Zn17  1  0.023633  0.659233  0.459921  1
  Zn  Zn18  1  0.619481  0.999956  0.105682  1
  Zn  Zn19  1  0.376120  0.005478  0.895170  1
  Zn  Zn20  1  0.005478  0.376120  0.895170  1
  Zn  Zn21  1  0.999956  0.619481  0.105682  1
  Pt  Pt22  1  0.657851  0.657851  0.054973  1
  Rh  Rh23  1  0.341946  0.341946  0.945879  1
  Rh  Rh24  1  0.000395  0.000395  0.499905  1
