# generated using pymatgen
data_Hf16Co2Ni2HgMo3
_symmetry_space_group_name_H-M   'P 1'
_cell_length_a   8.73793948
_cell_length_b   8.73794014
_cell_length_c   8.73759117
_cell_angle_alpha   59.71917943
_cell_angle_beta   59.71917283
_cell_angle_gamma   59.77531737
_symmetry_Int_Tables_number   1
_chemical_formula_structural   Hf16Co2Ni2HgMo3
_chemical_formula_sum   'Hf16 Co2 Ni2 Hg1 Mo3'
_cell_volume   468.92319543
_cell_formula_units_Z   1
loop_
 _symmetry_equiv_pos_site_id
 _symmetry_equiv_pos_as_xyz
  1  'x, y, z'
loop_
 _atom_site_type_symbol
 _atom_site_label
 _atom_site_symmetry_multiplicity
 _atom_site_fract_x
 _atom_site_fract_y
 _atom_site_fract_z
 _atom_site_occupancy
  Hf  Hf0  1  0.698705  0.100701  0.097332  1
  Hf  Hf1  1  0.100701  0.698705  0.097332  1
  Hf  Hf2  1  0.098138  0.098138  0.703244  1
  Hf  Hf3  1  0.102238  0.102238  0.099135  1
  Hf  Hf4  1  0.315592  0.315592  0.694739  1
  Hf  Hf5  1  0.685830  0.685830  0.315130  1
  Hf  Hf6  1  0.315742  0.695832  0.314904  1
  Hf  Hf7  1  0.685211  0.315738  0.684831  1
  Hf  Hf8  1  0.695832  0.315742  0.314904  1
  Hf  Hf9  1  0.315738  0.685211  0.684831  1
  Hf  Hf10  1  0.955776  0.955776  0.542923  1
  Hf  Hf11  1  0.557468  0.557468  0.938540  1
  Hf  Hf12  1  0.953385  0.542841  0.952485  1
  Hf  Hf13  1  0.551660  0.940374  0.558999  1
  Hf  Hf14  1  0.542841  0.953385  0.952485  1
  Hf  Hf15  1  0.940374  0.551660  0.558999  1
  Co  Co16  1  0.325290  0.889177  0.890380  1
  Co  Co17  1  0.889177  0.325290  0.890380  1
  Ni  Ni18  1  0.889854  0.889854  0.325915  1
  Ni  Ni19  1  0.889212  0.889212  0.891015  1
  Hg  Hg20  1  0.331833  0.331833  0.331442  1
  Mo  Mo21  1  0.995695  0.332149  0.331924  1
  Mo  Mo22  1  0.332149  0.995695  0.331924  1
  Mo  Mo23  1  0.331556  0.331556  0.996204  1
