# generated using pymatgen
data_La5Er3(MgSn4)2
_symmetry_space_group_name_H-M   'P 1'
_cell_length_a   7.92286163
_cell_length_b   8.45813507
_cell_length_c   15.75738141
_cell_angle_alpha   89.82645759
_cell_angle_beta   89.83388801
_cell_angle_gamma   90.20981364
_symmetry_Int_Tables_number   1
_chemical_formula_structural   La5Er3(MgSn4)2
_chemical_formula_sum   'La10 Er6 Mg4 Sn16'
_cell_volume   1055.92723462
_cell_formula_units_Z   2
loop_
 _symmetry_equiv_pos_site_id
 _symmetry_equiv_pos_as_xyz
  1  'x, y, z'
loop_
 _atom_site_type_symbol
 _atom_site_label
 _atom_site_symmetry_multiplicity
 _atom_site_fract_x
 _atom_site_fract_y
 _atom_site_fract_z
 _atom_site_occupancy
  La  La0  1  0.001663  0.182004  0.094418  1
  La  La1  1  0.998337  0.817996  0.905582  1
  La  La2  1  0.500022  0.681790  0.906144  1
  La  La3  1  0.999030  0.818756  0.598005  1
  La  La4  1  0.499978  0.318210  0.093856  1
  La  La5  1  0.000970  0.181244  0.401995  1
  La  La6  1  0.501658  0.316978  0.401094  1
  La  La7  1  0.498342  0.683022  0.598906  1
  La  La8  1  0.335519  0.171966  0.627160  1
  La  La9  1  0.664481  0.828034  0.372840  1
  Er  Er10  1  0.163294  0.668608  0.368976  1
  Er  Er11  1  0.666701  0.831192  0.125431  1
  Er  Er12  1  0.836706  0.331392  0.631024  1
  Er  Er13  1  0.333299  0.168808  0.874569  1
  Er  Er14  1  0.835632  0.331351  0.874644  1
  Er  Er15  1  0.164368  0.668649  0.125356  1
  Mg  Mg16  1  0.162709  0.505238  0.753719  1
  Mg  Mg17  1  0.837291  0.494762  0.246281  1
  Mg  Mg18  1  0.336528  0.005140  0.246770  1
  Mg  Mg19  1  0.663472  0.994860  0.753230  1
  Sn  Sn20  1  0.019961  0.105592  0.754975  1
  Sn  Sn21  1  0.980039  0.894408  0.245025  1
  Sn  Sn22  1  0.471795  0.603968  0.245710  1
  Sn  Sn23  1  0.528205  0.396032  0.754290  1
  Sn  Sn24  1  0.170452  0.464802  0.535742  1
  Sn  Sn25  1  0.829548  0.535198  0.464258  1
  Sn  Sn26  1  0.315530  0.957619  0.458673  1
  Sn  Sn27  1  0.824685  0.540512  0.038730  1
  Sn  Sn28  1  0.684470  0.042381  0.541327  1
  Sn  Sn29  1  0.175315  0.459488  0.961270  1
  Sn  Sn30  1  0.673291  0.038966  0.960560  1
  Sn  Sn31  1  0.326709  0.961034  0.039440  1
  Sn  Sn32  1  0.298776  0.859380  0.753722  1
  Sn  Sn33  1  0.701224  0.140620  0.246278  1
  Sn  Sn34  1  0.198769  0.362119  0.247574  1
  Sn  Sn35  1  0.801231  0.637881  0.752426  1
