# generated using pymatgen
data_EuHoBO4
_symmetry_space_group_name_H-M   'P 1'
_cell_length_a   3.64350400
_cell_length_b   9.69224300
_cell_length_c   10.90848100
_cell_angle_alpha   90.00000000
_cell_angle_beta   90.00000000
_cell_angle_gamma   90.00000000
_symmetry_Int_Tables_number   1
_chemical_formula_structural   EuHoBO4
_chemical_formula_sum   'Eu4 Ho4 B4 O16'
_cell_volume   385.21911063
_cell_formula_units_Z   4
loop_
 _symmetry_equiv_pos_site_id
 _symmetry_equiv_pos_as_xyz
  1  'x, y, z'
loop_
 _atom_site_type_symbol
 _atom_site_label
 _atom_site_symmetry_multiplicity
 _atom_site_fract_x
 _atom_site_fract_y
 _atom_site_fract_z
 _atom_site_occupancy
  Eu  Eu0  1  0.250000  0.656471  0.082407  1
  Eu  Eu1  1  0.750000  0.343529  0.917593  1
  Eu  Eu2  1  0.750000  0.156471  0.417593  1
  Eu  Eu3  1  0.250000  0.843529  0.582407  1
  Ho  Ho4  1  0.250000  0.081533  0.110749  1
  Ho  Ho5  1  0.750000  0.918467  0.889251  1
  Ho  Ho6  1  0.750000  0.581533  0.389251  1
  Ho  Ho7  1  0.250000  0.418467  0.610749  1
  B  B8  1  0.250000  0.363542  0.205361  1
  B  B9  1  0.750000  0.636458  0.794639  1
  B  B10  1  0.750000  0.863542  0.294639  1
  B  B11  1  0.250000  0.136458  0.705361  1
  O  O12  1  0.250000  0.490422  0.264286  1
  O  O13  1  0.750000  0.509578  0.735714  1
  O  O14  1  0.750000  0.990422  0.235714  1
  O  O15  1  0.250000  0.009578  0.764286  1
  O  O16  1  0.250000  0.240095  0.270913  1
  O  O17  1  0.750000  0.759905  0.729087  1
  O  O18  1  0.750000  0.740095  0.229087  1
  O  O19  1  0.250000  0.259905  0.770913  1
  O  O20  1  0.250000  0.357315  0.077059  1
  O  O21  1  0.750000  0.642685  0.922941  1
  O  O22  1  0.750000  0.857315  0.422941  1
  O  O23  1  0.250000  0.142685  0.577059  1
  O  O24  1  0.250000  0.614148  0.501761  1
  O  O25  1  0.750000  0.385852  0.498239  1
  O  O26  1  0.750000  0.114148  0.998239  1
  O  O27  1  0.250000  0.885852  0.001761  1
