# generated using pymatgen
data_NdPa3(CoGe)4
_symmetry_space_group_name_H-M   'P 1'
_cell_length_a   4.28168400
_cell_length_b   6.95423348
_cell_length_c   7.44684054
_cell_angle_alpha   93.25566782
_cell_angle_beta   90.00000000
_cell_angle_gamma   90.00000000
_symmetry_Int_Tables_number   1
_chemical_formula_structural   NdPa3(CoGe)4
_chemical_formula_sum   'Nd1 Pa3 Co4 Ge4'
_cell_volume   221.37799076
_cell_formula_units_Z   1
loop_
 _symmetry_equiv_pos_site_id
 _symmetry_equiv_pos_as_xyz
  1  'x, y, z'
loop_
 _atom_site_type_symbol
 _atom_site_label
 _atom_site_symmetry_multiplicity
 _atom_site_fract_x
 _atom_site_fract_y
 _atom_site_fract_z
 _atom_site_occupancy
  Nd  Nd0  1  0.250000  0.775855  0.480658  1
  Pa  Pa1  1  0.250000  0.697176  0.992466  1
  Pa  Pa2  1  0.750000  0.300374  0.009487  1
  Pa  Pa3  1  0.750000  0.240047  0.524247  1
  Co  Co4  1  0.250000  0.039291  0.114920  1
  Co  Co5  1  0.750000  0.958427  0.874786  1
  Co  Co6  1  0.750000  0.546519  0.238799  1
  Co  Co7  1  0.250000  0.442681  0.755150  1
  Ge  Ge8  1  0.250000  0.380163  0.294335  1
  Ge  Ge9  1  0.750000  0.617671  0.715682  1
  Ge  Ge10  1  0.750000  0.911225  0.221975  1
  Ge  Ge11  1  0.250000  0.090573  0.777496  1
