# generated using pymatgen
data_DyGa4Ru
_symmetry_space_group_name_H-M   'P 1'
_cell_length_a   7.61018700
_cell_length_b   8.71585000
_cell_length_c   9.60181600
_cell_angle_alpha   90.00000000
_cell_angle_beta   90.00000000
_cell_angle_gamma   90.00000000
_symmetry_Int_Tables_number   1
_chemical_formula_structural   DyGa4Ru
_chemical_formula_sum   'Dy6 Ga24 Ru6'
_cell_volume   636.88123821
_cell_formula_units_Z   6
loop_
 _symmetry_equiv_pos_site_id
 _symmetry_equiv_pos_as_xyz
  1  'x, y, z'
loop_
 _atom_site_type_symbol
 _atom_site_label
 _atom_site_symmetry_multiplicity
 _atom_site_fract_x
 _atom_site_fract_y
 _atom_site_fract_z
 _atom_site_occupancy
  Dy  Dy0  1  0.315096  0.500000  0.750000  1
  Dy  Dy1  1  0.684904  0.500000  0.250000  1
  Dy  Dy2  1  0.841369  0.246828  0.750000  1
  Dy  Dy3  1  0.158631  0.753172  0.250000  1
  Dy  Dy4  1  0.841369  0.753172  0.750000  1
  Dy  Dy5  1  0.158631  0.246828  0.250000  1
  Ga  Ga6  1  0.176562  0.240148  0.576674  1
  Ga  Ga7  1  0.823438  0.759852  0.423326  1
  Ga  Ga8  1  0.176562  0.759852  0.923326  1
  Ga  Ga9  1  0.823438  0.240148  0.423326  1
  Ga  Ga10  1  0.823438  0.240148  0.076674  1
  Ga  Ga11  1  0.176562  0.759852  0.576674  1
  Ga  Ga12  1  0.823438  0.759852  0.076674  1
  Ga  Ga13  1  0.176562  0.240148  0.923326  1
  Ga  Ga14  1  0.127451  0.000000  0.750000  1
  Ga  Ga15  1  0.872549  0.000000  0.250000  1
  Ga  Ga16  1  0.337308  0.000000  0.066041  1
  Ga  Ga17  1  0.662692  0.000000  0.933959  1
  Ga  Ga18  1  0.337308  0.000000  0.433959  1
  Ga  Ga19  1  0.662692  0.000000  0.566041  1
  Ga  Ga20  1  0.454142  0.160637  0.750000  1
  Ga  Ga21  1  0.545858  0.839363  0.250000  1
  Ga  Ga22  1  0.454142  0.839363  0.750000  1
  Ga  Ga23  1  0.545858  0.160637  0.250000  1
  Ga  Ga24  1  0.660937  0.500000  0.594191  1
  Ga  Ga25  1  0.339063  0.500000  0.405809  1
  Ga  Ga26  1  0.660937  0.500000  0.905809  1
  Ga  Ga27  1  0.339063  0.500000  0.094191  1
  Ga  Ga28  1  0.000000  0.500000  0.500000  1
  Ga  Ga29  1  0.000000  0.500000  0.000000  1
  Ru  Ru30  1  0.500000  0.265143  0.500000  1
  Ru  Ru31  1  0.500000  0.734857  0.500000  1
  Ru  Ru32  1  0.500000  0.734857  0.000000  1
  Ru  Ru33  1  0.500000  0.265143  0.000000  1
  Ru  Ru34  1  0.000000  0.000000  0.500000  1
  Ru  Ru35  1  0.000000  0.000000  0.000000  1
