# generated using pymatgen
data_Tb2Lu2B12IrRh
_symmetry_space_group_name_H-M   'P 1'
_cell_length_a   3.62729600
_cell_length_b   9.12009950
_cell_length_c   11.48499688
_cell_angle_alpha   90.06564412
_cell_angle_beta   90.00000000
_cell_angle_gamma   90.00000000
_symmetry_Int_Tables_number   1
_chemical_formula_structural   Tb2Lu2B12IrRh
_chemical_formula_sum   'Tb4 Lu4 B24 Ir2 Rh2'
_cell_volume   379.93838293
_cell_formula_units_Z   2
loop_
 _symmetry_equiv_pos_site_id
 _symmetry_equiv_pos_as_xyz
  1  'x, y, z'
loop_
 _atom_site_type_symbol
 _atom_site_label
 _atom_site_symmetry_multiplicity
 _atom_site_fract_x
 _atom_site_fract_y
 _atom_site_fract_z
 _atom_site_occupancy
  Tb  Tb0  1  0.500000  0.322333  0.414414  1
  Tb  Tb1  1  0.500000  0.677667  0.585586  1
  Tb  Tb2  1  0.500000  0.179264  0.913353  1
  Tb  Tb3  1  0.500000  0.820736  0.086647  1
  Lu  Lu4  1  0.500000  0.445169  0.126510  1
  Lu  Lu5  1  0.500000  0.554831  0.873490  1
  Lu  Lu6  1  0.500000  0.056307  0.625983  1
  Lu  Lu7  1  0.500000  0.943693  0.374017  1
  B  B8  1  0.000000  0.105045  0.471627  1
  B  B9  1  0.000000  0.894955  0.528373  1
  B  B10  1  0.000000  0.394909  0.971762  1
  B  B11  1  0.000000  0.605091  0.028238  1
  B  B12  1  0.000000  0.131372  0.317029  1
  B  B13  1  0.000000  0.868628  0.682971  1
  B  B14  1  0.000000  0.368134  0.817088  1
  B  B15  1  0.000000  0.631866  0.182912  1
  B  B16  1  0.000000  0.054726  0.066490  1
  B  B17  1  0.000000  0.945274  0.933510  1
  B  B18  1  0.000000  0.445596  0.566051  1
  B  B19  1  0.000000  0.554404  0.433949  1
  B  B20  1  0.000000  0.483115  0.286186  1
  B  B21  1  0.000000  0.516885  0.713814  1
  B  B22  1  0.000000  0.017302  0.785839  1
  B  B23  1  0.000000  0.982698  0.214161  1
  B  B24  1  0.000000  0.251933  0.080481  1
  B  B25  1  0.000000  0.748067  0.919519  1
  B  B26  1  0.000000  0.248869  0.580494  1
  B  B27  1  0.000000  0.751131  0.419506  1
  B  B28  1  0.000000  0.294586  0.235318  1
  B  B29  1  0.000000  0.705414  0.764682  1
  B  B30  1  0.000000  0.205385  0.735576  1
  B  B31  1  0.000000  0.794615  0.264424  1
  Ir  Ir32  1  0.500000  0.139748  0.179594  1
  Ir  Ir33  1  0.500000  0.860252  0.820406  1
  Rh  Rh34  1  0.500000  0.359280  0.681316  1
  Rh  Rh35  1  0.500000  0.640720  0.318684  1
