# generated using pymatgen
data_Pr6V2Co15P12Rh
_symmetry_space_group_name_H-M   'P 1'
_cell_length_a   3.78134600
_cell_length_b   10.80040700
_cell_length_c   12.51891400
_cell_angle_alpha   90.00000000
_cell_angle_beta   90.00000000
_cell_angle_gamma   90.00000000
_symmetry_Int_Tables_number   1
_chemical_formula_structural   Pr6V2Co15P12Rh
_chemical_formula_sum   'Pr6 V2 Co15 P12 Rh1'
_cell_volume   511.27339679
_cell_formula_units_Z   1
loop_
 _symmetry_equiv_pos_site_id
 _symmetry_equiv_pos_as_xyz
  1  'x, y, z'
loop_
 _atom_site_type_symbol
 _atom_site_label
 _atom_site_symmetry_multiplicity
 _atom_site_fract_x
 _atom_site_fract_y
 _atom_site_fract_z
 _atom_site_occupancy
  Pr  Pr0  1  0.000000  0.500000  0.518688  1
  Pr  Pr1  1  0.500000  0.000000  0.477931  1
  Pr  Pr2  1  0.500000  0.819204  0.204604  1
  Pr  Pr3  1  0.500000  0.180796  0.204604  1
  Pr  Pr4  1  0.000000  0.684020  0.796349  1
  Pr  Pr5  1  0.000000  0.315980  0.796349  1
  V  V6  1  0.500000  0.500000  0.151235  1
  V  V7  1  0.000000  0.000000  0.849178  1
  Co  Co8  1  0.000000  0.000000  0.295757  1
  Co  Co9  1  0.000000  0.500000  0.990619  1
  Co  Co10  1  0.500000  0.000000  0.011997  1
  Co  Co11  1  0.500000  0.331659  0.995737  1
  Co  Co12  1  0.500000  0.668341  0.995737  1
  Co  Co13  1  0.000000  0.166765  0.006391  1
  Co  Co14  1  0.000000  0.833235  0.006391  1
  Co  Co15  1  0.500000  0.294037  0.429450  1
  Co  Co16  1  0.500000  0.705963  0.429450  1
  Co  Co17  1  0.000000  0.201549  0.567932  1
  Co  Co18  1  0.000000  0.798451  0.567932  1
  Co  Co19  1  0.500000  0.882630  0.710038  1
  Co  Co20  1  0.500000  0.117370  0.710038  1
  Co  Co21  1  0.000000  0.618848  0.290098  1
  Co  Co22  1  0.000000  0.381152  0.290098  1
  P  P23  1  0.500000  0.500000  0.894038  1
  P  P24  1  0.000000  0.000000  0.112657  1
  P  P25  1  0.500000  0.500000  0.338938  1
  P  P26  1  0.000000  0.000000  0.660031  1
  P  P27  1  0.500000  0.297924  0.611244  1
  P  P28  1  0.500000  0.702076  0.611244  1
  P  P29  1  0.000000  0.193290  0.385082  1
  P  P30  1  0.000000  0.806710  0.385082  1
  P  P31  1  0.500000  0.848775  0.896119  1
  P  P32  1  0.500000  0.151225  0.896119  1
  P  P33  1  0.000000  0.652578  0.105542  1
  P  P34  1  0.000000  0.347422  0.105542  1
  Rh  Rh35  1  0.500000  0.500000  0.701762  1
