# generated using pymatgen
data_YHo3Al18(Os2Pd)2
_symmetry_space_group_name_H-M   'P 1'
_cell_length_a   7.58963406
_cell_length_b   7.58876189
_cell_length_c   9.54832000
_cell_angle_alpha   90.00000000
_cell_angle_beta   90.00000000
_cell_angle_gamma   119.64778356
_symmetry_Int_Tables_number   1
_chemical_formula_structural   YHo3Al18(Os2Pd)2
_chemical_formula_sum   'Y1 Ho3 Al18 Os4 Pd2'
_cell_volume   477.94709715
_cell_formula_units_Z   1
loop_
 _symmetry_equiv_pos_site_id
 _symmetry_equiv_pos_as_xyz
  1  'x, y, z'
loop_
 _atom_site_type_symbol
 _atom_site_label
 _atom_site_symmetry_multiplicity
 _atom_site_fract_x
 _atom_site_fract_y
 _atom_site_fract_z
 _atom_site_occupancy
  Y  Y0  1  0.997528  0.669739  0.250000  1
  Ho  Ho1  1  0.002049  0.330634  0.750000  1
  Ho  Ho2  1  0.669302  0.997789  0.250000  1
  Ho  Ho3  1  0.330568  0.001973  0.750000  1
  Al  Al4  1  0.131989  0.132393  0.250000  1
  Al  Al5  1  0.868533  0.868531  0.750000  1
  Al  Al6  1  0.002564  0.339616  0.072492  1
  Al  Al7  1  0.997554  0.659955  0.926541  1
  Al  Al8  1  0.997554  0.659955  0.573459  1
  Al  Al9  1  0.340410  0.002899  0.427465  1
  Al  Al10  1  0.002564  0.339616  0.427508  1
  Al  Al11  1  0.659966  0.997522  0.573070  1
  Al  Al12  1  0.659966  0.997522  0.926930  1
  Al  Al13  1  0.340410  0.002899  0.072535  1
  Al  Al14  1  0.339129  0.339138  0.549448  1
  Al  Al15  1  0.660323  0.660684  0.451001  1
  Al  Al16  1  0.660323  0.660684  0.048999  1
  Al  Al17  1  0.339129  0.339138  0.950552  1
  Al  Al18  1  0.337294  0.549462  0.250000  1
  Al  Al19  1  0.663325  0.450672  0.750000  1
  Al  Al20  1  0.548949  0.336394  0.250000  1
  Al  Al21  1  0.450639  0.663332  0.750000  1
  Os  Os22  1  0.672152  0.327093  0.999832  1
  Os  Os23  1  0.327729  0.672448  0.999757  1
  Os  Os24  1  0.327729  0.672448  0.500243  1
  Os  Os25  1  0.672152  0.327093  0.500168  1
  Pd  Pd26  1  0.000085  0.000188  0.999909  1
  Pd  Pd27  1  0.000085  0.000188  0.500091  1
