# generated using pymatgen
data_Ac2Ni18GeP9
_symmetry_space_group_name_H-M   'P 1'
_cell_length_a   6.52732400
_cell_length_b   6.52732315
_cell_length_c   10.74891800
_cell_angle_alpha   90.00000000
_cell_angle_beta   90.00000000
_cell_angle_gamma   119.99999417
_symmetry_Int_Tables_number   1
_chemical_formula_structural   Ac2Ni18GeP9
_chemical_formula_sum   'Ac2 Ni18 Ge1 P9'
_cell_volume   396.61185516
_cell_formula_units_Z   1
loop_
 _symmetry_equiv_pos_site_id
 _symmetry_equiv_pos_as_xyz
  1  'x, y, z'
loop_
 _atom_site_type_symbol
 _atom_site_label
 _atom_site_symmetry_multiplicity
 _atom_site_fract_x
 _atom_site_fract_y
 _atom_site_fract_z
 _atom_site_occupancy
  Ac  Ac0  1  0.000000  0.000000  0.000761  1
  Ac  Ac1  1  0.000000  0.000000  0.499431  1
  Ni  Ni2  1  0.539978  0.079957  0.108374  1
  Ni  Ni3  1  0.464022  0.535978  0.606785  1
  Ni  Ni4  1  0.071956  0.535978  0.606785  1
  Ni  Ni5  1  0.920043  0.460022  0.108374  1
  Ni  Ni6  1  0.539978  0.460022  0.108374  1
  Ni  Ni7  1  0.467244  0.934486  0.889505  1
  Ni  Ni8  1  0.467244  0.532756  0.889505  1
  Ni  Ni9  1  0.464022  0.928044  0.606785  1
  Ni  Ni10  1  0.065514  0.532756  0.889505  1
  Ni  Ni11  1  0.927982  0.463991  0.393895  1
  Ni  Ni12  1  0.536009  0.072018  0.393895  1
  Ni  Ni13  1  0.536009  0.463991  0.393895  1
  Ni  Ni14  1  0.201121  0.402243  0.252731  1
  Ni  Ni15  1  0.798356  0.201644  0.747730  1
  Ni  Ni16  1  0.403288  0.201644  0.747730  1
  Ni  Ni17  1  0.597757  0.798879  0.252731  1
  Ni  Ni18  1  0.201121  0.798879  0.252731  1
  Ni  Ni19  1  0.798356  0.596712  0.747730  1
  Ge  Ge20  1  0.333333  0.666667  0.063685  1
  P  P21  1  0.825053  0.650108  0.250817  1
  P  P22  1  0.174973  0.825027  0.749637  1
  P  P23  1  0.650056  0.825027  0.749637  1
  P  P24  1  0.349892  0.174947  0.250817  1
  P  P25  1  0.825053  0.174947  0.250817  1
  P  P26  1  0.174973  0.349944  0.749637  1
  P  P27  1  0.666667  0.333333  0.561718  1
  P  P28  1  0.666667  0.333333  0.937983  1
  P  P29  1  0.333333  0.666667  0.438000  1
