# generated using pymatgen
data_Pa8Re3B24W
_symmetry_space_group_name_H-M   'P 1'
_cell_length_a   3.71135200
_cell_length_b   9.40033703
_cell_length_c   11.51974055
_cell_angle_alpha   89.97781212
_cell_angle_beta   90.00000000
_cell_angle_gamma   90.00000000
_symmetry_Int_Tables_number   1
_chemical_formula_structural   Pa8Re3B24W
_chemical_formula_sum   'Pa8 Re3 B24 W1'
_cell_volume   401.90021318
_cell_formula_units_Z   1
loop_
 _symmetry_equiv_pos_site_id
 _symmetry_equiv_pos_as_xyz
  1  'x, y, z'
loop_
 _atom_site_type_symbol
 _atom_site_label
 _atom_site_symmetry_multiplicity
 _atom_site_fract_x
 _atom_site_fract_y
 _atom_site_fract_z
 _atom_site_occupancy
  Pa  Pa0  1  0.000000  0.335022  0.407479  1
  Pa  Pa1  1  0.000000  0.665625  0.591251  1
  Pa  Pa2  1  0.000000  0.833408  0.092950  1
  Pa  Pa3  1  0.000000  0.165249  0.908057  1
  Pa  Pa4  1  0.000000  0.952677  0.388534  1
  Pa  Pa5  1  0.000000  0.047088  0.611786  1
  Pa  Pa6  1  0.000000  0.453881  0.111741  1
  Pa  Pa7  1  0.000000  0.546738  0.888087  1
  Re  Re8  1  0.000000  0.355621  0.680356  1
  Re  Re9  1  0.000000  0.144353  0.179472  1
  Re  Re10  1  0.000000  0.855867  0.820161  1
  B  B11  1  0.500000  0.550105  0.432991  1
  B  B12  1  0.500000  0.448948  0.568139  1
  B  B13  1  0.500000  0.050440  0.067750  1
  B  B14  1  0.500000  0.949564  0.932314  1
  B  B15  1  0.500000  0.741841  0.424333  1
  B  B16  1  0.500000  0.258282  0.576697  1
  B  B17  1  0.500000  0.241495  0.076412  1
  B  B18  1  0.500000  0.758260  0.923084  1
  B  B19  1  0.500000  0.801847  0.273639  1
  B  B20  1  0.500000  0.198827  0.726212  1
  B  B21  1  0.500000  0.300588  0.225673  1
  B  B22  1  0.500000  0.699016  0.773927  1
  B  B23  1  0.500000  0.645675  0.188175  1
  B  B24  1  0.500000  0.354729  0.811209  1
  B  B25  1  0.500000  0.145133  0.310913  1
  B  B26  1  0.500000  0.855154  0.689102  1
  B  B27  1  0.500000  0.988750  0.217588  1
  B  B28  1  0.500000  0.012064  0.782593  1
  B  B29  1  0.500000  0.487024  0.281991  1
  B  B30  1  0.500000  0.511682  0.717623  1
  B  B31  1  0.500000  0.644487  0.039116  1
  B  B32  1  0.500000  0.355204  0.959874  1
  B  B33  1  0.500000  0.144864  0.459914  1
  B  B34  1  0.500000  0.856216  0.540709  1
  W  W35  1  0.000000  0.644274  0.320147  1
