# generated using pymatgen
data_Y5In4PtRh
_symmetry_space_group_name_H-M   'P 1'
_cell_length_a   3.64512400
_cell_length_b   8.15581987
_cell_length_c   18.28237900
_cell_angle_alpha   89.93740599
_cell_angle_beta   90.00000000
_cell_angle_gamma   90.00000000
_symmetry_Int_Tables_number   1
_chemical_formula_structural   Y5In4PtRh
_chemical_formula_sum   'Y10 In8 Pt2 Rh2'
_cell_volume   543.51605908
_cell_formula_units_Z   2
loop_
 _symmetry_equiv_pos_site_id
 _symmetry_equiv_pos_as_xyz
  1  'x, y, z'
loop_
 _atom_site_type_symbol
 _atom_site_label
 _atom_site_symmetry_multiplicity
 _atom_site_fract_x
 _atom_site_fract_y
 _atom_site_fract_z
 _atom_site_occupancy
  Y  Y0  1  0.500000  0.247765  0.779196  1
  Y  Y1  1  0.500000  0.752235  0.220804  1
  Y  Y2  1  0.500000  0.265190  0.278403  1
  Y  Y3  1  0.500000  0.734810  0.721597  1
  Y  Y4  1  0.500000  0.116039  0.585898  1
  Y  Y5  1  0.500000  0.883961  0.414102  1
  Y  Y6  1  0.500000  0.385670  0.087335  1
  Y  Y7  1  0.500000  0.614330  0.912665  1
  Y  Y8  1  0.500000  0.000000  0.000000  1
  Y  Y9  1  0.500000  0.500000  0.500000  1
  In  In10  1  0.000000  0.077400  0.148656  1
  In  In11  1  0.000000  0.922600  0.851344  1
  In  In12  1  0.000000  0.426225  0.649322  1
  In  In13  1  0.000000  0.573775  0.350678  1
  In  In14  1  0.000000  0.208067  0.433093  1
  In  In15  1  0.000000  0.791933  0.566907  1
  In  In16  1  0.000000  0.292995  0.931853  1
  In  In17  1  0.000000  0.707005  0.068147  1
  Pt  Pt18  1  0.000000  0.018795  0.696972  1
  Pt  Pt19  1  0.000000  0.981205  0.303028  1
  Rh  Rh20  1  0.000000  0.481638  0.195444  1
  Rh  Rh21  1  0.000000  0.518362  0.804556  1
