# generated using pymatgen
data_Tb5ErTiAl23Ru8
_symmetry_space_group_name_H-M   'P 1'
_cell_length_a   8.83522326
_cell_length_b   8.83512139
_cell_length_c   9.56691601
_cell_angle_alpha   89.99457418
_cell_angle_beta   90.00554276
_cell_angle_gamma   120.06119813
_symmetry_Int_Tables_number   1
_chemical_formula_structural   Tb5ErTiAl23Ru8
_chemical_formula_sum   'Tb5 Er1 Ti1 Al23 Ru8'
_cell_volume   646.34514552
_cell_formula_units_Z   1
loop_
 _symmetry_equiv_pos_site_id
 _symmetry_equiv_pos_as_xyz
  1  'x, y, z'
loop_
 _atom_site_type_symbol
 _atom_site_label
 _atom_site_symmetry_multiplicity
 _atom_site_fract_x
 _atom_site_fract_y
 _atom_site_fract_z
 _atom_site_occupancy
  Tb  Tb0  1  0.193566  0.386934  0.249857  1
  Tb  Tb1  1  0.806702  0.613541  0.748954  1
  Tb  Tb2  1  0.613067  0.806432  0.249855  1
  Tb  Tb3  1  0.386458  0.193297  0.748952  1
  Tb  Tb4  1  0.193540  0.806456  0.249851  1
  Er  Er5  1  0.805932  0.194067  0.748896  1
  Ti  Ti6  1  0.333360  0.666651  0.994491  1
  Al  Al7  1  0.666812  0.333188  0.982980  1
  Al  Al8  1  0.666857  0.333149  0.514632  1
  Al  Al9  1  0.333399  0.666603  0.484264  1
  Al  Al10  1  0.160944  0.322912  0.577558  1
  Al  Al11  1  0.838060  0.675954  0.422713  1
  Al  Al12  1  0.677089  0.839055  0.577558  1
  Al  Al13  1  0.837431  0.674825  0.077852  1
  Al  Al14  1  0.324043  0.161935  0.422711  1
  Al  Al15  1  0.158228  0.317344  0.923123  1
  Al  Al16  1  0.161639  0.838363  0.577390  1
  Al  Al17  1  0.325172  0.162566  0.077851  1
  Al  Al18  1  0.838113  0.161886  0.423253  1
  Al  Al19  1  0.682658  0.841772  0.923123  1
  Al  Al20  1  0.837515  0.162483  0.077392  1
  Al  Al21  1  0.158804  0.841194  0.923263  1
  Al  Al22  1  0.562203  0.123959  0.252441  1
  Al  Al23  1  0.440678  0.880409  0.750354  1
  Al  Al24  1  0.876037  0.437794  0.252439  1
  Al  Al25  1  0.119590  0.559323  0.750353  1
  Al  Al26  1  0.562061  0.437935  0.252414  1
  Al  Al27  1  0.439774  0.560225  0.750353  1
  Al  Al28  1  0.000092  0.999900  0.249348  1
  Al  Al29  1  0.999171  0.000830  0.748991  1
  Ru  Ru30  1  0.498756  0.996777  0.002508  1
  Ru  Ru31  1  0.003223  0.501246  0.002511  1
  Ru  Ru32  1  0.500234  0.999554  0.503543  1
  Ru  Ru33  1  0.498381  0.501614  0.002779  1
  Ru  Ru34  1  0.000451  0.499774  0.503536  1
  Ru  Ru35  1  0.499765  0.500237  0.503254  1
  Ru  Ru36  1  0.000067  0.999937  0.999910  1
  Ru  Ru37  1  0.000127  0.999879  0.498749  1
