# generated using pymatgen
data_YZr2Sc(Al3Rh)6
_symmetry_space_group_name_H-M   'P 1'
_cell_length_a   7.49492435
_cell_length_b   7.48349294
_cell_length_c   9.32865100
_cell_angle_alpha   90.00000000
_cell_angle_beta   90.00000000
_cell_angle_gamma   119.66857306
_symmetry_Int_Tables_number   1
_chemical_formula_structural   YZr2Sc(Al3Rh)6
_chemical_formula_sum   'Y1 Zr2 Sc1 Al18 Rh6'
_cell_volume   454.63390591
_cell_formula_units_Z   1
loop_
 _symmetry_equiv_pos_site_id
 _symmetry_equiv_pos_as_xyz
  1  'x, y, z'
loop_
 _atom_site_type_symbol
 _atom_site_label
 _atom_site_symmetry_multiplicity
 _atom_site_fract_x
 _atom_site_fract_y
 _atom_site_fract_z
 _atom_site_occupancy
  Y  Y0  1  0.329498  0.006479  0.750000  1
  Zr  Zr1  1  0.994501  0.671364  0.250000  1
  Zr  Zr2  1  0.004943  0.328126  0.750000  1
  Sc  Sc3  1  0.671584  0.994159  0.250000  1
  Al  Al4  1  0.120979  0.121355  0.250000  1
  Al  Al5  1  0.873228  0.876100  0.750000  1
  Al  Al6  1  0.996075  0.334338  0.078482  1
  Al  Al7  1  0.000214  0.662406  0.926111  1
  Al  Al8  1  0.000214  0.662406  0.573889  1
  Al  Al9  1  0.335529  0.997748  0.417770  1
  Al  Al10  1  0.996075  0.334338  0.421518  1
  Al  Al11  1  0.667961  0.001810  0.574522  1
  Al  Al12  1  0.667961  0.001810  0.925478  1
  Al  Al13  1  0.335529  0.997748  0.082230  1
  Al  Al14  1  0.331119  0.333719  0.553198  1
  Al  Al15  1  0.669228  0.669435  0.441548  1
  Al  Al16  1  0.669228  0.669435  0.058452  1
  Al  Al17  1  0.331119  0.333719  0.946802  1
  Al  Al18  1  0.337286  0.554078  0.250000  1
  Al  Al19  1  0.666079  0.451547  0.750000  1
  Al  Al20  1  0.557509  0.342564  0.250000  1
  Al  Al21  1  0.444606  0.655583  0.750000  1
  Rh  Rh22  1  0.672577  0.327772  0.999811  1
  Rh  Rh23  1  0.327415  0.672414  0.001093  1
  Rh  Rh24  1  0.327415  0.672414  0.498907  1
  Rh  Rh25  1  0.672577  0.327772  0.500189  1
  Rh  Rh26  1  0.999776  0.999680  0.000429  1
  Rh  Rh27  1  0.999776  0.999680  0.499571  1
