# generated using pymatgen
data_SrAc2Cu6Ni7B2
_symmetry_space_group_name_H-M   'P 1'
_cell_length_a   5.22348800
_cell_length_b   5.22908882
_cell_length_c   10.99780300
_cell_angle_alpha   90.00000000
_cell_angle_beta   90.00000000
_cell_angle_gamma   119.96456231
_symmetry_Int_Tables_number   1
_chemical_formula_structural   SrAc2Cu6Ni7B2
_chemical_formula_sum   'Sr1 Ac2 Cu6 Ni7 B2'
_cell_volume   260.24246331
_cell_formula_units_Z   1
loop_
 _symmetry_equiv_pos_site_id
 _symmetry_equiv_pos_as_xyz
  1  'x, y, z'
loop_
 _atom_site_type_symbol
 _atom_site_label
 _atom_site_symmetry_multiplicity
 _atom_site_fract_x
 _atom_site_fract_y
 _atom_site_fract_z
 _atom_site_occupancy
  Sr  Sr0  1  0.000000  0.000000  0.000000  1
  Ac  Ac1  1  0.000000  0.000000  0.317208  1
  Ac  Ac2  1  0.000000  0.000000  0.682792  1
  Cu  Cu3  1  0.500000  0.500000  0.500000  1
  Cu  Cu4  1  0.000000  0.500000  0.500000  1
  Cu  Cu5  1  0.335019  0.670041  0.312868  1
  Cu  Cu6  1  0.664981  0.329959  0.312868  1
  Cu  Cu7  1  0.664981  0.329959  0.687132  1
  Cu  Cu8  1  0.335019  0.670041  0.687132  1
  Ni  Ni9  1  0.500000  0.000000  0.500000  1
  Ni  Ni10  1  0.500000  0.000000  0.125209  1
  Ni  Ni11  1  0.500000  0.500000  0.125241  1
  Ni  Ni12  1  0.000000  0.500000  0.125241  1
  Ni  Ni13  1  0.500000  0.000000  0.874791  1
  Ni  Ni14  1  0.500000  0.500000  0.874759  1
  Ni  Ni15  1  0.000000  0.500000  0.874759  1
  B  B16  1  0.333361  0.666724  0.000000  1
  B  B17  1  0.666639  0.333276  0.000000  1
