# generated using pymatgen
data_LaNd3Sm2OsI10
_symmetry_space_group_name_H-M   'P 1'
_cell_length_a   8.01103644
_cell_length_b   10.03431516
_cell_length_c   9.93704889
_cell_angle_alpha   107.16316818
_cell_angle_beta   96.74215149
_cell_angle_gamma   105.61284551
_symmetry_Int_Tables_number   1
_chemical_formula_structural   LaNd3Sm2OsI10
_chemical_formula_sum   'La1 Nd3 Sm2 Os1 I10'
_cell_volume   718.04912501
_cell_formula_units_Z   1
loop_
 _symmetry_equiv_pos_site_id
 _symmetry_equiv_pos_as_xyz
  1  'x, y, z'
loop_
 _atom_site_type_symbol
 _atom_site_label
 _atom_site_symmetry_multiplicity
 _atom_site_fract_x
 _atom_site_fract_y
 _atom_site_fract_z
 _atom_site_occupancy
  La  La0  1  0.613510  0.042470  0.271169  1
  Nd  Nd1  1  0.859488  0.133667  0.676632  1
  Nd  Nd2  1  0.140134  0.865896  0.323400  1
  Nd  Nd3  1  0.386326  0.957463  0.728956  1
  Sm  Sm4  1  0.470097  0.292435  0.589070  1
  Sm  Sm5  1  0.530061  0.708115  0.412163  1
  Os  Os6  1  0.503349  0.001747  0.494497  1
  I  I7  1  0.414736  0.630285  0.679269  1
  I  I8  1  0.583432  0.375285  0.323818  1
  I  I9  1  0.295239  0.260886  0.850716  1
  I  I10  1  0.705814  0.732574  0.149381  1
  I  I11  1  0.852670  0.457875  0.772551  1
  I  I12  1  0.147530  0.541898  0.227929  1
  I  I13  1  0.050820  0.183329  0.412733  1
  I  I14  1  0.234782  0.911716  0.037762  1
  I  I15  1  0.756474  0.085383  0.958961  1
  I  I16  1  0.955538  0.818975  0.590992  1
