# generated using pymatgen
data_La5As2IO10
_symmetry_space_group_name_H-M   'P 1'
_cell_length_a   5.81334828
_cell_length_b   7.01093236
_cell_length_c   9.06992400
_cell_angle_alpha   95.20751776
_cell_angle_beta   108.69158264
_cell_angle_gamma   114.49361251
_symmetry_Int_Tables_number   1
_chemical_formula_structural   La5As2IO10
_chemical_formula_sum   'La5 As2 I1 O10'
_cell_volume   307.74369113
_cell_formula_units_Z   1
loop_
 _symmetry_equiv_pos_site_id
 _symmetry_equiv_pos_as_xyz
  1  'x, y, z'
loop_
 _atom_site_type_symbol
 _atom_site_label
 _atom_site_symmetry_multiplicity
 _atom_site_fract_x
 _atom_site_fract_y
 _atom_site_fract_z
 _atom_site_occupancy
  La  La0  1  0.000000  0.000000  0.000000  1
  La  La1  1  0.381145  0.633783  0.128506  1
  La  La2  1  0.788525  0.287251  0.289799  1
  La  La3  1  0.211474  0.712749  0.710201  1
  La  La4  1  0.618856  0.366218  0.871495  1
  As  As5  1  0.169954  0.951923  0.387986  1
  As  As6  1  0.830046  0.048077  0.612013  1
  I  I7  1  0.500000  0.499999  0.500000  1
  O  O8  1  0.457182  0.323261  0.082627  1
  O  O9  1  0.948706  0.323261  0.082627  1
  O  O10  1  0.337666  0.961582  0.246601  1
  O  O11  1  0.870517  0.961582  0.246601  1
  O  O12  1  0.029136  0.671444  0.386828  1
  O  O13  1  0.970864  0.328556  0.613172  1
  O  O14  1  0.129483  0.038418  0.753398  1
  O  O15  1  0.662334  0.038418  0.753398  1
  O  O16  1  0.051294  0.676739  0.917372  1
  O  O17  1  0.542818  0.676739  0.917372  1
