# generated using pymatgen
data_BeGa3Ir4
_symmetry_space_group_name_H-M   'P 1'
_cell_length_a   6.70240410
_cell_length_b   6.70240369
_cell_length_c   3.00456000
_cell_angle_alpha   90.00000000
_cell_angle_beta   90.00000000
_cell_angle_gamma   126.93940670
_symmetry_Int_Tables_number   1
_chemical_formula_structural   BeGa3Ir4
_chemical_formula_sum   'Be1 Ga3 Ir4'
_cell_volume   107.87887467
_cell_formula_units_Z   1
loop_
 _symmetry_equiv_pos_site_id
 _symmetry_equiv_pos_as_xyz
  1  'x, y, z'
loop_
 _atom_site_type_symbol
 _atom_site_label
 _atom_site_symmetry_multiplicity
 _atom_site_fract_x
 _atom_site_fract_y
 _atom_site_fract_z
 _atom_site_occupancy
  Be  Be0  1  0.500000  0.500000  0.500000  1
  Ga  Ga1  1  0.247757  0.752243  0.500000  1
  Ga  Ga2  1  0.000000  0.000000  0.500000  1
  Ga  Ga3  1  0.752243  0.247757  0.500000  1
  Ir  Ir4  1  0.861692  0.619390  0.000000  1
  Ir  Ir5  1  0.380610  0.138308  0.000000  1
  Ir  Ir6  1  0.138308  0.380610  0.000000  1
  Ir  Ir7  1  0.619390  0.861692  0.000000  1
