# generated using pymatgen
data_ScNb(SiPt)2
_symmetry_space_group_name_H-M   'P 1'
_cell_length_a   3.86118500
_cell_length_b   6.54300600
_cell_length_c   7.52760900
_cell_angle_alpha   90.00000000
_cell_angle_beta   90.00000000
_cell_angle_gamma   90.00000000
_symmetry_Int_Tables_number   1
_chemical_formula_structural   ScNb(SiPt)2
_chemical_formula_sum   'Sc2 Nb2 Si4 Pt4'
_cell_volume   190.17568172
_cell_formula_units_Z   2
loop_
 _symmetry_equiv_pos_site_id
 _symmetry_equiv_pos_as_xyz
  1  'x, y, z'
loop_
 _atom_site_type_symbol
 _atom_site_label
 _atom_site_symmetry_multiplicity
 _atom_site_fract_x
 _atom_site_fract_y
 _atom_site_fract_z
 _atom_site_occupancy
  Sc  Sc0  1  0.750000  0.475310  0.322782  1
  Sc  Sc1  1  0.250000  0.024690  0.822782  1
  Nb  Nb2  1  0.750000  0.970309  0.174171  1
  Nb  Nb3  1  0.250000  0.529691  0.674171  1
  Si  Si4  1  0.250000  0.255632  0.123973  1
  Si  Si5  1  0.250000  0.769082  0.376304  1
  Si  Si6  1  0.750000  0.730918  0.876304  1
  Si  Si7  1  0.750000  0.244368  0.623973  1
  Pt  Pt8  1  0.250000  0.642326  0.066009  1
  Pt  Pt9  1  0.250000  0.153042  0.436760  1
  Pt  Pt10  1  0.750000  0.857674  0.566009  1
  Pt  Pt11  1  0.750000  0.346958  0.936760  1
