# generated using pymatgen
data_CeDy10Tm5(CdRu)4
_symmetry_space_group_name_H-M   'P 1'
_cell_length_a   9.62265188
_cell_length_b   9.62242086
_cell_length_c   9.63057603
_cell_angle_alpha   59.39632274
_cell_angle_beta   59.39606335
_cell_angle_gamma   59.38896875
_symmetry_Int_Tables_number   1
_chemical_formula_structural   CeDy10Tm5(CdRu)4
_chemical_formula_sum   'Ce1 Dy10 Tm5 Cd4 Ru4'
_cell_volume   621.84654874
_cell_formula_units_Z   1
loop_
 _symmetry_equiv_pos_site_id
 _symmetry_equiv_pos_as_xyz
  1  'x, y, z'
loop_
 _atom_site_type_symbol
 _atom_site_label
 _atom_site_symmetry_multiplicity
 _atom_site_fract_x
 _atom_site_fract_y
 _atom_site_fract_z
 _atom_site_occupancy
  Ce  Ce0  1  0.342471  0.342460  0.341442  1
  Dy  Dy1  1  0.561999  0.561996  0.938982  1
  Dy  Dy2  1  0.939240  0.559555  0.939957  1
  Dy  Dy3  1  0.559560  0.939237  0.939954  1
  Dy  Dy4  1  0.939722  0.939717  0.558930  1
  Dy  Dy5  1  0.562560  0.938843  0.561462  1
  Dy  Dy6  1  0.938848  0.562557  0.561462  1
  Dy  Dy7  1  0.188572  0.188578  0.813753  1
  Dy  Dy8  1  0.810365  0.188312  0.810996  1
  Dy  Dy9  1  0.188311  0.810362  0.810995  1
  Dy  Dy10  1  0.811116  0.811113  0.188473  1
  Tm  Tm11  1  0.188312  0.813137  0.189171  1
  Tm  Tm12  1  0.813144  0.188311  0.189173  1
  Tm  Tm13  1  0.346556  0.346596  0.958690  1
  Tm  Tm14  1  0.346221  0.958345  0.346468  1
  Tm  Tm15  1  0.958361  0.346237  0.346457  1
  Cd  Cd16  1  0.579685  0.579690  0.257917  1
  Cd  Cd17  1  0.580017  0.258032  0.579507  1
  Cd  Cd18  1  0.258036  0.580016  0.579508  1
  Cd  Cd19  1  0.579508  0.579505  0.579606  1
  Ru  Ru20  1  0.146112  0.146126  0.574314  1
  Ru  Ru21  1  0.146326  0.574800  0.146166  1
  Ru  Ru22  1  0.574795  0.146321  0.146180  1
  Ru  Ru23  1  0.140161  0.140156  0.140436  1
