# generated using pymatgen
data_Hf8Co2MoIr
_symmetry_space_group_name_H-M   'P 1'
_cell_length_a   8.63503105
_cell_length_b   8.63503015
_cell_length_c   8.61084400
_cell_angle_alpha   60.09261864
_cell_angle_beta   60.09262207
_cell_angle_gamma   60.02157013
_symmetry_Int_Tables_number   1
_chemical_formula_structural   Hf8Co2MoIr
_chemical_formula_sum   'Hf16 Co4 Mo2 Ir2'
_cell_volume   454.71157196
_cell_formula_units_Z   2
loop_
 _symmetry_equiv_pos_site_id
 _symmetry_equiv_pos_as_xyz
  1  'x, y, z'
loop_
 _atom_site_type_symbol
 _atom_site_label
 _atom_site_symmetry_multiplicity
 _atom_site_fract_x
 _atom_site_fract_y
 _atom_site_fract_z
 _atom_site_occupancy
  Hf  Hf0  1  0.696061  0.101210  0.101363  1
  Hf  Hf1  1  0.101210  0.696061  0.101363  1
  Hf  Hf2  1  0.100145  0.100145  0.698891  1
  Hf  Hf3  1  0.100145  0.100145  0.100816  1
  Hf  Hf4  1  0.313840  0.313840  0.686160  1
  Hf  Hf5  1  0.684890  0.684890  0.315110  1
  Hf  Hf6  1  0.315314  0.687587  0.314509  1
  Hf  Hf7  1  0.687587  0.315314  0.682589  1
  Hf  Hf8  1  0.687587  0.315314  0.314509  1
  Hf  Hf9  1  0.315314  0.687587  0.682589  1
  Hf  Hf10  1  0.952906  0.952906  0.547094  1
  Hf  Hf11  1  0.547182  0.547182  0.952818  1
  Hf  Hf12  1  0.948672  0.549855  0.950629  1
  Hf  Hf13  1  0.549855  0.948672  0.550845  1
  Hf  Hf14  1  0.549855  0.948672  0.950629  1
  Hf  Hf15  1  0.948672  0.549855  0.550845  1
  Co  Co16  1  0.327644  0.888858  0.891748  1
  Co  Co17  1  0.888858  0.327644  0.891748  1
  Co  Co18  1  0.889898  0.889898  0.328405  1
  Co  Co19  1  0.889898  0.889898  0.891800  1
  Mo  Mo20  1  0.003845  0.332121  0.332016  1
  Mo  Mo21  1  0.332121  0.003845  0.332016  1
  Ir  Ir22  1  0.334245  0.334245  0.995130  1
  Ir  Ir23  1  0.334245  0.334245  0.336377  1
