# generated using pymatgen
data_Tb15Sm5(SnSb)8
_symmetry_space_group_name_H-M   'P 1'
_cell_length_a   8.16518047
_cell_length_b   8.19786829
_cell_length_c   15.48748361
_cell_angle_alpha   90.01603612
_cell_angle_beta   89.77043295
_cell_angle_gamma   89.95875686
_symmetry_Int_Tables_number   1
_chemical_formula_structural   Tb15Sm5(SnSb)8
_chemical_formula_sum   'Tb15 Sm5 Sn8 Sb8'
_cell_volume   1036.67820633
_cell_formula_units_Z   1
loop_
 _symmetry_equiv_pos_site_id
 _symmetry_equiv_pos_as_xyz
  1  'x, y, z'
loop_
 _atom_site_type_symbol
 _atom_site_label
 _atom_site_symmetry_multiplicity
 _atom_site_fract_x
 _atom_site_fract_y
 _atom_site_fract_z
 _atom_site_occupancy
  Tb  Tb0  1  0.375455  0.838781  0.878830  1
  Tb  Tb1  1  0.877086  0.661375  0.620861  1
  Tb  Tb2  1  0.622584  0.161719  0.379286  1
  Tb  Tb3  1  0.123701  0.338584  0.121424  1
  Tb  Tb4  1  0.622544  0.160616  0.121504  1
  Tb  Tb5  1  0.120472  0.338677  0.379335  1
  Tb  Tb6  1  0.379585  0.838855  0.621235  1
  Tb  Tb7  1  0.876921  0.661099  0.878100  1
  Tb  Tb8  1  0.539619  0.325335  0.895010  1
  Tb  Tb9  1  0.042704  0.173383  0.605716  1
  Tb  Tb10  1  0.457872  0.673694  0.394733  1
  Tb  Tb11  1  0.206592  0.498365  0.749558  1
  Tb  Tb12  1  0.706694  0.001807  0.750396  1
  Tb  Tb13  1  0.793244  0.501460  0.249354  1
  Tb  Tb14  1  0.293422  0.998051  0.250673  1
  Sm  Sm15  1  0.961801  0.822974  0.103072  1
  Sm  Sm16  1  0.463792  0.676215  0.102533  1
  Sm  Sm17  1  0.962331  0.824718  0.397321  1
  Sm  Sm18  1  0.537712  0.324572  0.602692  1
  Sm  Sm19  1  0.035779  0.176568  0.897923  1
  Sn  Sn20  1  0.572974  0.624054  0.750078  1
  Sn  Sn21  1  0.073338  0.875856  0.749579  1
  Sn  Sn22  1  0.426528  0.375622  0.250453  1
  Sn  Sn23  1  0.926643  0.124390  0.250278  1
  Sn  Sn24  1  0.343057  0.143830  0.750832  1
  Sn  Sn25  1  0.843122  0.356125  0.749067  1
  Sn  Sn26  1  0.656801  0.856300  0.251174  1
  Sn  Sn27  1  0.157784  0.642784  0.250272  1
  Sb  Sb28  1  0.278915  0.027901  0.046043  1
  Sb  Sb29  1  0.774405  0.476384  0.453375  1
  Sb  Sb30  1  0.725644  0.976361  0.546611  1
  Sb  Sb31  1  0.222965  0.526366  0.954089  1
  Sb  Sb32  1  0.717849  0.970863  0.954696  1
  Sb  Sb33  1  0.220062  0.529389  0.544486  1
  Sb  Sb34  1  0.280124  0.029140  0.455789  1
  Sb  Sb35  1  0.779881  0.467787  0.043622  1
