# generated using pymatgen
data_La16Ho3InIr12
_symmetry_space_group_name_H-M   'P 1'
_cell_length_a   11.37774700
_cell_length_b   11.37774700
_cell_length_c   6.47563700
_cell_angle_alpha   90.00000000
_cell_angle_beta   90.00000000
_cell_angle_gamma   90.00000000
_symmetry_Int_Tables_number   1
_chemical_formula_structural   La16Ho3InIr12
_chemical_formula_sum   'La16 Ho3 In1 Ir12'
_cell_volume   838.29145765
_cell_formula_units_Z   1
loop_
 _symmetry_equiv_pos_site_id
 _symmetry_equiv_pos_as_xyz
  1  'x, y, z'
loop_
 _atom_site_type_symbol
 _atom_site_label
 _atom_site_symmetry_multiplicity
 _atom_site_fract_x
 _atom_site_fract_y
 _atom_site_fract_z
 _atom_site_occupancy
  La  La0  1  0.281810  0.086824  0.391166  1
  La  La1  1  0.286916  0.912419  0.891228  1
  La  La2  1  0.713084  0.087581  0.891228  1
  La  La3  1  0.718190  0.913176  0.391166  1
  La  La4  1  0.588450  0.788204  0.892344  1
  La  La5  1  0.588732  0.211894  0.389792  1
  La  La6  1  0.411268  0.788106  0.389792  1
  La  La7  1  0.411550  0.211796  0.892344  1
  La  La8  1  0.211894  0.411268  0.610208  1
  La  La9  1  0.211796  0.588450  0.107656  1
  La  La10  1  0.788204  0.411550  0.107656  1
  La  La11  1  0.788106  0.588732  0.610208  1
  La  La12  1  0.912419  0.713084  0.108772  1
  La  La13  1  0.913176  0.281810  0.608834  1
  La  La14  1  0.086824  0.718190  0.608834  1
  La  La15  1  0.087581  0.286916  0.108772  1
  Ho  Ho16  1  0.000000  0.000000  0.000000  1
  Ho  Ho17  1  0.500000  0.500000  0.000000  1
  Ho  Ho18  1  0.500000  0.500000  0.500000  1
  In  In19  1  0.000000  0.000000  0.500000  1
  Ir  Ir20  1  0.850262  0.150980  0.245982  1
  Ir  Ir21  1  0.849020  0.850262  0.754018  1
  Ir  Ir22  1  0.150980  0.149738  0.754018  1
  Ir  Ir23  1  0.149738  0.849020  0.245982  1
  Ir  Ir24  1  0.648515  0.352749  0.748537  1
  Ir  Ir25  1  0.647251  0.648515  0.251463  1
  Ir  Ir26  1  0.352749  0.351485  0.251463  1
  Ir  Ir27  1  0.351485  0.647251  0.748537  1
  Ir  Ir28  1  0.500000  0.000000  0.122903  1
  Ir  Ir29  1  0.500000  0.000000  0.621082  1
  Ir  Ir30  1  0.000000  0.500000  0.877097  1
  Ir  Ir31  1  0.000000  0.500000  0.378918  1
