# generated using pymatgen
data_Ho2TmPaNiB14
_symmetry_space_group_name_H-M   'P 1'
_cell_length_a   7.21003201
_cell_length_b   7.21163339
_cell_length_c   7.49054700
_cell_angle_alpha   90.00000000
_cell_angle_beta   90.00000000
_cell_angle_gamma   90.01515808
_symmetry_Int_Tables_number   1
_chemical_formula_structural   Ho2TmPaNiB14
_chemical_formula_sum   'Ho4 Tm2 Pa2 Ni2 B28'
_cell_volume   389.47927425
_cell_formula_units_Z   2
loop_
 _symmetry_equiv_pos_site_id
 _symmetry_equiv_pos_as_xyz
  1  'x, y, z'
loop_
 _atom_site_type_symbol
 _atom_site_label
 _atom_site_symmetry_multiplicity
 _atom_site_fract_x
 _atom_site_fract_y
 _atom_site_fract_z
 _atom_site_occupancy
  Ho  Ho0  1  0.694038  0.167640  0.500000  1
  Ho  Ho1  1  0.306280  0.833449  0.500000  1
  Ho  Ho2  1  0.833189  0.694054  0.500000  1
  Ho  Ho3  1  0.166805  0.306552  0.500000  1
  Tm  Tm4  1  0.334663  0.807662  0.000000  1
  Tm  Tm5  1  0.808081  0.665174  0.000000  1
  Pa  Pa6  1  0.193807  0.329350  0.000000  1
  Pa  Pa7  1  0.670740  0.193584  0.000000  1
  Ni  Ni8  1  0.999535  0.995957  0.000000  1
  Ni  Ni9  1  0.499697  0.501526  0.500000  1
  B  B10  1  0.174026  0.038719  0.231839  1
  B  B11  1  0.960719  0.172837  0.233370  1
  B  B12  1  0.040099  0.823750  0.230802  1
  B  B13  1  0.675041  0.462053  0.268178  1
  B  B14  1  0.325199  0.541413  0.268877  1
  B  B15  1  0.824577  0.959565  0.232432  1
  B  B16  1  0.539861  0.675974  0.270388  1
  B  B17  1  0.460220  0.326678  0.267580  1
  B  B18  1  0.824577  0.959565  0.767568  1
  B  B19  1  0.040099  0.823750  0.769198  1
  B  B20  1  0.960719  0.172837  0.766630  1
  B  B21  1  0.325199  0.541413  0.731123  1
  B  B22  1  0.675041  0.462053  0.731822  1
  B  B23  1  0.174026  0.038719  0.768161  1
  B  B24  1  0.460220  0.326678  0.732420  1
  B  B25  1  0.539861  0.675974  0.729612  1
  B  B26  1  0.088566  0.588867  0.246177  1
  B  B27  1  0.410021  0.090128  0.243409  1
  B  B28  1  0.587872  0.912005  0.247265  1
  B  B29  1  0.910208  0.410593  0.244064  1
  B  B30  1  0.910208  0.410593  0.755936  1
  B  B31  1  0.587872  0.912005  0.752735  1
  B  B32  1  0.410021  0.090128  0.756591  1
  B  B33  1  0.088566  0.588867  0.753823  1
  B  B34  1  0.000213  0.997199  0.390569  1
  B  B35  1  0.499961  0.502747  0.110594  1
  B  B36  1  0.000213  0.997199  0.609431  1
  B  B37  1  0.499961  0.502747  0.889406  1
