# generated using pymatgen
data_DyEr11TcOs3
_symmetry_space_group_name_H-M   'P 1'
_cell_length_a   6.26116240
_cell_length_b   7.37981143
_cell_length_c   8.98587300
_cell_angle_alpha   90.00000000
_cell_angle_beta   90.00000000
_cell_angle_gamma   90.03480985
_symmetry_Int_Tables_number   1
_chemical_formula_structural   DyEr11TcOs3
_chemical_formula_sum   'Dy1 Er11 Tc1 Os3'
_cell_volume   415.20294865
_cell_formula_units_Z   1
loop_
 _symmetry_equiv_pos_site_id
 _symmetry_equiv_pos_as_xyz
  1  'x, y, z'
loop_
 _atom_site_type_symbol
 _atom_site_label
 _atom_site_symmetry_multiplicity
 _atom_site_fract_x
 _atom_site_fract_y
 _atom_site_fract_z
 _atom_site_occupancy
  Dy  Dy0  1  0.871620  0.539394  0.250000  1
  Er  Er1  1  0.335267  0.675045  0.062395  1
  Er  Er2  1  0.166104  0.175241  0.437323  1
  Er  Er3  1  0.666699  0.324274  0.562654  1
  Er  Er4  1  0.834148  0.825225  0.936943  1
  Er  Er5  1  0.666699  0.324274  0.937346  1
  Er  Er6  1  0.834148  0.825225  0.563057  1
  Er  Er7  1  0.335267  0.675045  0.437605  1
  Er  Er8  1  0.166104  0.175241  0.062677  1
  Er  Er9  1  0.627020  0.039558  0.250000  1
  Er  Er10  1  0.130051  0.460031  0.750000  1
  Er  Er11  1  0.369477  0.960608  0.750000  1
  Tc  Tc12  1  0.038657  0.883024  0.250000  1
  Os  Os13  1  0.459478  0.381778  0.250000  1
  Os  Os14  1  0.959827  0.118542  0.750000  1
  Os  Os15  1  0.539432  0.617494  0.750000  1
