# generated using pymatgen
data_Th2Mn3Ni9As7
_symmetry_space_group_name_H-M   'P 1'
_cell_length_a   9.52665100
_cell_length_b   9.52665094
_cell_length_c   3.92725000
_cell_angle_alpha   90.00000000
_cell_angle_beta   90.00000000
_cell_angle_gamma   119.99999673
_symmetry_Int_Tables_number   1
_chemical_formula_structural   Th2Mn3Ni9As7
_chemical_formula_sum   'Th2 Mn3 Ni9 As7'
_cell_volume   308.67375331
_cell_formula_units_Z   1
loop_
 _symmetry_equiv_pos_site_id
 _symmetry_equiv_pos_as_xyz
  1  'x, y, z'
loop_
 _atom_site_type_symbol
 _atom_site_label
 _atom_site_symmetry_multiplicity
 _atom_site_fract_x
 _atom_site_fract_y
 _atom_site_fract_z
 _atom_site_occupancy
  Th  Th0  1  0.333333  0.666667  0.000000  1
  Th  Th1  1  0.000000  0.000000  0.500000  1
  Mn  Mn2  1  0.776786  0.227712  0.500000  1
  Mn  Mn3  1  0.772288  0.549075  0.500000  1
  Mn  Mn4  1  0.450925  0.223214  0.500000  1
  Ni  Ni5  1  0.035109  0.268678  0.000000  1
  Ni  Ni6  1  0.731322  0.766431  0.000000  1
  Ni  Ni7  1  0.233569  0.964891  0.000000  1
  Ni  Ni8  1  0.534994  0.053080  0.000000  1
  Ni  Ni9  1  0.946920  0.481914  0.000000  1
  Ni  Ni10  1  0.518086  0.465006  0.000000  1
  Ni  Ni11  1  0.612485  0.900274  0.500000  1
  Ni  Ni12  1  0.099726  0.712209  0.500000  1
  Ni  Ni13  1  0.287791  0.387515  0.500000  1
  As  As14  1  0.771383  0.033865  0.000000  1
  As  As15  1  0.966135  0.737519  0.000000  1
  As  As16  1  0.262481  0.228617  0.000000  1
  As  As17  1  0.371264  0.932172  0.500000  1
  As  As18  1  0.067828  0.439092  0.500000  1
  As  As19  1  0.560908  0.628736  0.500000  1
  As  As20  1  0.666667  0.333333  0.000000  1
