# generated using pymatgen
data_Zr8Ta11Si16Os
_symmetry_space_group_name_H-M   'P 1'
_cell_length_a   6.86310295
_cell_length_b   6.85990369
_cell_length_c   12.71025163
_cell_angle_alpha   90.44927889
_cell_angle_beta   90.01868265
_cell_angle_gamma   89.91567583
_symmetry_Int_Tables_number   1
_chemical_formula_structural   Zr8Ta11Si16Os
_chemical_formula_sum   'Zr8 Ta11 Si16 Os1'
_cell_volume   598.38243558
_cell_formula_units_Z   1
loop_
 _symmetry_equiv_pos_site_id
 _symmetry_equiv_pos_as_xyz
  1  'x, y, z'
loop_
 _atom_site_type_symbol
 _atom_site_label
 _atom_site_symmetry_multiplicity
 _atom_site_fract_x
 _atom_site_fract_y
 _atom_site_fract_z
 _atom_site_occupancy
  Zr  Zr0  1  0.001155  0.662512  0.031592  1
  Zr  Zr1  1  0.994125  0.339844  0.530736  1
  Zr  Zr2  1  0.661684  0.001636  0.969360  1
  Zr  Zr3  1  0.161145  0.500054  0.779768  1
  Zr  Zr4  1  0.833737  0.503285  0.276772  1
  Zr  Zr5  1  0.499316  0.155435  0.218650  1
  Zr  Zr6  1  0.501373  0.837746  0.719094  1
  Zr  Zr7  1  0.340814  0.990989  0.468713  1
  Ta  Ta8  1  0.845856  0.997288  0.372489  1
  Ta  Ta9  1  0.007381  0.161710  0.127649  1
  Ta  Ta10  1  0.999168  0.844756  0.625539  1
  Ta  Ta11  1  0.654766  0.496217  0.875786  1
  Ta  Ta12  1  0.504895  0.346813  0.624575  1
  Ta  Ta13  1  0.499597  0.660760  0.119741  1
  Ta  Ta14  1  0.153945  0.005079  0.873122  1
  Ta  Ta15  1  0.672660  0.666790  0.499743  1
  Ta  Ta16  1  0.831644  0.169558  0.749208  1
  Ta  Ta17  1  0.172443  0.835253  0.249913  1
  Ta  Ta18  1  0.331770  0.333647  0.001263  1
  Si  Si19  1  0.045541  0.698689  0.434287  1
  Si  Si20  1  0.957342  0.299736  0.936965  1
  Si  Si21  1  0.701907  0.042094  0.562381  1
  Si  Si22  1  0.209668  0.464100  0.192950  1
  Si  Si23  1  0.798336  0.544958  0.686350  1
  Si  Si24  1  0.456666  0.201425  0.813701  1
  Si  Si25  1  0.536997  0.780520  0.314152  1
  Si  Si26  1  0.297584  0.959527  0.062743  1
  Si  Si27  1  0.866830  0.791723  0.822566  1
  Si  Si28  1  0.134912  0.210214  0.324155  1
  Si  Si29  1  0.792659  0.872455  0.177393  1
  Si  Si30  1  0.295347  0.632339  0.570643  1
  Si  Si31  1  0.708393  0.367214  0.073359  1
  Si  Si32  1  0.626148  0.295764  0.426389  1
  Si  Si33  1  0.364516  0.708358  0.927123  1
  Si  Si34  1  0.209607  0.134741  0.676449  1
  Os  Os35  1  0.330071  0.486770  0.384680  1
