# generated using pymatgen
data_TbYb3(OsO4)4
_symmetry_space_group_name_H-M   'P 1'
_cell_length_a   5.33509427
_cell_length_b   7.85251472
_cell_length_c   7.49517941
_cell_angle_alpha   76.88768530
_cell_angle_beta   90.19894844
_cell_angle_gamma   90.63543924
_symmetry_Int_Tables_number   1
_chemical_formula_structural   TbYb3(OsO4)4
_chemical_formula_sum   'Tb1 Yb3 Os4 O16'
_cell_volume   305.79647816
_cell_formula_units_Z   1
loop_
 _symmetry_equiv_pos_site_id
 _symmetry_equiv_pos_as_xyz
  1  'x, y, z'
loop_
 _atom_site_type_symbol
 _atom_site_label
 _atom_site_symmetry_multiplicity
 _atom_site_fract_x
 _atom_site_fract_y
 _atom_site_fract_z
 _atom_site_occupancy
  Tb  Tb0  1  0.711640  0.387636  0.396709  1
  Yb  Yb1  1  0.281653  0.627416  0.600408  1
  Yb  Yb2  1  0.204006  0.624495  0.097553  1
  Yb  Yb3  1  0.787778  0.370239  0.900094  1
  Os  Os4  1  0.756015  0.826348  0.796943  1
  Os  Os5  1  0.741770  0.830290  0.296257  1
  Os  Os6  1  0.261598  0.170010  0.705543  1
  Os  Os7  1  0.247041  0.169978  0.203452  1
  O  O8  1  0.027744  0.982822  0.718956  1
  O  O9  1  0.486479  0.992012  0.212756  1
  O  O10  1  0.639751  0.822932  0.546995  1
  O  O11  1  0.860636  0.819952  0.049185  1
  O  O12  1  0.499889  0.663903  0.873582  1
  O  O13  1  0.981254  0.632471  0.812740  1
  O  O14  1  0.977672  0.648548  0.377111  1
  O  O15  1  0.499826  0.636670  0.312134  1
  O  O16  1  0.491831  0.370364  0.680805  1
  O  O17  1  0.004509  0.333212  0.623129  1
  O  O18  1  0.008188  0.360434  0.191828  1
  O  O19  1  0.495669  0.346719  0.128779  1
  O  O20  1  0.146182  0.182601  0.951307  1
  O  O21  1  0.372100  0.179232  0.452426  1
  O  O22  1  0.528229  0.015046  0.785794  1
  O  O23  1  0.988540  0.006671  0.285515  1
