# generated using pymatgen
data_Ho5Er(Sc2Sn3)2
_symmetry_space_group_name_H-M   'P 1'
_cell_length_a   8.77566700
_cell_length_b   8.77174743
_cell_length_c   6.26908300
_cell_angle_alpha   90.00037687
_cell_angle_beta   89.99925313
_cell_angle_gamma   120.01478624
_symmetry_Int_Tables_number   1
_chemical_formula_structural   Ho5Er(Sc2Sn3)2
_chemical_formula_sum   'Ho5 Er1 Sc4 Sn6'
_cell_volume   417.86517409
_cell_formula_units_Z   1
loop_
 _symmetry_equiv_pos_site_id
 _symmetry_equiv_pos_as_xyz
  1  'x, y, z'
loop_
 _atom_site_type_symbol
 _atom_site_label
 _atom_site_symmetry_multiplicity
 _atom_site_fract_x
 _atom_site_fract_y
 _atom_site_fract_z
 _atom_site_occupancy
  Ho  Ho0  1  0.000139  0.761250  0.750002  1
  Ho  Ho1  1  0.000064  0.238836  0.249998  1
  Ho  Ho2  1  0.761228  0.761164  0.249998  1
  Ho  Ho3  1  0.760942  0.000000  0.750005  1
  Ho  Ho4  1  0.238890  0.238750  0.750002  1
  Er  Er5  1  0.238921  0.000000  0.250015  1
  Sc  Sc6  1  0.333305  0.666662  0.499963  1
  Sc  Sc7  1  0.666641  0.333341  0.000034  1
  Sc  Sc8  1  0.666644  0.333338  0.499963  1
  Sc  Sc9  1  0.333299  0.666659  0.000034  1
  Sn  Sn10  1  0.399956  0.000000  0.749998  1
  Sn  Sn11  1  0.399862  0.399610  0.250002  1
  Sn  Sn12  1  0.000252  0.600390  0.250002  1
  Sn  Sn13  1  0.000025  0.399985  0.749994  1
  Sn  Sn14  1  0.600040  0.600015  0.749994  1
  Sn  Sn15  1  0.599792  0.000000  0.249997  1
