# generated using pymatgen
data_EuHo2SbO7
_symmetry_space_group_name_H-M   'P 1'
_cell_length_a   6.49803226
_cell_length_b   6.49803219
_cell_length_c   7.58242700
_cell_angle_alpha   90.00000000
_cell_angle_beta   90.00000000
_cell_angle_gamma   108.72353792
_symmetry_Int_Tables_number   1
_chemical_formula_structural   EuHo2SbO7
_chemical_formula_sum   'Eu2 Ho4 Sb2 O14'
_cell_volume   303.22006060
_cell_formula_units_Z   2
loop_
 _symmetry_equiv_pos_site_id
 _symmetry_equiv_pos_as_xyz
  1  'x, y, z'
loop_
 _atom_site_type_symbol
 _atom_site_label
 _atom_site_symmetry_multiplicity
 _atom_site_fract_x
 _atom_site_fract_y
 _atom_site_fract_z
 _atom_site_occupancy
  Eu  Eu0  1  0.500000  0.500000  0.500000  1
  Eu  Eu1  1  0.500000  0.500000  0.000000  1
  Ho  Ho2  1  0.531128  0.000104  0.750000  1
  Ho  Ho3  1  0.000104  0.531128  0.250000  1
  Ho  Ho4  1  0.468872  0.999896  0.250000  1
  Ho  Ho5  1  0.999896  0.468872  0.750000  1
  Sb  Sb6  1  0.000000  0.000000  0.500000  1
  Sb  Sb7  1  0.000000  0.000000  0.000000  1
  O  O8  1  0.679291  0.933745  0.470292  1
  O  O9  1  0.933745  0.679291  0.529708  1
  O  O10  1  0.679291  0.933745  0.029708  1
  O  O11  1  0.933745  0.679291  0.970292  1
  O  O12  1  0.320709  0.066255  0.529708  1
  O  O13  1  0.066255  0.320709  0.470292  1
  O  O14  1  0.320709  0.066255  0.970292  1
  O  O15  1  0.066255  0.320709  0.029708  1
  O  O16  1  0.930126  0.069874  0.750000  1
  O  O17  1  0.069874  0.930126  0.250000  1
  O  O18  1  0.365344  0.634656  0.750000  1
  O  O19  1  0.634656  0.365344  0.250000  1
  O  O20  1  0.640274  0.359726  0.750000  1
  O  O21  1  0.359726  0.640274  0.250000  1
