# generated using pymatgen
data_Tb10FeCoBi4
_symmetry_space_group_name_H-M   'P 1'
_cell_length_a   8.02506125
_cell_length_b   8.91003200
_cell_length_c   12.44982669
_cell_angle_alpha   90.00000000
_cell_angle_beta   89.88159645
_cell_angle_gamma   90.00000000
_symmetry_Int_Tables_number   1
_chemical_formula_structural   Tb10FeCoBi4
_chemical_formula_sum   'Tb20 Fe2 Co2 Bi8'
_cell_volume   890.20493662
_cell_formula_units_Z   2
loop_
 _symmetry_equiv_pos_site_id
 _symmetry_equiv_pos_as_xyz
  1  'x, y, z'
loop_
 _atom_site_type_symbol
 _atom_site_label
 _atom_site_symmetry_multiplicity
 _atom_site_fract_x
 _atom_site_fract_y
 _atom_site_fract_z
 _atom_site_occupancy
  Tb  Tb0  1  0.849072  0.750000  0.800793  1
  Tb  Tb1  1  0.150928  0.250000  0.199207  1
  Tb  Tb2  1  0.347073  0.250000  0.699640  1
  Tb  Tb3  1  0.652927  0.750000  0.300360  1
  Tb  Tb4  1  0.382329  0.750000  0.688690  1
  Tb  Tb5  1  0.617671  0.250000  0.311310  1
  Tb  Tb6  1  0.882745  0.250000  0.810154  1
  Tb  Tb7  1  0.117255  0.750000  0.189846  1
  Tb  Tb8  1  0.950641  0.750000  0.504080  1
  Tb  Tb9  1  0.049359  0.250000  0.495920  1
  Tb  Tb10  1  0.446737  0.250000  0.995752  1
  Tb  Tb11  1  0.553263  0.750000  0.004248  1
  Tb  Tb12  1  0.676795  0.037177  0.563572  1
  Tb  Tb13  1  0.323205  0.962823  0.436428  1
  Tb  Tb14  1  0.174991  0.964760  0.937797  1
  Tb  Tb15  1  0.323205  0.537177  0.436428  1
  Tb  Tb16  1  0.825009  0.035240  0.062203  1
  Tb  Tb17  1  0.676795  0.462823  0.563572  1
  Tb  Tb18  1  0.825009  0.464760  0.062203  1
  Tb  Tb19  1  0.174991  0.535240  0.937797  1
  Fe  Fe20  1  0.071334  0.250000  0.989375  1
  Fe  Fe21  1  0.928666  0.750000  0.010625  1
  Co  Co22  1  0.565525  0.750000  0.508753  1
  Co  Co23  1  0.434475  0.250000  0.491247  1
  Bi  Bi24  1  0.571481  0.492538  0.826295  1
  Bi  Bi25  1  0.428519  0.507462  0.173705  1
  Bi  Bi26  1  0.072175  0.507376  0.673568  1
  Bi  Bi27  1  0.428519  0.992538  0.173705  1
  Bi  Bi28  1  0.927825  0.492624  0.326432  1
  Bi  Bi29  1  0.571481  0.007462  0.826295  1
  Bi  Bi30  1  0.927825  0.007376  0.326432  1
  Bi  Bi31  1  0.072175  0.992624  0.673568  1
