# generated using pymatgen
data_K10NdInSn11
_symmetry_space_group_name_H-M   'P 1'
_cell_length_a   10.52183179
_cell_length_b   10.53072403
_cell_length_c   10.56152129
_cell_angle_alpha   109.25568032
_cell_angle_beta   109.68535120
_cell_angle_gamma   109.56696977
_symmetry_Int_Tables_number   1
_chemical_formula_structural   K10NdInSn11
_chemical_formula_sum   'K10 Nd1 In1 Sn11'
_cell_volume   899.79302557
_cell_formula_units_Z   1
loop_
 _symmetry_equiv_pos_site_id
 _symmetry_equiv_pos_as_xyz
  1  'x, y, z'
loop_
 _atom_site_type_symbol
 _atom_site_label
 _atom_site_symmetry_multiplicity
 _atom_site_fract_x
 _atom_site_fract_y
 _atom_site_fract_z
 _atom_site_occupancy
  K  K0  1  0.499545  0.250249  0.749819  1
  K  K1  1  0.750187  0.249939  0.500169  1
  K  K2  1  0.248902  0.749049  0.498500  1
  K  K3  1  0.500455  0.750704  0.250274  1
  K  K4  1  0.600526  0.000186  0.000729  1
  K  K5  1  0.399474  0.399660  0.400202  1
  K  K6  1  0.000000  0.599930  0.001463  1
  K  K7  1  0.000000  0.000656  0.599027  1
  K  K8  1  0.751098  0.500148  0.249598  1
  K  K9  1  0.249813  0.499753  0.749982  1
  Nd  Nd10  1  0.000000  0.000975  0.002614  1
  In  In11  1  0.000000  0.180097  0.353769  1
  Sn  Sn12  1  0.823180  0.171325  0.822265  1
  Sn  Sn13  1  0.653639  0.651390  0.828926  1
  Sn  Sn14  1  0.346076  0.176672  0.000176  1
  Sn  Sn15  1  0.176820  0.348144  0.999085  1
  Sn  Sn16  1  0.346361  0.997751  0.175287  1
  Sn  Sn17  1  0.653924  0.830596  0.654100  1
  Sn  Sn18  1  0.828859  0.652804  0.652287  1
  Sn  Sn19  1  0.000000  0.342727  0.174207  1
  Sn  Sn20  1  0.822154  0.822726  0.168124  1
  Sn  Sn21  1  0.171141  0.823945  0.823428  1
  Sn  Sn22  1  0.177846  0.000572  0.345970  1
