# generated using pymatgen
data_Ba3Na4Sr5(InSn2)4
_symmetry_space_group_name_H-M   'P 1'
_cell_length_a   5.01221400
_cell_length_b   8.27739529
_cell_length_c   18.96601184
_cell_angle_alpha   89.88635856
_cell_angle_beta   90.00000000
_cell_angle_gamma   90.00000000
_symmetry_Int_Tables_number   1
_chemical_formula_structural   Ba3Na4Sr5(InSn2)4
_chemical_formula_sum   'Ba3 Na4 Sr5 In4 Sn8'
_cell_volume   786.86180329
_cell_formula_units_Z   1
loop_
 _symmetry_equiv_pos_site_id
 _symmetry_equiv_pos_as_xyz
  1  'x, y, z'
loop_
 _atom_site_type_symbol
 _atom_site_label
 _atom_site_symmetry_multiplicity
 _atom_site_fract_x
 _atom_site_fract_y
 _atom_site_fract_z
 _atom_site_occupancy
  Ba  Ba0  1  0.250000  0.348316  0.941344  1
  Ba  Ba1  1  0.250000  0.847107  0.559644  1
  Ba  Ba2  1  0.750000  0.152975  0.440066  1
  Na  Na3  1  0.250000  0.987132  0.070566  1
  Na  Na4  1  0.750000  0.512099  0.571084  1
  Na  Na5  1  0.750000  0.010840  0.929932  1
  Na  Na6  1  0.250000  0.487705  0.428692  1
  Sr  Sr7  1  0.750000  0.496438  0.273047  1
  Sr  Sr8  1  0.750000  0.995126  0.224468  1
  Sr  Sr9  1  0.750000  0.650486  0.061610  1
  Sr  Sr10  1  0.250000  0.503843  0.725879  1
  Sr  Sr11  1  0.250000  0.003269  0.775490  1
  In  In12  1  0.750000  0.161384  0.658160  1
  In  In13  1  0.250000  0.838377  0.340578  1
  In  In14  1  0.750000  0.659777  0.843092  1
  In  In15  1  0.250000  0.338945  0.158076  1
  Sn  Sn16  1  0.750000  0.242410  0.074238  1
  Sn  Sn17  1  0.750000  0.790371  0.691830  1
  Sn  Sn18  1  0.250000  0.209543  0.308099  1
  Sn  Sn19  1  0.250000  0.708514  0.187926  1
  Sn  Sn20  1  0.250000  0.266513  0.574971  1
  Sn  Sn21  1  0.750000  0.289555  0.808999  1
  Sn  Sn22  1  0.250000  0.765787  0.927944  1
  Sn  Sn23  1  0.750000  0.733490  0.424266  1
