# generated using pymatgen
data_Li2Tb7Tm(SiB4)4
_symmetry_space_group_name_H-M   'P 1'
_cell_length_a   7.16742012
_cell_length_b   7.16742012
_cell_length_c   7.88983706
_cell_angle_alpha   89.98971128
_cell_angle_beta   89.98971128
_cell_angle_gamma   90.01867333
_symmetry_Int_Tables_number   1
_chemical_formula_structural   Li2Tb7Tm(SiB4)4
_chemical_formula_sum   'Li2 Tb7 Tm1 Si4 B16'
_cell_volume   405.31597469
_cell_formula_units_Z   1
loop_
 _symmetry_equiv_pos_site_id
 _symmetry_equiv_pos_as_xyz
  1  'x, y, z'
loop_
 _atom_site_type_symbol
 _atom_site_label
 _atom_site_symmetry_multiplicity
 _atom_site_fract_x
 _atom_site_fract_y
 _atom_site_fract_z
 _atom_site_occupancy
  Li  Li0  1  0.999321  0.000381  0.499280  1
  Li  Li1  1  0.500381  0.499321  0.499280  1
  Tb  Tb2  1  0.316449  0.816449  0.764130  1
  Tb  Tb3  1  0.316589  0.816589  0.235922  1
  Tb  Tb4  1  0.816162  0.683601  0.235885  1
  Tb  Tb5  1  0.816261  0.683590  0.763969  1
  Tb  Tb6  1  0.683725  0.183725  0.764184  1
  Tb  Tb7  1  0.183590  0.316261  0.763969  1
  Tb  Tb8  1  0.183601  0.316162  0.235885  1
  Tm  Tm9  1  0.683558  0.183558  0.232201  1
  Si  Si10  1  0.113657  0.613657  0.499591  1
  Si  Si11  1  0.883775  0.383775  0.497603  1
  Si  Si12  1  0.387307  0.115980  0.498182  1
  Si  Si13  1  0.615980  0.887307  0.498182  1
  B  B14  1  0.173517  0.040135  0.000807  1
  B  B15  1  0.825662  0.960745  0.000768  1
  B  B16  1  0.959597  0.174209  0.000623  1
  B  B17  1  0.326468  0.539506  0.000656  1
  B  B18  1  0.039506  0.826468  0.000656  1
  B  B19  1  0.674209  0.459597  0.000623  1
  B  B20  1  0.540135  0.673517  0.000807  1
  B  B21  1  0.460745  0.325662  0.000768  1
  B  B22  1  0.089057  0.589057  0.000265  1
  B  B23  1  0.910990  0.410990  0.000183  1
  B  B24  1  0.411216  0.088961  0.001109  1
  B  B25  1  0.588961  0.911216  0.001109  1
  B  B26  1  0.998733  0.000698  0.160856  1
  B  B27  1  0.999894  0.000255  0.840826  1
  B  B28  1  0.500255  0.499894  0.840826  1
  B  B29  1  0.500698  0.498733  0.160856  1
