# generated using pymatgen
data_Er3Mg2CdPdPb2
_symmetry_space_group_name_H-M   'P 1'
_cell_length_a   7.44843028
_cell_length_b   7.44843079
_cell_length_c   4.53141000
_cell_angle_alpha   90.00000000
_cell_angle_beta   90.00000000
_cell_angle_gamma   119.58742827
_symmetry_Int_Tables_number   1
_chemical_formula_structural   Er3Mg2CdPdPb2
_chemical_formula_sum   'Er3 Mg2 Cd1 Pd1 Pb2'
_cell_volume   218.61707292
_cell_formula_units_Z   1
loop_
 _symmetry_equiv_pos_site_id
 _symmetry_equiv_pos_as_xyz
  1  'x, y, z'
loop_
 _atom_site_type_symbol
 _atom_site_label
 _atom_site_symmetry_multiplicity
 _atom_site_fract_x
 _atom_site_fract_y
 _atom_site_fract_z
 _atom_site_occupancy
  Er  Er0  1  0.404405  0.404405  0.500000  1
  Er  Er1  1  0.600671  0.996623  0.500000  1
  Er  Er2  1  0.996623  0.600671  0.500000  1
  Mg  Mg3  1  0.227303  0.000269  0.000000  1
  Mg  Mg4  1  0.000269  0.227303  0.000000  1
  Cd  Cd5  1  0.769427  0.769427  0.000000  1
  Pd  Pd6  1  0.011608  0.011608  0.500000  1
  Pb  Pb7  1  0.664011  0.325683  0.000000  1
  Pb  Pb8  1  0.325683  0.664011  0.000000  1
