# generated using pymatgen
data_Pm4ZnAu3
_symmetry_space_group_name_H-M   'P 1'
_cell_length_a   7.45176153
_cell_length_b   5.85002866
_cell_length_c   4.75737800
_cell_angle_alpha   90.00000000
_cell_angle_beta   90.00000000
_cell_angle_gamma   89.13607683
_symmetry_Int_Tables_number   1
_chemical_formula_structural   Pm4ZnAu3
_chemical_formula_sum   'Pm4 Zn1 Au3'
_cell_volume   207.36489213
_cell_formula_units_Z   1
loop_
 _symmetry_equiv_pos_site_id
 _symmetry_equiv_pos_as_xyz
  1  'x, y, z'
loop_
 _atom_site_type_symbol
 _atom_site_label
 _atom_site_symmetry_multiplicity
 _atom_site_fract_x
 _atom_site_fract_y
 _atom_site_fract_z
 _atom_site_occupancy
  Pm  Pm0  1  0.100700  0.509682  0.000000  1
  Pm  Pm1  1  0.597580  0.732622  0.000000  1
  Pm  Pm2  1  0.234021  0.025727  0.499999  1
  Pm  Pm3  1  0.733114  0.235215  0.499999  1
  Zn  Zn4  1  0.883282  0.728829  0.499999  1
  Au  Au5  1  0.459698  0.224490  0.000000  1
  Au  Au6  1  0.952653  0.008280  0.000000  1
  Au  Au7  1  0.372284  0.535158  0.499999  1
