# generated using pymatgen
data_Dy4Co19P12Ru
_symmetry_space_group_name_H-M   'P 1'
_cell_length_a   3.66656800
_cell_length_b   10.31689000
_cell_length_c   11.75792045
_cell_angle_alpha   90.08758633
_cell_angle_beta   90.00000000
_cell_angle_gamma   90.00000000
_symmetry_Int_Tables_number   1
_chemical_formula_structural   Dy4Co19P12Ru
_chemical_formula_sum   'Dy4 Co19 P12 Ru1'
_cell_volume   444.77314189
_cell_formula_units_Z   1
loop_
 _symmetry_equiv_pos_site_id
 _symmetry_equiv_pos_as_xyz
  1  'x, y, z'
loop_
 _atom_site_type_symbol
 _atom_site_label
 _atom_site_symmetry_multiplicity
 _atom_site_fract_x
 _atom_site_fract_y
 _atom_site_fract_z
 _atom_site_occupancy
  Dy  Dy0  1  0.250000  0.583559  0.702749  1
  Dy  Dy1  1  0.250000  0.918101  0.202298  1
  Dy  Dy2  1  0.750000  0.416452  0.297361  1
  Dy  Dy3  1  0.750000  0.085394  0.795461  1
  Co  Co4  1  0.250000  0.783424  0.491520  1
  Co  Co5  1  0.750000  0.284054  0.009172  1
  Co  Co6  1  0.750000  0.216262  0.508837  1
  Co  Co7  1  0.250000  0.406582  0.488376  1
  Co  Co8  1  0.250000  0.093460  0.987636  1
  Co  Co9  1  0.750000  0.593020  0.511682  1
  Co  Co10  1  0.750000  0.908803  0.010607  1
  Co  Co11  1  0.250000  0.220594  0.177251  1
  Co  Co12  1  0.250000  0.278554  0.676143  1
  Co  Co13  1  0.750000  0.779223  0.822674  1
  Co  Co14  1  0.750000  0.722200  0.323890  1
  Co  Co15  1  0.250000  0.883296  0.698369  1
  Co  Co16  1  0.250000  0.614522  0.201464  1
  Co  Co17  1  0.750000  0.116511  0.301942  1
  Co  Co18  1  0.750000  0.382508  0.800620  1
  Co  Co19  1  0.250000  0.464142  0.932340  1
  Co  Co20  1  0.250000  0.032227  0.432131  1
  Co  Co21  1  0.750000  0.532798  0.068580  1
  Co  Co22  1  0.750000  0.967791  0.568397  1
  P  P23  1  0.250000  0.417469  0.112542  1
  P  P24  1  0.250000  0.081659  0.611561  1
  P  P25  1  0.750000  0.578886  0.886639  1
  P  P26  1  0.750000  0.919145  0.388395  1
  P  P27  1  0.250000  0.269984  0.869271  1
  P  P28  1  0.250000  0.228718  0.370299  1
  P  P29  1  0.750000  0.728860  0.133351  1
  P  P30  1  0.750000  0.771125  0.629049  1
  P  P31  1  0.250000  0.601228  0.392814  1
  P  P32  1  0.250000  0.903967  0.888885  1
  P  P33  1  0.750000  0.398012  0.608245  1
  P  P34  1  0.750000  0.102940  0.108951  1
  Ru  Ru35  1  0.250000  0.714530  0.990499  1
