# generated using pymatgen
data_Na2HgP2O7
_symmetry_space_group_name_H-M   'P 1'
_cell_length_a   9.48010070
_cell_length_b   9.48010090
_cell_length_c   8.69286155
_cell_angle_alpha   51.24824553
_cell_angle_beta   51.24824640
_cell_angle_gamma   37.21379702
_symmetry_Int_Tables_number   1
_chemical_formula_structural   Na2HgP2O7
_chemical_formula_sum   'Na4 Hg2 P4 O14'
_cell_volume   354.77128132
_cell_formula_units_Z   2
loop_
 _symmetry_equiv_pos_site_id
 _symmetry_equiv_pos_as_xyz
  1  'x, y, z'
loop_
 _atom_site_type_symbol
 _atom_site_label
 _atom_site_symmetry_multiplicity
 _atom_site_fract_x
 _atom_site_fract_y
 _atom_site_fract_z
 _atom_site_occupancy
  Na  Na0  1  0.626789  0.907863  0.156770  1
  Na  Na1  1  0.092137  0.373211  0.343230  1
  Na  Na2  1  0.907863  0.626789  0.656770  1
  Na  Na3  1  0.373211  0.092137  0.843230  1
  Hg  Hg4  1  0.000000  0.000000  0.500000  1
  Hg  Hg5  1  0.000000  0.000000  0.000000  1
  P  P6  1  0.536974  0.244330  0.361790  1
  P  P7  1  0.755670  0.463026  0.138211  1
  P  P8  1  0.244330  0.536974  0.861789  1
  P  P9  1  0.463026  0.755670  0.638211  1
  O  O10  1  0.854312  0.352742  0.311995  1
  O  O11  1  0.145688  0.647258  0.688005  1
  O  O12  1  0.953990  0.312256  0.983428  1
  O  O13  1  0.687744  0.046010  0.516572  1
  O  O14  1  0.352742  0.854312  0.811995  1
  O  O15  1  0.312256  0.953990  0.483428  1
  O  O16  1  0.726924  0.632592  0.545905  1
  O  O17  1  0.367408  0.273076  0.954095  1
  O  O18  1  0.273076  0.367408  0.454095  1
  O  O19  1  0.632592  0.726924  0.045905  1
  O  O20  1  0.455105  0.544895  0.750000  1
  O  O21  1  0.544895  0.455105  0.250000  1
  O  O22  1  0.046010  0.687744  0.016572  1
  O  O23  1  0.647258  0.145688  0.188005  1
