# generated using pymatgen
data_TbDy3Ga12Ag
_symmetry_space_group_name_H-M   'P 1'
_cell_length_a   7.56665475
_cell_length_b   7.56665423
_cell_length_c   7.56665413
_cell_angle_alpha   109.48191428
_cell_angle_beta   109.48191174
_cell_angle_gamma   109.48190778
_symmetry_Int_Tables_number   1
_chemical_formula_structural   TbDy3Ga12Ag
_chemical_formula_sum   'Tb1 Dy3 Ga12 Ag1'
_cell_volume   333.36329658
_cell_formula_units_Z   1
loop_
 _symmetry_equiv_pos_site_id
 _symmetry_equiv_pos_as_xyz
  1  'x, y, z'
loop_
 _atom_site_type_symbol
 _atom_site_label
 _atom_site_symmetry_multiplicity
 _atom_site_fract_x
 _atom_site_fract_y
 _atom_site_fract_z
 _atom_site_occupancy
  Tb  Tb0  1  0.500000  0.500000  0.500000  1
  Dy  Dy1  1  0.000000  0.000000  0.500000  1
  Dy  Dy2  1  0.000000  0.500000  0.000000  1
  Dy  Dy3  1  0.500000  0.000000  0.000000  1
  Ga  Ga4  1  0.500000  0.750069  0.249931  1
  Ga  Ga5  1  0.500000  0.249931  0.750069  1
  Ga  Ga6  1  0.249931  0.500000  0.750069  1
  Ga  Ga7  1  0.750069  0.500000  0.249931  1
  Ga  Ga8  1  0.750069  0.249931  0.500000  1
  Ga  Ga9  1  0.249931  0.750069  0.500000  1
  Ga  Ga10  1  0.999881  0.305538  0.305538  1
  Ga  Ga11  1  0.000119  0.694462  0.694462  1
  Ga  Ga12  1  0.305538  0.999881  0.305538  1
  Ga  Ga13  1  0.694462  0.000119  0.694462  1
  Ga  Ga14  1  0.305538  0.305538  0.999881  1
  Ga  Ga15  1  0.694462  0.694462  0.000119  1
  Ag  Ag16  1  0.000000  0.000000  0.000000  1
