# generated using pymatgen
data_Er4Al7Ga5
_symmetry_space_group_name_H-M   'P 1'
_cell_length_a   6.10415399
_cell_length_b   6.08892198
_cell_length_c   9.42954600
_cell_angle_alpha   90.00000628
_cell_angle_beta   89.99971989
_cell_angle_gamma   120.25613692
_symmetry_Int_Tables_number   1
_chemical_formula_structural   Er4Al7Ga5
_chemical_formula_sum   'Er4 Al7 Ga5'
_cell_volume   302.73357777
_cell_formula_units_Z   1
loop_
 _symmetry_equiv_pos_site_id
 _symmetry_equiv_pos_as_xyz
  1  'x, y, z'
loop_
 _atom_site_type_symbol
 _atom_site_label
 _atom_site_symmetry_multiplicity
 _atom_site_fract_x
 _atom_site_fract_y
 _atom_site_fract_z
 _atom_site_occupancy
  Er  Er0  1  0.000704  0.001262  0.501514  1
  Er  Er1  1  0.000694  0.001263  0.998492  1
  Er  Er2  1  0.331938  0.665587  0.249999  1
  Er  Er3  1  0.667626  0.333587  0.749991  1
  Al  Al4  1  0.501284  0.500769  0.499373  1
  Al  Al5  1  0.500528  0.001093  0.500106  1
  Al  Al6  1  0.999516  0.500820  0.499383  1
  Al  Al7  1  0.501285  0.500772  0.000628  1
  Al  Al8  1  0.500527  0.001090  0.999893  1
  Al  Al9  1  0.999517  0.500822  0.000617  1
  Al  Al10  1  0.815891  0.631392  0.250001  1
  Ga  Ga11  1  0.364769  0.181182  0.250003  1
  Ga  Ga12  1  0.816628  0.181650  0.250002  1
  Ga  Ga13  1  0.183114  0.366640  0.750001  1
  Ga  Ga14  1  0.633199  0.816274  0.750000  1
  Ga  Ga15  1  0.182781  0.815797  0.749997  1
