# generated using pymatgen
data_Tb(TaSe2)5
_symmetry_space_group_name_H-M   'P 1'
_cell_length_a   6.09898108
_cell_length_b   8.17647425
_cell_length_c   8.95588800
_cell_angle_alpha   114.43005324
_cell_angle_beta   96.81615412
_cell_angle_gamma   104.07296792
_symmetry_Int_Tables_number   1
_chemical_formula_structural   Tb(TaSe2)5
_chemical_formula_sum   'Tb1 Ta5 Se10'
_cell_volume   382.07465904
_cell_formula_units_Z   1
loop_
 _symmetry_equiv_pos_site_id
 _symmetry_equiv_pos_as_xyz
  1  'x, y, z'
loop_
 _atom_site_type_symbol
 _atom_site_label
 _atom_site_symmetry_multiplicity
 _atom_site_fract_x
 _atom_site_fract_y
 _atom_site_fract_z
 _atom_site_occupancy
  Tb  Tb0  1  0.667290  0.509089  0.995306  1
  Ta  Ta1  1  0.002205  0.996168  0.000464  1
  Ta  Ta2  1  0.600190  0.206561  0.201280  1
  Ta  Ta3  1  0.197402  0.399687  0.398536  1
  Ta  Ta4  1  0.797797  0.598956  0.603567  1
  Ta  Ta5  1  0.401984  0.794512  0.798638  1
  Se  Se6  1  0.238958  0.062169  0.292451  1
  Se  Se7  1  0.049155  0.655608  0.894689  1
  Se  Se8  1  0.834416  0.259103  0.489541  1
  Se  Se9  1  0.636214  0.871079  0.103390  1
  Se  Se10  1  0.424213  0.444524  0.682833  1
  Se  Se11  1  0.901286  0.550490  0.314257  1
  Se  Se12  1  0.698283  0.134075  0.902564  1
  Se  Se13  1  0.497364  0.739122  0.509618  1
  Se  Se14  1  0.287888  0.340675  0.104519  1
  Se  Se15  1  0.098157  0.935782  0.709952  1
