# generated using pymatgen
data_TiMo15
_symmetry_space_group_name_H-M   'P 1'
_cell_length_a   6.33324900
_cell_length_b   6.33324900
_cell_length_c   6.33324900
_cell_angle_alpha   90.00000000
_cell_angle_beta   90.00000000
_cell_angle_gamma   90.00000000
_symmetry_Int_Tables_number   1
_chemical_formula_structural   TiMo15
_chemical_formula_sum   'Ti1 Mo15'
_cell_volume   254.02688906
_cell_formula_units_Z   1
loop_
 _symmetry_equiv_pos_site_id
 _symmetry_equiv_pos_as_xyz
  1  'x, y, z'
loop_
 _atom_site_type_symbol
 _atom_site_label
 _atom_site_symmetry_multiplicity
 _atom_site_fract_x
 _atom_site_fract_y
 _atom_site_fract_z
 _atom_site_occupancy
  Ti  Ti0  1  0.000000  0.000000  0.000000  1
  Mo  Mo1  1  0.499999  0.000000  0.000000  1
  Mo  Mo2  1  0.000000  0.499999  0.000000  1
  Mo  Mo3  1  0.499999  0.499999  0.000000  1
  Mo  Mo4  1  0.250513  0.250513  0.250513  1
  Mo  Mo5  1  0.749487  0.250513  0.250513  1
  Mo  Mo6  1  0.250513  0.749487  0.250513  1
  Mo  Mo7  1  0.749487  0.749487  0.250513  1
  Mo  Mo8  1  0.000000  0.000000  0.499999  1
  Mo  Mo9  1  0.499999  0.000000  0.499999  1
  Mo  Mo10  1  0.000000  0.499999  0.499999  1
  Mo  Mo11  1  0.499999  0.499999  0.499999  1
  Mo  Mo12  1  0.250513  0.250513  0.749487  1
  Mo  Mo13  1  0.749487  0.250513  0.749487  1
  Mo  Mo14  1  0.250513  0.749487  0.749487  1
  Mo  Mo15  1  0.749487  0.749487  0.749487  1
