# generated using pymatgen
data_La16NdTm3Sn16
_symmetry_space_group_name_H-M   'P 1'
_cell_length_a   8.42152203
_cell_length_b   8.51667803
_cell_length_c   16.28435000
_cell_angle_alpha   90.00000000
_cell_angle_beta   90.00000000
_cell_angle_gamma   89.98981148
_symmetry_Int_Tables_number   1
_chemical_formula_structural   La16NdTm3Sn16
_chemical_formula_sum   'La16 Nd1 Tm3 Sn16'
_cell_volume   1167.96879534
_cell_formula_units_Z   1
loop_
 _symmetry_equiv_pos_site_id
 _symmetry_equiv_pos_as_xyz
  1  'x, y, z'
loop_
 _atom_site_type_symbol
 _atom_site_label
 _atom_site_symmetry_multiplicity
 _atom_site_fract_x
 _atom_site_fract_y
 _atom_site_fract_z
 _atom_site_occupancy
  La  La0  1  0.972538  0.818579  0.899725  1
  La  La1  1  0.473245  0.680494  0.600424  1
  La  La2  1  0.527024  0.318820  0.100665  1
  La  La3  1  0.027047  0.181137  0.399260  1
  La  La4  1  0.972538  0.818579  0.600275  1
  La  La5  1  0.473245  0.680494  0.899576  1
  La  La6  1  0.527024  0.318820  0.399335  1
  La  La7  1  0.027047  0.181137  0.100740  1
  La  La8  1  0.880095  0.660504  0.382332  1
  La  La9  1  0.379899  0.839456  0.117862  1
  La  La10  1  0.620714  0.160995  0.617334  1
  La  La11  1  0.119560  0.339958  0.882626  1
  La  La12  1  0.119560  0.339958  0.617374  1
  La  La13  1  0.620714  0.160995  0.882666  1
  La  La14  1  0.379899  0.839456  0.382138  1
  La  La15  1  0.880095  0.660504  0.117668  1
  Nd  Nd16  1  0.289497  0.002518  0.750000  1
  Tm  Tm17  1  0.787524  0.496478  0.750000  1
  Tm  Tm18  1  0.212310  0.502801  0.250000  1
  Tm  Tm19  1  0.712218  0.997319  0.250000  1
  Sn  Sn20  1  0.780970  0.470319  0.546324  1
  Sn  Sn21  1  0.281018  0.030159  0.954652  1
  Sn  Sn22  1  0.718754  0.970295  0.453717  1
  Sn  Sn23  1  0.218901  0.529753  0.046303  1
  Sn  Sn24  1  0.218901  0.529753  0.453697  1
  Sn  Sn25  1  0.718754  0.970295  0.046283  1
  Sn  Sn26  1  0.281018  0.030159  0.545348  1
  Sn  Sn27  1  0.780970  0.470319  0.953676  1
  Sn  Sn28  1  0.168118  0.642328  0.750000  1
  Sn  Sn29  1  0.669338  0.855151  0.750000  1
  Sn  Sn30  1  0.331645  0.145175  0.250000  1
  Sn  Sn31  1  0.831397  0.354993  0.250000  1
  Sn  Sn32  1  0.921470  0.118006  0.750000  1
  Sn  Sn33  1  0.424168  0.384093  0.750000  1
  Sn  Sn34  1  0.576542  0.617797  0.250000  1
  Sn  Sn35  1  0.076245  0.882404  0.250000  1
