# generated using pymatgen
data_TaAs3(Se2F3)2
_symmetry_space_group_name_H-M   'P 1'
_cell_length_a   10.00736500
_cell_length_b   6.48706179
_cell_length_c   10.76623809
_cell_angle_alpha   87.76677745
_cell_angle_beta   90.00000000
_cell_angle_gamma   90.00000000
_symmetry_Int_Tables_number   1
_chemical_formula_structural   TaAs3(Se2F3)2
_chemical_formula_sum   'Ta2 As6 Se8 F12'
_cell_volume   698.39605543
_cell_formula_units_Z   2
loop_
 _symmetry_equiv_pos_site_id
 _symmetry_equiv_pos_as_xyz
  1  'x, y, z'
loop_
 _atom_site_type_symbol
 _atom_site_label
 _atom_site_symmetry_multiplicity
 _atom_site_fract_x
 _atom_site_fract_y
 _atom_site_fract_z
 _atom_site_occupancy
  Ta  Ta0  1  0.750000  0.499638  0.832394  1
  Ta  Ta1  1  0.250000  0.500362  0.167606  1
  As  As2  1  0.250000  0.058355  0.517343  1
  As  As3  1  0.124551  0.975112  0.844484  1
  As  As4  1  0.624551  0.024888  0.155516  1
  As  As5  1  0.750000  0.941645  0.482657  1
  As  As6  1  0.875449  0.024888  0.155516  1
  As  As7  1  0.375449  0.975112  0.844484  1
  Se  Se8  1  0.066466  0.136772  0.652600  1
  Se  Se9  1  0.433534  0.136772  0.652600  1
  Se  Se10  1  0.750000  0.337942  0.226397  1
  Se  Se11  1  0.250000  0.662058  0.773603  1
  Se  Se12  1  0.566466  0.863228  0.347400  1
  Se  Se13  1  0.750000  0.312725  0.443634  1
  Se  Se14  1  0.933534  0.863228  0.347400  1
  Se  Se15  1  0.250000  0.687275  0.556366  1
  F  F16  1  0.750000  0.279416  0.715123  1
  F  F17  1  0.615396  0.350400  0.928463  1
  F  F18  1  0.387006  0.361887  0.264597  1
  F  F19  1  0.750000  0.716520  0.949580  1
  F  F20  1  0.112994  0.361887  0.264597  1
  F  F21  1  0.250000  0.283480  0.050420  1
  F  F22  1  0.115396  0.649600  0.071537  1
  F  F23  1  0.612994  0.638113  0.735403  1
  F  F24  1  0.887006  0.638113  0.735403  1
  F  F25  1  0.884604  0.350400  0.928463  1
  F  F26  1  0.384604  0.649600  0.071537  1
  F  F27  1  0.250000  0.720584  0.284877  1
