# generated using pymatgen
data_NdTh3(MgNi2)2
_symmetry_space_group_name_H-M   'P 1'
_cell_length_a   7.66737088
_cell_length_b   7.66737088
_cell_length_c   3.73142000
_cell_angle_alpha   90.00000000
_cell_angle_beta   90.00000000
_cell_angle_gamma   88.89747930
_symmetry_Int_Tables_number   1
_chemical_formula_structural   NdTh3(MgNi2)2
_chemical_formula_sum   'Nd1 Th3 Mg2 Ni4'
_cell_volume   219.32425727
_cell_formula_units_Z   1
loop_
 _symmetry_equiv_pos_site_id
 _symmetry_equiv_pos_as_xyz
  1  'x, y, z'
loop_
 _atom_site_type_symbol
 _atom_site_label
 _atom_site_symmetry_multiplicity
 _atom_site_fract_x
 _atom_site_fract_y
 _atom_site_fract_z
 _atom_site_occupancy
  Nd  Nd0  1  0.671424  0.171424  0.500000  1
  Th  Th1  1  0.331072  0.831072  0.500000  1
  Th  Th2  1  0.828811  0.670195  0.500000  1
  Th  Th3  1  0.170195  0.328811  0.500000  1
  Mg  Mg4  1  0.500653  0.497911  0.000000  1
  Mg  Mg5  1  0.997911  0.000653  0.000000  1
  Ni  Ni6  1  0.128874  0.628874  0.000000  1
  Ni  Ni7  1  0.620724  0.863874  0.000000  1
  Ni  Ni8  1  0.886462  0.386462  0.000000  1
  Ni  Ni9  1  0.363874  0.120724  0.000000  1
