# generated using pymatgen
data_Sc7(NbSn2)5
_symmetry_space_group_name_H-M   'P 1'
_cell_length_a   10.78000128
_cell_length_b   10.80254328
_cell_length_c   10.80254230
_cell_angle_alpha   149.14073514
_cell_angle_beta   131.51212070
_cell_angle_gamma   58.60654120
_symmetry_Int_Tables_number   1
_chemical_formula_structural   Sc7(NbSn2)5
_chemical_formula_sum   'Sc7 Nb5 Sn10'
_cell_volume   479.38154628
_cell_formula_units_Z   1
loop_
 _symmetry_equiv_pos_site_id
 _symmetry_equiv_pos_as_xyz
  1  'x, y, z'
loop_
 _atom_site_type_symbol
 _atom_site_label
 _atom_site_symmetry_multiplicity
 _atom_site_fract_x
 _atom_site_fract_y
 _atom_site_fract_z
 _atom_site_occupancy
  Sc  Sc0  1  0.319565  0.563157  0.756409  1
  Sc  Sc1  1  0.196862  0.935716  0.261147  1
  Sc  Sc2  1  0.800441  0.064228  0.736213  1
  Sc  Sc3  1  0.258521  0.147734  0.110787  1
  Sc  Sc4  1  0.741980  0.853698  0.888282  1
  Sc  Sc5  1  0.035475  0.646988  0.388487  1
  Sc  Sc6  1  0.970963  0.355498  0.615466  1
  Nb  Nb7  1  0.310267  0.557289  0.252199  1
  Nb  Nb8  1  0.692593  0.442332  0.751451  1
  Nb  Nb9  1  0.692593  0.941142  0.250259  1
  Nb  Nb10  1  0.310267  0.058068  0.752978  1
  Nb  Nb11  1  0.671609  0.436595  0.235013  1
  Sn  Sn12  1  0.591460  0.290222  0.301237  1
  Sn  Sn13  1  0.416338  0.712214  0.704123  1
  Sn  Sn14  1  0.991237  0.788265  0.202971  1
  Sn  Sn15  1  0.011230  0.212152  0.799078  1
  Sn  Sn16  1  0.992019  0.248510  0.246214  1
  Sn  Sn17  1  0.992019  0.745805  0.743509  1
  Sn  Sn18  1  0.466982  0.070743  0.396238  1
  Sn  Sn19  1  0.534083  0.930585  0.603499  1
  Sn  Sn20  1  0.671044  0.569436  0.101607  1
  Sn  Sn21  1  0.332457  0.429626  0.902831  1
