# generated using pymatgen
data_Y4LuSc3Pt4
_symmetry_space_group_name_H-M   'P 1'
_cell_length_a   4.64864700
_cell_length_b   7.03550092
_cell_length_c   8.49141701
_cell_angle_alpha   90.31039969
_cell_angle_beta   90.00000000
_cell_angle_gamma   90.00000000
_symmetry_Int_Tables_number   1
_chemical_formula_structural   Y4LuSc3Pt4
_chemical_formula_sum   'Y4 Lu1 Sc3 Pt4'
_cell_volume   277.71247496
_cell_formula_units_Z   1
loop_
 _symmetry_equiv_pos_site_id
 _symmetry_equiv_pos_as_xyz
  1  'x, y, z'
loop_
 _atom_site_type_symbol
 _atom_site_label
 _atom_site_symmetry_multiplicity
 _atom_site_fract_x
 _atom_site_fract_y
 _atom_site_fract_z
 _atom_site_occupancy
  Y  Y0  1  0.250000  0.981077  0.329384  1
  Y  Y1  1  0.250000  0.488025  0.174822  1
  Y  Y2  1  0.750000  0.017302  0.675823  1
  Y  Y3  1  0.750000  0.518788  0.820357  1
  Lu  Lu4  1  0.750000  0.141584  0.074881  1
  Sc  Sc5  1  0.250000  0.362442  0.570947  1
  Sc  Sc6  1  0.250000  0.854762  0.925819  1
  Sc  Sc7  1  0.750000  0.641164  0.427105  1
  Pt  Pt8  1  0.250000  0.244864  0.896363  1
  Pt  Pt9  1  0.250000  0.744384  0.599009  1
  Pt  Pt10  1  0.750000  0.748648  0.098142  1
  Pt  Pt11  1  0.750000  0.256961  0.407351  1
