# generated using pymatgen
data_Th2Co9Re3P7
_symmetry_space_group_name_H-M   'P 1'
_cell_length_a   9.11543492
_cell_length_b   9.11349748
_cell_length_c   3.78411800
_cell_angle_alpha   90.00000000
_cell_angle_beta   90.00000000
_cell_angle_gamma   119.99794248
_symmetry_Int_Tables_number   1
_chemical_formula_structural   Th2Co9Re3P7
_chemical_formula_sum   'Th2 Co9 Re3 P7'
_cell_volume   272.24930427
_cell_formula_units_Z   1
loop_
 _symmetry_equiv_pos_site_id
 _symmetry_equiv_pos_as_xyz
  1  'x, y, z'
loop_
 _atom_site_type_symbol
 _atom_site_label
 _atom_site_symmetry_multiplicity
 _atom_site_fract_x
 _atom_site_fract_y
 _atom_site_fract_z
 _atom_site_occupancy
  Th  Th0  1  0.333331  0.666605  0.000000  1
  Th  Th1  1  0.999946  0.000028  0.500000  1
  Co  Co2  1  0.032126  0.268069  0.000000  1
  Co  Co3  1  0.731912  0.764036  0.000000  1
  Co  Co4  1  0.235894  0.967887  0.000000  1
  Co  Co5  1  0.543086  0.058812  0.000000  1
  Co  Co6  1  0.941249  0.484282  0.000000  1
  Co  Co7  1  0.515694  0.456963  0.000000  1
  Co  Co8  1  0.611170  0.895417  0.500000  1
  Co  Co9  1  0.104595  0.715687  0.500000  1
  Co  Co10  1  0.284254  0.388819  0.500000  1
  Re  Re11  1  0.782939  0.232884  0.500000  1
  Re  Re12  1  0.767279  0.550034  0.500000  1
  Re  Re13  1  0.449878  0.217189  0.500000  1
  P  P14  1  0.767522  0.028956  0.000000  1
  P  P15  1  0.971038  0.738562  0.000000  1
  P  P16  1  0.261414  0.232476  0.000000  1
  P  P17  1  0.373639  0.931968  0.500000  1
  P  P18  1  0.068020  0.441624  0.500000  1
  P  P19  1  0.558342  0.626376  0.500000  1
  P  P20  1  0.666671  0.333325  0.000000  1
