# generated using pymatgen
data_La4Sn8Ir3Rh
_symmetry_space_group_name_H-M   'P 1'
_cell_length_a   8.92464873
_cell_length_b   8.92464930
_cell_length_c   9.74203124
_cell_angle_alpha   89.91007452
_cell_angle_beta   90.08992600
_cell_angle_gamma   149.23850233
_symmetry_Int_Tables_number   1
_chemical_formula_structural   La4Sn8Ir3Rh
_chemical_formula_sum   'La4 Sn8 Ir3 Rh1'
_cell_volume   396.86939316
_cell_formula_units_Z   1
loop_
 _symmetry_equiv_pos_site_id
 _symmetry_equiv_pos_as_xyz
  1  'x, y, z'
loop_
 _atom_site_type_symbol
 _atom_site_label
 _atom_site_symmetry_multiplicity
 _atom_site_fract_x
 _atom_site_fract_y
 _atom_site_fract_z
 _atom_site_occupancy
  La  La0  1  0.502266  0.497734  0.499499  1
  La  La1  1  0.499530  0.500470  0.000931  1
  La  La2  1  0.295304  0.704696  0.248910  1
  La  La3  1  0.703742  0.296258  0.749797  1
  Sn  Sn4  1  0.909076  0.090924  0.749446  1
  Sn  Sn5  1  0.923583  0.076417  0.250984  1
  Sn  Sn6  1  0.089626  0.910374  0.250211  1
  Sn  Sn7  1  0.075391  0.924609  0.749988  1
  Sn  Sn8  1  0.698131  0.301869  0.409531  1
  Sn  Sn9  1  0.303811  0.696189  0.590129  1
  Sn  Sn10  1  0.302314  0.697686  0.909550  1
  Sn  Sn11  1  0.697272  0.302728  0.089758  1
  Ir  Ir12  1  0.147466  0.852534  0.504762  1
  Ir  Ir13  1  0.852874  0.147126  0.004245  1
  Ir  Ir14  1  0.147033  0.852967  0.995709  1
  Rh  Rh15  1  0.852582  0.147418  0.496549  1
