# generated using pymatgen
data_Gd12Al2Tc2Pb
_symmetry_space_group_name_H-M   'P 1'
_cell_length_a   8.50789177
_cell_length_b   8.50787429
_cell_length_c   8.50789200
_cell_angle_alpha   109.80400371
_cell_angle_beta   109.99161266
_cell_angle_gamma   108.62150327
_symmetry_Int_Tables_number   1
_chemical_formula_structural   Gd12Al2Tc2Pb
_chemical_formula_sum   'Gd12 Al2 Tc2 Pb1'
_cell_volume   473.99088774
_cell_formula_units_Z   1
loop_
 _symmetry_equiv_pos_site_id
 _symmetry_equiv_pos_as_xyz
  1  'x, y, z'
loop_
 _atom_site_type_symbol
 _atom_site_label
 _atom_site_symmetry_multiplicity
 _atom_site_fract_x
 _atom_site_fract_y
 _atom_site_fract_z
 _atom_site_occupancy
  Gd  Gd0  1  0.318441  0.315639  0.634745  1
  Gd  Gd1  1  0.681559  0.684361  0.365255  1
  Gd  Gd2  1  0.319108  0.684361  0.002803  1
  Gd  Gd3  1  0.680892  0.315639  0.997197  1
  Gd  Gd4  1  0.445983  0.191324  0.254008  1
  Gd  Gd5  1  0.554017  0.808676  0.745992  1
  Gd  Gd6  1  0.937316  0.191324  0.745341  1
  Gd  Gd7  1  0.197023  0.949038  0.752015  1
  Gd  Gd8  1  0.062684  0.808676  0.254659  1
  Gd  Gd9  1  0.802977  0.050962  0.247985  1
  Gd  Gd10  1  0.196245  0.443635  0.247390  1
  Gd  Gd11  1  0.803755  0.556365  0.752610  1
  Al  Al12  1  0.000000  0.000000  0.000000  1
  Al  Al13  1  0.500000  0.000000  0.500000  1
  Tc  Tc14  1  0.337635  0.337398  0.999765  1
  Tc  Tc15  1  0.662365  0.662602  0.000235  1
  Pb  Pb16  1  0.000000  0.500000  0.500000  1
