# generated using pymatgen
data_RbPaNiTe3
_symmetry_space_group_name_H-M   'P 1'
_cell_length_a   8.65350928
_cell_length_b   8.65350910
_cell_length_c   11.04956500
_cell_angle_alpha   90.00000000
_cell_angle_beta   90.00000000
_cell_angle_gamma   151.57399887
_symmetry_Int_Tables_number   1
_chemical_formula_structural   RbPaNiTe3
_chemical_formula_sum   'Rb2 Pa2 Ni2 Te6'
_cell_volume   393.87458229
_cell_formula_units_Z   2
loop_
 _symmetry_equiv_pos_site_id
 _symmetry_equiv_pos_as_xyz
  1  'x, y, z'
loop_
 _atom_site_type_symbol
 _atom_site_label
 _atom_site_symmetry_multiplicity
 _atom_site_fract_x
 _atom_site_fract_y
 _atom_site_fract_z
 _atom_site_occupancy
  Rb  Rb0  1  0.242211  0.757788  0.250000  1
  Rb  Rb1  1  0.757788  0.242211  0.750000  1
  Pa  Pa2  1  0.500000  0.500000  0.000000  1
  Pa  Pa3  1  0.500000  0.500000  0.500000  1
  Ni  Ni4  1  0.974560  0.025439  0.250000  1
  Ni  Ni5  1  0.025439  0.974560  0.750000  1
  Te  Te6  1  0.877914  0.122085  0.068231  1
  Te  Te7  1  0.564388  0.435612  0.250000  1
  Te  Te8  1  0.877914  0.122085  0.431768  1
  Te  Te9  1  0.122085  0.877914  0.568232  1
  Te  Te10  1  0.435612  0.564388  0.750000  1
  Te  Te11  1  0.122085  0.877914  0.931768  1
