# generated using pymatgen
data_Pa4Cd2IrPd3
_symmetry_space_group_name_H-M   'P 1'
_cell_length_a   7.82582029
_cell_length_b   7.82582049
_cell_length_c   3.62388400
_cell_angle_alpha   90.00000000
_cell_angle_beta   90.00000000
_cell_angle_gamma   90.06507979
_symmetry_Int_Tables_number   1
_chemical_formula_structural   Pa4Cd2IrPd3
_chemical_formula_sum   'Pa4 Cd2 Ir1 Pd3'
_cell_volume   221.93906900
_cell_formula_units_Z   1
loop_
 _symmetry_equiv_pos_site_id
 _symmetry_equiv_pos_as_xyz
  1  'x, y, z'
loop_
 _atom_site_type_symbol
 _atom_site_label
 _atom_site_symmetry_multiplicity
 _atom_site_fract_x
 _atom_site_fract_y
 _atom_site_fract_z
 _atom_site_occupancy
  Pa  Pa0  1  0.668879  0.168879  0.500000  1
  Pa  Pa1  1  0.320381  0.820381  0.500000  1
  Pa  Pa2  1  0.173725  0.338507  0.500000  1
  Pa  Pa3  1  0.838507  0.673725  0.500000  1
  Cd  Cd4  1  0.000674  0.005289  0.000000  1
  Cd  Cd5  1  0.505289  0.500674  0.000000  1
  Ir  Ir6  1  0.128608  0.628608  0.000000  1
  Pd  Pd7  1  0.864856  0.364856  0.000000  1
  Pd  Pd8  1  0.629948  0.869132  0.000000  1
  Pd  Pd9  1  0.369132  0.129948  0.000000  1
