# generated using pymatgen
data_Dy4Y4CdHgIr2
_symmetry_space_group_name_H-M   'P 1'
_cell_length_a   9.63482762
_cell_length_b   9.63482624
_cell_length_c   9.65113500
_cell_angle_alpha   59.94398705
_cell_angle_beta   59.94399182
_cell_angle_gamma   60.09360413
_symmetry_Int_Tables_number   1
_chemical_formula_structural   Dy4Y4CdHgIr2
_chemical_formula_sum   'Dy8 Y8 Cd2 Hg2 Ir4'
_cell_volume   633.41566150
_cell_formula_units_Z   2
loop_
 _symmetry_equiv_pos_site_id
 _symmetry_equiv_pos_as_xyz
  1  'x, y, z'
loop_
 _atom_site_type_symbol
 _atom_site_label
 _atom_site_symmetry_multiplicity
 _atom_site_fract_x
 _atom_site_fract_y
 _atom_site_fract_z
 _atom_site_occupancy
  Dy  Dy0  1  0.349324  0.349324  0.348235  1
  Dy  Dy1  1  0.349324  0.349324  0.953117  1
  Dy  Dy2  1  0.351548  0.949722  0.349365  1
  Dy  Dy3  1  0.949722  0.351548  0.349365  1
  Dy  Dy4  1  0.809325  0.188765  0.191310  1
  Dy  Dy5  1  0.188765  0.809325  0.810601  1
  Dy  Dy6  1  0.188765  0.809325  0.191310  1
  Dy  Dy7  1  0.809325  0.188765  0.810601  1
  Y  Y8  1  0.189496  0.189496  0.810504  1
  Y  Y9  1  0.808790  0.808790  0.191210  1
  Y  Y10  1  0.938081  0.561118  0.562163  1
  Y  Y11  1  0.561118  0.938081  0.938638  1
  Y  Y12  1  0.561118  0.938081  0.562163  1
  Y  Y13  1  0.938081  0.561118  0.938638  1
  Y  Y14  1  0.560883  0.560883  0.939117  1
  Y  Y15  1  0.938642  0.938642  0.561358  1
  Cd  Cd16  1  0.579865  0.258488  0.580824  1
  Cd  Cd17  1  0.258488  0.579865  0.580824  1
  Hg  Hg18  1  0.583826  0.583826  0.585738  1
  Hg  Hg19  1  0.583826  0.583826  0.246610  1
  Ir  Ir20  1  0.141456  0.141456  0.142897  1
  Ir  Ir21  1  0.141456  0.141456  0.574190  1
  Ir  Ir22  1  0.144035  0.574741  0.140611  1
  Ir  Ir23  1  0.574741  0.144035  0.140611  1
