# generated using pymatgen
data_Li4CaHoIn2
_symmetry_space_group_name_H-M   'P 1'
_cell_length_a   6.93455100
_cell_length_b   4.93401200
_cell_length_c   9.82458100
_cell_angle_alpha   90.00000000
_cell_angle_beta   90.00000000
_cell_angle_gamma   90.00000000
_symmetry_Int_Tables_number   1
_chemical_formula_structural   Li4CaHoIn2
_chemical_formula_sum   'Li8 Ca2 Ho2 In4'
_cell_volume   336.14958971
_cell_formula_units_Z   2
loop_
 _symmetry_equiv_pos_site_id
 _symmetry_equiv_pos_as_xyz
  1  'x, y, z'
loop_
 _atom_site_type_symbol
 _atom_site_label
 _atom_site_symmetry_multiplicity
 _atom_site_fract_x
 _atom_site_fract_y
 _atom_site_fract_z
 _atom_site_occupancy
  Li  Li0  1  0.001061  0.750000  0.126946  1
  Li  Li1  1  0.498930  0.750000  0.126953  1
  Li  Li2  1  0.998929  0.249999  0.373047  1
  Li  Li3  1  0.501062  0.249999  0.373054  1
  Li  Li4  1  0.500428  0.750000  0.628931  1
  Li  Li5  1  0.999593  0.750000  0.628933  1
  Li  Li6  1  0.499593  0.249999  0.871068  1
  Li  Li7  1  0.000428  0.249999  0.871069  1
  Ca  Ca8  1  0.750016  0.249999  0.621016  1
  Ca  Ca9  1  0.250017  0.750000  0.878984  1
  Ho  Ho10  1  0.749980  0.249999  0.122053  1
  Ho  Ho11  1  0.249979  0.750000  0.377947  1
  In  In12  1  0.250009  0.249999  0.132072  1
  In  In13  1  0.750008  0.750000  0.367928  1
  In  In14  1  0.249982  0.249999  0.617136  1
  In  In15  1  0.749983  0.750000  0.882864  1
