# generated using pymatgen
data_HfPa3Co4
_symmetry_space_group_name_H-M   'P 1'
_cell_length_a   3.45337600
_cell_length_b   3.99552900
_cell_length_c   10.26094600
_cell_angle_alpha   90.00000000
_cell_angle_beta   90.00000000
_cell_angle_gamma   90.00000000
_symmetry_Int_Tables_number   1
_chemical_formula_structural   HfPa3Co4
_chemical_formula_sum   'Hf1 Pa3 Co4'
_cell_volume   141.58118916
_cell_formula_units_Z   1
loop_
 _symmetry_equiv_pos_site_id
 _symmetry_equiv_pos_as_xyz
  1  'x, y, z'
loop_
 _atom_site_type_symbol
 _atom_site_label
 _atom_site_symmetry_multiplicity
 _atom_site_fract_x
 _atom_site_fract_y
 _atom_site_fract_z
 _atom_site_occupancy
  Hf  Hf0  1  0.500000  0.750000  0.360960  1
  Pa  Pa1  1  0.000000  0.750000  0.864470  1
  Pa  Pa2  1  0.000000  0.250000  0.148773  1
  Pa  Pa3  1  0.500000  0.250000  0.624439  1
  Co  Co4  1  0.500000  0.750000  0.099087  1
  Co  Co5  1  0.000000  0.750000  0.588667  1
  Co  Co6  1  0.000000  0.250000  0.405795  1
  Co  Co7  1  0.500000  0.250000  0.907808  1
