# generated using pymatgen
data_TbY9(InTe)3
_symmetry_space_group_name_H-M   'P 1'
_cell_length_a   6.55825401
_cell_length_b   8.99359914
_cell_length_c   8.99160000
_cell_angle_alpha   120.00310019
_cell_angle_beta   89.99774600
_cell_angle_gamma   90.00257326
_symmetry_Int_Tables_number   1
_chemical_formula_structural   TbY9(InTe)3
_chemical_formula_sum   'Tb1 Y9 In3 Te3'
_cell_volume   459.27816802
_cell_formula_units_Z   1
loop_
 _symmetry_equiv_pos_site_id
 _symmetry_equiv_pos_as_xyz
  1  'x, y, z'
loop_
 _atom_site_type_symbol
 _atom_site_label
 _atom_site_symmetry_multiplicity
 _atom_site_fract_x
 _atom_site_fract_y
 _atom_site_fract_z
 _atom_site_occupancy
  Tb  Tb0  1  0.503251  0.333292  0.666577  1
  Y  Y1  1  0.503567  0.666820  0.333037  1
  Y  Y2  1  0.996399  0.666531  0.333209  1
  Y  Y3  1  0.996723  0.333391  0.666602  1
  Y  Y4  1  0.750265  0.239389  0.000168  1
  Y  Y5  1  0.749644  0.760568  0.760530  1
  Y  Y6  1  0.750807  0.000047  0.239566  1
  Y  Y7  1  0.249605  0.756798  0.999919  1
  Y  Y8  1  0.249786  0.242527  0.242907  1
  Y  Y9  1  0.249593  0.000352  0.757496  1
  In  In10  1  0.750257  0.606140  0.000131  1
  In  In11  1  0.750211  0.394071  0.393817  1
  In  In12  1  0.750143  0.999881  0.605877  1
  Te  Te13  1  0.250201  0.390213  0.000679  1
  Te  Te14  1  0.250111  0.610670  0.609736  1
  Te  Te15  1  0.249439  0.999312  0.389747  1
