# generated using pymatgen
data_Tm4Al17GeIr6
_symmetry_space_group_name_H-M   'P 1'
_cell_length_a   7.53487872
_cell_length_b   7.53487775
_cell_length_c   9.42145800
_cell_angle_alpha   90.00000000
_cell_angle_beta   90.00000000
_cell_angle_gamma   119.58840622
_symmetry_Int_Tables_number   1
_chemical_formula_structural   Tm4Al17GeIr6
_chemical_formula_sum   'Tm4 Al17 Ge1 Ir6'
_cell_volume   465.14414402
_cell_formula_units_Z   1
loop_
 _symmetry_equiv_pos_site_id
 _symmetry_equiv_pos_as_xyz
  1  'x, y, z'
loop_
 _atom_site_type_symbol
 _atom_site_label
 _atom_site_symmetry_multiplicity
 _atom_site_fract_x
 _atom_site_fract_y
 _atom_site_fract_z
 _atom_site_occupancy
  Tm  Tm0  1  0.994711  0.677254  0.250000  1
  Tm  Tm1  1  0.003396  0.328177  0.750000  1
  Tm  Tm2  1  0.677254  0.994711  0.250000  1
  Tm  Tm3  1  0.328177  0.003396  0.750000  1
  Al  Al4  1  0.871818  0.871818  0.750000  1
  Al  Al5  1  0.999906  0.338014  0.074317  1
  Al  Al6  1  0.998471  0.664488  0.924210  1
  Al  Al7  1  0.998471  0.664488  0.575790  1
  Al  Al8  1  0.338014  0.999906  0.425683  1
  Al  Al9  1  0.999906  0.338014  0.425683  1
  Al  Al10  1  0.664488  0.998471  0.575790  1
  Al  Al11  1  0.664488  0.998471  0.924210  1
  Al  Al12  1  0.338014  0.999906  0.074317  1
  Al  Al13  1  0.332295  0.332295  0.560513  1
  Al  Al14  1  0.664002  0.664002  0.447234  1
  Al  Al15  1  0.664002  0.664002  0.052766  1
  Al  Al16  1  0.332295  0.332295  0.939487  1
  Al  Al17  1  0.337354  0.554554  0.250000  1
  Al  Al18  1  0.661217  0.450552  0.750000  1
  Al  Al19  1  0.554554  0.337354  0.250000  1
  Al  Al20  1  0.450552  0.661217  0.750000  1
  Ge  Ge21  1  0.136129  0.136129  0.250000  1
  Ir  Ir22  1  0.669721  0.326226  0.000282  1
  Ir  Ir23  1  0.326226  0.669721  0.000282  1
  Ir  Ir24  1  0.326226  0.669721  0.499718  1
  Ir  Ir25  1  0.669721  0.326226  0.499718  1
  Ir  Ir26  1  0.999296  0.999296  0.001201  1
  Ir  Ir27  1  0.999296  0.999296  0.498799  1
