# generated using pymatgen
data_Al3V(NiPt2)4
_symmetry_space_group_name_H-M   'P 1'
_cell_length_a   3.90616700
_cell_length_b   3.90616700
_cell_length_c   14.58291800
_cell_angle_alpha   90.00000000
_cell_angle_beta   90.00000000
_cell_angle_gamma   90.00000000
_symmetry_Int_Tables_number   1
_chemical_formula_structural   Al3V(NiPt2)4
_chemical_formula_sum   'Al3 V1 Ni4 Pt8'
_cell_volume   222.50821367
_cell_formula_units_Z   1
loop_
 _symmetry_equiv_pos_site_id
 _symmetry_equiv_pos_as_xyz
  1  'x, y, z'
loop_
 _atom_site_type_symbol
 _atom_site_label
 _atom_site_symmetry_multiplicity
 _atom_site_fract_x
 _atom_site_fract_y
 _atom_site_fract_z
 _atom_site_occupancy
  Al  Al0  1  0.000000  0.000000  0.253555  1
  Al  Al1  1  0.000000  0.000000  0.500000  1
  Al  Al2  1  0.000000  0.000000  0.746445  1
  V  V3  1  0.000000  0.000000  0.000000  1
  Ni  Ni4  1  0.500000  0.500000  0.000000  1
  Ni  Ni5  1  0.500000  0.500000  0.250007  1
  Ni  Ni6  1  0.500000  0.500000  0.500000  1
  Ni  Ni7  1  0.500000  0.500000  0.749993  1
  Pt  Pt8  1  0.500000  0.000000  0.123624  1
  Pt  Pt9  1  0.500000  0.000000  0.375469  1
  Pt  Pt10  1  0.500000  0.000000  0.624531  1
  Pt  Pt11  1  0.500000  0.000000  0.876376  1
  Pt  Pt12  1  0.000000  0.500000  0.123624  1
  Pt  Pt13  1  0.000000  0.500000  0.375469  1
  Pt  Pt14  1  0.000000  0.500000  0.624531  1
  Pt  Pt15  1  0.000000  0.500000  0.876376  1
