# generated using pymatgen
data_Tm6Pa(Ga3Co8)2
_symmetry_space_group_name_H-M   'P 1'
_cell_length_a   8.43198320
_cell_length_b   8.43198420
_cell_length_c   8.43198400
_cell_angle_alpha   60.00000862
_cell_angle_beta   60.00000470
_cell_angle_gamma   60.00000705
_symmetry_Int_Tables_number   1
_chemical_formula_structural   Tm6Pa(Ga3Co8)2
_chemical_formula_sum   'Tm6 Pa1 Ga6 Co16'
_cell_volume   423.91068082
_cell_formula_units_Z   1
loop_
 _symmetry_equiv_pos_site_id
 _symmetry_equiv_pos_as_xyz
  1  'x, y, z'
loop_
 _atom_site_type_symbol
 _atom_site_label
 _atom_site_symmetry_multiplicity
 _atom_site_fract_x
 _atom_site_fract_y
 _atom_site_fract_z
 _atom_site_occupancy
  Tm  Tm0  1  0.708968  0.291032  0.291032  1
  Tm  Tm1  1  0.291032  0.708968  0.708968  1
  Tm  Tm2  1  0.291032  0.708968  0.291032  1
  Tm  Tm3  1  0.291032  0.291032  0.708968  1
  Tm  Tm4  1  0.708968  0.291032  0.708968  1
  Tm  Tm5  1  0.708968  0.708968  0.291032  1
  Pa  Pa6  1  0.000000  0.000000  0.000000  1
  Ga  Ga7  1  0.500000  0.000000  0.000000  1
  Ga  Ga8  1  0.000000  0.500000  0.500000  1
  Ga  Ga9  1  0.000000  0.500000  0.000000  1
  Ga  Ga10  1  0.000000  0.000000  0.500000  1
  Ga  Ga11  1  0.500000  0.000000  0.500000  1
  Ga  Ga12  1  0.500000  0.500000  0.000000  1
  Co  Co13  1  0.322278  0.322278  0.322278  1
  Co  Co14  1  0.322278  0.322278  0.033168  1
  Co  Co15  1  0.033168  0.322278  0.322278  1
  Co  Co16  1  0.322278  0.033168  0.322278  1
  Co  Co17  1  0.677722  0.677722  0.677722  1
  Co  Co18  1  0.677722  0.677722  0.966832  1
  Co  Co19  1  0.677722  0.966832  0.677722  1
  Co  Co20  1  0.966832  0.677722  0.677722  1
  Co  Co21  1  0.124218  0.124218  0.124218  1
  Co  Co22  1  0.124218  0.124218  0.627346  1
  Co  Co23  1  0.627346  0.124218  0.124218  1
  Co  Co24  1  0.124218  0.627346  0.124218  1
  Co  Co25  1  0.875782  0.875782  0.875782  1
  Co  Co26  1  0.875782  0.875782  0.372654  1
  Co  Co27  1  0.875782  0.372654  0.875782  1
  Co  Co28  1  0.372654  0.875782  0.875782  1
