# generated using pymatgen
data_Rb2Li2H6Os
_symmetry_space_group_name_H-M   'P 1'
_cell_length_a   7.05321643
_cell_length_b   7.70185793
_cell_length_c   7.70185706
_cell_angle_alpha   77.22735684
_cell_angle_beta   117.09900274
_cell_angle_gamma   117.09899724
_symmetry_Int_Tables_number   1
_chemical_formula_structural   Rb2Li2H6Os
_chemical_formula_sum   'Rb4 Li4 H12 Os2'
_cell_volume   331.52010123
_cell_formula_units_Z   2
loop_
 _symmetry_equiv_pos_site_id
 _symmetry_equiv_pos_as_xyz
  1  'x, y, z'
loop_
 _atom_site_type_symbol
 _atom_site_label
 _atom_site_symmetry_multiplicity
 _atom_site_fract_x
 _atom_site_fract_y
 _atom_site_fract_z
 _atom_site_occupancy
  Rb  Rb0  1  0.678223  0.623635  0.164569  1
  Rb  Rb1  1  0.250000  0.831519  0.668481  1
  Rb  Rb2  1  0.821777  0.335431  0.876365  1
  Rb  Rb3  1  0.750000  0.123478  0.376522  1
  Li  Li4  1  0.250000  0.234363  0.265637  1
  Li  Li5  1  0.750000  0.766657  0.733343  1
  Li  Li6  1  0.241323  0.739387  0.227992  1
  Li  Li7  1  0.258677  0.272008  0.760613  1
  H  H8  1  0.118835  0.488088  0.474061  1
  H  H9  1  0.306871  0.258520  0.530055  1
  H  H10  1  0.287749  0.501517  0.249093  1
  H  H11  1  0.024984  0.013740  0.739181  1
  H  H12  1  0.829152  0.960488  0.942959  1
  H  H13  1  0.008072  0.748288  0.972263  1
  H  H14  1  0.670848  0.557041  0.539512  1
  H  H15  1  0.475016  0.760819  0.486260  1
  H  H16  1  0.491928  0.527737  0.751712  1
  H  H17  1  0.193129  0.969945  0.241480  1
  H  H18  1  0.381165  0.025939  0.011912  1
  H  H19  1  0.212251  0.250907  0.998483  1
  Os  Os20  1  0.387641  0.510652  0.500158  1
  Os  Os21  1  0.112359  0.999842  0.989348  1
