# generated using pymatgen
data_Ho4Tc2Os5W
_symmetry_space_group_name_H-M   'P 1'
_cell_length_a   5.27880486
_cell_length_b   5.22862578
_cell_length_c   8.96512800
_cell_angle_alpha   90.00000000
_cell_angle_beta   90.00000000
_cell_angle_gamma   117.13257751
_symmetry_Int_Tables_number   1
_chemical_formula_structural   Ho4Tc2Os5W
_chemical_formula_sum   'Ho4 Tc2 Os5 W1'
_cell_volume   220.21507630
_cell_formula_units_Z   1
loop_
 _symmetry_equiv_pos_site_id
 _symmetry_equiv_pos_as_xyz
  1  'x, y, z'
loop_
 _atom_site_type_symbol
 _atom_site_label
 _atom_site_symmetry_multiplicity
 _atom_site_fract_x
 _atom_site_fract_y
 _atom_site_fract_z
 _atom_site_occupancy
  Ho  Ho0  1  0.327658  0.669740  0.436458  1
  Ho  Ho1  1  0.669287  0.334559  0.564237  1
  Ho  Ho2  1  0.669287  0.334559  0.935763  1
  Ho  Ho3  1  0.327658  0.669740  0.063542  1
  Tc  Tc4  1  0.172674  0.824360  0.750000  1
  Tc  Tc5  1  0.173126  0.342234  0.750000  1
  Os  Os6  1  0.998704  0.006408  0.501693  1
  Os  Os7  1  0.998704  0.006408  0.998307  1
  Os  Os8  1  0.825497  0.649690  0.250000  1
  Os  Os9  1  0.346492  0.172422  0.250000  1
  Os  Os10  1  0.658399  0.828845  0.750000  1
  W  W11  1  0.832514  0.161034  0.250000  1
