# generated using pymatgen
data_Tb4Zr3Sc(Ni4P3)4
_symmetry_space_group_name_H-M   'P 1'
_cell_length_a   12.32761400
_cell_length_b   12.32761392
_cell_length_c   3.81099000
_cell_angle_alpha   90.00000000
_cell_angle_beta   90.00000000
_cell_angle_gamma   119.88701347
_symmetry_Int_Tables_number   1
_chemical_formula_structural   Tb4Zr3Sc(Ni4P3)4
_chemical_formula_sum   'Tb4 Zr3 Sc1 Ni16 P12'
_cell_volume   502.13422524
_cell_formula_units_Z   1
loop_
 _symmetry_equiv_pos_site_id
 _symmetry_equiv_pos_as_xyz
  1  'x, y, z'
loop_
 _atom_site_type_symbol
 _atom_site_label
 _atom_site_symmetry_multiplicity
 _atom_site_fract_x
 _atom_site_fract_y
 _atom_site_fract_z
 _atom_site_occupancy
  Tb  Tb0  1  0.816387  0.000648  0.500000  1
  Tb  Tb1  1  0.000648  0.816387  0.500000  1
  Tb  Tb2  1  0.333084  0.666529  0.000000  1
  Tb  Tb3  1  0.666529  0.333084  0.000000  1
  Zr  Zr4  1  0.559950  0.559950  0.000000  1
  Zr  Zr5  1  0.437459  0.000272  0.000000  1
  Zr  Zr6  1  0.000272  0.437459  0.000000  1
  Sc  Sc7  1  0.185699  0.185699  0.500000  1
  Ni  Ni8  1  0.726858  0.726858  0.500000  1
  Ni  Ni9  1  0.272326  0.002706  0.500000  1
  Ni  Ni10  1  0.002706  0.272326  0.500000  1
  Ni  Ni11  1  0.184963  0.373625  0.000000  1
  Ni  Ni12  1  0.623263  0.808814  0.000000  1
  Ni  Ni13  1  0.191053  0.814617  0.000000  1
  Ni  Ni14  1  0.808814  0.623263  0.000000  1
  Ni  Ni15  1  0.814617  0.191053  0.000000  1
  Ni  Ni16  1  0.373625  0.184963  0.000000  1
  Ni  Ni17  1  0.359766  0.483525  0.500000  1
  Ni  Ni18  1  0.515106  0.876024  0.500000  1
  Ni  Ni19  1  0.124009  0.639163  0.500000  1
  Ni  Ni20  1  0.876024  0.515106  0.500000  1
  Ni  Ni21  1  0.639163  0.124009  0.500000  1
  Ni  Ni22  1  0.483525  0.359766  0.500000  1
  Ni  Ni23  1  0.002242  0.002242  0.000000  1
  P  P24  1  0.822926  0.822926  0.000000  1
  P  P25  1  0.178740  0.004066  0.000000  1
  P  P26  1  0.004066  0.178740  0.000000  1
  P  P27  1  0.170993  0.475566  0.500000  1
  P  P28  1  0.524560  0.695125  0.500000  1
  P  P29  1  0.303983  0.829942  0.500000  1
  P  P30  1  0.695125  0.524560  0.500000  1
  P  P31  1  0.829942  0.303983  0.500000  1
  P  P32  1  0.475566  0.170993  0.500000  1
  P  P33  1  0.352743  0.352743  0.000000  1
  P  P34  1  0.643044  0.000222  0.000000  1
  P  P35  1  0.000222  0.643044  0.000000  1
