# generated using pymatgen
data_Hf2Zr4B4Ir3Ru7
_symmetry_space_group_name_H-M   'P 1'
_cell_length_a   9.59355730
_cell_length_b   9.60942930
_cell_length_c   3.12827300
_cell_angle_alpha   90.00000000
_cell_angle_beta   90.00000000
_cell_angle_gamma   90.02859571
_symmetry_Int_Tables_number   1
_chemical_formula_structural   Hf2Zr4B4Ir3Ru7
_chemical_formula_sum   'Hf2 Zr4 B4 Ir3 Ru7'
_cell_volume   288.39110550
_cell_formula_units_Z   1
loop_
 _symmetry_equiv_pos_site_id
 _symmetry_equiv_pos_as_xyz
  1  'x, y, z'
loop_
 _atom_site_type_symbol
 _atom_site_label
 _atom_site_symmetry_multiplicity
 _atom_site_fract_x
 _atom_site_fract_y
 _atom_site_fract_z
 _atom_site_occupancy
  Hf  Hf0  1  0.998693  0.004076  0.000000  1
  Hf  Hf1  1  0.499509  0.498793  0.000000  1
  Zr  Zr2  1  0.675224  0.180598  0.000000  1
  Zr  Zr3  1  0.329156  0.820917  0.000000  1
  Zr  Zr4  1  0.175211  0.327592  0.000000  1
  Zr  Zr5  1  0.820869  0.669517  0.000000  1
  B  B6  1  0.123565  0.615367  0.000000  1
  B  B7  1  0.876878  0.379179  0.000000  1
  B  B8  1  0.615164  0.874518  0.000000  1
  B  B9  1  0.386000  0.124978  0.000000  1
  Ir  Ir10  1  0.222764  0.069023  0.500000  1
  Ir  Ir11  1  0.777982  0.928999  0.500000  1
  Ir  Ir12  1  0.070055  0.779826  0.500000  1
  Ru  Ru13  1  0.720818  0.428179  0.500000  1
  Ru  Ru14  1  0.930589  0.222797  0.500000  1
  Ru  Ru15  1  0.278495  0.574214  0.500000  1
  Ru  Ru16  1  0.572551  0.720952  0.500000  1
  Ru  Ru17  1  0.425996  0.278570  0.500000  1
  Ru  Ru18  1  0.500876  0.000123  0.500000  1
  Ru  Ru19  1  0.999606  0.501783  0.500000  1
