# generated using pymatgen
data_DyEr3Ga4(CoNi)2
_symmetry_space_group_name_H-M   'P 1'
_cell_length_a   4.38822100
_cell_length_b   6.96323539
_cell_length_c   6.94169924
_cell_angle_alpha   89.31798757
_cell_angle_beta   90.00000000
_cell_angle_gamma   90.00000000
_symmetry_Int_Tables_number   1
_chemical_formula_structural   DyEr3Ga4(CoNi)2
_chemical_formula_sum   'Dy1 Er3 Ga4 Co2 Ni2'
_cell_volume   212.09703288
_cell_formula_units_Z   1
loop_
 _symmetry_equiv_pos_site_id
 _symmetry_equiv_pos_as_xyz
  1  'x, y, z'
loop_
 _atom_site_type_symbol
 _atom_site_label
 _atom_site_symmetry_multiplicity
 _atom_site_fract_x
 _atom_site_fract_y
 _atom_site_fract_z
 _atom_site_occupancy
  Dy  Dy0  1  0.750000  0.804889  0.482351  1
  Er  Er1  1  0.250000  0.197728  0.518477  1
  Er  Er2  1  0.250000  0.303625  0.023828  1
  Er  Er3  1  0.750000  0.695689  0.977187  1
  Ga  Ga4  1  0.250000  0.893264  0.194377  1
  Ga  Ga5  1  0.750000  0.403101  0.303170  1
  Ga  Ga6  1  0.250000  0.595434  0.697367  1
  Ga  Ga7  1  0.750000  0.107276  0.805396  1
  Co  Co8  1  0.250000  0.565400  0.342386  1
  Co  Co9  1  0.750000  0.433035  0.657364  1
  Ni  Ni10  1  0.250000  0.927917  0.829877  1
  Ni  Ni11  1  0.750000  0.072640  0.168222  1
