# generated using pymatgen
data_CdFe4SnBr16
_symmetry_space_group_name_H-M   'P 1'
_cell_length_a   10.69607214
_cell_length_b   10.69607223
_cell_length_c   12.89681100
_cell_angle_alpha   55.11772152
_cell_angle_beta   55.11772120
_cell_angle_gamma   49.96292561
_symmetry_Int_Tables_number   1
_chemical_formula_structural   CdFe4SnBr16
_chemical_formula_sum   'Cd1 Fe4 Sn1 Br16'
_cell_volume   876.44863372
_cell_formula_units_Z   1
loop_
 _symmetry_equiv_pos_site_id
 _symmetry_equiv_pos_as_xyz
  1  'x, y, z'
loop_
 _atom_site_type_symbol
 _atom_site_label
 _atom_site_symmetry_multiplicity
 _atom_site_fract_x
 _atom_site_fract_y
 _atom_site_fract_z
 _atom_site_occupancy
  Cd  Cd0  1  0.997592  0.002408  0.750000  1
  Fe  Fe1  1  0.662718  0.163178  0.030147  1
  Fe  Fe2  1  0.337402  0.837413  0.957930  1
  Fe  Fe3  1  0.836822  0.337282  0.469853  1
  Fe  Fe4  1  0.162587  0.662598  0.542070  1
  Sn  Sn5  1  0.998865  0.001135  0.250000  1
  Br  Br6  1  0.880488  0.803843  0.533342  1
  Br  Br7  1  0.122140  0.183902  0.480057  1
  Br  Br8  1  0.695067  0.619065  0.458717  1
  Br  Br9  1  0.619532  0.691675  0.946935  1
  Br  Br10  1  0.816098  0.877860  0.019943  1
  Br  Br11  1  0.848083  0.340000  0.278892  1
  Br  Br12  1  0.171036  0.707368  0.165525  1
  Br  Br13  1  0.292632  0.828964  0.334475  1
  Br  Br14  1  0.148654  0.677898  0.726213  1
  Br  Br15  1  0.308325  0.380468  0.553065  1
  Br  Br16  1  0.660000  0.151917  0.221108  1
  Br  Br17  1  0.196157  0.119512  0.966658  1
  Br  Br18  1  0.380935  0.304933  0.041283  1
  Br  Br19  1  0.322102  0.851346  0.773787  1
  Br  Br20  1  0.708610  0.165845  0.671387  1
  Br  Br21  1  0.834155  0.291390  0.828613  1
