# generated using pymatgen
data_TbEr3Al24Cu2Pd7
_symmetry_space_group_name_H-M   'P 1'
_cell_length_a   7.52619062
_cell_length_b   7.53937236
_cell_length_c   13.06372056
_cell_angle_alpha   84.64976522
_cell_angle_beta   79.04220615
_cell_angle_gamma   59.96635520
_symmetry_Int_Tables_number   1
_chemical_formula_structural   TbEr3Al24Cu2Pd7
_chemical_formula_sum   'Tb1 Er3 Al24 Cu2 Pd7'
_cell_volume   630.04002827
_cell_formula_units_Z   1
loop_
 _symmetry_equiv_pos_site_id
 _symmetry_equiv_pos_as_xyz
  1  'x, y, z'
loop_
 _atom_site_type_symbol
 _atom_site_label
 _atom_site_symmetry_multiplicity
 _atom_site_fract_x
 _atom_site_fract_y
 _atom_site_fract_z
 _atom_site_occupancy
  Tb  Tb0  1  0.392876  0.169262  0.807893  1
  Er  Er1  1  0.606869  0.830618  0.192736  1
  Er  Er2  1  0.734315  0.498761  0.807541  1
  Er  Er3  1  0.265616  0.501377  0.192579  1
  Al  Al4  1  0.684383  0.833055  0.944944  1
  Al  Al5  1  0.315978  0.166356  0.056344  1
  Al  Al6  1  0.144746  0.833689  0.564000  1
  Al  Al7  1  0.855478  0.166240  0.435609  1
  Al  Al8  1  0.478646  0.167802  0.561488  1
  Al  Al9  1  0.521450  0.832127  0.438112  1
  Al  Al10  1  0.215245  0.167382  0.328441  1
  Al  Al11  1  0.785410  0.832273  0.670788  1
  Al  Al12  1  0.434026  0.506924  0.670975  1
  Al  Al13  1  0.566263  0.493375  0.328258  1
  Al  Al14  1  0.109792  0.162429  0.669460  1
  Al  Al15  1  0.890040  0.837541  0.329743  1
  Al  Al16  1  0.352426  0.499614  0.944651  1
  Al  Al17  1  0.647150  0.501217  0.056169  1
  Al  Al18  1  0.014565  0.167808  0.954766  1
  Al  Al19  1  0.984529  0.832053  0.046316  1
  Al  Al20  1  0.185448  0.499849  0.441119  1
  Al  Al21  1  0.814597  0.500210  0.558654  1
  Al  Al22  1  0.732656  0.164581  0.184445  1
  Al  Al23  1  0.267392  0.834536  0.815502  1
  Al  Al24  1  0.061075  0.629464  0.812910  1
  Al  Al25  1  0.938024  0.371384  0.187143  1
  Al  Al26  1  0.855922  0.042029  0.815385  1
  Al  Al27  1  0.144754  0.958031  0.184655  1
  Cu  Cu28  1  0.119077  0.491926  0.638459  1
  Cu  Cu29  1  0.880863  0.508395  0.361158  1
  Pd  Pd30  1  0.656627  0.172037  0.000044  1
  Pd  Pd31  1  0.343227  0.828034  0.000355  1
  Pd  Pd32  1  0.536155  0.167674  0.363025  1
  Pd  Pd33  1  0.463902  0.832003  0.636560  1
  Pd  Pd34  1  0.779556  0.176635  0.636193  1
  Pd  Pd35  1  0.220938  0.823262  0.363336  1
  Pd  Pd36  1  0.999981  0.500047  0.000246  1
