# generated using pymatgen
data_K4Ge7AsPt8
_symmetry_space_group_name_H-M   'P 1'
_cell_length_a   7.18716421
_cell_length_b   8.07148429
_cell_length_c   8.31549500
_cell_angle_alpha   93.05467227
_cell_angle_beta   89.27133532
_cell_angle_gamma   89.46897479
_symmetry_Int_Tables_number   1
_chemical_formula_structural   K4Ge7AsPt8
_chemical_formula_sum   'K4 Ge7 As1 Pt8'
_cell_volume   481.64261189
_cell_formula_units_Z   1
loop_
 _symmetry_equiv_pos_site_id
 _symmetry_equiv_pos_as_xyz
  1  'x, y, z'
loop_
 _atom_site_type_symbol
 _atom_site_label
 _atom_site_symmetry_multiplicity
 _atom_site_fract_x
 _atom_site_fract_y
 _atom_site_fract_z
 _atom_site_occupancy
  K  K0  1  0.882363  0.501838  0.749379  1
  K  K1  1  0.384224  0.003305  0.249909  1
  K  K2  1  0.614228  0.999376  0.750317  1
  K  K3  1  0.116174  0.495848  0.251114  1
  Ge  Ge4  1  0.897598  0.855092  0.437302  1
  Ge  Ge5  1  0.106684  0.855870  0.935878  1
  Ge  Ge6  1  0.606642  0.357377  0.435435  1
  Ge  Ge7  1  0.104178  0.148030  0.562502  1
  Ge  Ge8  1  0.606455  0.649061  0.064698  1
  Ge  Ge9  1  0.891252  0.142270  0.061068  1
  Ge  Ge10  1  0.394104  0.641416  0.562611  1
  As  As11  1  0.389416  0.354504  0.940158  1
  Pt  Pt12  1  0.853883  0.152049  0.363487  1
  Pt  Pt13  1  0.150110  0.848687  0.634579  1
  Pt  Pt14  1  0.147295  0.151690  0.863102  1
  Pt  Pt15  1  0.354459  0.345162  0.638044  1
  Pt  Pt16  1  0.349955  0.647999  0.864483  1
  Pt  Pt17  1  0.854211  0.846660  0.136032  1
  Pt  Pt18  1  0.647100  0.348023  0.134826  1
  Pt  Pt19  1  0.649669  0.655742  0.365076  1
