# generated using pymatgen
data_YLu9(Bi3C)2
_symmetry_space_group_name_H-M   'P 1'
_cell_length_a   9.02806100
_cell_length_b   9.02806060
_cell_length_c   6.37926100
_cell_angle_alpha   90.00000000
_cell_angle_beta   90.00000000
_cell_angle_gamma   119.99999780
_symmetry_Int_Tables_number   1
_chemical_formula_structural   YLu9(Bi3C)2
_chemical_formula_sum   'Y1 Lu9 Bi6 C2'
_cell_volume   450.28757444
_cell_formula_units_Z   1
loop_
 _symmetry_equiv_pos_site_id
 _symmetry_equiv_pos_as_xyz
  1  'x, y, z'
loop_
 _atom_site_type_symbol
 _atom_site_label
 _atom_site_symmetry_multiplicity
 _atom_site_fract_x
 _atom_site_fract_y
 _atom_site_fract_z
 _atom_site_occupancy
  Y  Y0  1  0.666667  0.333333  0.500000  1
  Lu  Lu1  1  0.333333  0.666667  0.500000  1
  Lu  Lu2  1  0.333333  0.666667  0.000000  1
  Lu  Lu3  1  0.666667  0.333333  0.000000  1
  Lu  Lu4  1  0.796141  0.795999  0.249883  1
  Lu  Lu5  1  0.204001  0.000142  0.249883  1
  Lu  Lu6  1  0.999858  0.203859  0.249883  1
  Lu  Lu7  1  0.204001  0.203859  0.750117  1
  Lu  Lu8  1  0.796141  0.000142  0.750117  1
  Lu  Lu9  1  0.999858  0.795999  0.750117  1
  Bi  Bi10  1  0.398883  0.400388  0.248433  1
  Bi  Bi11  1  0.599612  0.998495  0.248433  1
  Bi  Bi12  1  0.001505  0.601117  0.248433  1
  Bi  Bi13  1  0.599612  0.601117  0.751567  1
  Bi  Bi14  1  0.398883  0.998495  0.751567  1
  Bi  Bi15  1  0.001505  0.400388  0.751567  1
  C  C16  1  0.000000  0.000000  0.500000  1
  C  C17  1  0.000000  0.000000  0.000000  1
