# generated using pymatgen
data_Tm20GaBi9Sb2
_symmetry_space_group_name_H-M   'P 1'
_cell_length_a   8.08079721
_cell_length_b   9.36118900
_cell_length_c   11.83848324
_cell_angle_alpha   90.00000000
_cell_angle_beta   89.69898299
_cell_angle_gamma   90.00000000
_symmetry_Int_Tables_number   1
_chemical_formula_structural   Tm20GaBi9Sb2
_chemical_formula_sum   'Tm20 Ga1 Bi9 Sb2'
_cell_volume   895.52000387
_cell_formula_units_Z   1
loop_
 _symmetry_equiv_pos_site_id
 _symmetry_equiv_pos_as_xyz
  1  'x, y, z'
loop_
 _atom_site_type_symbol
 _atom_site_label
 _atom_site_symmetry_multiplicity
 _atom_site_fract_x
 _atom_site_fract_y
 _atom_site_fract_z
 _atom_site_occupancy
  Tm  Tm0  1  0.037030  0.250000  0.509849  1
  Tm  Tm1  1  0.975098  0.750000  0.489744  1
  Tm  Tm2  1  0.471338  0.750000  0.011426  1
  Tm  Tm3  1  0.525501  0.250000  0.988790  1
  Tm  Tm4  1  0.355632  0.250000  0.293827  1
  Tm  Tm5  1  0.646843  0.750000  0.713592  1
  Tm  Tm6  1  0.147367  0.750000  0.785351  1
  Tm  Tm7  1  0.852907  0.250000  0.216211  1
  Tm  Tm8  1  0.192867  0.250000  0.776999  1
  Tm  Tm9  1  0.812816  0.750000  0.217404  1
  Tm  Tm10  1  0.315233  0.750000  0.282016  1
  Tm  Tm11  1  0.673932  0.250000  0.710507  1
  Tm  Tm12  1  0.192580  0.062122  0.060484  1
  Tm  Tm13  1  0.809323  0.932653  0.941727  1
  Tm  Tm14  1  0.311157  0.947228  0.558124  1
  Tm  Tm15  1  0.809323  0.567347  0.941727  1
  Tm  Tm16  1  0.683760  0.068675  0.445123  1
  Tm  Tm17  1  0.192580  0.437878  0.060484  1
  Tm  Tm18  1  0.683760  0.431325  0.445123  1
  Tm  Tm19  1  0.311157  0.552772  0.558124  1
  Ga  Ga20  1  0.407557  0.250000  0.539812  1
  Bi  Bi21  1  0.907667  0.250000  0.954474  1
  Bi  Bi22  1  0.063689  0.002557  0.324451  1
  Bi  Bi23  1  0.934901  0.997860  0.675115  1
  Bi  Bi24  1  0.435423  0.995994  0.825199  1
  Bi  Bi25  1  0.934901  0.502140  0.675115  1
  Bi  Bi26  1  0.564996  0.004359  0.174872  1
  Bi  Bi27  1  0.063689  0.497443  0.324451  1
  Bi  Bi28  1  0.564996  0.495641  0.174872  1
  Bi  Bi29  1  0.435423  0.504006  0.825199  1
  Sb  Sb30  1  0.593362  0.750000  0.458288  1
  Sb  Sb31  1  0.093192  0.750000  0.041514  1
