# generated using pymatgen
data_Nd20Bi8OsPt3
_symmetry_space_group_name_H-M   'P 1'
_cell_length_a   8.28510840
_cell_length_b   9.29067300
_cell_length_c   12.80250200
_cell_angle_alpha   90.00000000
_cell_angle_beta   90.11046848
_cell_angle_gamma   90.00000000
_symmetry_Int_Tables_number   1
_chemical_formula_structural   Nd20Bi8OsPt3
_chemical_formula_sum   'Nd20 Bi8 Os1 Pt3'
_cell_volume   985.46093909
_cell_formula_units_Z   1
loop_
 _symmetry_equiv_pos_site_id
 _symmetry_equiv_pos_as_xyz
  1  'x, y, z'
loop_
 _atom_site_type_symbol
 _atom_site_label
 _atom_site_symmetry_multiplicity
 _atom_site_fract_x
 _atom_site_fract_y
 _atom_site_fract_z
 _atom_site_occupancy
  Nd  Nd0  1  0.835842  0.750000  0.786022  1
  Nd  Nd1  1  0.160579  0.250000  0.211958  1
  Nd  Nd2  1  0.341176  0.250000  0.708673  1
  Nd  Nd3  1  0.654522  0.750000  0.294305  1
  Nd  Nd4  1  0.374551  0.750000  0.697046  1
  Nd  Nd5  1  0.629758  0.250000  0.298884  1
  Nd  Nd6  1  0.870066  0.250000  0.799740  1
  Nd  Nd7  1  0.129090  0.750000  0.198853  1
  Nd  Nd8  1  0.948773  0.750000  0.500991  1
  Nd  Nd9  1  0.049577  0.250000  0.498166  1
  Nd  Nd10  1  0.452585  0.250000  0.000679  1
  Nd  Nd11  1  0.548589  0.750000  0.001181  1
  Nd  Nd12  1  0.681053  0.036857  0.565686  1
  Nd  Nd13  1  0.319422  0.950246  0.435829  1
  Nd  Nd14  1  0.184021  0.956466  0.932239  1
  Nd  Nd15  1  0.319422  0.549754  0.435829  1
  Nd  Nd16  1  0.816620  0.044206  0.066953  1
  Nd  Nd17  1  0.681053  0.463143  0.565686  1
  Nd  Nd18  1  0.816620  0.455794  0.066953  1
  Nd  Nd19  1  0.184021  0.543534  0.932239  1
  Bi  Bi20  1  0.570340  0.489859  0.827946  1
  Bi  Bi21  1  0.428504  0.509554  0.173720  1
  Bi  Bi22  1  0.070266  0.508206  0.673517  1
  Bi  Bi23  1  0.428504  0.990446  0.173720  1
  Bi  Bi24  1  0.929921  0.491585  0.326360  1
  Bi  Bi25  1  0.570340  0.010141  0.827946  1
  Bi  Bi26  1  0.929921  0.008415  0.326360  1
  Bi  Bi27  1  0.070266  0.991794  0.673517  1
  Os  Os28  1  0.580676  0.750000  0.514172  1
  Pt  Pt29  1  0.423495  0.250000  0.486998  1
  Pt  Pt30  1  0.074652  0.250000  0.989078  1
  Pt  Pt31  1  0.925777  0.750000  0.008752  1
