# generated using pymatgen
data_Sc2Mn(SnRu2)3
_symmetry_space_group_name_H-M   'P 1'
_cell_length_a   4.49709700
_cell_length_b   6.34843700
_cell_length_c   13.48760100
_cell_angle_alpha   90.00000000
_cell_angle_beta   90.00092170
_cell_angle_gamma   90.00000000
_symmetry_Int_Tables_number   1
_chemical_formula_structural   Sc2Mn(SnRu2)3
_chemical_formula_sum   'Sc4 Mn2 Sn6 Ru12'
_cell_volume   385.06476360
_cell_formula_units_Z   2
loop_
 _symmetry_equiv_pos_site_id
 _symmetry_equiv_pos_as_xyz
  1  'x, y, z'
loop_
 _atom_site_type_symbol
 _atom_site_label
 _atom_site_symmetry_multiplicity
 _atom_site_fract_x
 _atom_site_fract_y
 _atom_site_fract_z
 _atom_site_occupancy
  Sc  Sc0  1  0.999976  0.500001  0.331316  1
  Sc  Sc1  1  0.500005  0.000000  0.499660  1
  Sc  Sc2  1  0.000021  0.500001  0.667098  1
  Sc  Sc3  1  0.500039  0.000000  0.835332  1
  Mn  Mn4  1  0.000004  0.500001  0.001485  1
  Mn  Mn5  1  0.499964  0.000000  0.165042  1
  Sn  Sn6  1  0.000004  0.000000  0.998509  1
  Sn  Sn7  1  0.499951  0.500001  0.168041  1
  Sn  Sn8  1  0.000003  0.000000  0.332133  1
  Sn  Sn9  1  0.500002  0.500001  0.497604  1
  Sn  Sn10  1  0.000004  0.000000  0.669066  1
  Sn  Sn11  1  0.500049  0.500001  0.834539  1
  Ru  Ru12  1  0.500003  0.259876  0.005731  1
  Ru  Ru13  1  0.500003  0.740125  0.005731  1
  Ru  Ru14  1  0.999939  0.240030  0.160958  1
  Ru  Ru15  1  0.999939  0.759969  0.160958  1
  Ru  Ru16  1  0.499980  0.241140  0.325312  1
  Ru  Ru17  1  0.499980  0.758860  0.325312  1
  Ru  Ru18  1  0.000004  0.250753  0.498549  1
  Ru  Ru19  1  0.000004  0.749248  0.498549  1
  Ru  Ru20  1  0.500030  0.249225  0.668128  1
  Ru  Ru21  1  0.500030  0.750775  0.668128  1
  Ru  Ru22  1  0.000034  0.258874  0.841410  1
  Ru  Ru23  1  0.000034  0.741125  0.841410  1
