# generated using pymatgen
data_Rb4Si2As3P
_symmetry_space_group_name_H-M   'P 1'
_cell_length_a   8.52681206
_cell_length_b   8.47663227
_cell_length_c   8.47663210
_cell_angle_alpha   135.53875599
_cell_angle_beta   128.53534710
_cell_angle_gamma   70.22018252
_symmetry_Int_Tables_number   1
_chemical_formula_structural   Rb4Si2As3P
_chemical_formula_sum   'Rb4 Si2 As3 P1'
_cell_volume   329.30978284
_cell_formula_units_Z   1
loop_
 _symmetry_equiv_pos_site_id
 _symmetry_equiv_pos_as_xyz
  1  'x, y, z'
loop_
 _atom_site_type_symbol
 _atom_site_label
 _atom_site_symmetry_multiplicity
 _atom_site_fract_x
 _atom_site_fract_y
 _atom_site_fract_z
 _atom_site_occupancy
  Rb  Rb0  1  0.977597  0.643131  0.334466  1
  Rb  Rb1  1  0.021126  0.356378  0.664748  1
  Rb  Rb2  1  0.690502  0.855697  0.834805  1
  Rb  Rb3  1  0.311507  0.145403  0.166104  1
  Si  Si4  1  0.500574  0.743628  0.247394  1
  Si  Si5  1  0.500574  0.253180  0.756946  1
  As  As6  1  0.437201  0.597385  0.839816  1
  As  As7  1  0.246521  0.902027  0.344494  1
  As  As8  1  0.755185  0.095369  0.659816  1
  P  P9  1  0.559214  0.407802  0.151412  1
