# generated using pymatgen
data_Tb7Dy(Si3Pd)4
_symmetry_space_group_name_H-M   'P 1'
_cell_length_a   8.17216800
_cell_length_b   8.17367052
_cell_length_c   8.13653800
_cell_angle_alpha   90.00000000
_cell_angle_beta   90.00000000
_cell_angle_gamma   119.99391932
_symmetry_Int_Tables_number   1
_chemical_formula_structural   Tb7Dy(Si3Pd)4
_chemical_formula_sum   'Tb7 Dy1 Si12 Pd4'
_cell_volume   470.70770733
_cell_formula_units_Z   1
loop_
 _symmetry_equiv_pos_site_id
 _symmetry_equiv_pos_as_xyz
  1  'x, y, z'
loop_
 _atom_site_type_symbol
 _atom_site_label
 _atom_site_symmetry_multiplicity
 _atom_site_fract_x
 _atom_site_fract_y
 _atom_site_fract_z
 _atom_site_occupancy
  Tb  Tb0  1  0.499658  0.999317  0.750000  1
  Tb  Tb1  1  0.999346  0.499675  0.250000  1
  Tb  Tb2  1  0.000714  0.500376  0.750000  1
  Tb  Tb3  1  0.500331  0.499675  0.250000  1
  Tb  Tb4  1  0.499659  0.500376  0.750000  1
  Tb  Tb5  1  0.000003  0.000004  0.250000  1
  Tb  Tb6  1  0.999979  0.999957  0.750000  1
  Dy  Dy7  1  0.500278  0.000556  0.250000  1
  Si  Si8  1  0.165721  0.331442  0.000846  1
  Si  Si9  1  0.834265  0.668532  0.000049  1
  Si  Si10  1  0.669096  0.834516  0.999784  1
  Si  Si11  1  0.834265  0.668532  0.499951  1
  Si  Si12  1  0.330931  0.165515  0.998882  1
  Si  Si13  1  0.165721  0.331442  0.499154  1
  Si  Si14  1  0.165419  0.834516  0.999784  1
  Si  Si15  1  0.330931  0.165515  0.501118  1
  Si  Si16  1  0.834583  0.165515  0.998882  1
  Si  Si17  1  0.669096  0.834516  0.500216  1
  Si  Si18  1  0.834583  0.165515  0.501118  1
  Si  Si19  1  0.165419  0.834516  0.500216  1
  Pd  Pd20  1  0.333593  0.667189  0.000304  1
  Pd  Pd21  1  0.666404  0.332808  0.998984  1
  Pd  Pd22  1  0.666404  0.332808  0.501016  1
  Pd  Pd23  1  0.333593  0.667189  0.499696  1
