# generated using pymatgen
data_Hf6Ti3AlIr6
_symmetry_space_group_name_H-M   'P 1'
_cell_length_a   7.86476200
_cell_length_b   7.86476277
_cell_length_c   5.27833500
_cell_angle_alpha   90.00000000
_cell_angle_beta   90.00000000
_cell_angle_gamma   120.00000517
_symmetry_Int_Tables_number   1
_chemical_formula_structural   Hf6Ti3AlIr6
_chemical_formula_sum   'Hf6 Ti3 Al1 Ir6'
_cell_volume   282.74749843
_cell_formula_units_Z   1
loop_
 _symmetry_equiv_pos_site_id
 _symmetry_equiv_pos_as_xyz
  1  'x, y, z'
loop_
 _atom_site_type_symbol
 _atom_site_label
 _atom_site_symmetry_multiplicity
 _atom_site_fract_x
 _atom_site_fract_y
 _atom_site_fract_z
 _atom_site_occupancy
  Hf  Hf0  1  0.245273  0.000375  0.249722  1
  Hf  Hf1  1  0.755102  0.000375  0.750278  1
  Hf  Hf2  1  0.999625  0.244898  0.249722  1
  Hf  Hf3  1  0.999625  0.754727  0.750278  1
  Hf  Hf4  1  0.755102  0.754727  0.249722  1
  Hf  Hf5  1  0.245273  0.244898  0.750278  1
  Ti  Ti6  1  0.666667  0.333333  0.000000  1
  Ti  Ti7  1  0.666667  0.333333  0.500000  1
  Ti  Ti8  1  0.333333  0.666667  0.500000  1
  Al  Al9  1  0.333333  0.666667  0.000000  1
  Ir  Ir10  1  0.596782  0.998653  0.248358  1
  Ir  Ir11  1  0.401871  0.998653  0.751642  1
  Ir  Ir12  1  0.001347  0.598129  0.248358  1
  Ir  Ir13  1  0.001347  0.403218  0.751642  1
  Ir  Ir14  1  0.401871  0.403218  0.248358  1
  Ir  Ir15  1  0.596782  0.598129  0.751642  1
