# generated using pymatgen
data_Tb2HoRuBr3
_symmetry_space_group_name_H-M   'P 1'
_cell_length_a   4.09869600
_cell_length_b   8.51095882
_cell_length_c   11.92899165
_cell_angle_alpha   87.29851860
_cell_angle_beta   90.00000000
_cell_angle_gamma   90.00000000
_symmetry_Int_Tables_number   1
_chemical_formula_structural   Tb2HoRuBr3
_chemical_formula_sum   'Tb4 Ho2 Ru2 Br6'
_cell_volume   415.66648900
_cell_formula_units_Z   2
loop_
 _symmetry_equiv_pos_site_id
 _symmetry_equiv_pos_as_xyz
  1  'x, y, z'
loop_
 _atom_site_type_symbol
 _atom_site_label
 _atom_site_symmetry_multiplicity
 _atom_site_fract_x
 _atom_site_fract_y
 _atom_site_fract_z
 _atom_site_occupancy
  Tb  Tb0  1  0.750000  0.102247  0.673778  1
  Tb  Tb1  1  0.250000  0.897753  0.326222  1
  Tb  Tb2  1  0.250000  0.273811  0.894625  1
  Tb  Tb3  1  0.750000  0.726189  0.105375  1
  Ho  Ho4  1  0.750000  0.139413  0.132827  1
  Ho  Ho5  1  0.250000  0.860587  0.867173  1
  Ru  Ru6  1  0.750000  0.056070  0.904297  1
  Ru  Ru7  1  0.250000  0.943930  0.095703  1
  Br  Br8  1  0.250000  0.343154  0.640608  1
  Br  Br9  1  0.750000  0.656846  0.359392  1
  Br  Br10  1  0.750000  0.132608  0.394545  1
  Br  Br11  1  0.250000  0.867392  0.605455  1
  Br  Br12  1  0.250000  0.429321  0.130091  1
  Br  Br13  1  0.750000  0.570679  0.869909  1
