# generated using pymatgen
data_Yb2HoZr(Pt2O7)2
_symmetry_space_group_name_H-M   'P 1'
_cell_length_a   7.20502792
_cell_length_b   7.20462604
_cell_length_c   7.20502584
_cell_angle_alpha   60.15711613
_cell_angle_beta   59.86021176
_cell_angle_gamma   60.15712648
_symmetry_Int_Tables_number   1
_chemical_formula_structural   Yb2HoZr(Pt2O7)2
_chemical_formula_sum   'Yb2 Ho1 Zr1 Pt4 O14'
_cell_volume   264.80849534
_cell_formula_units_Z   1
loop_
 _symmetry_equiv_pos_site_id
 _symmetry_equiv_pos_as_xyz
  1  'x, y, z'
loop_
 _atom_site_type_symbol
 _atom_site_label
 _atom_site_symmetry_multiplicity
 _atom_site_fract_x
 _atom_site_fract_y
 _atom_site_fract_z
 _atom_site_occupancy
  Yb  Yb0  1  0.625000  0.625000  0.125000  1
  Yb  Yb1  1  0.125000  0.625000  0.625000  1
  Ho  Ho2  1  0.625000  0.625000  0.625000  1
  Zr  Zr3  1  0.625000  0.125000  0.625000  1
  Pt  Pt4  1  0.125000  0.125000  0.125000  1
  Pt  Pt5  1  0.625000  0.125000  0.125000  1
  Pt  Pt6  1  0.125000  0.625000  0.125000  1
  Pt  Pt7  1  0.125000  0.125000  0.625000  1
  O  O8  1  0.029955  0.463608  0.466768  1
  O  O9  1  0.783232  0.786392  0.220045  1
  O  O10  1  0.783235  0.202667  0.230063  1
  O  O11  1  0.466961  0.041796  0.466961  1
  O  O12  1  0.038680  0.460218  0.038680  1
  O  O13  1  0.738255  0.775163  0.738255  1
  O  O14  1  0.019937  0.047333  0.466765  1
  O  O15  1  0.211320  0.789782  0.211320  1
  O  O16  1  0.230063  0.202667  0.783235  1
  O  O17  1  0.511745  0.474837  0.511745  1
  O  O18  1  0.783039  0.208204  0.783039  1
  O  O19  1  0.466765  0.047333  0.019937  1
  O  O20  1  0.466768  0.463608  0.029955  1
  O  O21  1  0.220045  0.786392  0.783232  1
