# generated using pymatgen
data_Pr10Ge3Se7
_symmetry_space_group_name_H-M   'P 1'
_cell_length_a   11.35093441
_cell_length_b   11.35093284
_cell_length_c   7.47808600
_cell_angle_alpha   83.64925370
_cell_angle_beta   83.64925458
_cell_angle_gamma   141.93495761
_symmetry_Int_Tables_number   1
_chemical_formula_structural   Pr10Ge3Se7
_chemical_formula_sum   'Pr10 Ge3 Se7'
_cell_volume   558.83513231
_cell_formula_units_Z   1
loop_
 _symmetry_equiv_pos_site_id
 _symmetry_equiv_pos_as_xyz
  1  'x, y, z'
loop_
 _atom_site_type_symbol
 _atom_site_label
 _atom_site_symmetry_multiplicity
 _atom_site_fract_x
 _atom_site_fract_y
 _atom_site_fract_z
 _atom_site_occupancy
  Pr  Pr0  1  0.253356  0.253356  0.758927  1
  Pr  Pr1  1  0.851677  0.652021  0.750150  1
  Pr  Pr2  1  0.746644  0.746644  0.241073  1
  Pr  Pr3  1  0.451788  0.047899  0.740442  1
  Pr  Pr4  1  0.347979  0.148323  0.249850  1
  Pr  Pr5  1  0.047899  0.451788  0.740442  1
  Pr  Pr6  1  0.952101  0.548212  0.259558  1
  Pr  Pr7  1  0.652021  0.851677  0.750150  1
  Pr  Pr8  1  0.548212  0.952101  0.259558  1
  Pr  Pr9  1  0.148323  0.347979  0.249850  1
  Ge  Ge10  1  0.500000  0.500000  0.000000  1
  Ge  Ge11  1  0.198582  0.801418  0.500000  1
  Ge  Ge12  1  0.801418  0.198582  0.500000  1
  Se  Se13  1  0.899414  0.100586  0.000000  1
  Se  Se14  1  0.400521  0.599479  0.500000  1
  Se  Se15  1  0.000000  0.000000  0.500000  1
  Se  Se16  1  0.599479  0.400521  0.500000  1
  Se  Se17  1  0.100586  0.899414  0.000000  1
  Se  Se18  1  0.700136  0.299864  0.000000  1
  Se  Se19  1  0.299864  0.700136  0.000000  1
