# generated using pymatgen
data_Y2Ni5C3
_symmetry_space_group_name_H-M   'P 1'
_cell_length_a   8.22006200
_cell_length_b   8.22006200
_cell_length_c   3.83177300
_cell_angle_alpha   90.00000000
_cell_angle_beta   90.00000000
_cell_angle_gamma   90.00000000
_symmetry_Int_Tables_number   1
_chemical_formula_structural   Y2Ni5C3
_chemical_formula_sum   'Y4 Ni10 C6'
_cell_volume   258.91067644
_cell_formula_units_Z   2
loop_
 _symmetry_equiv_pos_site_id
 _symmetry_equiv_pos_as_xyz
  1  'x, y, z'
loop_
 _atom_site_type_symbol
 _atom_site_label
 _atom_site_symmetry_multiplicity
 _atom_site_fract_x
 _atom_site_fract_y
 _atom_site_fract_z
 _atom_site_occupancy
  Y  Y0  1  0.344388  0.844388  0.000000  1
  Y  Y1  1  0.655612  0.155612  0.000000  1
  Y  Y2  1  0.155612  0.344388  0.000000  1
  Y  Y3  1  0.844388  0.655612  0.000000  1
  Ni  Ni4  1  0.578158  0.712044  0.500000  1
  Ni  Ni5  1  0.421842  0.287956  0.500000  1
  Ni  Ni6  1  0.921842  0.212044  0.500000  1
  Ni  Ni7  1  0.078158  0.787956  0.500000  1
  Ni  Ni8  1  0.712044  0.421842  0.500000  1
  Ni  Ni9  1  0.287956  0.578158  0.500000  1
  Ni  Ni10  1  0.212044  0.078158  0.500000  1
  Ni  Ni11  1  0.787956  0.921842  0.500000  1
  Ni  Ni12  1  0.500000  0.500000  0.000000  1
  Ni  Ni13  1  0.000000  0.000000  0.000000  1
  C  C14  1  0.500000  0.500000  0.500000  1
  C  C15  1  0.000000  0.000000  0.500000  1
  C  C16  1  0.058849  0.558849  0.500000  1
  C  C17  1  0.941151  0.441151  0.500000  1
  C  C18  1  0.441151  0.058849  0.500000  1
  C  C19  1  0.558849  0.941151  0.500000  1
