# generated using pymatgen
data_Yb2ReB8Os
_symmetry_space_group_name_H-M   'P 1'
_cell_length_a   3.54897500
_cell_length_b   5.97787805
_cell_length_c   11.55675399
_cell_angle_alpha   89.90488407
_cell_angle_beta   90.00000000
_cell_angle_gamma   90.00000000
_symmetry_Int_Tables_number   1
_chemical_formula_structural   Yb2ReB8Os
_chemical_formula_sum   'Yb4 Re2 B16 Os2'
_cell_volume   245.18012468
_cell_formula_units_Z   2
loop_
 _symmetry_equiv_pos_site_id
 _symmetry_equiv_pos_as_xyz
  1  'x, y, z'
loop_
 _atom_site_type_symbol
 _atom_site_label
 _atom_site_symmetry_multiplicity
 _atom_site_fract_x
 _atom_site_fract_y
 _atom_site_fract_z
 _atom_site_occupancy
  Yb  Yb0  1  0.000000  0.129008  0.649664  1
  Yb  Yb1  1  0.000000  0.870992  0.350336  1
  Yb  Yb2  1  0.000000  0.628596  0.849244  1
  Yb  Yb3  1  0.000000  0.371404  0.150756  1
  Re  Re4  1  0.000000  0.130315  0.915735  1
  Re  Re5  1  0.000000  0.869685  0.084265  1
  B  B6  1  0.500000  0.475475  0.691597  1
  B  B7  1  0.500000  0.524525  0.308403  1
  B  B8  1  0.500000  0.976356  0.806712  1
  B  B9  1  0.500000  0.023644  0.193288  1
  B  B10  1  0.500000  0.286296  0.814706  1
  B  B11  1  0.500000  0.713704  0.185294  1
  B  B12  1  0.500000  0.784436  0.684679  1
  B  B13  1  0.500000  0.215564  0.315321  1
  B  B14  1  0.500000  0.365978  0.967876  1
  B  B15  1  0.500000  0.634022  0.032124  1
  B  B16  1  0.500000  0.863647  0.530552  1
  B  B17  1  0.500000  0.136353  0.469448  1
  B  B18  1  0.500000  0.386775  0.547516  1
  B  B19  1  0.500000  0.613225  0.452484  1
  B  B20  1  0.500000  0.884659  0.952100  1
  B  B21  1  0.500000  0.115341  0.047900  1
  Os  Os22  1  0.000000  0.635648  0.586885  1
  Os  Os23  1  0.000000  0.364352  0.413115  1
