# generated using pymatgen
data_La2Sm6AlPd24
_symmetry_space_group_name_H-M   'P 1'
_cell_length_a   8.44830604
_cell_length_b   8.44830608
_cell_length_c   8.44830700
_cell_angle_alpha   90.02842305
_cell_angle_beta   90.02842305
_cell_angle_gamma   90.02842929
_symmetry_Int_Tables_number   1
_chemical_formula_structural   La2Sm6AlPd24
_chemical_formula_sum   'La2 Sm6 Al1 Pd24'
_cell_volume   602.98818749
_cell_formula_units_Z   1
loop_
 _symmetry_equiv_pos_site_id
 _symmetry_equiv_pos_as_xyz
  1  'x, y, z'
loop_
 _atom_site_type_symbol
 _atom_site_label
 _atom_site_symmetry_multiplicity
 _atom_site_fract_x
 _atom_site_fract_y
 _atom_site_fract_z
 _atom_site_occupancy
  La  La0  1  0.253595  0.253595  0.253595  1
  La  La1  1  0.746405  0.746405  0.746405  1
  Sm  Sm2  1  0.747993  0.747993  0.251775  1
  Sm  Sm3  1  0.747993  0.251775  0.747993  1
  Sm  Sm4  1  0.252007  0.252007  0.748225  1
  Sm  Sm5  1  0.252007  0.748225  0.252007  1
  Sm  Sm6  1  0.251775  0.747993  0.747993  1
  Sm  Sm7  1  0.748225  0.252007  0.252007  1
  Al  Al8  1  0.000000  0.000000  0.000000  1
  Pd  Pd9  1  0.258578  0.501077  0.998258  1
  Pd  Pd10  1  0.741422  0.498923  0.001742  1
  Pd  Pd11  1  0.998258  0.258578  0.501077  1
  Pd  Pd12  1  0.501077  0.258578  0.998258  1
  Pd  Pd13  1  0.001742  0.741422  0.498923  1
  Pd  Pd14  1  0.498923  0.741422  0.001742  1
  Pd  Pd15  1  0.501077  0.998258  0.258578  1
  Pd  Pd16  1  0.258578  0.998258  0.501077  1
  Pd  Pd17  1  0.498923  0.001742  0.741422  1
  Pd  Pd18  1  0.741422  0.001742  0.498923  1
  Pd  Pd19  1  0.998258  0.501077  0.258578  1
  Pd  Pd20  1  0.001742  0.498923  0.741422  1
  Pd  Pd21  1  0.252325  0.502008  0.502008  1
  Pd  Pd22  1  0.747675  0.497992  0.497992  1
  Pd  Pd23  1  0.502008  0.252325  0.502008  1
  Pd  Pd24  1  0.497992  0.747675  0.497992  1
  Pd  Pd25  1  0.502008  0.502008  0.252325  1
  Pd  Pd26  1  0.497992  0.497992  0.747675  1
  Pd  Pd27  1  0.288480  0.998272  0.998272  1
  Pd  Pd28  1  0.711520  0.001728  0.001728  1
  Pd  Pd29  1  0.998272  0.288480  0.998272  1
  Pd  Pd30  1  0.001728  0.711520  0.001728  1
  Pd  Pd31  1  0.998272  0.998272  0.288480  1
  Pd  Pd32  1  0.001728  0.001728  0.711520  1
