# generated using pymatgen
data_Er5Tm5In8(PtAu)2
_symmetry_space_group_name_H-M   'P 1'
_cell_length_a   3.62126600
_cell_length_b   8.12816897
_cell_length_c   18.19264011
_cell_angle_alpha   90.01985407
_cell_angle_beta   90.00000000
_cell_angle_gamma   90.00000000
_symmetry_Int_Tables_number   1
_chemical_formula_structural   Er5Tm5In8(PtAu)2
_chemical_formula_sum   'Er5 Tm5 In8 Pt2 Au2'
_cell_volume   535.48690217
_cell_formula_units_Z   1
loop_
 _symmetry_equiv_pos_site_id
 _symmetry_equiv_pos_as_xyz
  1  'x, y, z'
loop_
 _atom_site_type_symbol
 _atom_site_label
 _atom_site_symmetry_multiplicity
 _atom_site_fract_x
 _atom_site_fract_y
 _atom_site_fract_z
 _atom_site_occupancy
  Er  Er0  1  0.000000  0.748117  0.782502  1
  Er  Er1  1  0.000000  0.267921  0.721227  1
  Er  Er2  1  0.000000  0.732052  0.278755  1
  Er  Er3  1  0.000000  0.999969  0.000005  1
  Er  Er4  1  0.000000  0.500001  0.499982  1
  Tm  Tm5  1  0.000000  0.119977  0.418658  1
  Tm  Tm6  1  0.000000  0.880048  0.581267  1
  Tm  Tm7  1  0.000000  0.384657  0.915910  1
  Tm  Tm8  1  0.000000  0.615223  0.084175  1
  Tm  Tm9  1  0.000000  0.252119  0.217611  1
  In  In10  1  0.500000  0.423007  0.352647  1
  In  In11  1  0.500000  0.576870  0.647234  1
  In  In12  1  0.500000  0.077704  0.853047  1
  In  In13  1  0.500000  0.922452  0.147004  1
  In  In14  1  0.500000  0.291972  0.065597  1
  In  In15  1  0.500000  0.707966  0.934571  1
  In  In16  1  0.500000  0.209264  0.566169  1
  In  In17  1  0.500000  0.790771  0.433795  1
  Pt  Pt18  1  0.500000  0.473171  0.803824  1
  Pt  Pt19  1  0.500000  0.526162  0.196237  1
  Au  Au20  1  0.500000  0.028468  0.302524  1
  Au  Au21  1  0.500000  0.972110  0.697258  1
