# generated using pymatgen
data_CaDy3Al16(SiIr3)2
_symmetry_space_group_name_H-M   'P 1'
_cell_length_a   7.54970468
_cell_length_b   7.55354804
_cell_length_c   9.38001500
_cell_angle_alpha   90.00000000
_cell_angle_beta   90.00000000
_cell_angle_gamma   119.60430207
_symmetry_Int_Tables_number   1
_chemical_formula_structural   CaDy3Al16(SiIr3)2
_chemical_formula_sum   'Ca1 Dy3 Al16 Si2 Ir6'
_cell_volume   465.08573566
_cell_formula_units_Z   1
loop_
 _symmetry_equiv_pos_site_id
 _symmetry_equiv_pos_as_xyz
  1  'x, y, z'
loop_
 _atom_site_type_symbol
 _atom_site_label
 _atom_site_symmetry_multiplicity
 _atom_site_fract_x
 _atom_site_fract_y
 _atom_site_fract_z
 _atom_site_occupancy
  Ca  Ca0  1  0.994438  0.674811  0.750000  1
  Dy  Dy1  1  0.004207  0.325221  0.250000  1
  Dy  Dy2  1  0.675477  0.994985  0.750000  1
  Dy  Dy3  1  0.323292  0.002808  0.250000  1
  Al  Al4  1  0.001476  0.337677  0.576669  1
  Al  Al5  1  0.998257  0.663317  0.424784  1
  Al  Al6  1  0.998257  0.663317  0.075216  1
  Al  Al7  1  0.335311  0.000362  0.922973  1
  Al  Al8  1  0.001476  0.337677  0.923331  1
  Al  Al9  1  0.663427  0.998384  0.077020  1
  Al  Al10  1  0.663427  0.998384  0.422980  1
  Al  Al11  1  0.335311  0.000362  0.577027  1
  Al  Al12  1  0.335875  0.335715  0.055313  1
  Al  Al13  1  0.665367  0.664340  0.944593  1
  Al  Al14  1  0.665367  0.664340  0.555407  1
  Al  Al15  1  0.335875  0.335715  0.444687  1
  Al  Al16  1  0.337353  0.549046  0.750000  1
  Al  Al17  1  0.665055  0.451814  0.250000  1
  Al  Al18  1  0.548214  0.334241  0.750000  1
  Al  Al19  1  0.452041  0.664686  0.250000  1
  Si  Si20  1  0.128884  0.130730  0.750000  1
  Si  Si21  1  0.871878  0.871330  0.250000  1
  Ir  Ir22  1  0.670142  0.326978  0.498893  1
  Ir  Ir23  1  0.329391  0.671476  0.498898  1
  Ir  Ir24  1  0.329391  0.671476  0.001102  1
  Ir  Ir25  1  0.670142  0.326978  0.001107  1
  Ir  Ir26  1  0.000333  0.001916  0.498538  1
  Ir  Ir27  1  0.000333  0.001916  0.001462  1
