# generated using pymatgen
data_Mg5P12Ir12Ru7
_symmetry_space_group_name_H-M   'P 1'
_cell_length_a   12.66655974
_cell_length_b   12.60688893
_cell_length_c   3.88695200
_cell_angle_alpha   90.00000000
_cell_angle_beta   90.00000000
_cell_angle_gamma   120.65404898
_symmetry_Int_Tables_number   1
_chemical_formula_structural   Mg5P12Ir12Ru7
_chemical_formula_sum   'Mg5 P12 Ir12 Ru7'
_cell_volume   533.95694696
_cell_formula_units_Z   1
loop_
 _symmetry_equiv_pos_site_id
 _symmetry_equiv_pos_as_xyz
  1  'x, y, z'
loop_
 _atom_site_type_symbol
 _atom_site_label
 _atom_site_symmetry_multiplicity
 _atom_site_fract_x
 _atom_site_fract_y
 _atom_site_fract_z
 _atom_site_occupancy
  Mg  Mg0  1  0.331943  0.666753  0.000000  1
  Mg  Mg1  1  0.667557  0.336469  0.000000  1
  Mg  Mg2  1  0.823513  0.999157  0.500000  1
  Mg  Mg3  1  0.997461  0.820106  0.500000  1
  Mg  Mg4  1  0.177027  0.174896  0.500000  1
  P  P5  1  0.175428  0.993284  0.000000  1
  P  P6  1  0.001583  0.178088  0.000000  1
  P  P7  1  0.817782  0.819366  0.000000  1
  P  P8  1  0.171933  0.480021  0.500000  1
  P  P9  1  0.517990  0.690421  0.500000  1
  P  P10  1  0.311524  0.830792  0.500000  1
  P  P11  1  0.691497  0.520561  0.500000  1
  P  P12  1  0.834796  0.318108  0.500000  1
  P  P13  1  0.484263  0.170585  0.500000  1
  P  P14  1  0.633620  0.994620  0.000000  1
  P  P15  1  0.000943  0.637894  0.000000  1
  P  P16  1  0.359035  0.364667  0.000000  1
  Ir  Ir17  1  0.361630  0.492748  0.500000  1
  Ir  Ir18  1  0.506977  0.870494  0.500000  1
  Ir  Ir19  1  0.136896  0.637578  0.500000  1
  Ir  Ir20  1  0.869004  0.510666  0.500000  1
  Ir  Ir21  1  0.644538  0.141895  0.500000  1
  Ir  Ir22  1  0.497882  0.359222  0.500000  1
  Ir  Ir23  1  0.815233  0.183733  0.000000  1
  Ir  Ir24  1  0.368015  0.184672  0.000000  1
  Ir  Ir25  1  0.286615  0.002283  0.500000  1
  Ir  Ir26  1  0.996721  0.282599  0.500000  1
  Ir  Ir27  1  0.714138  0.715374  0.500000  1
  Ir  Ir28  1  0.999958  0.998549  0.000000  1
  Ru  Ru29  1  0.458546  0.008931  0.000000  1
  Ru  Ru30  1  0.995722  0.450841  0.000000  1
  Ru  Ru31  1  0.547055  0.542909  0.000000  1
  Ru  Ru32  1  0.180388  0.374641  0.000000  1
  Ru  Ru33  1  0.620384  0.803692  0.000000  1
  Ru  Ru34  1  0.194226  0.817288  0.000000  1
  Ru  Ru35  1  0.808176  0.626101  0.000000  1
