# generated using pymatgen
data_Zr10GaSi(SnSb2)2
_symmetry_space_group_name_H-M   'P 1'
_cell_length_a   8.70314005
_cell_length_b   8.71560490
_cell_length_c   5.87629700
_cell_angle_alpha   89.98717426
_cell_angle_beta   90.00641876
_cell_angle_gamma   120.04739188
_symmetry_Int_Tables_number   1
_chemical_formula_structural   Zr10GaSi(SnSb2)2
_chemical_formula_sum   'Zr10 Ga1 Si1 Sn2 Sb4'
_cell_volume   385.83379906
_cell_formula_units_Z   1
loop_
 _symmetry_equiv_pos_site_id
 _symmetry_equiv_pos_as_xyz
  1  'x, y, z'
loop_
 _atom_site_type_symbol
 _atom_site_label
 _atom_site_symmetry_multiplicity
 _atom_site_fract_x
 _atom_site_fract_y
 _atom_site_fract_z
 _atom_site_occupancy
  Zr  Zr0  1  0.734219  0.733345  0.755639  1
  Zr  Zr1  1  0.265781  0.999126  0.755639  1
  Zr  Zr2  1  0.000000  0.268236  0.755911  1
  Zr  Zr3  1  0.259508  0.258998  0.244340  1
  Zr  Zr4  1  0.740492  0.999489  0.244340  1
  Zr  Zr5  1  0.000000  0.740713  0.244498  1
  Zr  Zr6  1  0.667063  0.333541  0.998124  1
  Zr  Zr7  1  0.332937  0.666478  0.998124  1
  Zr  Zr8  1  0.332540  0.666414  0.501461  1
  Zr  Zr9  1  0.667460  0.333873  0.501461  1
  Ga  Ga10  1  0.000000  0.001436  0.507405  1
  Si  Si11  1  0.000000  0.001046  0.992689  1
  Sn  Sn12  1  0.388253  0.388128  0.746652  1
  Sn  Sn13  1  0.611747  0.999876  0.746652  1
  Sb  Sb14  1  0.000000  0.610579  0.747456  1
  Sb  Sb15  1  0.604122  0.604714  0.253220  1
  Sb  Sb16  1  0.395878  0.000593  0.253220  1
  Sb  Sb17  1  0.000000  0.393414  0.253170  1
