# generated using pymatgen
data_Mg2Sn2RuRh
_symmetry_space_group_name_H-M   'P 1'
_cell_length_a   4.39312100
_cell_length_b   4.39312100
_cell_length_c   6.28321900
_cell_angle_alpha   90.00000000
_cell_angle_beta   90.00000000
_cell_angle_gamma   90.00000000
_symmetry_Int_Tables_number   1
_chemical_formula_structural   Mg2Sn2RuRh
_chemical_formula_sum   'Mg2 Sn2 Ru1 Rh1'
_cell_volume   121.26306125
_cell_formula_units_Z   1
loop_
 _symmetry_equiv_pos_site_id
 _symmetry_equiv_pos_as_xyz
  1  'x, y, z'
loop_
 _atom_site_type_symbol
 _atom_site_label
 _atom_site_symmetry_multiplicity
 _atom_site_fract_x
 _atom_site_fract_y
 _atom_site_fract_z
 _atom_site_occupancy
  Mg  Mg0  1  0.000000  0.500000  0.276473  1
  Mg  Mg1  1  0.500000  0.000000  0.723528  1
  Sn  Sn2  1  0.500000  0.000000  0.250219  1
  Sn  Sn3  1  0.000000  0.500000  0.749782  1
  Ru  Ru4  1  0.500000  0.500000  0.000000  1
  Rh  Rh5  1  0.000000  0.000000  0.000000  1
