# generated using pymatgen
data_Tm2Lu8Si5As
_symmetry_space_group_name_H-M   'P 1'
_cell_length_a   8.25197244
_cell_length_b   8.26362178
_cell_length_c   6.14610200
_cell_angle_alpha   90.00000000
_cell_angle_beta   90.00000000
_cell_angle_gamma   119.91606096
_symmetry_Int_Tables_number   1
_chemical_formula_structural   Tm2Lu8Si5As
_chemical_formula_sum   'Tm2 Lu8 Si5 As1'
_cell_volume   363.26646832
_cell_formula_units_Z   1
loop_
 _symmetry_equiv_pos_site_id
 _symmetry_equiv_pos_as_xyz
  1  'x, y, z'
loop_
 _atom_site_type_symbol
 _atom_site_label
 _atom_site_symmetry_multiplicity
 _atom_site_fract_x
 _atom_site_fract_y
 _atom_site_fract_z
 _atom_site_occupancy
  Tm  Tm0  1  0.759443  0.000041  0.750000  1
  Tm  Tm1  1  0.996554  0.754835  0.750000  1
  Lu  Lu2  1  0.668841  0.335946  0.001142  1
  Lu  Lu3  1  0.332947  0.663914  0.498861  1
  Lu  Lu4  1  0.332947  0.663914  0.001139  1
  Lu  Lu5  1  0.668841  0.335946  0.498858  1
  Lu  Lu6  1  0.757342  0.756933  0.250000  1
  Lu  Lu7  1  0.000539  0.242886  0.250000  1
  Lu  Lu8  1  0.241808  0.245423  0.750000  1
  Lu  Lu9  1  0.241878  0.000120  0.250000  1
  Si  Si10  1  0.394712  0.393462  0.250000  1
  Si  Si11  1  0.001249  0.606642  0.250000  1
  Si  Si12  1  0.000030  0.394715  0.750000  1
  Si  Si13  1  0.604454  0.604783  0.750000  1
  Si  Si14  1  0.606508  0.000014  0.250000  1
  As  As15  1  0.391908  0.000428  0.750000  1
