# generated using pymatgen
data_V6Ga3CuN2
_symmetry_space_group_name_H-M   'P 1'
_cell_length_a   6.56685011
_cell_length_b   6.56807911
_cell_length_c   6.56919800
_cell_angle_alpha   90.00000000
_cell_angle_beta   90.00000000
_cell_angle_gamma   90.18007599
_symmetry_Int_Tables_number   1
_chemical_formula_structural   V6Ga3CuN2
_chemical_formula_sum   'V12 Ga6 Cu2 N4'
_cell_volume   283.33856202
_cell_formula_units_Z   2
loop_
 _symmetry_equiv_pos_site_id
 _symmetry_equiv_pos_as_xyz
  1  'x, y, z'
loop_
 _atom_site_type_symbol
 _atom_site_label
 _atom_site_symmetry_multiplicity
 _atom_site_fract_x
 _atom_site_fract_y
 _atom_site_fract_z
 _atom_site_occupancy
  V  V0  1  0.789019  0.959887  0.375359  1
  V  V1  1  0.710981  0.040113  0.875359  1
  V  V2  1  0.207347  0.458193  0.126111  1
  V  V3  1  0.292653  0.541807  0.626111  1
  V  V4  1  0.959032  0.376479  0.790627  1
  V  V5  1  0.040115  0.872932  0.710277  1
  V  V6  1  0.459885  0.127068  0.210277  1
  V  V7  1  0.540968  0.623521  0.290627  1
  V  V8  1  0.376191  0.789479  0.958731  1
  V  V9  1  0.873440  0.708879  0.040975  1
  V  V10  1  0.123809  0.210521  0.458731  1
  V  V11  1  0.626560  0.291121  0.540975  1
  Ga  Ga12  1  0.822319  0.319062  0.178283  1
  Ga  Ga13  1  0.677681  0.680938  0.678283  1
  Ga  Ga14  1  0.561049  0.421511  0.927122  1
  Ga  Ga15  1  0.418238  0.935071  0.570544  1
  Ga  Ga16  1  0.938951  0.578489  0.427122  1
  Ga  Ga17  1  0.081762  0.064929  0.070544  1
  Cu  Cu18  1  0.182786  0.820924  0.318191  1
  Cu  Cu19  1  0.317214  0.179076  0.818191  1
  N  N20  1  0.877197  0.124227  0.626269  1
  N  N21  1  0.622803  0.875773  0.126269  1
  N  N22  1  0.125843  0.624275  0.877510  1
  N  N23  1  0.374157  0.375725  0.377510  1
