# generated using pymatgen
data_Tb20Ga2Si9Au
_symmetry_space_group_name_H-M   'P 1'
_cell_length_a   7.64154000
_cell_length_b   7.64154000
_cell_length_c   14.17160200
_cell_angle_alpha   90.00000000
_cell_angle_beta   90.00000000
_cell_angle_gamma   90.00000000
_symmetry_Int_Tables_number   1
_chemical_formula_structural   Tb20Ga2Si9Au
_chemical_formula_sum   'Tb20 Ga2 Si9 Au1'
_cell_volume   827.52424851
_cell_formula_units_Z   1
loop_
 _symmetry_equiv_pos_site_id
 _symmetry_equiv_pos_as_xyz
  1  'x, y, z'
loop_
 _atom_site_type_symbol
 _atom_site_label
 _atom_site_symmetry_multiplicity
 _atom_site_fract_x
 _atom_site_fract_y
 _atom_site_fract_z
 _atom_site_occupancy
  Tb  Tb0  1  0.815929  0.838616  0.607783  1
  Tb  Tb1  1  0.183964  0.833990  0.109230  1
  Tb  Tb2  1  0.166994  0.817377  0.393644  1
  Tb  Tb3  1  0.000000  0.500000  0.725891  1
  Tb  Tb4  1  0.833006  0.182623  0.393644  1
  Tb  Tb5  1  0.682623  0.666994  0.393644  1
  Tb  Tb6  1  0.661384  0.315929  0.607783  1
  Tb  Tb7  1  0.338616  0.684071  0.607783  1
  Tb  Tb8  1  0.000000  0.500000  0.234395  1
  Tb  Tb9  1  0.666010  0.683964  0.109230  1
  Tb  Tb10  1  0.682220  0.332846  0.890634  1
  Tb  Tb11  1  0.832846  0.817780  0.890634  1
  Tb  Tb12  1  0.317377  0.333006  0.393644  1
  Tb  Tb13  1  0.184071  0.161384  0.607783  1
  Tb  Tb14  1  0.816036  0.166010  0.109230  1
  Tb  Tb15  1  0.317780  0.667154  0.890634  1
  Tb  Tb16  1  0.333990  0.316036  0.109230  1
  Tb  Tb17  1  0.500000  0.000000  0.266079  1
  Tb  Tb18  1  0.167154  0.182220  0.890634  1
  Tb  Tb19  1  0.500000  0.000000  0.767281  1
  Ga  Ga20  1  0.500000  0.000000  0.995308  1
  Ga  Ga21  1  0.000000  0.500000  0.004860  1
  Si  Si22  1  0.621132  0.380270  0.250774  1
  Si  Si23  1  0.120299  0.878473  0.750064  1
  Si  Si24  1  0.378473  0.379701  0.750064  1
  Si  Si25  1  0.378868  0.619730  0.250774  1
  Si  Si26  1  0.880270  0.878868  0.250774  1
  Si  Si27  1  0.621527  0.620299  0.750064  1
  Si  Si28  1  0.879701  0.121527  0.750064  1
  Si  Si29  1  0.500000  0.000000  0.494326  1
  Si  Si30  1  0.119730  0.121132  0.250774  1
  Au  Au31  1  0.000000  0.500000  0.503345  1
