# generated using pymatgen
data_YEr7B24IrRh3
_symmetry_space_group_name_H-M   'P 1'
_cell_length_a   3.63524200
_cell_length_b   9.15075703
_cell_length_c   11.48054800
_cell_angle_alpha   90.05284274
_cell_angle_beta   90.00000000
_cell_angle_gamma   90.00000000
_symmetry_Int_Tables_number   1
_chemical_formula_structural   YEr7B24IrRh3
_chemical_formula_sum   'Y1 Er7 B24 Ir1 Rh3'
_cell_volume   381.90275006
_cell_formula_units_Z   1
loop_
 _symmetry_equiv_pos_site_id
 _symmetry_equiv_pos_as_xyz
  1  'x, y, z'
loop_
 _atom_site_type_symbol
 _atom_site_label
 _atom_site_symmetry_multiplicity
 _atom_site_fract_x
 _atom_site_fract_y
 _atom_site_fract_z
 _atom_site_occupancy
  Y  Y0  1  0.500000  0.322829  0.414075  1
  Er  Er1  1  0.500000  0.677354  0.586617  1
  Er  Er2  1  0.500000  0.178305  0.912692  1
  Er  Er3  1  0.500000  0.821528  0.086412  1
  Er  Er4  1  0.500000  0.445441  0.126238  1
  Er  Er5  1  0.500000  0.555649  0.873061  1
  Er  Er6  1  0.500000  0.055409  0.626944  1
  Er  Er7  1  0.500000  0.943461  0.374148  1
  B  B8  1  0.000000  0.109632  0.470211  1
  B  B9  1  0.000000  0.889197  0.530238  1
  B  B10  1  0.000000  0.389763  0.969803  1
  B  B11  1  0.000000  0.610700  0.029817  1
  B  B12  1  0.000000  0.132372  0.315794  1
  B  B13  1  0.000000  0.866567  0.684093  1
  B  B14  1  0.000000  0.366660  0.815978  1
  B  B15  1  0.000000  0.633694  0.183572  1
  B  B16  1  0.000000  0.054024  0.065358  1
  B  B17  1  0.000000  0.946278  0.934510  1
  B  B18  1  0.000000  0.446719  0.565851  1
  B  B19  1  0.000000  0.553936  0.434778  1
  B  B20  1  0.000000  0.483159  0.286518  1
  B  B21  1  0.000000  0.517565  0.713149  1
  B  B22  1  0.000000  0.017553  0.786916  1
  B  B23  1  0.000000  0.982504  0.213565  1
  B  B24  1  0.000000  0.249737  0.078798  1
  B  B25  1  0.000000  0.750499  0.920710  1
  B  B26  1  0.000000  0.250547  0.579868  1
  B  B27  1  0.000000  0.749029  0.420934  1
  B  B28  1  0.000000  0.294212  0.234656  1
  B  B29  1  0.000000  0.705502  0.764275  1
  B  B30  1  0.000000  0.205329  0.735930  1
  B  B31  1  0.000000  0.794385  0.264037  1
  Ir  Ir32  1  0.500000  0.139112  0.178239  1
  Rh  Rh33  1  0.500000  0.861116  0.822177  1
  Rh  Rh34  1  0.500000  0.360084  0.679914  1
  Rh  Rh35  1  0.500000  0.640147  0.320127  1
