# generated using pymatgen
data_Pr2Tm4ScCo17P12
_symmetry_space_group_name_H-M   'P 1'
_cell_length_a   3.72911300
_cell_length_b   10.63241200
_cell_length_c   12.33108800
_cell_angle_alpha   90.00000000
_cell_angle_beta   90.00000000
_cell_angle_gamma   90.00000000
_symmetry_Int_Tables_number   1
_chemical_formula_structural   Pr2Tm4ScCo17P12
_chemical_formula_sum   'Pr2 Tm4 Sc1 Co17 P12'
_cell_volume   488.92105206
_cell_formula_units_Z   1
loop_
 _symmetry_equiv_pos_site_id
 _symmetry_equiv_pos_as_xyz
  1  'x, y, z'
loop_
 _atom_site_type_symbol
 _atom_site_label
 _atom_site_symmetry_multiplicity
 _atom_site_fract_x
 _atom_site_fract_y
 _atom_site_fract_z
 _atom_site_occupancy
  Pr  Pr0  1  0.000000  0.500000  0.528710  1
  Pr  Pr1  1  0.500000  0.000000  0.476925  1
  Tm  Tm2  1  0.500000  0.821732  0.206138  1
  Tm  Tm3  1  0.500000  0.178268  0.206138  1
  Tm  Tm4  1  0.000000  0.682308  0.797042  1
  Tm  Tm5  1  0.000000  0.317692  0.797042  1
  Sc  Sc6  1  0.500000  0.500000  0.149619  1
  Co  Co7  1  0.000000  0.000000  0.839921  1
  Co  Co8  1  0.500000  0.500000  0.708752  1
  Co  Co9  1  0.000000  0.000000  0.290788  1
  Co  Co10  1  0.000000  0.500000  0.984380  1
  Co  Co11  1  0.500000  0.000000  0.012358  1
  Co  Co12  1  0.500000  0.326428  0.989902  1
  Co  Co13  1  0.500000  0.673572  0.989902  1
  Co  Co14  1  0.000000  0.162832  0.001486  1
  Co  Co15  1  0.000000  0.837168  0.001486  1
  Co  Co16  1  0.500000  0.294506  0.432188  1
  Co  Co17  1  0.500000  0.705494  0.432188  1
  Co  Co18  1  0.000000  0.202977  0.572628  1
  Co  Co19  1  0.000000  0.797023  0.572628  1
  Co  Co20  1  0.500000  0.880279  0.711428  1
  Co  Co21  1  0.500000  0.119721  0.711428  1
  Co  Co22  1  0.000000  0.622869  0.291991  1
  Co  Co23  1  0.000000  0.377131  0.291991  1
  P  P24  1  0.500000  0.500000  0.884488  1
  P  P25  1  0.000000  0.000000  0.114598  1
  P  P26  1  0.500000  0.500000  0.353109  1
  P  P27  1  0.000000  0.000000  0.659739  1
  P  P28  1  0.500000  0.305796  0.620799  1
  P  P29  1  0.500000  0.694204  0.620799  1
  P  P30  1  0.000000  0.192408  0.383289  1
  P  P31  1  0.000000  0.807592  0.383289  1
  P  P32  1  0.500000  0.850222  0.889719  1
  P  P33  1  0.500000  0.149778  0.889719  1
  P  P34  1  0.000000  0.664315  0.101696  1
  P  P35  1  0.000000  0.335685  0.101696  1
