# generated using pymatgen
data_Y4SbRh3F28
_symmetry_space_group_name_H-M   'P 1'
_cell_length_a   5.59165102
_cell_length_b   8.89649256
_cell_length_c   12.00057870
_cell_angle_alpha   62.51452537
_cell_angle_beta   89.64049747
_cell_angle_gamma   90.25214196
_symmetry_Int_Tables_number   1
_chemical_formula_structural   Y4SbRh3F28
_chemical_formula_sum   'Y4 Sb1 Rh3 F28'
_cell_volume   529.57082304
_cell_formula_units_Z   1
loop_
 _symmetry_equiv_pos_site_id
 _symmetry_equiv_pos_as_xyz
  1  'x, y, z'
loop_
 _atom_site_type_symbol
 _atom_site_label
 _atom_site_symmetry_multiplicity
 _atom_site_fract_x
 _atom_site_fract_y
 _atom_site_fract_z
 _atom_site_occupancy
  Y  Y0  1  0.257282  0.813848  0.274628  1
  Y  Y1  1  0.738614  0.197506  0.726402  1
  Y  Y2  1  0.757642  0.179022  0.239111  1
  Y  Y3  1  0.236572  0.816778  0.749987  1
  Sb  Sb4  1  0.760373  0.727159  0.043496  1
  Rh  Rh5  1  0.240333  0.271723  0.958120  1
  Rh  Rh6  1  0.255362  0.277479  0.452117  1
  Rh  Rh7  1  0.740392  0.728624  0.541597  1
  F  F8  1  0.933109  0.707738  0.411542  1
  F  F9  1  0.052668  0.295374  0.579775  1
  F  F10  1  0.448988  0.291610  0.081865  1
  F  F11  1  0.572630  0.698571  0.922481  1
  F  F12  1  0.474978  0.725160  0.134031  1
  F  F13  1  0.520591  0.266133  0.860439  1
  F  F14  1  0.971722  0.276323  0.356739  1
  F  F15  1  0.032812  0.730035  0.630687  1
  F  F16  1  0.945645  0.739932  0.173442  1
  F  F17  1  0.036649  0.251368  0.831734  1
  F  F18  1  0.456224  0.260902  0.322653  1
  F  F19  1  0.556446  0.747739  0.675102  1
  F  F20  1  0.774777  0.486775  0.139956  1
  F  F21  1  0.229961  0.523406  0.860287  1
  F  F22  1  0.269329  0.525799  0.352827  1
  F  F23  1  0.729440  0.483277  0.639746  1
  F  F24  1  0.952591  0.281127  0.050456  1
  F  F25  1  0.055629  0.720250  0.962157  1
  F  F26  1  0.439119  0.721140  0.459270  1
  F  F27  1  0.545526  0.284183  0.542114  1
  F  F28  1  0.737431  0.974568  0.448632  1
  F  F29  1  0.253072  0.030177  0.546281  1
  F  F30  1  0.236965  0.021936  0.057461  1
  F  F31  1  0.756596  0.968082  0.957108  1
  F  F32  1  0.592722  0.960325  0.232139  1
  F  F33  1  0.429757  0.017761  0.770104  1
  F  F34  1  0.089142  0.030499  0.274748  1
  F  F35  1  0.918911  0.967670  0.740764  1
