# generated using pymatgen
data_KCoSb3F18
_symmetry_space_group_name_H-M   'P 1'
_cell_length_a   9.90435700
_cell_length_b   11.19389600
_cell_length_c   14.72135300
_cell_angle_alpha   90.00000000
_cell_angle_beta   90.00000000
_cell_angle_gamma   90.00000000
_symmetry_Int_Tables_number   1
_chemical_formula_structural   KCoSb3F18
_chemical_formula_sum   'K4 Co4 Sb12 F72'
_cell_volume   1632.13200212
_cell_formula_units_Z   4
loop_
 _symmetry_equiv_pos_site_id
 _symmetry_equiv_pos_as_xyz
  1  'x, y, z'
loop_
 _atom_site_type_symbol
 _atom_site_label
 _atom_site_symmetry_multiplicity
 _atom_site_fract_x
 _atom_site_fract_y
 _atom_site_fract_z
 _atom_site_occupancy
  K  K0  1  0.533560  0.922295  0.750000  1
  K  K1  1  0.966440  0.422295  0.750000  1
  K  K2  1  0.466440  0.077705  0.250000  1
  K  K3  1  0.033560  0.577705  0.250000  1
  Co  Co4  1  0.000000  0.000000  0.500000  1
  Co  Co5  1  0.500000  0.500000  0.000000  1
  Co  Co6  1  0.000000  0.000000  0.000000  1
  Co  Co7  1  0.500000  0.500000  0.500000  1
  Sb  Sb8  1  0.100125  0.025776  0.750000  1
  Sb  Sb9  1  0.399875  0.525776  0.750000  1
  Sb  Sb10  1  0.899875  0.974224  0.250000  1
  Sb  Sb11  1  0.600125  0.474224  0.250000  1
  Sb  Sb12  1  0.692775  0.204009  0.548079  1
  Sb  Sb13  1  0.807225  0.704009  0.951921  1
  Sb  Sb14  1  0.307225  0.795991  0.048079  1
  Sb  Sb15  1  0.192775  0.295991  0.451921  1
  Sb  Sb16  1  0.307225  0.795991  0.451921  1
  Sb  Sb17  1  0.192775  0.295991  0.048079  1
  Sb  Sb18  1  0.692775  0.204009  0.951921  1
  Sb  Sb19  1  0.807225  0.704009  0.548079  1
  F  F20  1  0.103672  0.029961  0.616467  1
  F  F21  1  0.396328  0.529961  0.883533  1
  F  F22  1  0.896328  0.970039  0.116467  1
  F  F23  1  0.603672  0.470039  0.383533  1
  F  F24  1  0.896328  0.970039  0.383533  1
  F  F25  1  0.603672  0.470039  0.116467  1
  F  F26  1  0.103672  0.029961  0.883533  1
  F  F27  1  0.396328  0.529961  0.616467  1
  F  F28  1  0.120669  0.857733  0.750000  1
  F  F29  1  0.379331  0.357733  0.750000  1
  F  F30  1  0.879331  0.142267  0.250000  1
  F  F31  1  0.620669  0.642267  0.250000  1
  F  F32  1  0.291348  0.043443  0.750000  1
  F  F33  1  0.208652  0.543443  0.750000  1
  F  F34  1  0.708652  0.956557  0.250000  1
  F  F35  1  0.791348  0.456557  0.250000  1
  F  F36  1  0.078583  0.195206  0.750000  1
  F  F37  1  0.421417  0.695206  0.750000  1
  F  F38  1  0.921417  0.804794  0.250000  1
  F  F39  1  0.578583  0.304794  0.250000  1
  F  F40  1  0.909171  0.008197  0.750000  1
  F  F41  1  0.590829  0.508197  0.750000  1
  F  F42  1  0.090829  0.991803  0.250000  1
  F  F43  1  0.409171  0.491803  0.250000  1
  F  F44  1  0.826511  0.073013  0.551251  1
  F  F45  1  0.673489  0.573013  0.948749  1
  F  F46  1  0.173489  0.926987  0.051251  1
  F  F47  1  0.326511  0.426987  0.448749  1
  F  F48  1  0.173489  0.926987  0.448749  1
  F  F49  1  0.326511  0.426987  0.051251  1
  F  F50  1  0.826511  0.073013  0.948749  1
  F  F51  1  0.673489  0.573013  0.551251  1
  F  F52  1  0.797859  0.288242  0.461724  1
  F  F53  1  0.702141  0.788242  0.038276  1
  F  F54  1  0.202141  0.711758  0.961724  1
  F  F55  1  0.297859  0.211758  0.538276  1
  F  F56  1  0.202141  0.711758  0.538276  1
  F  F57  1  0.297859  0.211758  0.961724  1
  F  F58  1  0.797859  0.288242  0.038276  1
  F  F59  1  0.702141  0.788242  0.461724  1
  F  F60  1  0.598004  0.126841  0.452214  1
  F  F61  1  0.901996  0.626841  0.047786  1
  F  F62  1  0.401996  0.873159  0.952214  1
  F  F63  1  0.098004  0.373159  0.547786  1
  F  F64  1  0.401996  0.873159  0.547786  1
  F  F65  1  0.098004  0.373159  0.952214  1
  F  F66  1  0.598004  0.126841  0.047786  1
  F  F67  1  0.901996  0.626841  0.452214  1
  F  F68  1  0.560026  0.334753  0.550423  1
  F  F69  1  0.939974  0.834753  0.949577  1
  F  F70  1  0.439974  0.665247  0.050423  1
  F  F71  1  0.060026  0.165247  0.449577  1
  F  F72  1  0.439974  0.665247  0.449577  1
  F  F73  1  0.060026  0.165247  0.050423  1
  F  F74  1  0.560026  0.334753  0.949577  1
  F  F75  1  0.939974  0.834753  0.550423  1
  F  F76  1  0.591101  0.116556  0.635409  1
  F  F77  1  0.908899  0.616556  0.864591  1
  F  F78  1  0.408899  0.883444  0.135409  1
  F  F79  1  0.091101  0.383444  0.364591  1
  F  F80  1  0.408899  0.883444  0.364591  1
  F  F81  1  0.091101  0.383444  0.135409  1
  F  F82  1  0.591101  0.116556  0.864591  1
  F  F83  1  0.908899  0.616556  0.635409  1
  F  F84  1  0.789858  0.280709  0.643743  1
  F  F85  1  0.710142  0.780709  0.856257  1
  F  F86  1  0.210142  0.719291  0.143743  1
  F  F87  1  0.289858  0.219291  0.356257  1
  F  F88  1  0.210142  0.719291  0.356257  1
  F  F89  1  0.289858  0.219291  0.143743  1
  F  F90  1  0.789858  0.280709  0.856257  1
  F  F91  1  0.710142  0.780709  0.643743  1
