# generated using pymatgen
data_Er12Mn(Si4Ru)3
_symmetry_space_group_name_H-M   'P 1'
_cell_length_a   4.16298600
_cell_length_b   10.68738604
_cell_length_c   12.31369972
_cell_angle_alpha   89.97640478
_cell_angle_beta   90.00000000
_cell_angle_gamma   90.00000000
_symmetry_Int_Tables_number   1
_chemical_formula_structural   Er12Mn(Si4Ru)3
_chemical_formula_sum   'Er12 Mn1 Si12 Ru3'
_cell_volume   547.85416707
_cell_formula_units_Z   1
loop_
 _symmetry_equiv_pos_site_id
 _symmetry_equiv_pos_as_xyz
  1  'x, y, z'
loop_
 _atom_site_type_symbol
 _atom_site_label
 _atom_site_symmetry_multiplicity
 _atom_site_fract_x
 _atom_site_fract_y
 _atom_site_fract_z
 _atom_site_occupancy
  Er  Er0  1  0.250000  0.881206  0.021714  1
  Er  Er1  1  0.250000  0.619969  0.522014  1
  Er  Er2  1  0.750000  0.119312  0.979230  1
  Er  Er3  1  0.750000  0.380422  0.477198  1
  Er  Er4  1  0.250000  0.920994  0.603424  1
  Er  Er5  1  0.250000  0.579009  0.103972  1
  Er  Er6  1  0.750000  0.078482  0.394581  1
  Er  Er7  1  0.750000  0.421136  0.896121  1
  Er  Er8  1  0.250000  0.664454  0.801332  1
  Er  Er9  1  0.250000  0.836630  0.300459  1
  Er  Er10  1  0.750000  0.336530  0.199568  1
  Er  Er11  1  0.750000  0.160835  0.700341  1
  Mn  Mn12  1  0.250000  0.387576  0.682613  1
  Si  Si13  1  0.250000  0.009555  0.821095  1
  Si  Si14  1  0.250000  0.489939  0.321750  1
  Si  Si15  1  0.750000  0.987751  0.178744  1
  Si  Si16  1  0.750000  0.515322  0.677119  1
  Si  Si17  1  0.250000  0.248298  0.843355  1
  Si  Si18  1  0.250000  0.251001  0.342121  1
  Si  Si19  1  0.750000  0.750938  0.157728  1
  Si  Si20  1  0.750000  0.750730  0.658412  1
  Si  Si21  1  0.250000  0.197037  0.541187  1
  Si  Si22  1  0.250000  0.299730  0.042378  1
  Si  Si23  1  0.750000  0.799196  0.457389  1
  Si  Si24  1  0.750000  0.702642  0.958019  1
  Ru  Ru25  1  0.250000  0.111384  0.180653  1
  Ru  Ru26  1  0.750000  0.610896  0.318198  1
  Ru  Ru27  1  0.750000  0.889025  0.819286  1
