# generated using pymatgen
data_U9SnS20
_symmetry_space_group_name_H-M   'P 1'
_cell_length_a   10.13506726
_cell_length_b   10.12633605
_cell_length_c   6.27011100
_cell_angle_alpha   89.81548918
_cell_angle_beta   89.75952821
_cell_angle_gamma   89.82181729
_symmetry_Int_Tables_number   1
_chemical_formula_structural   U9SnS20
_chemical_formula_sum   'U9 Sn1 S20'
_cell_volume   643.49628114
_cell_formula_units_Z   1
loop_
 _symmetry_equiv_pos_site_id
 _symmetry_equiv_pos_as_xyz
  1  'x, y, z'
loop_
 _atom_site_type_symbol
 _atom_site_label
 _atom_site_symmetry_multiplicity
 _atom_site_fract_x
 _atom_site_fract_y
 _atom_site_fract_z
 _atom_site_occupancy
  U  U0  1  0.652848  0.657694  0.251120  1
  U  U1  1  0.350820  0.338439  0.248984  1
  U  U2  1  0.156338  0.848986  0.248621  1
  U  U3  1  0.497422  0.997371  0.856429  1
  U  U4  1  0.341176  0.651206  0.748550  1
  U  U5  1  0.151198  0.157982  0.750497  1
  U  U6  1  0.850191  0.842113  0.750821  1
  U  U7  1  0.660607  0.346593  0.751661  1
  U  U8  1  0.001674  0.498858  0.141268  1
  Sn  Sn9  1  0.830726  0.156610  0.242996  1
  S  S10  1  0.710546  0.085513  0.649684  1
  S  S11  1  0.589227  0.787954  0.618235  1
  S  S12  1  0.410192  0.206368  0.617189  1
  S  S13  1  0.292313  0.908805  0.614755  1
  S  S14  1  0.702273  0.902105  0.098672  1
  S  S15  1  0.578629  0.208216  0.105268  1
  S  S16  1  0.408135  0.789985  0.107562  1
  S  S17  1  0.289099  0.087900  0.109671  1
  S  S18  1  0.501420  0.501595  0.999416  1
  S  S19  1  0.000789  0.997515  0.997709  1
  S  S20  1  0.212174  0.411040  0.892534  1
  S  S21  1  0.089117  0.707210  0.890660  1
  S  S22  1  0.915782  0.297063  0.876844  1
  S  S23  1  0.792156  0.589902  0.893039  1
  S  S24  1  0.499010  0.496903  0.499878  1
  S  S25  1  0.002982  0.000000  0.501043  1
  S  S26  1  0.208313  0.592142  0.381727  1
  S  S27  1  0.100704  0.299944  0.390767  1
  S  S28  1  0.911413  0.711842  0.378114  1
  S  S29  1  0.792725  0.422143  0.386287  1
