# generated using pymatgen
data_PrMgPt4
_symmetry_space_group_name_H-M   'P 1'
_cell_length_a   5.43233825
_cell_length_b   5.43233770
_cell_length_c   5.43233800
_cell_angle_alpha   59.99999816
_cell_angle_beta   60.00000153
_cell_angle_gamma   59.99999765
_symmetry_Int_Tables_number   1
_chemical_formula_structural   PrMgPt4
_chemical_formula_sum   'Pr1 Mg1 Pt4'
_cell_volume   113.35621628
_cell_formula_units_Z   1
loop_
 _symmetry_equiv_pos_site_id
 _symmetry_equiv_pos_as_xyz
  1  'x, y, z'
loop_
 _atom_site_type_symbol
 _atom_site_label
 _atom_site_symmetry_multiplicity
 _atom_site_fract_x
 _atom_site_fract_y
 _atom_site_fract_z
 _atom_site_occupancy
  Pr  Pr0  1  0.500000  0.500000  0.500000  1
  Mg  Mg1  1  0.750000  0.750000  0.750000  1
  Pt  Pt2  1  0.124156  0.627533  0.124156  1
  Pt  Pt3  1  0.124156  0.124156  0.627533  1
  Pt  Pt4  1  0.627533  0.124156  0.124156  1
  Pt  Pt5  1  0.124156  0.124156  0.124156  1
