# generated using pymatgen
data_TbNd(ScBi)2
_symmetry_space_group_name_H-M   'P 1'
_cell_length_a   4.47224200
_cell_length_b   4.47224200
_cell_length_c   8.48157900
_cell_angle_alpha   90.00000000
_cell_angle_beta   90.00000000
_cell_angle_gamma   90.00000000
_symmetry_Int_Tables_number   1
_chemical_formula_structural   TbNd(ScBi)2
_chemical_formula_sum   'Tb1 Nd1 Sc2 Bi2'
_cell_volume   169.63962483
_cell_formula_units_Z   1
loop_
 _symmetry_equiv_pos_site_id
 _symmetry_equiv_pos_as_xyz
  1  'x, y, z'
loop_
 _atom_site_type_symbol
 _atom_site_label
 _atom_site_symmetry_multiplicity
 _atom_site_fract_x
 _atom_site_fract_y
 _atom_site_fract_z
 _atom_site_occupancy
  Tb  Tb0  1  0.500000  0.000000  0.655837  1
  Nd  Nd1  1  0.000000  0.500000  0.347778  1
  Sc  Sc2  1  0.000000  0.000000  0.998404  1
  Sc  Sc3  1  0.500000  0.500000  0.998404  1
  Bi  Bi4  1  0.000000  0.500000  0.736813  1
  Bi  Bi5  1  0.500000  0.000000  0.262764  1
