# generated using pymatgen
data_Y9Tm7(LuPt4)4
_symmetry_space_group_name_H-M   'P 1'
_cell_length_a   7.41997678
_cell_length_b   7.52175907
_cell_length_c   14.68187700
_cell_angle_alpha   89.99757007
_cell_angle_beta   90.16502340
_cell_angle_gamma   90.03043814
_symmetry_Int_Tables_number   1
_chemical_formula_structural   Y9Tm7(LuPt4)4
_chemical_formula_sum   'Y9 Tm7 Lu4 Pt16'
_cell_volume   819.41079788
_cell_formula_units_Z   1
loop_
 _symmetry_equiv_pos_site_id
 _symmetry_equiv_pos_as_xyz
  1  'x, y, z'
loop_
 _atom_site_type_symbol
 _atom_site_label
 _atom_site_symmetry_multiplicity
 _atom_site_fract_x
 _atom_site_fract_y
 _atom_site_fract_z
 _atom_site_occupancy
  Y  Y0  1  0.149353  0.331216  0.621501  1
  Y  Y1  1  0.494287  0.678420  0.593757  1
  Y  Y2  1  0.994745  0.822572  0.907135  1
  Y  Y3  1  0.505549  0.323014  0.093657  1
  Y  Y4  1  0.006501  0.176267  0.404495  1
  Y  Y5  1  0.505861  0.322595  0.406406  1
  Y  Y6  1  0.005409  0.177463  0.093823  1
  Y  Y7  1  0.494462  0.676623  0.906869  1
  Y  Y8  1  0.993951  0.822942  0.593528  1
  Tm  Tm9  1  0.650243  0.168268  0.623076  1
  Tm  Tm10  1  0.150395  0.331707  0.877632  1
  Tm  Tm11  1  0.349452  0.832413  0.122441  1
  Tm  Tm12  1  0.849672  0.668618  0.377085  1
  Tm  Tm13  1  0.351244  0.832227  0.376794  1
  Tm  Tm14  1  0.849323  0.668184  0.122457  1
  Tm  Tm15  1  0.650723  0.167902  0.877970  1
  Lu  Lu16  1  0.811636  0.511006  0.750773  1
  Lu  Lu17  1  0.312027  0.988849  0.750916  1
  Lu  Lu18  1  0.187912  0.489659  0.249765  1
  Lu  Lu19  1  0.688369  0.010845  0.249430  1
  Pt  Pt20  1  0.687147  0.967686  0.458021  1
  Pt  Pt21  1  0.185131  0.533448  0.041923  1
  Pt  Pt22  1  0.315051  0.033438  0.958260  1
  Pt  Pt23  1  0.810452  0.468314  0.541177  1
  Pt  Pt24  1  0.317437  0.029260  0.541524  1
  Pt  Pt25  1  0.814997  0.466419  0.958401  1
  Pt  Pt26  1  0.685145  0.967069  0.042243  1
  Pt  Pt27  1  0.184828  0.534319  0.455594  1
  Pt  Pt28  1  0.448180  0.384356  0.751417  1
  Pt  Pt29  1  0.945788  0.113701  0.751378  1
  Pt  Pt30  1  0.553235  0.617182  0.249540  1
  Pt  Pt31  1  0.053369  0.883365  0.249590  1
  Pt  Pt32  1  0.673260  0.857256  0.750814  1
  Pt  Pt33  1  0.174328  0.642706  0.751381  1
  Pt  Pt34  1  0.325879  0.142077  0.249712  1
  Pt  Pt35  1  0.824662  0.358614  0.249518  1
