# generated using pymatgen
data_YbPa3(AsS)4
_symmetry_space_group_name_H-M   'P 1'
_cell_length_a   3.88885600
_cell_length_b   3.88808213
_cell_length_c   16.54138679
_cell_angle_alpha   89.82771329
_cell_angle_beta   90.00000000
_cell_angle_gamma   90.00000000
_symmetry_Int_Tables_number   1
_chemical_formula_structural   YbPa3(AsS)4
_chemical_formula_sum   'Yb1 Pa3 As4 S4'
_cell_volume   250.10780587
_cell_formula_units_Z   1
loop_
 _symmetry_equiv_pos_site_id
 _symmetry_equiv_pos_as_xyz
  1  'x, y, z'
loop_
 _atom_site_type_symbol
 _atom_site_label
 _atom_site_symmetry_multiplicity
 _atom_site_fract_x
 _atom_site_fract_y
 _atom_site_fract_z
 _atom_site_occupancy
  Yb  Yb0  1  0.750000  0.738510  0.349617  1
  Pa  Pa1  1  0.250000  0.243079  0.144720  1
  Pa  Pa2  1  0.250000  0.256727  0.647794  1
  Pa  Pa3  1  0.750000  0.755856  0.857686  1
  As  As4  1  0.750000  0.254713  0.506719  1
  As  As5  1  0.750000  0.250825  0.999262  1
  As  As6  1  0.250000  0.755986  0.506609  1
  As  As7  1  0.250000  0.749628  0.999223  1
  S  S8  1  0.250000  0.238737  0.307407  1
  S  S9  1  0.250000  0.256609  0.821480  1
  S  S10  1  0.750000  0.756985  0.685279  1
  S  S11  1  0.750000  0.742347  0.174202  1
