# generated using pymatgen
data_Ho19Er(NiSb2)4
_symmetry_space_group_name_H-M   'P 1'
_cell_length_a   7.87643017
_cell_length_b   8.78237612
_cell_length_c   12.09068528
_cell_angle_alpha   90.01398357
_cell_angle_beta   90.02031714
_cell_angle_gamma   90.01266068
_symmetry_Int_Tables_number   1
_chemical_formula_structural   Ho19Er(NiSb2)4
_chemical_formula_sum   'Ho19 Er1 Ni4 Sb8'
_cell_volume   836.35821192
_cell_formula_units_Z   1
loop_
 _symmetry_equiv_pos_site_id
 _symmetry_equiv_pos_as_xyz
  1  'x, y, z'
loop_
 _atom_site_type_symbol
 _atom_site_label
 _atom_site_symmetry_multiplicity
 _atom_site_fract_x
 _atom_site_fract_y
 _atom_site_fract_z
 _atom_site_occupancy
  Ho  Ho0  1  0.874941  0.249978  0.803443  1
  Ho  Ho1  1  0.180101  0.541354  0.934284  1
  Ho  Ho2  1  0.319970  0.958552  0.434217  1
  Ho  Ho3  1  0.125057  0.749984  0.196682  1
  Ho  Ho4  1  0.841172  0.749965  0.793296  1
  Ho  Ho5  1  0.374853  0.749744  0.696396  1
  Ho  Ho6  1  0.955051  0.749880  0.500453  1
  Ho  Ho7  1  0.454789  0.249992  0.999573  1
  Ho  Ho8  1  0.679975  0.458519  0.565615  1
  Ho  Ho9  1  0.819947  0.041476  0.065722  1
  Ho  Ho10  1  0.658596  0.749848  0.293343  1
  Ho  Ho11  1  0.545106  0.749968  0.000486  1
  Ho  Ho12  1  0.045659  0.250176  0.499473  1
  Ho  Ho13  1  0.680170  0.041344  0.565620  1
  Ho  Ho14  1  0.180116  0.958547  0.934265  1
  Ho  Ho15  1  0.624896  0.250137  0.303563  1
  Ho  Ho16  1  0.341283  0.249994  0.706630  1
  Ho  Ho17  1  0.819931  0.458538  0.065758  1
  Ho  Ho18  1  0.158855  0.249999  0.206812  1
  Er  Er19  1  0.320605  0.541942  0.434197  1
  Ni  Ni20  1  0.924501  0.749995  0.012485  1
  Ni  Ni21  1  0.574946  0.749666  0.512266  1
  Ni  Ni22  1  0.075516  0.249993  0.987618  1
  Ni  Ni23  1  0.424068  0.250549  0.487590  1
  Sb  Sb24  1  0.929424  0.491027  0.327367  1
  Sb  Sb25  1  0.428884  0.509022  0.172875  1
  Sb  Sb26  1  0.428947  0.990976  0.172744  1
  Sb  Sb27  1  0.570937  0.490948  0.827267  1
  Sb  Sb28  1  0.070828  0.509034  0.672750  1
  Sb  Sb29  1  0.570943  0.008947  0.827204  1
  Sb  Sb30  1  0.928940  0.008957  0.327301  1
  Sb  Sb31  1  0.070995  0.990950  0.672705  1
