# generated using pymatgen
data_Tb4ErCoRuO12
_symmetry_space_group_name_H-M   'P 1'
_cell_length_a   6.80645756
_cell_length_b   6.80419440
_cell_length_c   7.26492923
_cell_angle_alpha   74.55718843
_cell_angle_beta   74.55979082
_cell_angle_gamma   50.86768027
_symmetry_Int_Tables_number   1
_chemical_formula_structural   Tb4ErCoRuO12
_chemical_formula_sum   'Tb4 Er1 Co1 Ru1 O12'
_cell_volume   249.38549376
_cell_formula_units_Z   1
loop_
 _symmetry_equiv_pos_site_id
 _symmetry_equiv_pos_as_xyz
  1  'x, y, z'
loop_
 _atom_site_type_symbol
 _atom_site_label
 _atom_site_symmetry_multiplicity
 _atom_site_fract_x
 _atom_site_fract_y
 _atom_site_fract_z
 _atom_site_occupancy
  Tb  Tb0  1  0.678278  0.712570  0.142204  1
  Tb  Tb1  1  0.995224  0.005138  0.999396  1
  Tb  Tb2  1  0.287145  0.322409  0.856037  1
  Tb  Tb3  1  0.305159  0.314063  0.332833  1
  Er  Er4  1  0.685564  0.693969  0.668313  1
  Co  Co5  1  0.260164  0.740006  0.500442  1
  Ru  Ru6  1  0.771677  0.228279  0.500597  1
  O  O7  1  0.399071  0.912151  0.917777  1
  O  O8  1  0.580857  0.099489  0.582314  1
  O  O9  1  0.896151  0.422610  0.420260  1
  O  O10  1  0.085854  0.603286  0.078742  1
  O  O11  1  0.017599  0.983504  0.325055  1
  O  O12  1  0.505375  0.496900  0.681270  1
  O  O13  1  0.891170  0.408006  0.925764  1
  O  O14  1  0.093765  0.572716  0.582063  1
  O  O15  1  0.431803  0.900103  0.421323  1
  O  O16  1  0.594014  0.106920  0.071155  1
  O  O17  1  0.504179  0.495306  0.319723  1
  O  O18  1  0.016953  0.982574  0.674732  1
