# generated using pymatgen
data_Dy9Lu(GaSb)4
_symmetry_space_group_name_H-M   'P 1'
_cell_length_a   8.63631488
_cell_length_b   8.63631359
_cell_length_c   7.90964997
_cell_angle_alpha   90.02605306
_cell_angle_beta   90.02605596
_cell_angle_gamma   125.47808424
_symmetry_Int_Tables_number   1
_chemical_formula_structural   Dy9Lu(GaSb)4
_chemical_formula_sum   'Dy9 Lu1 Ga4 Sb4'
_cell_volume   480.41703566
_cell_formula_units_Z   1
loop_
 _symmetry_equiv_pos_site_id
 _symmetry_equiv_pos_as_xyz
  1  'x, y, z'
loop_
 _atom_site_type_symbol
 _atom_site_label
 _atom_site_symmetry_multiplicity
 _atom_site_fract_x
 _atom_site_fract_y
 _atom_site_fract_z
 _atom_site_occupancy
  Dy  Dy0  1  0.038584  0.299614  0.332265  1
  Dy  Dy1  1  0.961416  0.700386  0.667735  1
  Dy  Dy2  1  0.460936  0.199687  0.832714  1
  Dy  Dy3  1  0.800313  0.539064  0.167286  1
  Dy  Dy4  1  0.539064  0.800313  0.167286  1
  Dy  Dy5  1  0.199687  0.460936  0.832714  1
  Dy  Dy6  1  0.700386  0.961416  0.667735  1
  Dy  Dy7  1  0.299614  0.038584  0.332265  1
  Dy  Dy8  1  0.500000  0.500000  0.500000  1
  Lu  Lu9  1  0.000000  0.000000  0.000000  1
  Ga  Ga10  1  0.374146  0.374146  0.124378  1
  Ga  Ga11  1  0.625854  0.625854  0.875622  1
  Ga  Ga12  1  0.124914  0.124914  0.625231  1
  Ga  Ga13  1  0.875086  0.875086  0.374769  1
  Sb  Sb14  1  0.795365  0.204635  0.000000  1
  Sb  Sb15  1  0.204635  0.795365  0.000000  1
  Sb  Sb16  1  0.705300  0.294700  0.500000  1
  Sb  Sb17  1  0.294700  0.705300  0.500000  1
