# generated using pymatgen
data_Rb4Si11GeP12
_symmetry_space_group_name_H-M   'P 1'
_cell_length_a   3.56988400
_cell_length_b   9.96744946
_cell_length_c   19.94631939
_cell_angle_alpha   90.28379523
_cell_angle_beta   90.00000000
_cell_angle_gamma   90.00000000
_symmetry_Int_Tables_number   1
_chemical_formula_structural   Rb4Si11GeP12
_chemical_formula_sum   'Rb4 Si11 Ge1 P12'
_cell_volume   709.73396273
_cell_formula_units_Z   1
loop_
 _symmetry_equiv_pos_site_id
 _symmetry_equiv_pos_as_xyz
  1  'x, y, z'
loop_
 _atom_site_type_symbol
 _atom_site_label
 _atom_site_symmetry_multiplicity
 _atom_site_fract_x
 _atom_site_fract_y
 _atom_site_fract_z
 _atom_site_occupancy
  Rb  Rb0  1  0.000000  0.302789  0.308155  1
  Rb  Rb1  1  0.000000  0.697011  0.691621  1
  Rb  Rb2  1  0.000000  0.197039  0.807887  1
  Rb  Rb3  1  0.000000  0.802990  0.192001  1
  Si  Si4  1  0.500000  0.599809  0.963533  1
  Si  Si5  1  0.500000  0.095818  0.534889  1
  Si  Si6  1  0.500000  0.904139  0.465131  1
  Si  Si7  1  0.000000  0.112752  0.015879  1
  Si  Si8  1  0.000000  0.886608  0.984148  1
  Si  Si9  1  0.000000  0.386527  0.516044  1
  Si  Si10  1  0.000000  0.613489  0.483963  1
  Si  Si11  1  0.000000  0.179590  0.129702  1
  Si  Si12  1  0.000000  0.820722  0.870480  1
  Si  Si13  1  0.000000  0.320038  0.629283  1
  Si  Si14  1  0.000000  0.680001  0.370725  1
  Ge  Ge15  1  0.500000  0.406638  0.035085  1
  P  P16  1  0.500000  0.112836  0.188838  1
  P  P17  1  0.500000  0.885863  0.811130  1
  P  P18  1  0.500000  0.385715  0.688940  1
  P  P19  1  0.500000  0.614336  0.311091  1
  P  P20  1  0.500000  0.281963  0.465948  1
  P  P21  1  0.500000  0.718014  0.534086  1
  P  P22  1  0.500000  0.211693  0.964075  1
  P  P23  1  0.500000  0.783304  0.034066  1
  P  P24  1  0.000000  0.408542  0.111037  1
  P  P25  1  0.000000  0.591761  0.892223  1
  P  P26  1  0.000000  0.090967  0.606347  1
  P  P27  1  0.000000  0.909046  0.393693  1
