# generated using pymatgen
data_La3Y7(Er5Bi6)2
_symmetry_space_group_name_H-M   'P 1'
_cell_length_a   8.30500665
_cell_length_b   9.51977348
_cell_length_c   12.16083300
_cell_angle_alpha   90.00445377
_cell_angle_beta   89.95425999
_cell_angle_gamma   89.98244126
_symmetry_Int_Tables_number   1
_chemical_formula_structural   La3Y7(Er5Bi6)2
_chemical_formula_sum   'La3 Y7 Er10 Bi12'
_cell_volume   961.45677302
_cell_formula_units_Z   1
loop_
 _symmetry_equiv_pos_site_id
 _symmetry_equiv_pos_as_xyz
  1  'x, y, z'
loop_
 _atom_site_type_symbol
 _atom_site_label
 _atom_site_symmetry_multiplicity
 _atom_site_fract_x
 _atom_site_fract_y
 _atom_site_fract_z
 _atom_site_occupancy
  La  La0  1  0.182100  0.749855  0.719946  1
  La  La1  1  0.682966  0.750072  0.779759  1
  La  La2  1  0.817111  0.249772  0.280249  1
  Y  Y3  1  0.314312  0.250091  0.218617  1
  Y  Y4  1  0.307788  0.061326  0.940036  1
  Y  Y5  1  0.809086  0.437910  0.559716  1
  Y  Y6  1  0.351807  0.750039  0.217263  1
  Y  Y7  1  0.853328  0.749941  0.281825  1
  Y  Y8  1  0.647837  0.249650  0.784097  1
  Y  Y9  1  0.147943  0.250282  0.716340  1
  Er  Er10  1  0.024090  0.749764  0.988918  1
  Er  Er11  1  0.521984  0.750258  0.510884  1
  Er  Er12  1  0.976073  0.250132  0.013506  1
  Er  Er13  1  0.476671  0.249850  0.488170  1
  Er  Er14  1  0.307429  0.434884  0.939875  1
  Er  Er15  1  0.809291  0.065967  0.560389  1
  Er  Er16  1  0.692904  0.935192  0.060367  1
  Er  Er17  1  0.191124  0.565338  0.438983  1
  Er  Er18  1  0.693563  0.563767  0.060824  1
  Er  Er19  1  0.191606  0.935834  0.438550  1
  Bi  Bi20  1  0.434786  0.009676  0.670069  1
  Bi  Bi21  1  0.934222  0.489918  0.830676  1
  Bi  Bi22  1  0.562199  0.506945  0.328226  1
  Bi  Bi23  1  0.070206  0.993263  0.171356  1
  Bi  Bi24  1  0.562371  0.993170  0.328438  1
  Bi  Bi25  1  0.070494  0.506615  0.171101  1
  Bi  Bi26  1  0.434276  0.490221  0.670146  1
  Bi  Bi27  1  0.933731  0.010147  0.830630  1
  Bi  Bi28  1  0.405457  0.747262  0.964424  1
  Bi  Bi29  1  0.903601  0.752657  0.535214  1
  Bi  Bi30  1  0.590555  0.249997  0.040065  1
  Bi  Bi31  1  0.099088  0.250204  0.461342  1
