# generated using pymatgen
data_La14Pr6Si15Ge
_symmetry_space_group_name_H-M   'P 1'
_cell_length_a   7.98722758
_cell_length_b   7.98938773
_cell_length_c   15.49669600
_cell_angle_alpha   89.86176231
_cell_angle_beta   89.75075138
_cell_angle_gamma   90.08285963
_symmetry_Int_Tables_number   1
_chemical_formula_structural   La14Pr6Si15Ge
_chemical_formula_sum   'La14 Pr6 Si15 Ge1'
_cell_volume   988.87827618
_cell_formula_units_Z   1
loop_
 _symmetry_equiv_pos_site_id
 _symmetry_equiv_pos_as_xyz
  1  'x, y, z'
loop_
 _atom_site_type_symbol
 _atom_site_label
 _atom_site_symmetry_multiplicity
 _atom_site_fract_x
 _atom_site_fract_y
 _atom_site_fract_z
 _atom_site_occupancy
  La  La0  1  0.309477  0.309303  0.999941  1
  La  La1  1  0.191580  0.807249  0.249693  1
  La  La2  1  0.806231  0.190717  0.750423  1
  La  La3  1  0.690554  0.690448  0.499398  1
  La  La4  1  0.378567  0.011662  0.447344  1
  La  La5  1  0.488890  0.877193  0.697317  1
  La  La6  1  0.512211  0.122267  0.197781  1
  La  La7  1  0.878323  0.487523  0.303061  1
  La  La8  1  0.121952  0.513559  0.802253  1
  La  La9  1  0.622444  0.987940  0.947271  1
  La  La10  1  0.010210  0.379524  0.551293  1
  La  La11  1  0.988582  0.620985  0.052946  1
  La  La12  1  0.126542  0.982607  0.876636  1
  La  La13  1  0.518503  0.626988  0.127173  1
  Pr  Pr14  1  0.484112  0.374554  0.625947  1
  Pr  Pr15  1  0.627419  0.518391  0.873484  1
  Pr  Pr16  1  0.372147  0.481813  0.374250  1
  Pr  Pr17  1  0.873755  0.016997  0.377409  1
  Pr  Pr18  1  0.981897  0.127410  0.124193  1
  Pr  Pr19  1  0.015382  0.871279  0.622393  1
  Si  Si20  1  0.332254  0.696255  0.952744  1
  Si  Si21  1  0.667760  0.303223  0.452207  1
  Si  Si22  1  0.697697  0.331307  0.046997  1
  Si  Si23  1  0.302484  0.667874  0.548383  1
  Si  Si24  1  0.804718  0.832756  0.204127  1
  Si  Si25  1  0.167410  0.196364  0.298378  1
  Si  Si26  1  0.831699  0.802307  0.796446  1
  Si  Si27  1  0.288323  0.920775  0.059092  1
  Si  Si28  1  0.579481  0.789494  0.309878  1
  Si  Si29  1  0.422946  0.213183  0.809848  1
  Si  Si30  1  0.787058  0.579721  0.690611  1
  Si  Si31  1  0.211340  0.418054  0.191573  1
  Si  Si32  1  0.711897  0.080537  0.559182  1
  Si  Si33  1  0.920156  0.289009  0.940814  1
  Si  Si34  1  0.081087  0.712887  0.441106  1
  Ge  Ge35  1  0.194911  0.167842  0.698415  1
