# generated using pymatgen
data_Y8Tm12Bi7Sb5
_symmetry_space_group_name_H-M   'P 1'
_cell_length_a   8.12727326
_cell_length_b   9.37066765
_cell_length_c   11.95390865
_cell_angle_alpha   90.04242832
_cell_angle_beta   89.93637117
_cell_angle_gamma   90.00321308
_symmetry_Int_Tables_number   1
_chemical_formula_structural   Y8Tm12Bi7Sb5
_chemical_formula_sum   'Y8 Tm12 Bi7 Sb5'
_cell_volume   910.38468320
_cell_formula_units_Z   1
loop_
 _symmetry_equiv_pos_site_id
 _symmetry_equiv_pos_as_xyz
  1  'x, y, z'
loop_
 _atom_site_type_symbol
 _atom_site_label
 _atom_site_symmetry_multiplicity
 _atom_site_fract_x
 _atom_site_fract_y
 _atom_site_fract_z
 _atom_site_occupancy
  Y  Y0  1  0.186101  0.753315  0.717841  1
  Y  Y1  1  0.681761  0.752158  0.780877  1
  Y  Y2  1  0.816576  0.250081  0.281776  1
  Y  Y3  1  0.316728  0.249980  0.218463  1
  Y  Y4  1  0.353174  0.749935  0.213721  1
  Y  Y5  1  0.853055  0.750009  0.286532  1
  Y  Y6  1  0.644216  0.247105  0.785381  1
  Y  Y7  1  0.149317  0.247550  0.713168  1
  Tm  Tm8  1  0.027553  0.750039  0.988580  1
  Tm  Tm9  1  0.526889  0.752293  0.512553  1
  Tm  Tm10  1  0.972569  0.249878  0.010996  1
  Tm  Tm11  1  0.471914  0.247753  0.490554  1
  Tm  Tm12  1  0.310894  0.436103  0.941813  1
  Tm  Tm13  1  0.808754  0.063037  0.558877  1
  Tm  Tm14  1  0.689051  0.936370  0.058128  1
  Tm  Tm15  1  0.189465  0.563897  0.442047  1
  Tm  Tm16  1  0.688926  0.563807  0.058016  1
  Tm  Tm17  1  0.190368  0.936902  0.443623  1
  Tm  Tm18  1  0.311958  0.063272  0.939786  1
  Tm  Tm19  1  0.810506  0.436209  0.558249  1
  Bi  Bi20  1  0.933700  0.496130  0.827255  1
  Bi  Bi21  1  0.565927  0.503797  0.328214  1
  Bi  Bi22  1  0.066361  0.996198  0.172458  1
  Bi  Bi23  1  0.566235  0.996145  0.327391  1
  Bi  Bi24  1  0.066264  0.503852  0.172423  1
  Bi  Bi25  1  0.433834  0.496298  0.672435  1
  Bi  Bi26  1  0.933695  0.003825  0.827727  1
  Sb  Sb27  1  0.434457  0.004172  0.670957  1
  Sb  Sb28  1  0.406791  0.749894  0.958729  1
  Sb  Sb29  1  0.907063  0.749996  0.541598  1
  Sb  Sb30  1  0.593262  0.249987  0.041255  1
  Sb  Sb31  1  0.092634  0.250013  0.458577  1
