# generated using pymatgen
data_LaPr5(SiPd5)2
_symmetry_space_group_name_H-M   'P 1'
_cell_length_a   8.48510793
_cell_length_b   8.48510808
_cell_length_c   8.48510860
_cell_angle_alpha   127.30970605
_cell_angle_beta   126.27658537
_cell_angle_gamma   78.59125818
_symmetry_Int_Tables_number   1
_chemical_formula_structural   LaPr5(SiPd5)2
_chemical_formula_sum   'La1 Pr5 Si2 Pd10'
_cell_volume   379.19194719
_cell_formula_units_Z   1
loop_
 _symmetry_equiv_pos_site_id
 _symmetry_equiv_pos_as_xyz
  1  'x, y, z'
loop_
 _atom_site_type_symbol
 _atom_site_label
 _atom_site_symmetry_multiplicity
 _atom_site_fract_x
 _atom_site_fract_y
 _atom_site_fract_z
 _atom_site_occupancy
  La  La0  1  0.614745  0.750000  0.864745  1
  Pr  Pr1  1  0.821272  0.049345  0.771927  1
  Pr  Pr2  1  0.222581  0.450655  0.771927  1
  Pr  Pr3  1  0.179213  0.950916  0.228297  1
  Pr  Pr4  1  0.387172  0.250000  0.137172  1
  Pr  Pr5  1  0.777382  0.549084  0.228297  1
  Si  Si6  1  0.210323  0.750000  0.460323  1
  Si  Si7  1  0.788661  0.250000  0.538661  1
  Pd  Pd8  1  0.828743  0.590722  0.636628  1
  Pd  Pd9  1  0.545907  0.307886  0.636628  1
  Pd  Pd10  1  0.453730  0.090323  0.760986  1
  Pd  Pd11  1  0.828743  0.192114  0.238021  1
  Pd  Pd12  1  0.170663  0.409677  0.363407  1
  Pd  Pd13  1  0.453730  0.692744  0.363407  1
  Pd  Pd14  1  0.545907  0.909278  0.238021  1
  Pd  Pd15  1  0.170663  0.807256  0.760986  1
  Pd  Pd16  1  0.000283  0.000359  0.500642  1
  Pd  Pd17  1  0.000283  0.499641  0.999924  1
