# generated using pymatgen
data_YbDy2YNi13C4
_symmetry_space_group_name_H-M   'P 1'
_cell_length_a   8.35513315
_cell_length_b   8.35421450
_cell_length_c   3.84554400
_cell_angle_alpha   90.00000000
_cell_angle_beta   90.00000000
_cell_angle_gamma   91.02317821
_symmetry_Int_Tables_number   1
_chemical_formula_structural   YbDy2YNi13C4
_chemical_formula_sum   'Yb1 Dy2 Y1 Ni13 C4'
_cell_volume   268.37838153
_cell_formula_units_Z   1
loop_
 _symmetry_equiv_pos_site_id
 _symmetry_equiv_pos_as_xyz
  1  'x, y, z'
loop_
 _atom_site_type_symbol
 _atom_site_label
 _atom_site_symmetry_multiplicity
 _atom_site_fract_x
 _atom_site_fract_y
 _atom_site_fract_z
 _atom_site_occupancy
  Yb  Yb0  1  0.192559  0.808039  0.500000  1
  Dy  Dy1  1  0.813551  0.186988  0.500000  1
  Dy  Dy2  1  0.650578  0.653756  0.500000  1
  Y  Y3  1  0.346454  0.349848  0.500000  1
  Ni  Ni4  1  0.001120  0.998599  0.000000  1
  Ni  Ni5  1  0.214754  0.571647  0.000000  1
  Ni  Ni6  1  0.784144  0.431399  0.000000  1
  Ni  Ni7  1  0.429214  0.785062  0.000000  1
  Ni  Ni8  1  0.569348  0.215630  0.000000  1
  Ni  Ni9  1  0.995749  0.503226  0.500000  1
  Ni  Ni10  1  0.499433  0.001989  0.500000  1
  Ni  Ni11  1  0.072916  0.289993  0.000000  1
  Ni  Ni12  1  0.924821  0.709505  0.000000  1
  Ni  Ni13  1  0.709698  0.926580  0.000000  1
  Ni  Ni14  1  0.290236  0.074668  0.000000  1
  Ni  Ni15  1  0.124704  0.116097  0.500000  1
  Ni  Ni16  1  0.883289  0.874714  0.500000  1
  C  C17  1  0.000607  0.500805  0.000000  1
  C  C18  1  0.498873  0.999799  0.000000  1
  C  C19  1  0.441796  0.558004  0.000000  1
  C  C20  1  0.556152  0.443654  0.000000  1
