# generated using pymatgen
data_YbTcCl6
_symmetry_space_group_name_H-M   'P 1'
_cell_length_a   6.65751965
_cell_length_b   6.65758861
_cell_length_c   6.54439003
_cell_angle_alpha   89.97747254
_cell_angle_beta   89.97904572
_cell_angle_gamma   119.98565257
_symmetry_Int_Tables_number   1
_chemical_formula_structural   YbTcCl6
_chemical_formula_sum   'Yb1 Tc1 Cl6'
_cell_volume   251.24178101
_cell_formula_units_Z   1
loop_
 _symmetry_equiv_pos_site_id
 _symmetry_equiv_pos_as_xyz
  1  'x, y, z'
loop_
 _atom_site_type_symbol
 _atom_site_label
 _atom_site_symmetry_multiplicity
 _atom_site_fract_x
 _atom_site_fract_y
 _atom_site_fract_z
 _atom_site_occupancy
  Yb  Yb0  1  0.666731  0.333268  0.000004  1
  Tc  Tc1  1  0.333250  0.666749  0.999996  1
  Cl  Cl2  1  0.619558  0.658863  0.212845  1
  Cl  Cl3  1  0.039127  0.380151  0.213087  1
  Cl  Cl4  1  0.340876  0.960517  0.212954  1
  Cl  Cl5  1  0.619857  0.960880  0.786917  1
  Cl  Cl6  1  0.039471  0.659122  0.787033  1
  Cl  Cl7  1  0.341133  0.380452  0.787160  1
