# generated using pymatgen
data_Ta8Nb3TcOs4
_symmetry_space_group_name_H-M   'P 1'
_cell_length_a   6.47428300
_cell_length_b   4.55318300
_cell_length_c   9.11145100
_cell_angle_alpha   90.00000000
_cell_angle_beta   90.00015511
_cell_angle_gamma   90.00000000
_symmetry_Int_Tables_number   1
_chemical_formula_structural   Ta8Nb3TcOs4
_chemical_formula_sum   'Ta8 Nb3 Tc1 Os4'
_cell_volume   268.59277656
_cell_formula_units_Z   1
loop_
 _symmetry_equiv_pos_site_id
 _symmetry_equiv_pos_as_xyz
  1  'x, y, z'
loop_
 _atom_site_type_symbol
 _atom_site_label
 _atom_site_symmetry_multiplicity
 _atom_site_fract_x
 _atom_site_fract_y
 _atom_site_fract_z
 _atom_site_occupancy
  Ta  Ta0  1  0.498858  0.749999  0.123233  1
  Ta  Ta1  1  0.001137  0.749999  0.123234  1
  Ta  Ta2  1  0.500524  0.250000  0.374998  1
  Ta  Ta3  1  0.999483  0.250000  0.374999  1
  Ta  Ta4  1  0.001128  0.749999  0.626770  1
  Ta  Ta5  1  0.498861  0.749999  0.626773  1
  Ta  Ta6  1  0.002050  0.250000  0.874994  1
  Ta  Ta7  1  0.497957  0.250000  0.874994  1
  Nb  Nb8  1  0.750001  0.250000  0.123419  1
  Nb  Nb9  1  0.250001  0.749999  0.374999  1
  Nb  Nb10  1  0.749999  0.250000  0.626570  1
  Tc  Tc11  1  0.250001  0.749999  0.874993  1
  Os  Os12  1  0.250001  0.250000  0.122907  1
  Os  Os13  1  0.749999  0.749999  0.375007  1
  Os  Os14  1  0.249998  0.250000  0.627103  1
  Os  Os15  1  0.750001  0.749999  0.875007  1
