# generated using pymatgen
data_Ba4Pr7USe16
_symmetry_space_group_name_H-M   'P 1'
_cell_length_a   4.35442800
_cell_length_b   13.08968910
_cell_length_c   15.68181833
_cell_angle_alpha   90.00654119
_cell_angle_beta   90.00000000
_cell_angle_gamma   90.00000000
_symmetry_Int_Tables_number   1
_chemical_formula_structural   Ba4Pr7USe16
_chemical_formula_sum   'Ba4 Pr7 U1 Se16'
_cell_volume   893.83398079
_cell_formula_units_Z   1
loop_
 _symmetry_equiv_pos_site_id
 _symmetry_equiv_pos_as_xyz
  1  'x, y, z'
loop_
 _atom_site_type_symbol
 _atom_site_label
 _atom_site_symmetry_multiplicity
 _atom_site_fract_x
 _atom_site_fract_y
 _atom_site_fract_z
 _atom_site_occupancy
  Ba  Ba0  1  0.250000  0.755652  0.337748  1
  Ba  Ba1  1  0.250000  0.258124  0.163220  1
  Ba  Ba2  1  0.750000  0.242511  0.661331  1
  Ba  Ba3  1  0.750000  0.742852  0.837463  1
  Pr  Pr4  1  0.250000  0.428290  0.392438  1
  Pr  Pr5  1  0.250000  0.930341  0.108968  1
  Pr  Pr6  1  0.750000  0.569639  0.608445  1
  Pr  Pr7  1  0.750000  0.071209  0.892209  1
  Pr  Pr8  1  0.250000  0.419499  0.899247  1
  Pr  Pr9  1  0.250000  0.920199  0.600568  1
  Pr  Pr10  1  0.750000  0.579599  0.100956  1
  U  U11  1  0.750000  0.080124  0.399354  1
  Se  Se12  1  0.250000  0.207249  0.823827  1
  Se  Se13  1  0.250000  0.708757  0.672830  1
  Se  Se14  1  0.750000  0.793234  0.176166  1
  Se  Se15  1  0.750000  0.287422  0.328189  1
  Se  Se16  1  0.250000  0.129988  0.518661  1
  Se  Se17  1  0.250000  0.630965  0.973976  1
  Se  Se18  1  0.750000  0.874052  0.470880  1
  Se  Se19  1  0.750000  0.368525  0.026509  1
  Se  Se20  1  0.250000  0.521341  0.217990  1
  Se  Se21  1  0.250000  0.026049  0.286895  1
  Se  Se22  1  0.750000  0.476847  0.782452  1
  Se  Se23  1  0.750000  0.978481  0.716307  1
  Se  Se24  1  0.250000  0.414098  0.580345  1
  Se  Se25  1  0.250000  0.915785  0.921459  1
  Se  Se26  1  0.750000  0.583784  0.420308  1
  Se  Se27  1  0.750000  0.085383  0.081258  1
