# generated using pymatgen
data_RbMg2Zn2As3
_symmetry_space_group_name_H-M   'P 1'
_cell_length_a   4.41972500
_cell_length_b   4.24153700
_cell_length_c   10.60702900
_cell_angle_alpha   90.00000000
_cell_angle_beta   90.00000000
_cell_angle_gamma   90.00000000
_symmetry_Int_Tables_number   1
_chemical_formula_structural   RbMg2Zn2As3
_chemical_formula_sum   'Rb1 Mg2 Zn2 As3'
_cell_volume   198.84389608
_cell_formula_units_Z   1
loop_
 _symmetry_equiv_pos_site_id
 _symmetry_equiv_pos_as_xyz
  1  'x, y, z'
loop_
 _atom_site_type_symbol
 _atom_site_label
 _atom_site_symmetry_multiplicity
 _atom_site_fract_x
 _atom_site_fract_y
 _atom_site_fract_z
 _atom_site_occupancy
  Rb  Rb0  1  0.000000  0.000000  0.500000  1
  Mg  Mg1  1  0.000000  0.500000  0.157784  1
  Mg  Mg2  1  0.000000  0.500000  0.842216  1
  Zn  Zn3  1  0.500000  0.000000  0.838623  1
  Zn  Zn4  1  0.500000  0.000000  0.161377  1
  As  As5  1  0.000000  0.000000  0.000000  1
  As  As6  1  0.500000  0.500000  0.291469  1
  As  As7  1  0.500000  0.500000  0.708531  1
