# generated using pymatgen
data_Eu6Ti2ReH27
_symmetry_space_group_name_H-M   'P 1'
_cell_length_a   8.56726600
_cell_length_b   8.56726787
_cell_length_c   4.93616900
_cell_angle_alpha   90.00000000
_cell_angle_beta   90.00000000
_cell_angle_gamma   120.00000823
_symmetry_Int_Tables_number   1
_chemical_formula_structural   Eu6Ti2ReH27
_chemical_formula_sum   'Eu6 Ti2 Re1 H27'
_cell_volume   313.76551737
_cell_formula_units_Z   1
loop_
 _symmetry_equiv_pos_site_id
 _symmetry_equiv_pos_as_xyz
  1  'x, y, z'
loop_
 _atom_site_type_symbol
 _atom_site_label
 _atom_site_symmetry_multiplicity
 _atom_site_fract_x
 _atom_site_fract_y
 _atom_site_fract_z
 _atom_site_occupancy
  Eu  Eu0  1  0.992935  0.254960  0.500000  1
  Eu  Eu1  1  0.745040  0.737975  0.500000  1
  Eu  Eu2  1  0.262025  0.007065  0.500000  1
  Eu  Eu3  1  0.966792  0.592012  0.000000  1
  Eu  Eu4  1  0.407988  0.374781  0.000000  1
  Eu  Eu5  1  0.625219  0.033208  0.000000  1
  Ti  Ti6  1  0.666667  0.333333  0.500000  1
  Ti  Ti7  1  0.000000  0.000000  0.000000  1
  Re  Re8  1  0.333333  0.666667  0.500000  1
  H  H9  1  0.812395  0.324056  0.765734  1
  H  H10  1  0.675944  0.488336  0.765734  1
  H  H11  1  0.511664  0.187605  0.765734  1
  H  H12  1  0.196365  0.527625  0.244442  1
  H  H13  1  0.511664  0.187605  0.234266  1
  H  H14  1  0.812395  0.324056  0.234266  1
  H  H15  1  0.675944  0.488336  0.234266  1
  H  H16  1  0.331257  0.803635  0.755558  1
  H  H17  1  0.472375  0.668743  0.755558  1
  H  H18  1  0.222659  0.004192  0.000000  1
  H  H19  1  0.781532  0.777341  0.000000  1
  H  H20  1  0.995808  0.218468  0.000000  1
  H  H21  1  0.842962  0.998244  0.253804  1
  H  H22  1  0.155282  0.157038  0.746196  1
  H  H23  1  0.001756  0.844718  0.746196  1
  H  H24  1  0.001756  0.844718  0.253804  1
  H  H25  1  0.155282  0.157038  0.253804  1
  H  H26  1  0.842962  0.998244  0.746196  1
  H  H27  1  0.134676  0.665299  0.500000  1
  H  H28  1  0.530623  0.865324  0.500000  1
  H  H29  1  0.334701  0.469377  0.500000  1
  H  H30  1  0.448108  0.327303  0.500000  1
  H  H31  1  0.879195  0.551892  0.500000  1
  H  H32  1  0.672697  0.120805  0.500000  1
  H  H33  1  0.196365  0.527625  0.755558  1
  H  H34  1  0.331257  0.803635  0.244442  1
  H  H35  1  0.472375  0.668743  0.244442  1
