# generated using pymatgen
data_Pr6HoLuO12
_symmetry_space_group_name_H-M   'P 1'
_cell_length_a   6.99026397
_cell_length_b   6.99026362
_cell_length_c   6.99026452
_cell_angle_alpha   92.22629980
_cell_angle_beta   92.22630015
_cell_angle_gamma   92.22628612
_symmetry_Int_Tables_number   1
_chemical_formula_structural   Pr6HoLuO12
_chemical_formula_sum   'Pr6 Ho1 Lu1 O12'
_cell_volume   340.77668891
_cell_formula_units_Z   1
loop_
 _symmetry_equiv_pos_site_id
 _symmetry_equiv_pos_as_xyz
  1  'x, y, z'
loop_
 _atom_site_type_symbol
 _atom_site_label
 _atom_site_symmetry_multiplicity
 _atom_site_fract_x
 _atom_site_fract_y
 _atom_site_fract_z
 _atom_site_occupancy
  Pr  Pr0  1  0.558693  0.066240  0.254914  1
  Pr  Pr1  1  0.066240  0.254914  0.558693  1
  Pr  Pr2  1  0.745086  0.441307  0.933760  1
  Pr  Pr3  1  0.254914  0.558693  0.066240  1
  Pr  Pr4  1  0.933760  0.745086  0.441307  1
  Pr  Pr5  1  0.441307  0.933760  0.745086  1
  Ho  Ho6  1  0.000000  0.000000  0.000000  1
  Lu  Lu7  1  0.500000  0.500000  0.500000  1
  O  O8  1  0.691935  0.088247  0.934908  1
  O  O9  1  0.911753  0.065092  0.308065  1
  O  O10  1  0.407269  0.196641  0.535704  1
  O  O11  1  0.065092  0.308065  0.911753  1
  O  O12  1  0.535704  0.407269  0.196641  1
  O  O13  1  0.803359  0.464296  0.592731  1
  O  O14  1  0.196641  0.535704  0.407269  1
  O  O15  1  0.464296  0.592731  0.803359  1
  O  O16  1  0.934908  0.691935  0.088247  1
  O  O17  1  0.592731  0.803359  0.464296  1
  O  O18  1  0.088247  0.934908  0.691935  1
  O  O19  1  0.308065  0.911753  0.065092  1
