# generated using pymatgen
data_Tm2Th2Al5Tc3
_symmetry_space_group_name_H-M   'P 1'
_cell_length_a   5.47793576
_cell_length_b   5.53504824
_cell_length_c   8.97139528
_cell_angle_alpha   89.99999759
_cell_angle_beta   91.42862312
_cell_angle_gamma   120.34550935
_symmetry_Int_Tables_number   1
_chemical_formula_structural   Tm2Th2Al5Tc3
_chemical_formula_sum   'Tm2 Th2 Al5 Tc3'
_cell_volume   234.65244043
_cell_formula_units_Z   1
loop_
 _symmetry_equiv_pos_site_id
 _symmetry_equiv_pos_as_xyz
  1  'x, y, z'
loop_
 _atom_site_type_symbol
 _atom_site_label
 _atom_site_symmetry_multiplicity
 _atom_site_fract_x
 _atom_site_fract_y
 _atom_site_fract_z
 _atom_site_occupancy
  Tm  Tm0  1  0.659782  0.329891  0.942865  1
  Tm  Tm1  1  0.334054  0.667027  0.055587  1
  Th  Th2  1  0.352957  0.676479  0.454847  1
  Th  Th3  1  0.662358  0.331179  0.555434  1
  Al  Al4  1  0.841627  0.166752  0.243790  1
  Al  Al5  1  0.841627  0.674876  0.243790  1
  Al  Al6  1  0.328651  0.164326  0.239411  1
  Al  Al7  1  0.167201  0.835171  0.756799  1
  Al  Al8  1  0.167201  0.332030  0.756799  1
  Tc  Tc9  1  0.009547  0.004773  0.497913  1
  Tc  Tc10  1  0.970682  0.985341  0.993467  1
  Tc  Tc11  1  0.664310  0.832155  0.759299  1
