# generated using pymatgen
data_RbBa3(MnN2)4
_symmetry_space_group_name_H-M   'P 1'
_cell_length_a   6.46601276
_cell_length_b   6.46601193
_cell_length_c   7.83258544
_cell_angle_alpha   90.10699325
_cell_angle_beta   89.89300427
_cell_angle_gamma   126.71283193
_symmetry_Int_Tables_number   1
_chemical_formula_structural   RbBa3(MnN2)4
_chemical_formula_sum   'Rb1 Ba3 Mn4 N8'
_cell_volume   262.51709861
_cell_formula_units_Z   1
loop_
 _symmetry_equiv_pos_site_id
 _symmetry_equiv_pos_as_xyz
  1  'x, y, z'
loop_
 _atom_site_type_symbol
 _atom_site_label
 _atom_site_symmetry_multiplicity
 _atom_site_fract_x
 _atom_site_fract_y
 _atom_site_fract_z
 _atom_site_occupancy
  Rb  Rb0  1  0.841437  0.158563  0.562365  1
  Ba  Ba1  1  0.157842  0.842158  0.447856  1
  Ba  Ba2  1  0.657022  0.342978  0.060651  1
  Ba  Ba3  1  0.344879  0.655121  0.939451  1
  Mn  Mn4  1  0.546402  0.453598  0.634485  1
  Mn  Mn5  1  0.450722  0.549278  0.363472  1
  Mn  Mn6  1  0.952868  0.047132  0.135103  1
  Mn  Mn7  1  0.048600  0.951400  0.867221  1
  N  N8  1  0.893213  0.106787  0.921312  1
  N  N9  1  0.111805  0.888195  0.084344  1
  N  N10  1  0.604624  0.395376  0.414876  1
  N  N11  1  0.393481  0.606519  0.581332  1
  N  N12  1  0.333874  0.167496  0.751683  1
  N  N13  1  0.170907  0.340180  0.242082  1
  N  N14  1  0.659820  0.829093  0.242082  1
  N  N15  1  0.832504  0.666126  0.751683  1
