# generated using pymatgen
data_CePr5Mn(SiSe7)2
_symmetry_space_group_name_H-M   'P 1'
_cell_length_a   10.79739113
_cell_length_b   10.77197548
_cell_length_c   6.05417400
_cell_angle_alpha   89.96675114
_cell_angle_beta   90.08587426
_cell_angle_gamma   119.98651091
_symmetry_Int_Tables_number   1
_chemical_formula_structural   CePr5Mn(SiSe7)2
_chemical_formula_sum   'Ce1 Pr5 Mn1 Si2 Se14'
_cell_volume   609.89944717
_cell_formula_units_Z   1
loop_
 _symmetry_equiv_pos_site_id
 _symmetry_equiv_pos_as_xyz
  1  'x, y, z'
loop_
 _atom_site_type_symbol
 _atom_site_label
 _atom_site_symmetry_multiplicity
 _atom_site_fract_x
 _atom_site_fract_y
 _atom_site_fract_z
 _atom_site_occupancy
  Ce  Ce0  1  0.979977  0.436437  0.751696  1
  Pr  Pr1  1  0.457780  0.022841  0.751205  1
  Pr  Pr2  1  0.564851  0.542006  0.750886  1
  Pr  Pr3  1  0.688359  0.898334  0.249780  1
  Pr  Pr4  1  0.209217  0.311204  0.249365  1
  Pr  Pr5  1  0.101642  0.790698  0.249525  1
  Mn  Mn6  1  0.332999  0.666412  0.512050  1
  Si  Si7  1  0.666791  0.333231  0.165539  1
  Si  Si8  1  0.999914  0.999982  0.659634  1
  Se  Se9  1  0.666747  0.333092  0.539481  1
  Se  Se10  1  0.999957  0.999985  0.033831  1
  Se  Se11  1  0.086951  0.506746  0.275707  1
  Se  Se12  1  0.418938  0.911961  0.275786  1
  Se  Se13  1  0.492219  0.579999  0.275595  1
  Se  Se14  1  0.579512  0.828708  0.753785  1
  Se  Se15  1  0.249275  0.421283  0.754015  1
  Se  Se16  1  0.171871  0.750415  0.754579  1
  Se  Se17  1  0.813204  0.557664  0.016038  1
  Se  Se18  1  0.744237  0.186411  0.015798  1
  Se  Se19  1  0.442478  0.255720  0.016000  1
  Se  Se20  1  0.853521  0.775362  0.510899  1
  Se  Se21  1  0.922026  0.146745  0.511297  1
  Se  Se22  1  0.224201  0.078094  0.511548  1
