# generated using pymatgen
data_La2CdPdRh
_symmetry_space_group_name_H-M   'P 1'
_cell_length_a   7.85429030
_cell_length_b   7.85429030
_cell_length_c   3.97163300
_cell_angle_alpha   90.00000000
_cell_angle_beta   90.00000000
_cell_angle_gamma   90.68736758
_symmetry_Int_Tables_number   1
_chemical_formula_structural   La2CdPdRh
_chemical_formula_sum   'La4 Cd2 Pd2 Rh2'
_cell_volume   244.99191673
_cell_formula_units_Z   2
loop_
 _symmetry_equiv_pos_site_id
 _symmetry_equiv_pos_as_xyz
  1  'x, y, z'
loop_
 _atom_site_type_symbol
 _atom_site_label
 _atom_site_symmetry_multiplicity
 _atom_site_fract_x
 _atom_site_fract_y
 _atom_site_fract_z
 _atom_site_occupancy
  La  La0  1  0.682802  0.182802  0.500000  1
  La  La1  1  0.317198  0.817198  0.500000  1
  La  La2  1  0.167296  0.332704  0.500000  1
  La  La3  1  0.832704  0.667296  0.500000  1
  Cd  Cd4  1  0.000000  0.000000  0.000000  1
  Cd  Cd5  1  0.500000  0.500000  0.000000  1
  Pd  Pd6  1  0.627098  0.872902  0.000000  1
  Pd  Pd7  1  0.372902  0.127098  0.000000  1
  Rh  Rh8  1  0.132323  0.632323  0.000000  1
  Rh  Rh9  1  0.867677  0.367677  0.000000  1
