# generated using pymatgen
data_Dy4Tm4Sc12Si15Tc
_symmetry_space_group_name_H-M   'P 1'
_cell_length_a   7.06904040
_cell_length_b   7.42540634
_cell_length_c   13.91470527
_cell_angle_alpha   90.00880872
_cell_angle_beta   89.97911133
_cell_angle_gamma   90.17025308
_symmetry_Int_Tables_number   1
_chemical_formula_structural   Dy4Tm4Sc12Si15Tc
_chemical_formula_sum   'Dy4 Tm4 Sc12 Si15 Tc1'
_cell_volume   730.38651897
_cell_formula_units_Z   1
loop_
 _symmetry_equiv_pos_site_id
 _symmetry_equiv_pos_as_xyz
  1  'x, y, z'
loop_
 _atom_site_type_symbol
 _atom_site_label
 _atom_site_symmetry_multiplicity
 _atom_site_fract_x
 _atom_site_fract_y
 _atom_site_fract_z
 _atom_site_occupancy
  Dy  Dy0  1  0.511071  0.323047  0.095562  1
  Dy  Dy1  1  0.011365  0.178175  0.404646  1
  Dy  Dy2  1  0.510979  0.323101  0.404095  1
  Dy  Dy3  1  0.488974  0.675875  0.595821  1
  Tm  Tm4  1  0.011730  0.178754  0.095914  1
  Tm  Tm5  1  0.991058  0.827134  0.903821  1
  Tm  Tm6  1  0.488840  0.676808  0.903634  1
  Tm  Tm7  1  0.990926  0.827185  0.596490  1
  Sc  Sc8  1  0.156447  0.500047  0.750232  1
  Sc  Sc9  1  0.838390  0.494507  0.249841  1
  Sc  Sc10  1  0.338570  0.005770  0.249705  1
  Sc  Sc11  1  0.668045  0.998015  0.750142  1
  Sc  Sc12  1  0.316208  0.170993  0.627941  1
  Sc  Sc13  1  0.672412  0.826278  0.374128  1
  Sc  Sc14  1  0.171474  0.678239  0.374015  1
  Sc  Sc15  1  0.672268  0.826165  0.125514  1
  Sc  Sc16  1  0.837354  0.319979  0.627358  1
  Sc  Sc17  1  0.315862  0.171191  0.872358  1
  Sc  Sc18  1  0.837671  0.319634  0.872942  1
  Sc  Sc19  1  0.171552  0.678346  0.125689  1
  Si  Si20  1  0.968320  0.885240  0.249712  1
  Si  Si21  1  0.470037  0.614298  0.249911  1
  Si  Si22  1  0.529484  0.388566  0.750377  1
  Si  Si23  1  0.286086  0.865839  0.750497  1
  Si  Si24  1  0.713981  0.129458  0.249529  1
  Si  Si25  1  0.213646  0.369718  0.249498  1
  Si  Si26  1  0.780282  0.629499  0.750529  1
  Si  Si27  1  0.159702  0.469532  0.537070  1
  Si  Si28  1  0.844691  0.537228  0.461830  1
  Si  Si29  1  0.344072  0.965280  0.460083  1
  Si  Si30  1  0.844724  0.536367  0.038270  1
  Si  Si31  1  0.656119  0.033511  0.539122  1
  Si  Si32  1  0.160751  0.469344  0.962951  1
  Si  Si33  1  0.655978  0.032686  0.960803  1
  Si  Si34  1  0.343114  0.965206  0.039910  1
  Tc  Tc35  1  0.027820  0.108983  0.750057  1
