# generated using pymatgen
data_DyHo(GaI)2
_symmetry_space_group_name_H-M   'P 1'
_cell_length_a   4.19095900
_cell_length_b   4.19095928
_cell_length_c   12.14301200
_cell_angle_alpha   90.00000000
_cell_angle_beta   90.00000000
_cell_angle_gamma   120.00000565
_symmetry_Int_Tables_number   1
_chemical_formula_structural   DyHo(GaI)2
_chemical_formula_sum   'Dy1 Ho1 Ga2 I2'
_cell_volume   184.70722558
_cell_formula_units_Z   1
loop_
 _symmetry_equiv_pos_site_id
 _symmetry_equiv_pos_as_xyz
  1  'x, y, z'
loop_
 _atom_site_type_symbol
 _atom_site_label
 _atom_site_symmetry_multiplicity
 _atom_site_fract_x
 _atom_site_fract_y
 _atom_site_fract_z
 _atom_site_occupancy
  Dy  Dy0  1  0.000000  0.000000  0.335162  1
  Ho  Ho1  1  0.000000  0.000000  0.664848  1
  Ga  Ga2  1  0.333334  0.666667  0.471508  1
  Ga  Ga3  1  0.666665  0.333332  0.528876  1
  I  I4  1  0.666665  0.333332  0.170498  1
  I  I5  1  0.333334  0.666667  0.829108  1
