# generated using pymatgen
data_Ac7Tb(InSi2)4
_symmetry_space_group_name_H-M   'P 1'
_cell_length_a   4.52143500
_cell_length_b   7.98165728
_cell_length_c   15.22568875
_cell_angle_alpha   90.74746137
_cell_angle_beta   90.00000000
_cell_angle_gamma   90.00000000
_symmetry_Int_Tables_number   1
_chemical_formula_structural   Ac7Tb(InSi2)4
_chemical_formula_sum   'Ac7 Tb1 In4 Si8'
_cell_volume   549.42619102
_cell_formula_units_Z   1
loop_
 _symmetry_equiv_pos_site_id
 _symmetry_equiv_pos_as_xyz
  1  'x, y, z'
loop_
 _atom_site_type_symbol
 _atom_site_label
 _atom_site_symmetry_multiplicity
 _atom_site_fract_x
 _atom_site_fract_y
 _atom_site_fract_z
 _atom_site_occupancy
  Ac  Ac0  1  0.500000  0.744081  0.031972  1
  Ac  Ac1  1  0.500000  0.242523  0.960181  1
  Ac  Ac2  1  0.500000  0.254663  0.468982  1
  Ac  Ac3  1  0.500000  0.756674  0.538626  1
  Ac  Ac4  1  0.500000  0.617958  0.283643  1
  Ac  Ac5  1  0.500000  0.385722  0.720763  1
  Ac  Ac6  1  0.500000  0.118033  0.214602  1
  Tb  Tb7  1  0.500000  0.886263  0.783785  1
  In  In8  1  0.000000  0.938329  0.374846  1
  In  In9  1  0.000000  0.048730  0.633630  1
  In  In10  1  0.000000  0.438300  0.124555  1
  In  In11  1  0.000000  0.579048  0.871095  1
  Si  Si12  1  0.000000  0.554429  0.427167  1
  Si  Si13  1  0.000000  0.464942  0.580154  1
  Si  Si14  1  0.000000  0.041572  0.068708  1
  Si  Si15  1  0.000000  0.930220  0.916164  1
  Si  Si16  1  0.000000  0.830404  0.181750  1
  Si  Si17  1  0.000000  0.146861  0.810181  1
  Si  Si18  1  0.000000  0.330463  0.318868  1
  Si  Si19  1  0.000000  0.690784  0.690329  1
