# generated using pymatgen
data_Cs4K2ErInAs4
_symmetry_space_group_name_H-M   'P 1'
_cell_length_a   9.97035518
_cell_length_b   9.97035487
_cell_length_c   9.97035519
_cell_angle_alpha   133.78835145
_cell_angle_beta   138.38807609
_cell_angle_gamma   63.91804579
_symmetry_Int_Tables_number   1
_chemical_formula_structural   Cs4K2ErInAs4
_chemical_formula_sum   'Cs4 K2 Er1 In1 As4'
_cell_volume   468.86444391
_cell_formula_units_Z   1
loop_
 _symmetry_equiv_pos_site_id
 _symmetry_equiv_pos_as_xyz
  1  'x, y, z'
loop_
 _atom_site_type_symbol
 _atom_site_label
 _atom_site_symmetry_multiplicity
 _atom_site_fract_x
 _atom_site_fract_y
 _atom_site_fract_z
 _atom_site_occupancy
  Cs  Cs0  1  0.687800  0.438977  0.765984  1
  Cs  Cs1  1  0.812200  0.078183  0.251177  1
  Cs  Cs2  1  0.172994  0.921817  0.734016  1
  Cs  Cs3  1  0.327006  0.561023  0.248823  1
  K  K4  1  0.750000  0.000000  0.750000  1
  K  K5  1  0.250000  0.000000  0.250000  1
  Er  Er6  1  0.250000  0.500000  0.750000  1
  In  In7  1  0.750000  0.500000  0.250000  1
  As  As8  1  0.410745  0.212101  0.808958  1
  As  As9  1  0.596857  0.787899  0.198645  1
  As  As10  1  0.089255  0.398214  0.301355  1
  As  As11  1  0.903143  0.601786  0.691042  1
