# generated using pymatgen
data_Dy4Ho2GaNiRu
_symmetry_space_group_name_H-M   'P 1'
_cell_length_a   8.32192456
_cell_length_b   8.32188798
_cell_length_c   8.32192516
_cell_angle_alpha   112.98116596
_cell_angle_beta   110.18635571
_cell_angle_gamma   105.33722115
_symmetry_Int_Tables_number   1
_chemical_formula_structural   Dy4Ho2GaNiRu
_chemical_formula_sum   'Dy8 Ho4 Ga2 Ni2 Ru2'
_cell_volume   441.65596786
_cell_formula_units_Z   2
loop_
 _symmetry_equiv_pos_site_id
 _symmetry_equiv_pos_as_xyz
  1  'x, y, z'
loop_
 _atom_site_type_symbol
 _atom_site_label
 _atom_site_symmetry_multiplicity
 _atom_site_fract_x
 _atom_site_fract_y
 _atom_site_fract_z
 _atom_site_occupancy
  Dy  Dy0  1  0.435259  0.241939  0.193321  1
  Dy  Dy1  1  0.564741  0.758061  0.806679  1
  Dy  Dy2  1  0.048618  0.241939  0.806679  1
  Dy  Dy3  1  0.951382  0.758061  0.193321  1
  Dy  Dy4  1  0.180030  0.279277  0.459307  1
  Dy  Dy5  1  0.819970  0.720723  0.540693  1
  Dy  Dy6  1  0.180031  0.720723  0.900753  1
  Dy  Dy7  1  0.819969  0.279277  0.099247  1
  Ho  Ho8  1  0.329320  0.641221  0.311902  1
  Ho  Ho9  1  0.670680  0.358779  0.688098  1
  Ho  Ho10  1  0.329319  0.017418  0.688099  1
  Ho  Ho11  1  0.670681  0.982582  0.311901  1
  Ga  Ga12  1  0.500000  0.500000  0.000000  1
  Ga  Ga13  1  0.000000  0.000000  0.000000  1
  Ni  Ni14  1  0.118345  0.618340  0.499995  1
  Ni  Ni15  1  0.881655  0.381660  0.500005  1
  Ru  Ru16  1  0.330029  0.000000  0.330029  1
  Ru  Ru17  1  0.669971  0.000000  0.669971  1
