# generated using pymatgen
data_Tb2PaP4Pd6Pt
_symmetry_space_group_name_H-M   'P 1'
_cell_length_a   7.95318930
_cell_length_b   7.95318949
_cell_length_c   9.43645175
_cell_angle_alpha   55.26633806
_cell_angle_beta   55.26633705
_cell_angle_gamma   29.48425347
_symmetry_Int_Tables_number   1
_chemical_formula_structural   Tb2PaP4Pd6Pt
_chemical_formula_sum   'Tb2 Pa1 P4 Pd6 Pt1'
_cell_volume   237.37803565
_cell_formula_units_Z   1
loop_
 _symmetry_equiv_pos_site_id
 _symmetry_equiv_pos_as_xyz
  1  'x, y, z'
loop_
 _atom_site_type_symbol
 _atom_site_label
 _atom_site_symmetry_multiplicity
 _atom_site_fract_x
 _atom_site_fract_y
 _atom_site_fract_z
 _atom_site_occupancy
  Tb  Tb0  1  0.680421  0.680421  0.321023  1
  Tb  Tb1  1  0.319579  0.319579  0.678977  1
  Pa  Pa2  1  0.000000  0.000000  0.000000  1
  P  P3  1  0.346370  0.346370  0.243642  1
  P  P4  1  0.653630  0.653630  0.756358  1
  P  P5  1  0.896483  0.896483  0.823041  1
  P  P6  1  0.103517  0.103517  0.176959  1
  Pd  Pd7  1  0.307033  0.307033  0.026259  1
  Pd  Pd8  1  0.692967  0.692967  0.973741  1
  Pd  Pd9  1  0.510921  0.510921  0.709804  1
  Pd  Pd10  1  0.830577  0.830577  0.427269  1
  Pd  Pd11  1  0.489079  0.489079  0.290196  1
  Pd  Pd12  1  0.169423  0.169423  0.572731  1
  Pt  Pt13  1  0.000000  0.000000  0.500000  1
