# generated using pymatgen
data_Tb4Yb2Al13Si11Os8
_symmetry_space_group_name_H-M   'P 1'
_cell_length_a   8.74145100
_cell_length_b   8.72583211
_cell_length_c   9.24277800
_cell_angle_alpha   90.04620465
_cell_angle_beta   90.00000000
_cell_angle_gamma   120.05923286
_symmetry_Int_Tables_number   1
_chemical_formula_structural   Tb4Yb2Al13Si11Os8
_chemical_formula_sum   'Tb4 Yb2 Al13 Si11 Os8'
_cell_volume   610.18821941
_cell_formula_units_Z   1
loop_
 _symmetry_equiv_pos_site_id
 _symmetry_equiv_pos_as_xyz
  1  'x, y, z'
loop_
 _atom_site_type_symbol
 _atom_site_label
 _atom_site_symmetry_multiplicity
 _atom_site_fract_x
 _atom_site_fract_y
 _atom_site_fract_z
 _atom_site_occupancy
  Tb  Tb0  1  0.618365  0.809101  0.248807  1
  Tb  Tb1  1  0.382802  0.191599  0.750357  1
  Tb  Tb2  1  0.190736  0.809101  0.248807  1
  Tb  Tb3  1  0.808796  0.191599  0.750357  1
  Yb  Yb4  1  0.191259  0.382518  0.249357  1
  Yb  Yb5  1  0.808373  0.616747  0.750371  1
  Al  Al6  1  0.332791  0.665583  0.467799  1
  Al  Al7  1  0.166053  0.332105  0.576988  1
  Al  Al8  1  0.832927  0.665854  0.422288  1
  Al  Al9  1  0.668678  0.833875  0.579235  1
  Al  Al10  1  0.832927  0.665856  0.077378  1
  Al  Al11  1  0.333035  0.166768  0.419521  1
  Al  Al12  1  0.167632  0.335264  0.921301  1
  Al  Al13  1  0.165198  0.833875  0.579235  1
  Al  Al14  1  0.333094  0.166862  0.079952  1
  Al  Al15  1  0.833733  0.166768  0.419521  1
  Al  Al16  1  0.665880  0.832760  0.918628  1
  Al  Al17  1  0.833766  0.166862  0.079952  1
  Al  Al18  1  0.166881  0.832760  0.918628  1
  Si  Si19  1  0.332888  0.665778  0.050302  1
  Si  Si20  1  0.667221  0.334441  0.953223  1
  Si  Si21  1  0.667069  0.334137  0.545795  1
  Si  Si22  1  0.561607  0.123214  0.249710  1
  Si  Si23  1  0.438794  0.877588  0.748025  1
  Si  Si24  1  0.879620  0.438718  0.249904  1
  Si  Si25  1  0.119529  0.560958  0.748270  1
  Si  Si26  1  0.559099  0.438718  0.249904  1
  Si  Si27  1  0.441429  0.560958  0.748270  1
  Si  Si28  1  0.000265  0.000531  0.249385  1
  Si  Si29  1  0.999625  0.999251  0.749686  1
  Os  Os30  1  0.500550  0.001100  0.998565  1
  Os  Os31  1  0.999148  0.499646  0.998856  1
  Os  Os32  1  0.503507  0.007013  0.501139  1
  Os  Os33  1  0.500498  0.499646  0.998856  1
  Os  Os34  1  0.992674  0.496262  0.501534  1
  Os  Os35  1  0.503589  0.496262  0.501534  1
  Os  Os36  1  0.000010  0.000020  0.999324  1
  Os  Os37  1  0.999950  0.999900  0.499234  1
