# generated using pymatgen
data_YEr2Tm(Al3Ir)6
_symmetry_space_group_name_H-M   'P 1'
_cell_length_a   7.54643411
_cell_length_b   7.54434569
_cell_length_c   9.45440700
_cell_angle_alpha   90.00000000
_cell_angle_beta   90.00000000
_cell_angle_gamma   119.48520939
_symmetry_Int_Tables_number   1
_chemical_formula_structural   YEr2Tm(Al3Ir)6
_chemical_formula_sum   'Y1 Er2 Tm1 Al18 Ir6'
_cell_volume   468.55205274
_cell_formula_units_Z   1
loop_
 _symmetry_equiv_pos_site_id
 _symmetry_equiv_pos_as_xyz
  1  'x, y, z'
loop_
 _atom_site_type_symbol
 _atom_site_label
 _atom_site_symmetry_multiplicity
 _atom_site_fract_x
 _atom_site_fract_y
 _atom_site_fract_z
 _atom_site_occupancy
  Y  Y0  1  0.328616  0.004770  0.750000  1
  Er  Er1  1  0.004714  0.328057  0.750000  1
  Er  Er2  1  0.672756  0.994313  0.250000  1
  Tm  Tm3  1  0.994478  0.672422  0.250000  1
  Al  Al4  1  0.129630  0.129212  0.250000  1
  Al  Al5  1  0.870214  0.870906  0.750000  1
  Al  Al6  1  0.000834  0.335960  0.074747  1
  Al  Al7  1  0.998671  0.664352  0.926259  1
  Al  Al8  1  0.998671  0.664352  0.573741  1
  Al  Al9  1  0.335314  0.000452  0.424495  1
  Al  Al10  1  0.000834  0.335960  0.425253  1
  Al  Al11  1  0.665301  0.999254  0.573616  1
  Al  Al12  1  0.665301  0.999254  0.926384  1
  Al  Al13  1  0.335314  0.000452  0.075505  1
  Al  Al14  1  0.332544  0.332807  0.551589  1
  Al  Al15  1  0.666916  0.666451  0.448700  1
  Al  Al16  1  0.666916  0.666451  0.051300  1
  Al  Al17  1  0.332544  0.332807  0.948411  1
  Al  Al18  1  0.339369  0.549684  0.250000  1
  Al  Al19  1  0.660629  0.451837  0.750000  1
  Al  Al20  1  0.550297  0.340992  0.250000  1
  Al  Al21  1  0.451059  0.659803  0.750000  1
  Ir  Ir22  1  0.672484  0.328124  0.000033  1
  Ir  Ir23  1  0.327511  0.671993  0.999986  1
  Ir  Ir24  1  0.327511  0.671993  0.500014  1
  Ir  Ir25  1  0.672484  0.328124  0.499967  1
  Ir  Ir26  1  0.999544  0.999609  0.000357  1
  Ir  Ir27  1  0.999544  0.999609  0.499643  1
