# generated using pymatgen
data_Zr10CdSn3Bi4
_symmetry_space_group_name_H-M   'P 1'
_cell_length_a   6.01758444
_cell_length_b   8.94387999
_cell_length_c   8.93324856
_cell_angle_alpha   120.03917308
_cell_angle_beta   90.03972628
_cell_angle_gamma   89.92067448
_symmetry_Int_Tables_number   1
_chemical_formula_structural   Zr10CdSn3Bi4
_chemical_formula_sum   'Zr10 Cd1 Sn3 Bi4'
_cell_volume   416.21355840
_cell_formula_units_Z   1
loop_
 _symmetry_equiv_pos_site_id
 _symmetry_equiv_pos_as_xyz
  1  'x, y, z'
loop_
 _atom_site_type_symbol
 _atom_site_label
 _atom_site_symmetry_multiplicity
 _atom_site_fract_x
 _atom_site_fract_y
 _atom_site_fract_z
 _atom_site_occupancy
  Zr  Zr0  1  0.497141  0.333288  0.664383  1
  Zr  Zr1  1  0.497142  0.668906  0.335617  1
  Zr  Zr2  1  0.003228  0.669609  0.336681  1
  Zr  Zr3  1  0.003226  0.332924  0.663315  1
  Zr  Zr4  1  0.751558  0.278221  0.999998  1
  Zr  Zr5  1  0.751334  0.721309  0.720945  1
  Zr  Zr6  1  0.751337  0.000366  0.279055  1
  Zr  Zr7  1  0.248853  0.721189  0.999996  1
  Zr  Zr8  1  0.248391  0.278760  0.284348  1
  Zr  Zr9  1  0.248392  0.994416  0.715652  1
  Cd  Cd10  1  0.498016  0.000010  0.000000  1
  Sn  Sn11  1  0.252131  0.617375  0.618285  1
  Sn  Sn12  1  0.252122  0.999094  0.381721  1
  Sn  Sn13  1  0.001833  0.999868  0.999998  1
  Bi  Bi14  1  0.747931  0.616154  0.000003  1
  Bi  Bi15  1  0.747439  0.385197  0.384151  1
  Bi  Bi16  1  0.747440  0.001041  0.615849  1
  Bi  Bi17  1  0.252485  0.382272  0.000004  1
