# generated using pymatgen
data_Li4Ni9MoAs6P
_symmetry_space_group_name_H-M   'P 1'
_cell_length_a   9.42037084
_cell_length_b   9.41039347
_cell_length_c   3.70663500
_cell_angle_alpha   90.00000000
_cell_angle_beta   90.00000000
_cell_angle_gamma   120.39619659
_symmetry_Int_Tables_number   1
_chemical_formula_structural   Li4Ni9MoAs6P
_chemical_formula_sum   'Li4 Ni9 Mo1 As6 P1'
_cell_volume   283.42522742
_cell_formula_units_Z   1
loop_
 _symmetry_equiv_pos_site_id
 _symmetry_equiv_pos_as_xyz
  1  'x, y, z'
loop_
 _atom_site_type_symbol
 _atom_site_label
 _atom_site_symmetry_multiplicity
 _atom_site_fract_x
 _atom_site_fract_y
 _atom_site_fract_z
 _atom_site_occupancy
  Li  Li0  1  0.440583  0.210613  0.500000  1
  Li  Li1  1  0.788760  0.232217  0.500000  1
  Li  Li2  1  0.349890  0.664377  0.000000  1
  Li  Li3  1  0.997794  0.004756  0.500000  1
  Ni  Ni4  1  0.289249  0.390110  0.500000  1
  Ni  Ni5  1  0.616324  0.886372  0.500000  1
  Ni  Ni6  1  0.097471  0.721572  0.500000  1
  Ni  Ni7  1  0.500602  0.458661  0.000000  1
  Ni  Ni8  1  0.547018  0.044069  0.000000  1
  Ni  Ni9  1  0.955082  0.501454  0.000000  1
  Ni  Ni10  1  0.711215  0.757605  0.000000  1
  Ni  Ni11  1  0.237226  0.959680  0.000000  1
  Ni  Ni12  1  0.043888  0.283901  0.000000  1
  Mo  Mo13  1  0.755521  0.549961  0.500000  1
  As  As14  1  0.960504  0.759591  0.000000  1
  As  As15  1  0.241276  0.209773  0.000000  1
  As  As16  1  0.792180  0.034812  0.000000  1
  As  As17  1  0.666823  0.332422  0.000000  1
  As  As18  1  0.374486  0.909312  0.500000  1
  As  As19  1  0.090612  0.468078  0.500000  1
  P  P20  1  0.543496  0.620666  0.500000  1
