# generated using pymatgen
data_Na13Hg5
_symmetry_space_group_name_H-M   'P 1'
_cell_length_a   16.28526026
_cell_length_b   16.28525988
_cell_length_c   6.98706385
_cell_angle_alpha   103.15509048
_cell_angle_beta   103.15509112
_cell_angle_gamma   16.87040927
_symmetry_Int_Tables_number   1
_chemical_formula_structural   Na13Hg5
_chemical_formula_sum   'Na13 Hg5'
_cell_volume   523.33928197
_cell_formula_units_Z   1
loop_
 _symmetry_equiv_pos_site_id
 _symmetry_equiv_pos_as_xyz
  1  'x, y, z'
loop_
 _atom_site_type_symbol
 _atom_site_label
 _atom_site_symmetry_multiplicity
 _atom_site_fract_x
 _atom_site_fract_y
 _atom_site_fract_z
 _atom_site_occupancy
  Na  Na0  1  0.114492  0.114492  0.116654  1
  Na  Na1  1  0.222314  0.222314  0.111405  1
  Na  Na2  1  0.343061  0.343061  0.214722  1
  Na  Na3  1  0.450774  0.450774  0.184656  1
  Na  Na4  1  0.563372  0.563372  0.316146  1
  Na  Na5  1  0.787794  0.787794  0.416035  1
  Na  Na6  1  0.000000  0.000000  0.500000  1
  Na  Na7  1  0.212206  0.212206  0.583966  1
  Na  Na8  1  0.436628  0.436628  0.683854  1
  Na  Na9  1  0.549226  0.549226  0.815343  1
  Na  Na10  1  0.656938  0.656938  0.785278  1
  Na  Na11  1  0.777685  0.777685  0.888594  1
  Na  Na12  1  0.885509  0.885509  0.883347  1
  Hg  Hg13  1  0.000000  0.000000  0.000000  1
  Hg  Hg14  1  0.677305  0.677305  0.298655  1
  Hg  Hg15  1  0.900380  0.900380  0.387928  1
  Hg  Hg16  1  0.099620  0.099620  0.612073  1
  Hg  Hg17  1  0.322695  0.322695  0.701345  1
