# generated using pymatgen
data_Er5(FeB3)2
_symmetry_space_group_name_H-M   'P 1'
_cell_length_a   5.38518816
_cell_length_b   5.38518810
_cell_length_c   8.17279313
_cell_angle_alpha   70.76409496
_cell_angle_beta   70.76409791
_cell_angle_gamma   59.99999523
_symmetry_Int_Tables_number   1
_chemical_formula_structural   Er5(FeB3)2
_chemical_formula_sum   'Er5 Fe2 B6'
_cell_volume   189.82616946
_cell_formula_units_Z   1
loop_
 _symmetry_equiv_pos_site_id
 _symmetry_equiv_pos_as_xyz
  1  'x, y, z'
loop_
 _atom_site_type_symbol
 _atom_site_label
 _atom_site_symmetry_multiplicity
 _atom_site_fract_x
 _atom_site_fract_y
 _atom_site_fract_z
 _atom_site_occupancy
  Er  Er0  1  0.000000  0.000000  0.000000  1
  Er  Er1  1  0.748806  0.748806  0.753582  1
  Er  Er2  1  0.251194  0.251194  0.246418  1
  Er  Er3  1  0.583444  0.583444  0.249669  1
  Er  Er4  1  0.416556  0.416556  0.750331  1
  Fe  Fe5  1  0.882794  0.882794  0.351618  1
  Fe  Fe6  1  0.117206  0.117206  0.648382  1
  B  B7  1  0.500000  0.168450  0.500000  1
  B  B8  1  0.831550  0.500000  0.500000  1
  B  B9  1  0.168450  0.831550  0.500000  1
  B  B10  1  0.168450  0.500000  0.500000  1
  B  B11  1  0.831550  0.168450  0.500000  1
  B  B12  1  0.500000  0.831550  0.500000  1
