# generated using pymatgen
data_Tb3Dy5(ReI4)2
_symmetry_space_group_name_H-M   'P 1'
_cell_length_a   11.67807226
_cell_length_b   11.67638978
_cell_length_c   6.19666900
_cell_angle_alpha   90.04331880
_cell_angle_beta   90.05439092
_cell_angle_gamma   89.96287686
_symmetry_Int_Tables_number   1
_chemical_formula_structural   Tb3Dy5(ReI4)2
_chemical_formula_sum   'Tb3 Dy5 Re2 I8'
_cell_volume   844.96287980
_cell_formula_units_Z   1
loop_
 _symmetry_equiv_pos_site_id
 _symmetry_equiv_pos_as_xyz
  1  'x, y, z'
loop_
 _atom_site_type_symbol
 _atom_site_label
 _atom_site_symmetry_multiplicity
 _atom_site_fract_x
 _atom_site_fract_y
 _atom_site_fract_z
 _atom_site_occupancy
  Tb  Tb0  1  0.806450  0.079945  0.001055  1
  Tb  Tb1  1  0.079941  0.806417  0.501089  1
  Tb  Tb2  1  0.079603  0.193531  0.000988  1
  Dy  Dy3  1  0.192141  0.078874  0.501083  1
  Dy  Dy4  1  0.920909  0.807944  0.998831  1
  Dy  Dy5  1  0.920695  0.191983  0.498643  1
  Dy  Dy6  1  0.192119  0.920722  0.998696  1
  Dy  Dy7  1  0.807988  0.920808  0.498815  1
  Re  Re8  1  0.000187  0.999831  0.249922  1
  Re  Re9  1  0.999839  0.000164  0.749912  1
  I  I10  1  0.653752  0.143758  0.488880  1
  I  I11  1  0.854736  0.654778  0.506788  1
  I  I12  1  0.345655  0.144279  0.993238  1
  I  I13  1  0.144705  0.345102  0.493450  1
  I  I14  1  0.654823  0.854712  0.006775  1
  I  I15  1  0.346764  0.856544  0.511439  1
  I  I16  1  0.143832  0.653662  0.988882  1
  I  I17  1  0.855860  0.346949  0.011515  1
