# generated using pymatgen
data_Ho5Ru2Pb
_symmetry_space_group_name_H-M   'P 1'
_cell_length_a   8.78733317
_cell_length_b   8.78733201
_cell_length_c   8.78733191
_cell_angle_alpha   127.99258061
_cell_angle_beta   127.99256420
_cell_angle_gamma   76.63705734
_symmetry_Int_Tables_number   1
_chemical_formula_structural   Ho5Ru2Pb
_chemical_formula_sum   'Ho10 Ru4 Pb2'
_cell_volume   409.32235179
_cell_formula_units_Z   2
loop_
 _symmetry_equiv_pos_site_id
 _symmetry_equiv_pos_as_xyz
  1  'x, y, z'
loop_
 _atom_site_type_symbol
 _atom_site_label
 _atom_site_symmetry_multiplicity
 _atom_site_fract_x
 _atom_site_fract_y
 _atom_site_fract_z
 _atom_site_occupancy
  Ho  Ho0  1  0.000000  0.000000  0.000000  1
  Ho  Ho1  1  0.500000  0.500000  0.000000  1
  Ho  Ho2  1  0.787178  0.287178  0.814299  1
  Ho  Ho3  1  0.212822  0.712822  0.185701  1
  Ho  Ho4  1  0.472879  0.972879  0.185701  1
  Ho  Ho5  1  0.287178  0.472879  0.500000  1
  Ho  Ho6  1  0.027121  0.212822  0.500000  1
  Ho  Ho7  1  0.527121  0.027121  0.814299  1
  Ho  Ho8  1  0.712822  0.527121  0.500000  1
  Ho  Ho9  1  0.972879  0.787178  0.500000  1
  Ru  Ru10  1  0.142729  0.642729  0.785458  1
  Ru  Ru11  1  0.857271  0.357271  0.214542  1
  Ru  Ru12  1  0.642729  0.857271  0.500000  1
  Ru  Ru13  1  0.357271  0.142729  0.500000  1
  Pb  Pb14  1  0.250000  0.250000  0.000000  1
  Pb  Pb15  1  0.750000  0.750000  0.000000  1
