# generated using pymatgen
data_La3Yb9ZnRu3
_symmetry_space_group_name_H-M   'P 1'
_cell_length_a   6.53000335
_cell_length_b   7.65025145
_cell_length_c   9.69071200
_cell_angle_alpha   90.00000000
_cell_angle_beta   90.00000000
_cell_angle_gamma   90.48953645
_symmetry_Int_Tables_number   1
_chemical_formula_structural   La3Yb9ZnRu3
_chemical_formula_sum   'La3 Yb9 Zn1 Ru3'
_cell_volume   484.09316299
_cell_formula_units_Z   1
loop_
 _symmetry_equiv_pos_site_id
 _symmetry_equiv_pos_as_xyz
  1  'x, y, z'
loop_
 _atom_site_type_symbol
 _atom_site_label
 _atom_site_symmetry_multiplicity
 _atom_site_fract_x
 _atom_site_fract_y
 _atom_site_fract_z
 _atom_site_occupancy
  La  La0  1  0.605423  0.063786  0.250000  1
  La  La1  1  0.134064  0.445408  0.750000  1
  La  La2  1  0.360190  0.941308  0.750000  1
  Yb  Yb3  1  0.352930  0.658964  0.062397  1
  Yb  Yb4  1  0.156340  0.183370  0.441089  1
  Yb  Yb5  1  0.661806  0.329220  0.570423  1
  Yb  Yb6  1  0.834714  0.830487  0.927213  1
  Yb  Yb7  1  0.661806  0.329220  0.929577  1
  Yb  Yb8  1  0.834714  0.830487  0.572787  1
  Yb  Yb9  1  0.352930  0.658964  0.437603  1
  Yb  Yb10  1  0.156340  0.183370  0.058911  1
  Yb  Yb11  1  0.861555  0.525152  0.250000  1
  Zn  Zn12  1  0.053616  0.880992  0.250000  1
  Ru  Ru13  1  0.471347  0.351777  0.250000  1
  Ru  Ru14  1  0.990528  0.143594  0.750000  1
  Ru  Ru15  1  0.511696  0.643901  0.750000  1
