# generated using pymatgen
data_Li3Zr(B4Ru5)2
_symmetry_space_group_name_H-M   'P 1'
_cell_length_a   2.98374300
_cell_length_b   8.23335995
_cell_length_c   9.92753846
_cell_angle_alpha   89.22649306
_cell_angle_beta   90.00000000
_cell_angle_gamma   90.00000000
_symmetry_Int_Tables_number   1
_chemical_formula_structural   Li3Zr(B4Ru5)2
_chemical_formula_sum   'Li3 Zr1 B8 Ru10'
_cell_volume   243.85996996
_cell_formula_units_Z   1
loop_
 _symmetry_equiv_pos_site_id
 _symmetry_equiv_pos_as_xyz
  1  'x, y, z'
loop_
 _atom_site_type_symbol
 _atom_site_label
 _atom_site_symmetry_multiplicity
 _atom_site_fract_x
 _atom_site_fract_y
 _atom_site_fract_z
 _atom_site_occupancy
  Li  Li0  1  0.500000  0.855031  0.143904  1
  Li  Li1  1  0.500000  0.120369  0.767908  1
  Li  Li2  1  0.500000  0.621849  0.720060  1
  Zr  Zr3  1  0.500000  0.351951  0.327983  1
  B  B4  1  0.500000  0.949735  0.587492  1
  B  B5  1  0.500000  0.037349  0.406072  1
  B  B6  1  0.500000  0.859778  0.895623  1
  B  B7  1  0.500000  0.147554  0.094588  1
  B  B8  1  0.500000  0.656709  0.407435  1
  B  B9  1  0.500000  0.355559  0.619070  1
  B  B10  1  0.500000  0.462307  0.917918  1
  B  B11  1  0.500000  0.553293  0.097616  1
  Ru  Ru12  1  0.000000  0.664099  0.956105  1
  Ru  Ru13  1  0.000000  0.353274  0.060916  1
  Ru  Ru14  1  0.000000  0.849107  0.452045  1
  Ru  Ru15  1  0.000000  0.161321  0.544366  1
  Ru  Ru16  1  0.000000  0.037088  0.968989  1
  Ru  Ru17  1  0.000000  0.363509  0.780775  1
  Ru  Ru18  1  0.000000  0.619460  0.246544  1
  Ru  Ru19  1  0.000000  0.513690  0.520265  1
  Ru  Ru20  1  0.000000  0.876410  0.733121  1
  Ru  Ru21  1  0.000000  0.090559  0.251205  1
