# generated using pymatgen
data_ErU3(SnRh2)4
_symmetry_space_group_name_H-M   'P 1'
_cell_length_a   4.49084500
_cell_length_b   6.92358355
_cell_length_c   9.81107843
_cell_angle_alpha   91.83059300
_cell_angle_beta   90.00000000
_cell_angle_gamma   90.00000000
_symmetry_Int_Tables_number   1
_chemical_formula_structural   ErU3(SnRh2)4
_chemical_formula_sum   'Er1 U3 Sn4 Rh8'
_cell_volume   304.89763143
_cell_formula_units_Z   1
loop_
 _symmetry_equiv_pos_site_id
 _symmetry_equiv_pos_as_xyz
  1  'x, y, z'
loop_
 _atom_site_type_symbol
 _atom_site_label
 _atom_site_symmetry_multiplicity
 _atom_site_fract_x
 _atom_site_fract_y
 _atom_site_fract_z
 _atom_site_occupancy
  Er  Er0  1  0.250000  0.305600  0.102879  1
  U  U1  1  0.750000  0.697531  0.897952  1
  U  U2  1  0.750000  0.804810  0.401650  1
  U  U3  1  0.250000  0.197209  0.597170  1
  Sn  Sn4  1  0.250000  0.786889  0.136526  1
  Sn  Sn5  1  0.750000  0.218168  0.870872  1
  Sn  Sn6  1  0.750000  0.284473  0.350682  1
  Sn  Sn7  1  0.250000  0.717287  0.639504  1
  Rh  Rh8  1  0.250000  0.525190  0.389061  1
  Rh  Rh9  1  0.750000  0.473806  0.607678  1
  Rh  Rh10  1  0.750000  0.018028  0.113039  1
  Rh  Rh11  1  0.250000  0.971919  0.888770  1
  Rh  Rh12  1  0.250000  0.064988  0.338188  1
  Rh  Rh13  1  0.750000  0.928670  0.674995  1
  Rh  Rh14  1  0.750000  0.583914  0.179758  1
  Rh  Rh15  1  0.250000  0.421517  0.811277  1
