# generated using pymatgen
data_Pr4HoTm3Pt4
_symmetry_space_group_name_H-M   'P 1'
_cell_length_a   4.87741900
_cell_length_b   7.32354629
_cell_length_c   8.94855700
_cell_angle_alpha   89.83794376
_cell_angle_beta   90.00000000
_cell_angle_gamma   90.00000000
_symmetry_Int_Tables_number   1
_chemical_formula_structural   Pr4HoTm3Pt4
_chemical_formula_sum   'Pr4 Ho1 Tm3 Pt4'
_cell_volume   319.64121186
_cell_formula_units_Z   1
loop_
 _symmetry_equiv_pos_site_id
 _symmetry_equiv_pos_as_xyz
  1  'x, y, z'
loop_
 _atom_site_type_symbol
 _atom_site_label
 _atom_site_symmetry_multiplicity
 _atom_site_fract_x
 _atom_site_fract_y
 _atom_site_fract_z
 _atom_site_occupancy
  Pr  Pr0  1  0.250000  0.990364  0.327921  1
  Pr  Pr1  1  0.250000  0.487718  0.172161  1
  Pr  Pr2  1  0.750000  0.011277  0.674137  1
  Pr  Pr3  1  0.750000  0.511787  0.826396  1
  Ho  Ho4  1  0.750000  0.642306  0.421159  1
  Tm  Tm5  1  0.250000  0.858964  0.923185  1
  Tm  Tm6  1  0.250000  0.357992  0.578043  1
  Tm  Tm7  1  0.750000  0.141046  0.077107  1
  Pt  Pt8  1  0.250000  0.242178  0.911185  1
  Pt  Pt9  1  0.250000  0.742115  0.590373  1
  Pt  Pt10  1  0.750000  0.757668  0.086261  1
  Pt  Pt11  1  0.750000  0.256588  0.412073  1
