# generated using pymatgen
data_Pr7Nd3(IrRu)2
_symmetry_space_group_name_H-M   'P 1'
_cell_length_a   9.02479713
_cell_length_b   9.03073970
_cell_length_c   7.38976740
_cell_angle_alpha   83.71997316
_cell_angle_beta   83.66057869
_cell_angle_gamma   43.31392431
_symmetry_Int_Tables_number   1
_chemical_formula_structural   Pr7Nd3(IrRu)2
_chemical_formula_sum   'Pr7 Nd3 Ir2 Ru2'
_cell_volume   410.25545307
_cell_formula_units_Z   1
loop_
 _symmetry_equiv_pos_site_id
 _symmetry_equiv_pos_as_xyz
  1  'x, y, z'
loop_
 _atom_site_type_symbol
 _atom_site_label
 _atom_site_symmetry_multiplicity
 _atom_site_fract_x
 _atom_site_fract_y
 _atom_site_fract_z
 _atom_site_occupancy
  Pr  Pr0  1  0.014675  0.799802  0.918147  1
  Pr  Pr1  1  0.199770  0.985829  0.581924  1
  Pr  Pr2  1  0.981491  0.203359  0.085612  1
  Pr  Pr3  1  0.796382  0.018667  0.414433  1
  Pr  Pr4  1  0.358865  0.209663  0.815607  1
  Pr  Pr5  1  0.790749  0.640824  0.684088  1
  Pr  Pr6  1  0.645235  0.789008  0.186262  1
  Nd  Nd7  1  0.211345  0.355305  0.314435  1
  Nd  Nd8  1  0.569377  0.430616  0.749973  1
  Nd  Nd9  1  0.428798  0.570773  0.249991  1
  Ir  Ir10  1  0.179940  0.595752  0.574346  1
  Ir  Ir11  1  0.403472  0.820137  0.924866  1
  Ru  Ru12  1  0.822041  0.401230  0.426842  1
  Ru  Ru13  1  0.597861  0.179036  0.073474  1
