# generated using pymatgen
data_Ta4VGa3N
_symmetry_space_group_name_H-M   'P 1'
_cell_length_a   7.63120100
_cell_length_b   7.63120131
_cell_length_c   5.25969100
_cell_angle_alpha   90.00000000
_cell_angle_beta   90.00000000
_cell_angle_gamma   120.00000298
_symmetry_Int_Tables_number   1
_chemical_formula_structural   Ta4VGa3N
_chemical_formula_sum   'Ta8 V2 Ga6 N2'
_cell_volume   265.26298505
_cell_formula_units_Z   2
loop_
 _symmetry_equiv_pos_site_id
 _symmetry_equiv_pos_as_xyz
  1  'x, y, z'
loop_
 _atom_site_type_symbol
 _atom_site_label
 _atom_site_symmetry_multiplicity
 _atom_site_fract_x
 _atom_site_fract_y
 _atom_site_fract_z
 _atom_site_occupancy
  Ta  Ta0  1  0.233478  0.000000  0.253406  1
  Ta  Ta1  1  0.766522  0.000000  0.746594  1
  Ta  Ta2  1  0.000000  0.233478  0.253406  1
  Ta  Ta3  1  0.000000  0.766522  0.746594  1
  Ta  Ta4  1  0.766522  0.766522  0.253406  1
  Ta  Ta5  1  0.233478  0.233478  0.746594  1
  Ta  Ta6  1  0.666667  0.333333  0.500000  1
  Ta  Ta7  1  0.333333  0.666667  0.500000  1
  V  V8  1  0.333333  0.666667  0.000000  1
  V  V9  1  0.666667  0.333333  0.000000  1
  Ga  Ga10  1  0.590359  0.000000  0.234103  1
  Ga  Ga11  1  0.409641  0.000000  0.765897  1
  Ga  Ga12  1  0.000000  0.590359  0.234103  1
  Ga  Ga13  1  0.000000  0.409641  0.765897  1
  Ga  Ga14  1  0.409641  0.409641  0.234103  1
  Ga  Ga15  1  0.590359  0.590359  0.765897  1
  N  N16  1  0.000000  0.000000  0.000000  1
  N  N17  1  0.000000  0.000000  0.500000  1
