# generated using pymatgen
data_HoHfMn5(CoP)7
_symmetry_space_group_name_H-M   'P 1'
_cell_length_a   9.03988526
_cell_length_b   9.00886980
_cell_length_c   3.58775400
_cell_angle_alpha   90.00000000
_cell_angle_beta   90.00000000
_cell_angle_gamma   120.03295921
_symmetry_Int_Tables_number   1
_chemical_formula_structural   HoHfMn5(CoP)7
_chemical_formula_sum   'Ho1 Hf1 Mn5 Co7 P7'
_cell_volume   252.95436876
_cell_formula_units_Z   1
loop_
 _symmetry_equiv_pos_site_id
 _symmetry_equiv_pos_as_xyz
  1  'x, y, z'
loop_
 _atom_site_type_symbol
 _atom_site_label
 _atom_site_symmetry_multiplicity
 _atom_site_fract_x
 _atom_site_fract_y
 _atom_site_fract_z
 _atom_site_occupancy
  Ho  Ho0  1  0.333543  0.666858  0.500000  1
  Hf  Hf1  1  0.667130  0.332278  0.000000  1
  Mn  Mn2  1  0.841909  0.121656  0.000000  1
  Mn  Mn3  1  0.878200  0.719837  0.000000  1
  Mn  Mn4  1  0.102805  0.225083  0.500000  1
  Mn  Mn5  1  0.771095  0.877101  0.500000  1
  Mn  Mn6  1  0.120957  0.895585  0.500000  1
  Co  Co7  1  0.060933  0.431284  0.000000  1
  Co  Co8  1  0.568376  0.628632  0.000000  1
  Co  Co9  1  0.372778  0.941340  0.000000  1
  Co  Co10  1  0.280006  0.160291  0.000000  1
  Co  Co11  1  0.444075  0.385612  0.500000  1
  Co  Co12  1  0.613812  0.057406  0.500000  1
  Co  Co13  1  0.943699  0.557093  0.500000  1
  P  P14  1  0.300052  0.412177  0.000000  1
  P  P15  1  0.587806  0.888113  0.000000  1
  P  P16  1  0.113701  0.701202  0.000000  1
  P  P17  1  0.409286  0.120289  0.500000  1
  P  P18  1  0.877083  0.288358  0.500000  1
  P  P19  1  0.711623  0.588572  0.500000  1
  P  P20  1  0.001128  0.001238  0.000000  1
