# generated using pymatgen
data_TbTm2(NiIr2)3
_symmetry_space_group_name_H-M   'P 1'
_cell_length_a   5.29379478
_cell_length_b   5.29379493
_cell_length_c   8.74841015
_cell_angle_alpha   72.38871598
_cell_angle_beta   72.38871562
_cell_angle_gamma   60.00001243
_symmetry_Int_Tables_number   1
_chemical_formula_structural   TbTm2(NiIr2)3
_chemical_formula_sum   'Tb1 Tm2 Ni3 Ir6'
_cell_volume   198.94257475
_cell_formula_units_Z   1
loop_
 _symmetry_equiv_pos_site_id
 _symmetry_equiv_pos_as_xyz
  1  'x, y, z'
loop_
 _atom_site_type_symbol
 _atom_site_label
 _atom_site_symmetry_multiplicity
 _atom_site_fract_x
 _atom_site_fract_y
 _atom_site_fract_z
 _atom_site_occupancy
  Tb  Tb0  1  0.000000  0.000000  0.000000  1
  Tm  Tm1  1  0.140477  0.140477  0.578571  1
  Tm  Tm2  1  0.859523  0.859523  0.421429  1
  Ni  Ni3  1  0.333077  0.333077  0.000767  1
  Ni  Ni4  1  0.666923  0.666923  0.999233  1
  Ni  Ni5  1  0.500000  0.500000  0.500000  1
  Ir  Ir6  1  0.081013  0.583032  0.752923  1
  Ir  Ir7  1  0.583032  0.583032  0.752923  1
  Ir  Ir8  1  0.583032  0.081013  0.752923  1
  Ir  Ir9  1  0.918987  0.416968  0.247077  1
  Ir  Ir10  1  0.416968  0.416968  0.247077  1
  Ir  Ir11  1  0.416968  0.918987  0.247077  1
