# generated using pymatgen
data_Tc(SeBr2)2
_symmetry_space_group_name_H-M   'P 1'
_cell_length_a   10.92022306
_cell_length_b   10.92022282
_cell_length_c   10.92022274
_cell_angle_alpha   115.71335734
_cell_angle_beta   115.71335616
_cell_angle_gamma   97.60030879
_symmetry_Int_Tables_number   1
_chemical_formula_structural   Tc(SeBr2)2
_chemical_formula_sum   'Tc4 Se8 Br16'
_cell_volume   971.22692841
_cell_formula_units_Z   4
loop_
 _symmetry_equiv_pos_site_id
 _symmetry_equiv_pos_as_xyz
  1  'x, y, z'
loop_
 _atom_site_type_symbol
 _atom_site_label
 _atom_site_symmetry_multiplicity
 _atom_site_fract_x
 _atom_site_fract_y
 _atom_site_fract_z
 _atom_site_occupancy
  Tc  Tc0  1  0.565136  0.212461  0.417048  1
  Tc  Tc1  1  0.795412  0.148089  0.582952  1
  Tc  Tc2  1  0.851911  0.434864  0.647324  1
  Tc  Tc3  1  0.787539  0.204588  0.352676  1
  Se  Se4  1  0.362188  0.318075  0.419361  1
  Se  Se5  1  0.898714  0.942827  0.580639  1
  Se  Se6  1  0.057173  0.637812  0.955887  1
  Se  Se7  1  0.681925  0.101286  0.044113  1
  Se  Se8  1  0.702156  0.318763  0.710111  1
  Se  Se9  1  0.608652  0.992046  0.289889  1
  Se  Se10  1  0.007954  0.297844  0.616608  1
  Se  Se11  1  0.681237  0.391348  0.383392  1
  Br  Br12  1  0.404191  0.446062  0.688556  1
  Br  Br13  1  0.757506  0.715635  0.311444  1
  Br  Br14  1  0.284365  0.595809  0.041872  1
  Br  Br15  1  0.553938  0.242494  0.958128  1
  Br  Br16  1  0.356798  0.055825  0.410848  1
  Br  Br17  1  0.644977  0.945951  0.589152  1
  Br  Br18  1  0.054049  0.643202  0.699026  1
  Br  Br19  1  0.944175  0.355023  0.300974  1
  Br  Br20  1  0.341984  0.124520  0.130220  1
  Br  Br21  1  0.994300  0.211765  0.869780  1
  Br  Br22  1  0.788235  0.658016  0.782534  1
  Br  Br23  1  0.875480  0.005700  0.217466  1
  Br  Br24  1  0.398510  0.528980  0.397562  1
  Br  Br25  1  0.131420  0.000948  0.602438  1
  Br  Br26  1  0.999052  0.601490  0.130471  1
  Br  Br27  1  0.471020  0.868580  0.869529  1
