# generated using pymatgen
data_Nd16Cd4PdRu3
_symmetry_space_group_name_H-M   'P 1'
_cell_length_a   9.93312536
_cell_length_b   9.96743650
_cell_length_c   9.96743700
_cell_angle_alpha   60.00000165
_cell_angle_beta   59.88567125
_cell_angle_gamma   59.88567455
_symmetry_Int_Tables_number   1
_chemical_formula_structural   Nd16Cd4PdRu3
_chemical_formula_sum   'Nd16 Cd4 Pd1 Ru3'
_cell_volume   696.60285700
_cell_formula_units_Z   1
loop_
 _symmetry_equiv_pos_site_id
 _symmetry_equiv_pos_as_xyz
  1  'x, y, z'
loop_
 _atom_site_type_symbol
 _atom_site_label
 _atom_site_symmetry_multiplicity
 _atom_site_fract_x
 _atom_site_fract_y
 _atom_site_fract_z
 _atom_site_occupancy
  Nd  Nd0  1  0.343052  0.351310  0.351310  1
  Nd  Nd1  1  0.343052  0.351310  0.954328  1
  Nd  Nd2  1  0.343052  0.954328  0.351310  1
  Nd  Nd3  1  0.960304  0.346565  0.346565  1
  Nd  Nd4  1  0.815867  0.190472  0.190472  1
  Nd  Nd5  1  0.190531  0.810399  0.810399  1
  Nd  Nd6  1  0.190531  0.810399  0.188671  1
  Nd  Nd7  1  0.815867  0.190472  0.803190  1
  Nd  Nd8  1  0.190531  0.188671  0.810399  1
  Nd  Nd9  1  0.815867  0.803190  0.190472  1
  Nd  Nd10  1  0.936525  0.562698  0.562698  1
  Nd  Nd11  1  0.558735  0.937865  0.937865  1
  Nd  Nd12  1  0.558735  0.937865  0.565536  1
  Nd  Nd13  1  0.936525  0.562698  0.938079  1
  Nd  Nd14  1  0.558735  0.565536  0.937865  1
  Nd  Nd15  1  0.936525  0.938079  0.562698  1
  Cd  Cd16  1  0.580179  0.579701  0.579701  1
  Cd  Cd17  1  0.580179  0.579701  0.260419  1
  Cd  Cd18  1  0.580179  0.260419  0.579701  1
  Cd  Cd19  1  0.260490  0.579837  0.579837  1
  Pd  Pd20  1  0.575485  0.141505  0.141505  1
  Ru  Ru21  1  0.143019  0.138256  0.138256  1
  Ru  Ru22  1  0.143019  0.138256  0.580468  1
  Ru  Ru23  1  0.143019  0.580468  0.138256  1
