# generated using pymatgen
data_Y9Ho7Cd4Co3Ru
_symmetry_space_group_name_H-M   'P 1'
_cell_length_a   9.54713589
_cell_length_b   9.50711929
_cell_length_c   9.51252486
_cell_angle_alpha   60.05763724
_cell_angle_beta   59.99809234
_cell_angle_gamma   60.11306870
_symmetry_Int_Tables_number   1
_chemical_formula_structural   Y9Ho7Cd4Co3Ru
_chemical_formula_sum   'Y9 Ho7 Cd4 Co3 Ru1'
_cell_volume   611.30149468
_cell_formula_units_Z   1
loop_
 _symmetry_equiv_pos_site_id
 _symmetry_equiv_pos_as_xyz
  1  'x, y, z'
loop_
 _atom_site_type_symbol
 _atom_site_label
 _atom_site_symmetry_multiplicity
 _atom_site_fract_x
 _atom_site_fract_y
 _atom_site_fract_z
 _atom_site_occupancy
  Y  Y0  1  0.938633  0.938253  0.561606  1
  Y  Y1  1  0.814262  0.188732  0.187860  1
  Y  Y2  1  0.938666  0.561648  0.563117  1
  Y  Y3  1  0.937966  0.561375  0.937786  1
  Y  Y4  1  0.815280  0.807468  0.186723  1
  Y  Y5  1  0.342125  0.349013  0.349787  1
  Y  Y6  1  0.561811  0.940286  0.940198  1
  Y  Y7  1  0.563096  0.939320  0.559424  1
  Y  Y8  1  0.189115  0.810791  0.810762  1
  Ho  Ho9  1  0.188224  0.187818  0.810974  1
  Ho  Ho10  1  0.341370  0.349936  0.959494  1
  Ho  Ho11  1  0.341635  0.960339  0.349805  1
  Ho  Ho12  1  0.814951  0.187339  0.807460  1
  Ho  Ho13  1  0.562842  0.556793  0.940691  1
  Ho  Ho14  1  0.189132  0.810661  0.187598  1
  Ho  Ho15  1  0.964431  0.346135  0.346559  1
  Cd  Cd16  1  0.580936  0.580369  0.257869  1
  Cd  Cd17  1  0.258297  0.580533  0.580544  1
  Cd  Cd18  1  0.579890  0.580018  0.579897  1
  Cd  Cd19  1  0.580833  0.258421  0.580271  1
  Co  Co20  1  0.141055  0.140449  0.141093  1
  Co  Co21  1  0.141458  0.577202  0.143008  1
  Co  Co22  1  0.138220  0.143476  0.578893  1
  Ru  Ru23  1  0.575777  0.143630  0.138588  1
