# generated using pymatgen
data_Nd8AlSi12Rh2Au
_symmetry_space_group_name_H-M   'P 1'
_cell_length_a   8.26382900
_cell_length_b   8.26382802
_cell_length_c   8.53988600
_cell_angle_alpha   90.00000000
_cell_angle_beta   90.00000000
_cell_angle_gamma   119.99999993
_symmetry_Int_Tables_number   1
_chemical_formula_structural   Nd8AlSi12Rh2Au
_chemical_formula_sum   'Nd8 Al1 Si12 Rh2 Au1'
_cell_volume   505.06270160
_cell_formula_units_Z   1
loop_
 _symmetry_equiv_pos_site_id
 _symmetry_equiv_pos_as_xyz
  1  'x, y, z'
loop_
 _atom_site_type_symbol
 _atom_site_label
 _atom_site_symmetry_multiplicity
 _atom_site_fract_x
 _atom_site_fract_y
 _atom_site_fract_z
 _atom_site_occupancy
  Nd  Nd0  1  0.000000  0.000000  0.750440  1
  Nd  Nd1  1  0.000000  0.000000  0.249656  1
  Nd  Nd2  1  0.496082  0.503918  0.748744  1
  Nd  Nd3  1  0.496082  0.992165  0.748744  1
  Nd  Nd4  1  0.007835  0.503918  0.748744  1
  Nd  Nd5  1  0.496958  0.503042  0.251278  1
  Nd  Nd6  1  0.006083  0.503042  0.251278  1
  Nd  Nd7  1  0.496958  0.993917  0.251278  1
  Al  Al8  1  0.666667  0.333333  0.501331  1
  Si  Si9  1  0.838665  0.161335  0.000317  1
  Si  Si10  1  0.838665  0.677329  0.000317  1
  Si  Si11  1  0.322671  0.161335  0.000317  1
  Si  Si12  1  0.838038  0.161962  0.499939  1
  Si  Si13  1  0.838038  0.676078  0.499939  1
  Si  Si14  1  0.323922  0.161962  0.499939  1
  Si  Si15  1  0.169768  0.830232  0.500171  1
  Si  Si16  1  0.660464  0.830232  0.500171  1
  Si  Si17  1  0.169768  0.339536  0.500171  1
  Si  Si18  1  0.169027  0.830973  0.999764  1
  Si  Si19  1  0.661944  0.830973  0.999764  1
  Si  Si20  1  0.169027  0.338056  0.999764  1
  Rh  Rh21  1  0.333333  0.666667  0.497809  1
  Rh  Rh22  1  0.333333  0.666667  0.001218  1
  Au  Au23  1  0.666667  0.333333  0.998907  1
