# generated using pymatgen
data_Dy4ReSi4Ir
_symmetry_space_group_name_H-M   'P 1'
_cell_length_a   5.75730050
_cell_length_b   5.75730088
_cell_length_c   10.08977391
_cell_angle_alpha   63.08969883
_cell_angle_beta   63.08969860
_cell_angle_gamma   43.16154552
_symmetry_Int_Tables_number   1
_chemical_formula_structural   Dy4ReSi4Ir
_chemical_formula_sum   'Dy4 Re1 Si4 Ir1'
_cell_volume   199.85062314
_cell_formula_units_Z   1
loop_
 _symmetry_equiv_pos_site_id
 _symmetry_equiv_pos_as_xyz
  1  'x, y, z'
loop_
 _atom_site_type_symbol
 _atom_site_label
 _atom_site_symmetry_multiplicity
 _atom_site_fract_x
 _atom_site_fract_y
 _atom_site_fract_z
 _atom_site_occupancy
  Dy  Dy0  1  0.007103  0.007103  0.320146  1
  Dy  Dy1  1  0.989576  0.989576  0.680240  1
  Dy  Dy2  1  0.816420  0.816420  0.109482  1
  Dy  Dy3  1  0.186467  0.186467  0.888602  1
  Re  Re4  1  0.272474  0.272474  0.374631  1
  Si  Si5  1  0.643431  0.643431  0.439477  1
  Si  Si6  1  0.358282  0.358282  0.561708  1
  Si  Si7  1  0.503726  0.503726  0.122481  1
  Si  Si8  1  0.494231  0.494231  0.875664  1
  Ir  Ir9  1  0.728289  0.728289  0.627570  1
