# generated using pymatgen
data_Mg2Ni2AsIr
_symmetry_space_group_name_H-M   'P 1'
_cell_length_a   4.76684568
_cell_length_b   4.76684553
_cell_length_c   4.96688731
_cell_angle_alpha   65.43793704
_cell_angle_beta   65.43793355
_cell_angle_gamma   63.45631783
_symmetry_Int_Tables_number   1
_chemical_formula_structural   Mg2Ni2AsIr
_chemical_formula_sum   'Mg2 Ni2 As1 Ir1'
_cell_volume   88.08652220
_cell_formula_units_Z   1
loop_
 _symmetry_equiv_pos_site_id
 _symmetry_equiv_pos_as_xyz
  1  'x, y, z'
loop_
 _atom_site_type_symbol
 _atom_site_label
 _atom_site_symmetry_multiplicity
 _atom_site_fract_x
 _atom_site_fract_y
 _atom_site_fract_z
 _atom_site_occupancy
  Mg  Mg0  1  0.126852  0.126852  0.121256  1
  Mg  Mg1  1  0.873148  0.873148  0.878744  1
  Ni  Ni2  1  0.000000  0.500000  0.500000  1
  Ni  Ni3  1  0.500000  0.000000  0.500000  1
  As  As4  1  0.500000  0.500000  0.500000  1
  Ir  Ir5  1  0.500000  0.500000  0.000000  1
