# generated using pymatgen
data_YTm4Os2C7
_symmetry_space_group_name_H-M   'P 1'
_cell_length_a   8.10241700
_cell_length_b   8.10241847
_cell_length_c   3.47762600
_cell_angle_alpha   90.00000000
_cell_angle_beta   90.00000000
_cell_angle_gamma   121.58792001
_symmetry_Int_Tables_number   1
_chemical_formula_structural   YTm4Os2C7
_chemical_formula_sum   'Y1 Tm4 Os2 C7'
_cell_volume   194.47726281
_cell_formula_units_Z   1
loop_
 _symmetry_equiv_pos_site_id
 _symmetry_equiv_pos_as_xyz
  1  'x, y, z'
loop_
 _atom_site_type_symbol
 _atom_site_label
 _atom_site_symmetry_multiplicity
 _atom_site_fract_x
 _atom_site_fract_y
 _atom_site_fract_z
 _atom_site_occupancy
  Y  Y0  1  0.500000  0.500000  0.000000  1
  Tm  Tm1  1  0.078047  0.339038  0.500000  1
  Tm  Tm2  1  0.921953  0.660962  0.500000  1
  Tm  Tm3  1  0.660962  0.921953  0.500000  1
  Tm  Tm4  1  0.339038  0.078047  0.500000  1
  Os  Os5  1  0.715158  0.284842  0.000000  1
  Os  Os6  1  0.284842  0.715158  0.000000  1
  C  C7  1  0.632133  0.367867  0.500000  1
  C  C8  1  0.367867  0.632133  0.500000  1
  C  C9  1  0.000000  0.000000  0.000000  1
  C  C10  1  0.171698  0.171698  0.000000  1
  C  C11  1  0.828302  0.828302  0.000000  1
  C  C12  1  0.000000  0.500000  0.000000  1
  C  C13  1  0.500000  0.000000  0.000000  1
