# generated using pymatgen
data_DyHo11In2(TcNi)2
_symmetry_space_group_name_H-M   'P 1'
_cell_length_a   8.43535418
_cell_length_b   8.43484625
_cell_length_c   8.43535300
_cell_angle_alpha   112.85687906
_cell_angle_beta   110.99775491
_cell_angle_gamma   104.67149800
_symmetry_Int_Tables_number   1
_chemical_formula_structural   DyHo11In2(TcNi)2
_chemical_formula_sum   'Dy1 Ho11 In2 Tc2 Ni2'
_cell_volume   459.46970965
_cell_formula_units_Z   1
loop_
 _symmetry_equiv_pos_site_id
 _symmetry_equiv_pos_as_xyz
  1  'x, y, z'
loop_
 _atom_site_type_symbol
 _atom_site_label
 _atom_site_symmetry_multiplicity
 _atom_site_fract_x
 _atom_site_fract_y
 _atom_site_fract_z
 _atom_site_occupancy
  Dy  Dy0  1  0.669485  0.986608  0.317122  1
  Ho  Ho1  1  0.440311  0.242724  0.197961  1
  Ho  Ho2  1  0.559316  0.757417  0.801712  1
  Ho  Ho3  1  0.044763  0.242724  0.802410  1
  Ho  Ho4  1  0.955705  0.757417  0.198103  1
  Ho  Ho5  1  0.184430  0.284958  0.469070  1
  Ho  Ho6  1  0.815937  0.715094  0.531259  1
  Ho  Ho7  1  0.183834  0.715094  0.899157  1
  Ho  Ho8  1  0.815888  0.284958  0.100528  1
  Ho  Ho9  1  0.330429  0.648090  0.317662  1
  Ho  Ho10  1  0.669508  0.352074  0.682566  1
  Ho  Ho11  1  0.330589  0.012996  0.682408  1
  In  In12  1  0.499766  0.499149  0.999383  1
  In  In13  1  0.999820  0.999906  0.000086  1
  Tc  Tc14  1  0.322916  0.999988  0.323115  1
  Tc  Tc15  1  0.676873  0.999988  0.677071  1
  Ni  Ni16  1  0.115832  0.615809  0.499979  1
  Ni  Ni17  1  0.884597  0.385010  0.500413  1
