# generated using pymatgen
data_Ce3Nd13(AgIr)4
_symmetry_space_group_name_H-M   'P 1'
_cell_length_a   9.78723922
_cell_length_b   9.85753599
_cell_length_c   9.85753600
_cell_angle_alpha   59.99999324
_cell_angle_beta   59.76211246
_cell_angle_gamma   59.76211809
_symmetry_Int_Tables_number   1
_chemical_formula_structural   Ce3Nd13(AgIr)4
_chemical_formula_sum   'Ce3 Nd13 Ag4 Ir4'
_cell_volume   670.05580158
_cell_formula_units_Z   1
loop_
 _symmetry_equiv_pos_site_id
 _symmetry_equiv_pos_as_xyz
  1  'x, y, z'
loop_
 _atom_site_type_symbol
 _atom_site_label
 _atom_site_symmetry_multiplicity
 _atom_site_fract_x
 _atom_site_fract_y
 _atom_site_fract_z
 _atom_site_occupancy
  Ce  Ce0  1  0.346952  0.348669  0.348669  1
  Ce  Ce1  1  0.346952  0.348669  0.955711  1
  Ce  Ce2  1  0.346952  0.955711  0.348669  1
  Nd  Nd3  1  0.944836  0.351722  0.351722  1
  Nd  Nd4  1  0.809213  0.190803  0.190803  1
  Nd  Nd5  1  0.191550  0.808647  0.808647  1
  Nd  Nd6  1  0.191550  0.808647  0.191155  1
  Nd  Nd7  1  0.809213  0.190803  0.809181  1
  Nd  Nd8  1  0.191550  0.191155  0.808647  1
  Nd  Nd9  1  0.809213  0.809181  0.190803  1
  Nd  Nd10  1  0.939546  0.561696  0.561696  1
  Nd  Nd11  1  0.559782  0.939469  0.939469  1
  Nd  Nd12  1  0.559782  0.939469  0.561280  1
  Nd  Nd13  1  0.939546  0.561696  0.937062  1
  Nd  Nd14  1  0.559782  0.561280  0.939469  1
  Nd  Nd15  1  0.939546  0.937062  0.561696  1
  Ag  Ag16  1  0.579494  0.581147  0.581147  1
  Ag  Ag17  1  0.579494  0.581147  0.258213  1
  Ag  Ag18  1  0.579494  0.258213  0.581147  1
  Ag  Ag19  1  0.258043  0.580652  0.580652  1
  Ir  Ir20  1  0.151590  0.141034  0.141034  1
  Ir  Ir21  1  0.151590  0.141034  0.566339  1
  Ir  Ir22  1  0.151590  0.566339  0.141034  1
  Ir  Ir23  1  0.562741  0.145752  0.145752  1
