# generated using pymatgen
data_Li2Hf3ScOs2
_symmetry_space_group_name_H-M   'P 1'
_cell_length_a   4.59702700
_cell_length_b   6.60674458
_cell_length_c   13.79896230
_cell_angle_alpha   89.92082850
_cell_angle_beta   90.00121693
_cell_angle_gamma   89.99997061
_symmetry_Int_Tables_number   1
_chemical_formula_structural   Li2Hf3ScOs2
_chemical_formula_sum   'Li6 Hf9 Sc3 Os6'
_cell_volume   419.09317145
_cell_formula_units_Z   3
loop_
 _symmetry_equiv_pos_site_id
 _symmetry_equiv_pos_as_xyz
  1  'x, y, z'
loop_
 _atom_site_type_symbol
 _atom_site_label
 _atom_site_symmetry_multiplicity
 _atom_site_fract_x
 _atom_site_fract_y
 _atom_site_fract_z
 _atom_site_occupancy
  Li  Li0  1  0.999992  0.999968  0.999030  1
  Li  Li1  1  0.499609  0.500254  0.166235  1
  Li  Li2  1  0.999584  0.999757  0.333560  1
  Li  Li3  1  0.500000  0.500560  0.500712  1
  Li  Li4  1  0.000450  0.999101  0.667468  1
  Li  Li5  1  0.500440  0.500611  0.832959  1
  Hf  Hf6  1  0.499994  0.250861  0.998881  1
  Hf  Hf7  1  0.499988  0.750638  0.998463  1
  Hf  Hf8  1  0.999682  0.250964  0.166535  1
  Hf  Hf9  1  0.999677  0.748961  0.166488  1
  Hf  Hf10  1  0.499688  0.249483  0.333212  1
  Hf  Hf11  1  0.499682  0.752208  0.333637  1
  Hf  Hf12  1  0.999997  0.249415  0.500329  1
  Hf  Hf13  1  0.999990  0.749154  0.501121  1
  Hf  Hf14  1  0.500321  0.250034  0.667742  1
  Sc  Sc15  1  0.500319  0.749047  0.668176  1
  Sc  Sc16  1  0.000342  0.248543  0.832708  1
  Sc  Sc17  1  0.000338  0.751946  0.832611  1
  Os  Os18  1  0.999950  0.500967  0.007169  1
  Os  Os19  1  0.499669  0.999617  0.167200  1
  Os  Os20  1  0.999656  0.501076  0.333105  1
  Os  Os21  1  0.499971  0.002532  0.496047  1
  Os  Os22  1  0.000317  0.490338  0.659156  1
  Os  Os23  1  0.500342  0.003967  0.837451  1
