# generated using pymatgen
data_Pr3Eu3Se8
_symmetry_space_group_name_H-M   'P 1'
_cell_length_a   7.81840599
_cell_length_b   7.81840714
_cell_length_c   7.84662081
_cell_angle_alpha   109.66076864
_cell_angle_beta   109.26108000
_cell_angle_gamma   109.34597904
_symmetry_Int_Tables_number   1
_chemical_formula_structural   Pr3Eu3Se8
_chemical_formula_sum   'Pr3 Eu3 Se8'
_cell_volume   369.88954305
_cell_formula_units_Z   1
loop_
 _symmetry_equiv_pos_site_id
 _symmetry_equiv_pos_as_xyz
  1  'x, y, z'
loop_
 _atom_site_type_symbol
 _atom_site_label
 _atom_site_symmetry_multiplicity
 _atom_site_fract_x
 _atom_site_fract_y
 _atom_site_fract_z
 _atom_site_occupancy
  Pr  Pr0  1  0.751973  0.875544  0.125800  1
  Pr  Pr1  1  0.249744  0.626173  0.374200  1
  Pr  Pr2  1  0.624545  0.374545  0.250000  1
  Eu  Eu3  1  0.874780  0.124780  0.750000  1
  Eu  Eu4  1  0.373947  0.248351  0.624304  1
  Eu  Eu5  1  0.124047  0.749643  0.875696  1
  Se  Se6  1  0.643455  0.644643  0.646404  1
  Se  Se7  1  0.504147  0.002137  0.352961  1
  Se  Se8  1  0.998299  0.352963  0.495996  1
  Se  Se9  1  0.356967  0.502304  0.004004  1
  Se  Se10  1  0.998411  0.849011  0.496740  1
  Se  Se11  1  0.852270  0.501671  0.003260  1
  Se  Se12  1  0.149176  0.151186  0.147039  1
  Se  Se13  1  0.498239  0.997051  0.853596  1
