# generated using pymatgen
data_LiEr2TmAg2Pb3
_symmetry_space_group_name_H-M   'P 1'
_cell_length_a   7.41214552
_cell_length_b   7.40447736
_cell_length_c   4.59916700
_cell_angle_alpha   90.00000000
_cell_angle_beta   90.00000000
_cell_angle_gamma   120.42815825
_symmetry_Int_Tables_number   1
_chemical_formula_structural   LiEr2TmAg2Pb3
_chemical_formula_sum   'Li1 Er2 Tm1 Ag2 Pb3'
_cell_volume   217.64977388
_cell_formula_units_Z   1
loop_
 _symmetry_equiv_pos_site_id
 _symmetry_equiv_pos_as_xyz
  1  'x, y, z'
loop_
 _atom_site_type_symbol
 _atom_site_label
 _atom_site_symmetry_multiplicity
 _atom_site_fract_x
 _atom_site_fract_y
 _atom_site_fract_z
 _atom_site_occupancy
  Li  Li0  1  0.770440  0.770479  0.000000  1
  Er  Er1  1  0.421247  0.421144  0.500000  1
  Er  Er2  1  0.004788  0.562446  0.500000  1
  Tm  Tm3  1  0.562445  0.004711  0.500000  1
  Ag  Ag4  1  0.999175  0.241683  0.000000  1
  Ag  Ag5  1  0.241846  0.999193  0.000000  1
  Pb  Pb6  1  0.980885  0.981335  0.500000  1
  Pb  Pb7  1  0.349315  0.670762  0.000000  1
  Pb  Pb8  1  0.669859  0.348247  0.000000  1
