# generated using pymatgen
data_SmTm2Pa3(Ni3Bi4)2
_symmetry_space_group_name_H-M   'P 1'
_cell_length_a   8.30212577
_cell_length_b   8.32733044
_cell_length_c   8.30298287
_cell_angle_alpha   109.49986311
_cell_angle_beta   109.22666449
_cell_angle_gamma   109.58759831
_symmetry_Int_Tables_number   1
_chemical_formula_structural   SmTm2Pa3(Ni3Bi4)2
_chemical_formula_sum   'Sm1 Tm2 Pa3 Ni6 Bi8'
_cell_volume   442.42146473
_cell_formula_units_Z   1
loop_
 _symmetry_equiv_pos_site_id
 _symmetry_equiv_pos_as_xyz
  1  'x, y, z'
loop_
 _atom_site_type_symbol
 _atom_site_label
 _atom_site_symmetry_multiplicity
 _atom_site_fract_x
 _atom_site_fract_y
 _atom_site_fract_z
 _atom_site_occupancy
  Sm  Sm0  1  0.750754  0.374647  0.625962  1
  Tm  Tm1  1  0.626501  0.749670  0.376858  1
  Tm  Tm2  1  0.251699  0.125186  0.876480  1
  Pa  Pa3  1  0.125775  0.878282  0.250077  1
  Pa  Pa4  1  0.371154  0.622015  0.747299  1
  Pa  Pa5  1  0.872874  0.250161  0.122568  1
  Ni  Ni6  1  0.634150  0.365288  0.238966  1
  Ni  Ni7  1  0.880386  0.133083  0.773447  1
  Ni  Ni8  1  0.365161  0.247588  0.619289  1
  Ni  Ni9  1  0.132187  0.754019  0.879707  1
  Ni  Ni10  1  0.238087  0.617211  0.372026  1
  Ni  Ni11  1  0.754809  0.882743  0.120773  1
  Bi  Bi12  1  0.337949  0.336253  0.331215  1
  Bi  Bi13  1  0.171111  0.502263  0.001410  1
  Bi  Bi14  1  0.994716  0.161208  0.502834  1
  Bi  Bi15  1  0.834618  0.831530  0.830331  1
  Bi  Bi16  1  0.499646  0.999175  0.167052  1
  Bi  Bi17  1  0.661418  0.501020  0.998808  1
  Bi  Bi18  1  0.498384  0.998131  0.663291  1
  Bi  Bi19  1  0.998621  0.670525  0.501607  1
