# generated using pymatgen
data_Pr3Zr7(Si5Ir2)4
_symmetry_space_group_name_H-M   'P 1'
_cell_length_a   12.53368824
_cell_length_b   12.53368825
_cell_length_c   4.19931900
_cell_angle_alpha   90.00000000
_cell_angle_beta   90.00000000
_cell_angle_gamma   90.00009143
_symmetry_Int_Tables_number   1
_chemical_formula_structural   Pr3Zr7(Si5Ir2)4
_chemical_formula_sum   'Pr3 Zr7 Si20 Ir8'
_cell_volume   659.68505200
_cell_formula_units_Z   1
loop_
 _symmetry_equiv_pos_site_id
 _symmetry_equiv_pos_as_xyz
  1  'x, y, z'
loop_
 _atom_site_type_symbol
 _atom_site_label
 _atom_site_symmetry_multiplicity
 _atom_site_fract_x
 _atom_site_fract_y
 _atom_site_fract_z
 _atom_site_occupancy
  Pr  Pr0  1  0.113256  0.613256  0.500000  1
  Pr  Pr1  1  0.385361  0.115584  0.500000  1
  Pr  Pr2  1  0.615584  0.885361  0.500000  1
  Zr  Zr3  1  0.499883  0.500733  0.000000  1
  Zr  Zr4  1  0.000733  0.999883  0.000000  1
  Zr  Zr5  1  0.679867  0.179867  0.500000  1
  Zr  Zr6  1  0.323373  0.823373  0.500000  1
  Zr  Zr7  1  0.173716  0.323640  0.500000  1
  Zr  Zr8  1  0.823640  0.673716  0.500000  1
  Zr  Zr9  1  0.884177  0.384177  0.500000  1
  Si  Si10  1  0.570445  0.070445  0.000000  1
  Si  Si11  1  0.431189  0.931189  0.000000  1
  Si  Si12  1  0.065345  0.430974  0.000000  1
  Si  Si13  1  0.930974  0.565345  0.000000  1
  Si  Si14  1  0.664308  0.698390  0.000000  1
  Si  Si15  1  0.336537  0.299687  0.000000  1
  Si  Si16  1  0.163077  0.799201  0.000000  1
  Si  Si17  1  0.837915  0.203611  0.000000  1
  Si  Si18  1  0.299201  0.663077  0.000000  1
  Si  Si19  1  0.703611  0.337915  0.000000  1
  Si  Si20  1  0.198390  0.164308  0.000000  1
  Si  Si21  1  0.799687  0.836537  0.000000  1
  Si  Si22  1  0.655951  0.504127  0.500000  1
  Si  Si23  1  0.347276  0.488056  0.500000  1
  Si  Si24  1  0.152672  0.989790  0.500000  1
  Si  Si25  1  0.848279  0.011005  0.500000  1
  Si  Si26  1  0.489790  0.652672  0.500000  1
  Si  Si27  1  0.511005  0.348279  0.500000  1
  Si  Si28  1  0.004127  0.155951  0.500000  1
  Si  Si29  1  0.988056  0.847276  0.500000  1
  Ir  Ir30  1  0.744082  0.521020  0.000000  1
  Ir  Ir31  1  0.258182  0.475737  0.000000  1
  Ir  Ir32  1  0.239852  0.977068  0.000000  1
  Ir  Ir33  1  0.761260  0.025375  0.000000  1
  Ir  Ir34  1  0.477068  0.739852  0.000000  1
  Ir  Ir35  1  0.525375  0.261260  0.000000  1
  Ir  Ir36  1  0.021020  0.244082  0.000000  1
  Ir  Ir37  1  0.975737  0.758182  0.000000  1
