# generated using pymatgen
data_La2Nd3DyOsI10
_symmetry_space_group_name_H-M   'P 1'
_cell_length_a   8.01737642
_cell_length_b   10.15455125
_cell_length_c   9.96100233
_cell_angle_alpha   107.40536144
_cell_angle_beta   95.92309276
_cell_angle_gamma   105.43303231
_symmetry_Int_Tables_number   1
_chemical_formula_structural   La2Nd3DyOsI10
_chemical_formula_sum   'La2 Nd3 Dy1 Os1 I10'
_cell_volume   731.04132486
_cell_formula_units_Z   1
loop_
 _symmetry_equiv_pos_site_id
 _symmetry_equiv_pos_as_xyz
  1  'x, y, z'
loop_
 _atom_site_type_symbol
 _atom_site_label
 _atom_site_symmetry_multiplicity
 _atom_site_fract_x
 _atom_site_fract_y
 _atom_site_fract_z
 _atom_site_occupancy
  La  La0  1  0.384388  0.958151  0.728647  1
  La  La1  1  0.610599  0.039560  0.269224  1
  Nd  Nd2  1  0.469477  0.293472  0.589473  1
  Nd  Nd3  1  0.527408  0.705796  0.408257  1
  Nd  Nd4  1  0.859437  0.131731  0.672866  1
  Dy  Dy5  1  0.148843  0.871201  0.331410  1
  Os  Os6  1  0.498456  0.999358  0.499561  1
  I  I7  1  0.415600  0.629893  0.678998  1
  I  I8  1  0.584353  0.369962  0.320085  1
  I  I9  1  0.286735  0.262496  0.851167  1
  I  I10  1  0.726984  0.742109  0.155398  1
  I  I11  1  0.854630  0.452858  0.770050  1
  I  I12  1  0.139866  0.554667  0.229638  1
  I  I13  1  0.047953  0.173084  0.406356  1
  I  I14  1  0.230814  0.910045  0.047554  1
  I  I15  1  0.761008  0.086261  0.957668  1
  I  I16  1  0.953448  0.819358  0.583649  1
