# generated using pymatgen
data_Ba2Li4SiSn
_symmetry_space_group_name_H-M   'P 1'
_cell_length_a   4.79628900
_cell_length_b   6.46885200
_cell_length_c   6.93169200
_cell_angle_alpha   90.00000000
_cell_angle_beta   90.00000000
_cell_angle_gamma   90.00000000
_symmetry_Int_Tables_number   1
_chemical_formula_structural   Ba2Li4SiSn
_chemical_formula_sum   'Ba2 Li4 Si1 Sn1'
_cell_volume   215.06602878
_cell_formula_units_Z   1
loop_
 _symmetry_equiv_pos_site_id
 _symmetry_equiv_pos_as_xyz
  1  'x, y, z'
loop_
 _atom_site_type_symbol
 _atom_site_label
 _atom_site_symmetry_multiplicity
 _atom_site_fract_x
 _atom_site_fract_y
 _atom_site_fract_z
 _atom_site_occupancy
  Ba  Ba0  1  0.000000  0.889856  0.000000  1
  Ba  Ba1  1  0.500000  0.087778  0.500000  1
  Li  Li2  1  0.000000  0.414676  0.786664  1
  Li  Li3  1  0.500000  0.596157  0.690456  1
  Li  Li4  1  0.500000  0.596157  0.309544  1
  Li  Li5  1  0.000000  0.414676  0.213336  1
  Si  Si6  1  0.000000  0.695139  0.500000  1
  Sn  Sn7  1  0.500000  0.305562  0.000000  1
