# generated using pymatgen
data_Er6Al17Fe8Si7
_symmetry_space_group_name_H-M   'P 1'
_cell_length_a   8.45926952
_cell_length_b   8.45694178
_cell_length_c   9.22656700
_cell_angle_alpha   90.00000000
_cell_angle_beta   90.00000000
_cell_angle_gamma   120.02197611
_symmetry_Int_Tables_number   1
_chemical_formula_structural   Er6Al17Fe8Si7
_chemical_formula_sum   'Er6 Al17 Fe8 Si7'
_cell_volume   571.50595413
_cell_formula_units_Z   1
loop_
 _symmetry_equiv_pos_site_id
 _symmetry_equiv_pos_as_xyz
  1  'x, y, z'
loop_
 _atom_site_type_symbol
 _atom_site_label
 _atom_site_symmetry_multiplicity
 _atom_site_fract_x
 _atom_site_fract_y
 _atom_site_fract_z
 _atom_site_occupancy
  Er  Er0  1  0.192980  0.389679  0.250000  1
  Er  Er1  1  0.805633  0.612114  0.750000  1
  Er  Er2  1  0.609148  0.806534  0.250000  1
  Er  Er3  1  0.390115  0.191928  0.750000  1
  Er  Er4  1  0.196695  0.803945  0.250000  1
  Er  Er5  1  0.800790  0.192268  0.750000  1
  Al  Al6  1  0.162936  0.326514  0.574621  1
  Al  Al7  1  0.835802  0.672976  0.423854  1
  Al  Al8  1  0.672917  0.836154  0.574313  1
  Al  Al9  1  0.835802  0.672976  0.076146  1
  Al  Al10  1  0.327836  0.164730  0.425062  1
  Al  Al11  1  0.162936  0.326514  0.925379  1
  Al  Al12  1  0.163000  0.835527  0.573265  1
  Al  Al13  1  0.327836  0.164730  0.074938  1
  Al  Al14  1  0.835717  0.164220  0.424368  1
  Al  Al15  1  0.672917  0.836154  0.925687  1
  Al  Al16  1  0.835717  0.164220  0.075632  1
  Al  Al17  1  0.163000  0.835527  0.926735  1
  Al  Al18  1  0.121884  0.563091  0.750000  1
  Al  Al19  1  0.562823  0.436920  0.250000  1
  Al  Al20  1  0.440284  0.563523  0.750000  1
  Al  Al21  1  0.999890  0.999352  0.250000  1
  Al  Al22  1  0.999822  0.000787  0.750000  1
  Fe  Fe23  1  0.501008  0.001709  0.001094  1
  Fe  Fe24  1  0.998467  0.499364  0.007506  1
  Fe  Fe25  1  0.501008  0.001709  0.498906  1
  Fe  Fe26  1  0.501229  0.500055  0.000196  1
  Fe  Fe27  1  0.998467  0.499364  0.492494  1
  Fe  Fe28  1  0.501229  0.500055  0.499804  1
  Fe  Fe29  1  0.000214  0.000201  0.999964  1
  Fe  Fe30  1  0.000214  0.000201  0.500036  1
  Si  Si31  1  0.333433  0.663767  0.031122  1
  Si  Si32  1  0.666525  0.336445  0.967909  1
  Si  Si33  1  0.666525  0.336445  0.532091  1
  Si  Si34  1  0.333433  0.663767  0.468878  1
  Si  Si35  1  0.561365  0.119046  0.250000  1
  Si  Si36  1  0.438978  0.878535  0.750000  1
  Si  Si37  1  0.881424  0.438957  0.250000  1
