# generated using pymatgen
data_Ta12TcMo6Os5
_symmetry_space_group_name_H-M   'P 1'
_cell_length_a   4.52500200
_cell_length_b   6.41478200
_cell_length_c   13.63784500
_cell_angle_alpha   90.00000000
_cell_angle_beta   89.99994527
_cell_angle_gamma   90.00000000
_symmetry_Int_Tables_number   1
_chemical_formula_structural   Ta12TcMo6Os5
_chemical_formula_sum   'Ta12 Tc1 Mo6 Os5'
_cell_volume   395.86438184
_cell_formula_units_Z   1
loop_
 _symmetry_equiv_pos_site_id
 _symmetry_equiv_pos_as_xyz
  1  'x, y, z'
loop_
 _atom_site_type_symbol
 _atom_site_label
 _atom_site_symmetry_multiplicity
 _atom_site_fract_x
 _atom_site_fract_y
 _atom_site_fract_z
 _atom_site_occupancy
  Ta  Ta0  1  0.499999  0.251631  0.000000  1
  Ta  Ta1  1  0.499999  0.748370  0.000000  1
  Ta  Ta2  1  0.000003  0.250586  0.165849  1
  Ta  Ta3  1  0.000003  0.749415  0.165849  1
  Ta  Ta4  1  0.500001  0.250149  0.333206  1
  Ta  Ta5  1  0.500001  0.749850  0.333206  1
  Ta  Ta6  1  0.000000  0.249739  0.500000  1
  Ta  Ta7  1  0.000000  0.750260  0.500000  1
  Ta  Ta8  1  0.500000  0.250149  0.666794  1
  Ta  Ta9  1  0.500000  0.749850  0.666794  1
  Ta  Ta10  1  0.999997  0.250586  0.834151  1
  Ta  Ta11  1  0.999997  0.749415  0.834151  1
  Tc  Tc12  1  0.000000  0.500000  0.000000  1
  Mo  Mo13  1  0.000000  0.000000  0.000000  1
  Mo  Mo14  1  0.500002  0.500000  0.167688  1
  Mo  Mo15  1  0.000000  0.000000  0.333537  1
  Mo  Mo16  1  0.499999  0.500000  0.500000  1
  Mo  Mo17  1  0.000000  0.000000  0.666463  1
  Mo  Mo18  1  0.499999  0.500000  0.832312  1
  Os  Os19  1  0.500001  0.000000  0.166868  1
  Os  Os20  1  0.000000  0.500000  0.333924  1
  Os  Os21  1  0.499999  0.000000  0.500000  1
  Os  Os22  1  0.000000  0.500000  0.666076  1
  Os  Os23  1  0.499997  0.000000  0.833132  1
