# generated using pymatgen
data_Dy3Ho4Th(ReB6)4
_symmetry_space_group_name_H-M   'P 1'
_cell_length_a   3.70245300
_cell_length_b   9.18615130
_cell_length_c   11.58622300
_cell_angle_alpha   90.04087543
_cell_angle_beta   90.00000000
_cell_angle_gamma   90.00000000
_symmetry_Int_Tables_number   1
_chemical_formula_structural   Dy3Ho4Th(ReB6)4
_chemical_formula_sum   'Dy3 Ho4 Th1 Re4 B24'
_cell_volume   394.06232996
_cell_formula_units_Z   1
loop_
 _symmetry_equiv_pos_site_id
 _symmetry_equiv_pos_as_xyz
  1  'x, y, z'
loop_
 _atom_site_type_symbol
 _atom_site_label
 _atom_site_symmetry_multiplicity
 _atom_site_fract_x
 _atom_site_fract_y
 _atom_site_fract_z
 _atom_site_occupancy
  Dy  Dy0  1  0.000000  0.677692  0.587224  1
  Dy  Dy1  1  0.000000  0.823404  0.085231  1
  Dy  Dy2  1  0.000000  0.175940  0.913945  1
  Ho  Ho3  1  0.000000  0.942038  0.369503  1
  Ho  Ho4  1  0.000000  0.055933  0.631266  1
  Ho  Ho5  1  0.000000  0.443567  0.128378  1
  Ho  Ho6  1  0.000000  0.557319  0.870493  1
  Th  Th7  1  0.000000  0.322504  0.414071  1
  Re  Re8  1  0.000000  0.639312  0.320413  1
  Re  Re9  1  0.000000  0.361616  0.680328  1
  Re  Re10  1  0.000000  0.138472  0.178422  1
  Re  Re11  1  0.000000  0.861320  0.820912  1
  B  B12  1  0.500000  0.555905  0.432194  1
  B  B13  1  0.500000  0.446837  0.569564  1
  B  B14  1  0.500000  0.053165  0.066568  1
  B  B15  1  0.500000  0.946463  0.932800  1
  B  B16  1  0.500000  0.750207  0.418219  1
  B  B17  1  0.500000  0.250668  0.584852  1
  B  B18  1  0.500000  0.248872  0.080379  1
  B  B19  1  0.500000  0.750785  0.918323  1
  B  B20  1  0.500000  0.792116  0.265229  1
  B  B21  1  0.500000  0.208047  0.735807  1
  B  B22  1  0.500000  0.290549  0.232175  1
  B  B23  1  0.500000  0.708065  0.765750  1
  B  B24  1  0.500000  0.631954  0.184630  1
  B  B25  1  0.500000  0.369576  0.815069  1
  B  B26  1  0.500000  0.129299  0.312318  1
  B  B27  1  0.500000  0.868913  0.686099  1
  B  B28  1  0.500000  0.982239  0.211159  1
  B  B29  1  0.500000  0.016890  0.788443  1
  B  B30  1  0.500000  0.485680  0.286250  1
  B  B31  1  0.500000  0.517858  0.713483  1
  B  B32  1  0.500000  0.601004  0.027639  1
  B  B33  1  0.500000  0.399590  0.971584  1
  B  B34  1  0.500000  0.097189  0.472918  1
  B  B35  1  0.500000  0.899012  0.528364  1
