# generated using pymatgen
data_Tm7Lu3(Sn3P)2
_symmetry_space_group_name_H-M   'P 1'
_cell_length_a   8.93064700
_cell_length_b   8.93064697
_cell_length_c   6.58420700
_cell_angle_alpha   90.00000000
_cell_angle_beta   90.00000000
_cell_angle_gamma   119.99998902
_symmetry_Int_Tables_number   1
_chemical_formula_structural   Tm7Lu3(Sn3P)2
_chemical_formula_sum   'Tm7 Lu3 Sn6 P2'
_cell_volume   454.77857976
_cell_formula_units_Z   1
loop_
 _symmetry_equiv_pos_site_id
 _symmetry_equiv_pos_as_xyz
  1  'x, y, z'
loop_
 _atom_site_type_symbol
 _atom_site_label
 _atom_site_symmetry_multiplicity
 _atom_site_fract_x
 _atom_site_fract_y
 _atom_site_fract_z
 _atom_site_occupancy
  Tm  Tm0  1  0.666667  0.333333  0.000000  1
  Tm  Tm1  1  0.758061  0.758157  0.749927  1
  Tm  Tm2  1  0.241843  0.999904  0.749927  1
  Tm  Tm3  1  0.000096  0.241939  0.749927  1
  Tm  Tm4  1  0.241843  0.241939  0.250073  1
  Tm  Tm5  1  0.758061  0.999904  0.250073  1
  Tm  Tm6  1  0.000096  0.758157  0.250073  1
  Lu  Lu7  1  0.333333  0.666667  0.000000  1
  Lu  Lu8  1  0.333333  0.666667  0.500000  1
  Lu  Lu9  1  0.666667  0.333333  0.500000  1
  Sn  Sn10  1  0.399416  0.399801  0.749662  1
  Sn  Sn11  1  0.600199  0.999615  0.749662  1
  Sn  Sn12  1  0.000385  0.600584  0.749662  1
  Sn  Sn13  1  0.600199  0.600584  0.250338  1
  Sn  Sn14  1  0.399416  0.999615  0.250338  1
  Sn  Sn15  1  0.000385  0.399801  0.250338  1
  P  P16  1  0.000000  0.000000  0.000000  1
  P  P17  1  0.000000  0.000000  0.500000  1
