# generated using pymatgen
data_Ca3La(Yb3Pt4)2
_symmetry_space_group_name_H-M   'P 1'
_cell_length_a   7.45968800
_cell_length_b   7.59844563
_cell_length_c   14.47474300
_cell_angle_alpha   89.66791626
_cell_angle_beta   90.00021506
_cell_angle_gamma   90.00083824
_symmetry_Int_Tables_number   1
_chemical_formula_structural   Ca3La(Yb3Pt4)2
_chemical_formula_sum   'Ca6 La2 Yb12 Pt16'
_cell_volume   820.44408919
_cell_formula_units_Z   2
loop_
 _symmetry_equiv_pos_site_id
 _symmetry_equiv_pos_as_xyz
  1  'x, y, z'
loop_
 _atom_site_type_symbol
 _atom_site_label
 _atom_site_symmetry_multiplicity
 _atom_site_fract_x
 _atom_site_fract_y
 _atom_site_fract_z
 _atom_site_occupancy
  Ca  Ca0  1  0.499083  0.675804  0.403298  1
  Ca  Ca1  1  0.999006  0.824257  0.096594  1
  Ca  Ca2  1  0.499208  0.679243  0.097547  1
  Ca  Ca3  1  0.999265  0.820792  0.402465  1
  Ca  Ca4  1  0.502064  0.326682  0.595461  1
  Ca  Ca5  1  0.002088  0.173376  0.904608  1
  La  La6  1  0.500298  0.323512  0.905062  1
  La  La7  1  0.000167  0.176427  0.594917  1
  Yb  Yb8  1  0.337480  0.833407  0.879435  1
  Yb  Yb9  1  0.837475  0.666576  0.620595  1
  Yb  Yb10  1  0.660115  0.164100  0.376681  1
  Yb  Yb11  1  0.160091  0.335918  0.123341  1
  Yb  Yb12  1  0.664199  0.163096  0.123700  1
  Yb  Yb13  1  0.164182  0.336842  0.376297  1
  Yb  Yb14  1  0.340300  0.829972  0.622799  1
  Yb  Yb15  1  0.840426  0.670053  0.877225  1
  Yb  Yb16  1  0.175100  0.499376  0.749939  1
  Yb  Yb17  1  0.675215  0.000726  0.750069  1
  Yb  Yb18  1  0.822902  0.503837  0.249540  1
  Yb  Yb19  1  0.322819  0.996113  0.250516  1
  Pt  Pt20  1  0.326678  0.040686  0.040448  1
  Pt  Pt21  1  0.826559  0.459373  0.459598  1
  Pt  Pt22  1  0.673813  0.971010  0.543119  1
  Pt  Pt23  1  0.173935  0.528806  0.956806  1
  Pt  Pt24  1  0.671660  0.970190  0.956336  1
  Pt  Pt25  1  0.171623  0.529763  0.543602  1
  Pt  Pt26  1  0.323624  0.037081  0.462752  1
  Pt  Pt27  1  0.823436  0.462989  0.037311  1
  Pt  Pt28  1  0.542877  0.619132  0.751929  1
  Pt  Pt29  1  0.042864  0.880854  0.748010  1
  Pt  Pt30  1  0.458095  0.379454  0.249109  1
  Pt  Pt31  1  0.958079  0.120598  0.250855  1
  Pt  Pt32  1  0.305365  0.138880  0.752594  1
  Pt  Pt33  1  0.805336  0.361132  0.747450  1
  Pt  Pt34  1  0.697253  0.862482  0.250464  1
  Pt  Pt35  1  0.197320  0.637463  0.249528  1
