# generated using pymatgen
data_Mg2Pd5Pb
_symmetry_space_group_name_H-M   'P 1'
_cell_length_a   4.19217100
_cell_length_b   5.71658600
_cell_length_c   11.21981500
_cell_angle_alpha   90.00000000
_cell_angle_beta   90.00000000
_cell_angle_gamma   90.00000000
_symmetry_Int_Tables_number   1
_chemical_formula_structural   Mg2Pd5Pb
_chemical_formula_sum   'Mg4 Pd10 Pb2'
_cell_volume   268.88181235
_cell_formula_units_Z   2
loop_
 _symmetry_equiv_pos_site_id
 _symmetry_equiv_pos_as_xyz
  1  'x, y, z'
loop_
 _atom_site_type_symbol
 _atom_site_label
 _atom_site_symmetry_multiplicity
 _atom_site_fract_x
 _atom_site_fract_y
 _atom_site_fract_z
 _atom_site_occupancy
  Mg  Mg0  1  0.500000  0.318338  0.858288  1
  Mg  Mg1  1  0.500000  0.818338  0.641712  1
  Mg  Mg2  1  0.500000  0.681662  0.141712  1
  Mg  Mg3  1  0.500000  0.181662  0.358288  1
  Pd  Pd4  1  0.500000  0.713006  0.381496  1
  Pd  Pd5  1  0.500000  0.286994  0.618504  1
  Pd  Pd6  1  0.000000  0.060019  0.751701  1
  Pd  Pd7  1  0.500000  0.786994  0.881496  1
  Pd  Pd8  1  0.000000  0.439981  0.251701  1
  Pd  Pd9  1  0.000000  0.939981  0.248299  1
  Pd  Pd10  1  0.000000  0.560019  0.748299  1
  Pd  Pd11  1  0.000000  0.500000  0.000000  1
  Pd  Pd12  1  0.000000  0.000000  0.500000  1
  Pd  Pd13  1  0.500000  0.213006  0.118504  1
  Pb  Pb14  1  0.000000  0.500000  0.500000  1
  Pb  Pb15  1  0.000000  0.000000  0.000000  1
