# generated using pymatgen
data_TbDy3Ga18(Ni2Ru)2
_symmetry_space_group_name_H-M   'P 1'
_cell_length_a   7.46057803
_cell_length_b   7.45997926
_cell_length_c   9.39205401
_cell_angle_alpha   89.99512703
_cell_angle_beta   90.00079564
_cell_angle_gamma   119.99739731
_symmetry_Int_Tables_number   1
_chemical_formula_structural   TbDy3Ga18(Ni2Ru)2
_chemical_formula_sum   'Tb1 Dy3 Ga18 Ni4 Ru2'
_cell_volume   452.70229656
_cell_formula_units_Z   1
loop_
 _symmetry_equiv_pos_site_id
 _symmetry_equiv_pos_as_xyz
  1  'x, y, z'
loop_
 _atom_site_type_symbol
 _atom_site_label
 _atom_site_symmetry_multiplicity
 _atom_site_fract_x
 _atom_site_fract_y
 _atom_site_fract_z
 _atom_site_occupancy
  Tb  Tb0  1  0.334074  0.004092  0.749387  1
  Dy  Dy1  1  0.665862  0.995769  0.249429  1
  Dy  Dy2  1  0.004230  0.333973  0.750566  1
  Dy  Dy3  1  0.995842  0.666033  0.250642  1
  Ga  Ga4  1  0.880137  0.880202  0.749976  1
  Ga  Ga5  1  0.119632  0.119594  0.250006  1
  Ga  Ga6  1  0.668727  0.669613  0.438544  1
  Ga  Ga7  1  0.331319  0.330597  0.938626  1
  Ga  Ga8  1  0.669426  0.668662  0.061464  1
  Ga  Ga9  1  0.330562  0.331479  0.561321  1
  Ga  Ga10  1  0.453806  0.663435  0.752012  1
  Ga  Ga11  1  0.546253  0.336416  0.251986  1
  Ga  Ga12  1  0.663634  0.453808  0.747949  1
  Ga  Ga13  1  0.336634  0.546475  0.247987  1
  Ga  Ga14  1  0.004126  0.333225  0.075344  1
  Ga  Ga15  1  0.995652  0.666605  0.575144  1
  Ga  Ga16  1  0.333207  0.004278  0.424610  1
  Ga  Ga17  1  0.666966  0.995954  0.924797  1
  Ga  Ga18  1  0.004839  0.668970  0.925245  1
  Ga  Ga19  1  0.994944  0.330886  0.424975  1
  Ga  Ga20  1  0.669270  0.005022  0.574782  1
  Ga  Ga21  1  0.330941  0.994967  0.075061  1
  Ni  Ni22  1  0.000090  0.000029  0.500042  1
  Ni  Ni23  1  0.999866  0.999952  0.000036  1
  Ni  Ni24  1  0.669415  0.330476  0.499946  1
  Ni  Ni25  1  0.330540  0.669401  0.000041  1
  Ru  Ru26  1  0.327019  0.672845  0.499962  1
  Ru  Ru27  1  0.672988  0.327241  0.000118  1
