# generated using pymatgen
data_Zr5P12Ru18Rh
_symmetry_space_group_name_H-M   'P 1'
_cell_length_a   12.45161600
_cell_length_b   12.45161676
_cell_length_c   3.91669600
_cell_angle_alpha   90.00000000
_cell_angle_beta   90.00000000
_cell_angle_gamma   120.29405220
_symmetry_Int_Tables_number   1
_chemical_formula_structural   Zr5P12Ru18Rh
_chemical_formula_sum   'Zr5 P12 Ru18 Rh1'
_cell_volume   524.33334342
_cell_formula_units_Z   1
loop_
 _symmetry_equiv_pos_site_id
 _symmetry_equiv_pos_as_xyz
  1  'x, y, z'
loop_
 _atom_site_type_symbol
 _atom_site_label
 _atom_site_symmetry_multiplicity
 _atom_site_fract_x
 _atom_site_fract_y
 _atom_site_fract_z
 _atom_site_occupancy
  Zr  Zr0  1  0.189132  0.189132  0.500000  1
  Zr  Zr1  1  0.810839  0.000641  0.500000  1
  Zr  Zr2  1  0.000641  0.810839  0.500000  1
  Zr  Zr3  1  0.331012  0.667459  0.000000  1
  Zr  Zr4  1  0.667459  0.331012  0.000000  1
  P  P5  1  0.818290  0.818290  0.000000  1
  P  P6  1  0.180554  0.000865  0.000000  1
  P  P7  1  0.000865  0.180554  0.000000  1
  P  P8  1  0.173499  0.480380  0.500000  1
  P  P9  1  0.519744  0.696249  0.500000  1
  P  P10  1  0.306381  0.828380  0.500000  1
  P  P11  1  0.696249  0.519744  0.500000  1
  P  P12  1  0.828380  0.306381  0.500000  1
  P  P13  1  0.480380  0.173499  0.500000  1
  P  P14  1  0.367154  0.367154  0.000000  1
  P  P15  1  0.629191  0.999438  0.000000  1
  P  P16  1  0.999438  0.629191  0.000000  1
  Ru  Ru17  1  0.444943  0.000456  0.000000  1
  Ru  Ru18  1  0.000456  0.444943  0.000000  1
  Ru  Ru19  1  0.718512  0.718512  0.500000  1
  Ru  Ru20  1  0.279367  0.000663  0.500000  1
  Ru  Ru21  1  0.000663  0.279367  0.500000  1
  Ru  Ru22  1  0.185010  0.376005  0.000000  1
  Ru  Ru23  1  0.624633  0.809284  0.000000  1
  Ru  Ru24  1  0.188810  0.816071  0.000000  1
  Ru  Ru25  1  0.809284  0.624633  0.000000  1
  Ru  Ru26  1  0.816071  0.188810  0.000000  1
  Ru  Ru27  1  0.376005  0.185010  0.000000  1
  Ru  Ru28  1  0.366270  0.494998  0.500000  1
  Ru  Ru29  1  0.506038  0.873304  0.500000  1
  Ru  Ru30  1  0.128819  0.634724  0.500000  1
  Ru  Ru31  1  0.873304  0.506038  0.500000  1
  Ru  Ru32  1  0.634724  0.128819  0.500000  1
  Ru  Ru33  1  0.494998  0.366270  0.500000  1
  Ru  Ru34  1  0.999536  0.999536  0.000000  1
  Rh  Rh35  1  0.553349  0.553349  0.000000  1
