# generated using pymatgen
data_Er16Tm4Ir7Rh5
_symmetry_space_group_name_H-M   'P 1'
_cell_length_a   10.76741705
_cell_length_b   10.76741676
_cell_length_c   6.32569802
_cell_angle_alpha   89.99218180
_cell_angle_beta   89.99217646
_cell_angle_gamma   89.92435846
_symmetry_Int_Tables_number   1
_chemical_formula_structural   Er16Tm4Ir7Rh5
_chemical_formula_sum   'Er16 Tm4 Ir7 Rh5'
_cell_volume   733.38348609
_cell_formula_units_Z   1
loop_
 _symmetry_equiv_pos_site_id
 _symmetry_equiv_pos_as_xyz
  1  'x, y, z'
loop_
 _atom_site_type_symbol
 _atom_site_label
 _atom_site_symmetry_multiplicity
 _atom_site_fract_x
 _atom_site_fract_y
 _atom_site_fract_z
 _atom_site_occupancy
  Er  Er0  1  0.290116  0.088200  0.378619  1
  Er  Er1  1  0.290395  0.911640  0.877947  1
  Er  Er2  1  0.709043  0.087963  0.877531  1
  Er  Er3  1  0.709082  0.910004  0.378785  1
  Er  Er4  1  0.588252  0.790190  0.878469  1
  Er  Er5  1  0.586932  0.209849  0.378146  1
  Er  Er6  1  0.411399  0.790307  0.378293  1
  Er  Er7  1  0.411527  0.209612  0.878131  1
  Er  Er8  1  0.209810  0.411748  0.621531  1
  Er  Er9  1  0.209693  0.588601  0.121707  1
  Er  Er10  1  0.790151  0.413068  0.121854  1
  Er  Er11  1  0.790388  0.588473  0.621869  1
  Er  Er12  1  0.911800  0.709884  0.121381  1
  Er  Er13  1  0.912037  0.290957  0.622469  1
  Er  Er14  1  0.088360  0.709605  0.622053  1
  Er  Er15  1  0.089996  0.290918  0.121215  1
  Tm  Tm16  1  0.000029  0.999779  0.499956  1
  Tm  Tm17  1  0.000221  0.999971  0.000044  1
  Tm  Tm18  1  0.499921  0.499776  0.999892  1
  Tm  Tm19  1  0.500224  0.500079  0.500108  1
  Ir  Ir20  1  0.846160  0.846982  0.750057  1
  Ir  Ir21  1  0.153018  0.153840  0.749943  1
  Ir  Ir22  1  0.153761  0.846239  0.250000  1
  Ir  Ir23  1  0.654471  0.345529  0.750000  1
  Ir  Ir24  1  0.653892  0.653526  0.249787  1
  Ir  Ir25  1  0.346474  0.346108  0.250213  1
  Ir  Ir26  1  0.346233  0.653767  0.750000  1
  Rh  Rh27  1  0.846094  0.153906  0.250000  1
  Rh  Rh28  1  0.500521  0.000204  0.123784  1
  Rh  Rh29  1  0.500422  0.000222  0.623190  1
  Rh  Rh30  1  0.999778  0.499578  0.876810  1
  Rh  Rh31  1  0.999796  0.499479  0.376216  1
