# generated using pymatgen
data_Y10In4BiTe
_symmetry_space_group_name_H-M   'P 1'
_cell_length_a   6.64061500
_cell_length_b   9.02876677
_cell_length_c   9.04181700
_cell_angle_alpha   119.99341719
_cell_angle_beta   90.00015531
_cell_angle_gamma   89.99980814
_symmetry_Int_Tables_number   1
_chemical_formula_structural   Y10In4BiTe
_chemical_formula_sum   'Y10 In4 Bi1 Te1'
_cell_volume   469.51760948
_cell_formula_units_Z   1
loop_
 _symmetry_equiv_pos_site_id
 _symmetry_equiv_pos_as_xyz
  1  'x, y, z'
loop_
 _atom_site_type_symbol
 _atom_site_label
 _atom_site_symmetry_multiplicity
 _atom_site_fract_x
 _atom_site_fract_y
 _atom_site_fract_z
 _atom_site_occupancy
  Y  Y0  1  0.504703  0.330025  0.667292  1
  Y  Y1  1  0.504363  0.665249  0.331179  1
  Y  Y2  1  0.995598  0.665262  0.331211  1
  Y  Y3  1  0.995428  0.330059  0.667269  1
  Y  Y4  1  0.749955  0.239126  0.001212  1
  Y  Y5  1  0.750061  0.760817  0.763244  1
  Y  Y6  1  0.749910  0.999073  0.238237  1
  Y  Y7  1  0.249990  0.759910  0.000848  1
  Y  Y8  1  0.250038  0.239541  0.232792  1
  Y  Y9  1  0.249968  0.008605  0.766437  1
  In  In10  1  0.750074  0.601759  0.999802  1
  In  In11  1  0.750022  0.393882  0.395895  1
  In  In12  1  0.749982  0.997818  0.604875  1
  In  In13  1  0.249899  0.402664  0.000601  1
  Bi  Bi14  1  0.250008  0.605773  0.606038  1
  Te  Te15  1  0.249998  0.000437  0.393068  1
