# generated using pymatgen
data_MgVS2(O4F)2
_symmetry_space_group_name_H-M   'P 1'
_cell_length_a   5.12901273
_cell_length_b   5.33343175
_cell_length_c   7.52672172
_cell_angle_alpha   68.75175156
_cell_angle_beta   69.56444826
_cell_angle_gamma   85.93347722
_symmetry_Int_Tables_number   1
_chemical_formula_structural   MgVS2(O4F)2
_chemical_formula_sum   'Mg1 V1 S2 O8 F2'
_cell_volume   179.45622515
_cell_formula_units_Z   1
loop_
 _symmetry_equiv_pos_site_id
 _symmetry_equiv_pos_as_xyz
  1  'x, y, z'
loop_
 _atom_site_type_symbol
 _atom_site_label
 _atom_site_symmetry_multiplicity
 _atom_site_fract_x
 _atom_site_fract_y
 _atom_site_fract_z
 _atom_site_occupancy
  Mg  Mg0  1  0.000000  0.500000  0.500000  1
  V  V1  1  0.000000  0.000000  0.000000  1
  S  S2  1  0.631474  0.923681  0.739697  1
  S  S3  1  0.368526  0.076319  0.260303  1
  O  O4  1  0.739819  0.760255  0.614943  1
  O  O5  1  0.260181  0.239745  0.385057  1
  O  O6  1  0.673360  0.213430  0.623993  1
  O  O7  1  0.326640  0.786570  0.376007  1
  O  O8  1  0.324080  0.843194  0.850092  1
  O  O9  1  0.675920  0.156806  0.149908  1
  O  O10  1  0.763740  0.848721  0.902643  1
  O  O11  1  0.236260  0.151279  0.097357  1
  F  F12  1  0.938455  0.685941  0.227535  1
  F  F13  1  0.061545  0.314059  0.772465  1
