# generated using pymatgen
data_Sr12Zn12Te5(WO16)3
_symmetry_space_group_name_H-M   'P 1'
_cell_length_a   11.24642260
_cell_length_b   11.29536937
_cell_length_c   11.27040267
_cell_angle_alpha   109.51179829
_cell_angle_beta   109.34240254
_cell_angle_gamma   109.41934413
_symmetry_Int_Tables_number   1
_chemical_formula_structural   Sr12Zn12Te5(WO16)3
_chemical_formula_sum   'Sr12 Zn12 Te5 W3 O48'
_cell_volume   1104.02877528
_cell_formula_units_Z   1
loop_
 _symmetry_equiv_pos_site_id
 _symmetry_equiv_pos_as_xyz
  1  'x, y, z'
loop_
 _atom_site_type_symbol
 _atom_site_label
 _atom_site_symmetry_multiplicity
 _atom_site_fract_x
 _atom_site_fract_y
 _atom_site_fract_z
 _atom_site_occupancy
  Sr  Sr0  1  0.374822  0.749226  0.122963  1
  Sr  Sr1  1  0.250030  0.375798  0.124264  1
  Sr  Sr2  1  0.874200  0.624207  0.248387  1
  Sr  Sr3  1  0.375198  0.124387  0.248143  1
  Sr  Sr4  1  0.125028  0.250003  0.375045  1
  Sr  Sr5  1  0.749197  0.124795  0.372949  1
  Sr  Sr6  1  0.874970  0.749996  0.624954  1
  Sr  Sr7  1  0.250806  0.875206  0.627051  1
  Sr  Sr8  1  0.125804  0.375794  0.751615  1
  Sr  Sr9  1  0.624801  0.875613  0.751859  1
  Sr  Sr10  1  0.625180  0.250775  0.877037  1
  Sr  Sr11  1  0.749974  0.624204  0.875739  1
  Zn  Zn12  1  0.753500  0.875039  0.128188  1
  Zn  Zn13  1  0.875138  0.250320  0.125046  1
  Zn  Zn14  1  0.628187  0.375423  0.253285  1
  Zn  Zn15  1  0.123565  0.876423  0.250021  1
  Zn  Zn16  1  0.623243  0.750310  0.376472  1
  Zn  Zn17  1  0.253477  0.626775  0.376715  1
  Zn  Zn18  1  0.376755  0.249689  0.623527  1
  Zn  Zn19  1  0.746523  0.373224  0.623284  1
  Zn  Zn20  1  0.876434  0.123575  0.749979  1
  Zn  Zn21  1  0.371811  0.624576  0.746715  1
  Zn  Zn22  1  0.124862  0.749681  0.874953  1
  Zn  Zn23  1  0.246499  0.124959  0.871810  1
  Te  Te24  1  0.000000  0.000000  0.000001  1
  Te  Te25  1  0.000000  0.999998  0.500000  1
  Te  Te26  1  0.500000  0.500000  0.499999  1
  Te  Te27  1  0.499999  0.999998  0.499998  1
  Te  Te28  1  0.000000  0.500001  0.499999  1
  W  W29  1  0.499998  0.000000  0.999999  1
  W  W30  1  0.000001  0.500002  0.000003  1
  W  W31  1  0.500000  0.499999  0.000000  1
  O  O32  1  0.329636  0.904866  0.015752  1
  O  O33  1  0.187652  0.111189  0.017495  1
  O  O34  1  0.686283  0.669578  0.074892  1
  O  O35  1  0.889048  0.405269  0.075426  1
  O  O36  1  0.984940  0.670640  0.095522  1
  O  O37  1  0.610197  0.424619  0.095973  1
  O  O38  1  0.595817  0.924243  0.109714  1
  O  O39  1  0.018424  0.187891  0.111304  1
  O  O40  1  0.185987  0.574859  0.170344  1
  O  O41  1  0.484457  0.595991  0.170330  1
  O  O42  1  0.575510  0.170091  0.185888  1
  O  O43  1  0.112152  0.019083  0.187828  1
  O  O44  1  0.329887  0.923772  0.312205  1
  O  O45  1  0.482328  0.389245  0.312171  1
  O  O46  1  0.908164  0.019620  0.331425  1
  O  O47  1  0.923178  0.312443  0.330182  1
  O  O48  1  0.575582  0.906698  0.387320  1
  O  O49  1  0.312235  0.481650  0.388417  1
  O  O50  1  0.831783  0.520143  0.407661  1
  O  O51  1  0.075940  0.887846  0.406854  1
  O  O52  1  0.829345  0.812705  0.423136  1
  O  O53  1  0.094279  0.611455  0.423969  1
  O  O54  1  0.592676  0.168579  0.480458  1
  O  O55  1  0.388323  0.312042  0.480794  1
  O  O56  1  0.611678  0.687958  0.519207  1
  O  O57  1  0.407324  0.831421  0.519542  1
  O  O58  1  0.170654  0.187296  0.576865  1
  O  O59  1  0.905720  0.388544  0.576031  1
  O  O60  1  0.924059  0.112155  0.593146  1
  O  O61  1  0.168217  0.479857  0.592338  1
  O  O62  1  0.687766  0.518349  0.611585  1
  O  O63  1  0.424418  0.093302  0.612680  1
  O  O64  1  0.091836  0.980380  0.668574  1
  O  O65  1  0.076821  0.687557  0.669818  1
  O  O66  1  0.517674  0.610757  0.687831  1
  O  O67  1  0.670114  0.076227  0.687796  1
  O  O68  1  0.887848  0.980917  0.812171  1
  O  O69  1  0.424489  0.829908  0.814111  1
  O  O70  1  0.515541  0.404008  0.829668  1
  O  O71  1  0.814011  0.425139  0.829654  1
  O  O72  1  0.981576  0.812110  0.888696  1
  O  O73  1  0.404182  0.075755  0.890284  1
  O  O74  1  0.015058  0.329359  0.904476  1
  O  O75  1  0.389802  0.575381  0.904026  1
  O  O76  1  0.110952  0.594731  0.924574  1
  O  O77  1  0.313719  0.330423  0.925108  1
  O  O78  1  0.670363  0.095134  0.984248  1
  O  O79  1  0.812347  0.888812  0.982505  1
