# generated using pymatgen
data_Tb5ErAl21Si3Os8
_symmetry_space_group_name_H-M   'P 1'
_cell_length_a   8.71673001
_cell_length_b   8.71668624
_cell_length_c   9.65649501
_cell_angle_alpha   89.99471086
_cell_angle_beta   90.00503988
_cell_angle_gamma   120.00401237
_symmetry_Int_Tables_number   1
_chemical_formula_structural   Tb5ErAl21Si3Os8
_chemical_formula_sum   'Tb5 Er1 Al21 Si3 Os8'
_cell_volume   635.38593592
_cell_formula_units_Z   1
loop_
 _symmetry_equiv_pos_site_id
 _symmetry_equiv_pos_as_xyz
  1  'x, y, z'
loop_
 _atom_site_type_symbol
 _atom_site_label
 _atom_site_symmetry_multiplicity
 _atom_site_fract_x
 _atom_site_fract_y
 _atom_site_fract_z
 _atom_site_occupancy
  Tb  Tb0  1  0.194497  0.389103  0.247728  1
  Tb  Tb1  1  0.804927  0.609409  0.752603  1
  Tb  Tb2  1  0.610888  0.805499  0.247730  1
  Tb  Tb3  1  0.390592  0.195071  0.752605  1
  Tb  Tb4  1  0.194578  0.805427  0.247714  1
  Er  Er5  1  0.803832  0.196186  0.752771  1
  Al  Al6  1  0.333354  0.666648  0.476768  1
  Al  Al7  1  0.164001  0.328461  0.574405  1
  Al  Al8  1  0.835021  0.670055  0.423768  1
  Al  Al9  1  0.671538  0.836001  0.574404  1
  Al  Al10  1  0.834857  0.669710  0.076484  1
  Al  Al11  1  0.329945  0.164979  0.423771  1
  Al  Al12  1  0.165192  0.330903  0.922794  1
  Al  Al13  1  0.164294  0.835710  0.574314  1
  Al  Al14  1  0.330289  0.165140  0.076484  1
  Al  Al15  1  0.835008  0.164988  0.423993  1
  Al  Al16  1  0.669095  0.834807  0.922796  1
  Al  Al17  1  0.834830  0.165168  0.076181  1
  Al  Al18  1  0.165519  0.834482  0.922886  1
  Al  Al19  1  0.563794  0.127578  0.248793  1
  Al  Al20  1  0.437185  0.873640  0.748825  1
  Al  Al21  1  0.872421  0.436206  0.248792  1
  Al  Al22  1  0.126361  0.562814  0.748826  1
  Al  Al23  1  0.563812  0.436188  0.248792  1
  Al  Al24  1  0.436478  0.563520  0.748817  1
  Al  Al25  1  0.999994  0.000006  0.248810  1
  Al  Al26  1  0.999694  0.000306  0.749533  1
  Si  Si27  1  0.333356  0.666646  0.038621  1
  Si  Si28  1  0.667093  0.332903  0.962287  1
  Si  Si29  1  0.667039  0.332955  0.538675  1
  Os  Os30  1  0.500434  0.000142  0.998639  1
  Os  Os31  1  0.999852  0.499572  0.998640  1
  Os  Os32  1  0.504831  0.008938  0.501684  1
  Os  Os33  1  0.500019  0.499984  0.998883  1
  Os  Os34  1  0.991062  0.495168  0.501687  1
  Os  Os35  1  0.504435  0.495559  0.501397  1
  Os  Os36  1  0.999936  0.000066  0.998790  1
  Os  Os37  1  0.999948  0.000058  0.499313  1
