# generated using pymatgen
data_YbPr19(Ga2Sn)4
_symmetry_space_group_name_H-M   'P 1'
_cell_length_a   8.10865400
_cell_length_b   8.10865400
_cell_length_c   14.73617800
_cell_angle_alpha   90.00000000
_cell_angle_beta   90.00000000
_cell_angle_gamma   90.00000000
_symmetry_Int_Tables_number   1
_chemical_formula_structural   YbPr19(Ga2Sn)4
_chemical_formula_sum   'Yb1 Pr19 Ga8 Sn4'
_cell_volume   968.90767773
_cell_formula_units_Z   1
loop_
 _symmetry_equiv_pos_site_id
 _symmetry_equiv_pos_as_xyz
  1  'x, y, z'
loop_
 _atom_site_type_symbol
 _atom_site_label
 _atom_site_symmetry_multiplicity
 _atom_site_fract_x
 _atom_site_fract_y
 _atom_site_fract_z
 _atom_site_occupancy
  Yb  Yb0  1  0.000000  0.500000  0.740749  1
  Pr  Pr1  1  0.824736  0.833124  0.606353  1
  Pr  Pr2  1  0.177603  0.839356  0.105527  1
  Pr  Pr3  1  0.161529  0.820672  0.393909  1
  Pr  Pr4  1  0.838471  0.179328  0.393909  1
  Pr  Pr5  1  0.679328  0.661529  0.393909  1
  Pr  Pr6  1  0.666876  0.324736  0.606353  1
  Pr  Pr7  1  0.333124  0.675264  0.606353  1
  Pr  Pr8  1  0.000000  0.500000  0.225847  1
  Pr  Pr9  1  0.660644  0.677603  0.105527  1
  Pr  Pr10  1  0.675033  0.338434  0.892799  1
  Pr  Pr11  1  0.838434  0.824967  0.892799  1
  Pr  Pr12  1  0.320672  0.338471  0.393909  1
  Pr  Pr13  1  0.175264  0.166876  0.606353  1
  Pr  Pr14  1  0.822397  0.160644  0.105527  1
  Pr  Pr15  1  0.324967  0.661566  0.892799  1
  Pr  Pr16  1  0.339356  0.322397  0.105527  1
  Pr  Pr17  1  0.500000  0.000000  0.276173  1
  Pr  Pr18  1  0.161566  0.175033  0.892799  1
  Pr  Pr19  1  0.500000  0.000000  0.770300  1
  Ga  Ga20  1  0.622051  0.378627  0.250260  1
  Ga  Ga21  1  0.122228  0.879939  0.747475  1
  Ga  Ga22  1  0.379939  0.377772  0.747475  1
  Ga  Ga23  1  0.377949  0.621373  0.250260  1
  Ga  Ga24  1  0.878627  0.877949  0.250260  1
  Ga  Ga25  1  0.620061  0.622228  0.747475  1
  Ga  Ga26  1  0.877772  0.120061  0.747475  1
  Ga  Ga27  1  0.121373  0.122051  0.250260  1
  Sn  Sn28  1  0.000000  0.500000  0.505669  1
  Sn  Sn29  1  0.500000  0.000000  0.499058  1
  Sn  Sn30  1  0.500000  0.000000  0.995512  1
  Sn  Sn31  1  0.000000  0.500000  0.001406  1
