# generated using pymatgen
data_Ho20Cd6CoOs
_symmetry_space_group_name_H-M   'P 1'
_cell_length_a   9.54414300
_cell_length_b   9.54414336
_cell_length_c   9.80940000
_cell_angle_alpha   90.00000000
_cell_angle_beta   90.00000000
_cell_angle_gamma   119.99999529
_symmetry_Int_Tables_number   1
_chemical_formula_structural   Ho20Cd6CoOs
_chemical_formula_sum   'Ho20 Cd6 Co1 Os1'
_cell_volume   773.83254070
_cell_formula_units_Z   1
loop_
 _symmetry_equiv_pos_site_id
 _symmetry_equiv_pos_as_xyz
  1  'x, y, z'
loop_
 _atom_site_type_symbol
 _atom_site_label
 _atom_site_symmetry_multiplicity
 _atom_site_fract_x
 _atom_site_fract_y
 _atom_site_fract_z
 _atom_site_occupancy
  Ho  Ho0  1  0.000000  0.000000  0.500017  1
  Ho  Ho1  1  0.000000  0.000000  0.999983  1
  Ho  Ho2  1  0.540422  0.459578  0.250000  1
  Ho  Ho3  1  0.540422  0.080842  0.250000  1
  Ho  Ho4  1  0.919158  0.459578  0.250000  1
  Ho  Ho5  1  0.458185  0.541815  0.750000  1
  Ho  Ho6  1  0.458185  0.916371  0.750000  1
  Ho  Ho7  1  0.083629  0.541815  0.750000  1
  Ho  Ho8  1  0.209341  0.790659  0.440795  1
  Ho  Ho9  1  0.209341  0.418684  0.440795  1
  Ho  Ho10  1  0.581316  0.790659  0.440795  1
  Ho  Ho11  1  0.787655  0.212345  0.563964  1
  Ho  Ho12  1  0.787655  0.575310  0.563964  1
  Ho  Ho13  1  0.424690  0.212345  0.563964  1
  Ho  Ho14  1  0.787655  0.212345  0.936036  1
  Ho  Ho15  1  0.787655  0.575310  0.936036  1
  Ho  Ho16  1  0.424690  0.212345  0.936036  1
  Ho  Ho17  1  0.209341  0.790659  0.059205  1
  Ho  Ho18  1  0.209341  0.418684  0.059205  1
  Ho  Ho19  1  0.581316  0.790659  0.059205  1
  Cd  Cd20  1  0.885245  0.114755  0.250000  1
  Cd  Cd21  1  0.885245  0.770491  0.250000  1
  Cd  Cd22  1  0.229509  0.114755  0.250000  1
  Cd  Cd23  1  0.114686  0.885314  0.750000  1
  Cd  Cd24  1  0.114686  0.229372  0.750000  1
  Cd  Cd25  1  0.770628  0.885314  0.750000  1
  Co  Co26  1  0.666667  0.333333  0.750000  1
  Os  Os27  1  0.333333  0.666667  0.250000  1
