# generated using pymatgen
data_Pr16MgHg3Ru4
_symmetry_space_group_name_H-M   'P 1'
_cell_length_a   9.98663559
_cell_length_b   9.98663603
_cell_length_c   9.94482604
_cell_angle_alpha   59.86082863
_cell_angle_beta   59.86082976
_cell_angle_gamma   59.99999671
_symmetry_Int_Tables_number   1
_chemical_formula_structural   Pr16MgHg3Ru4
_chemical_formula_sum   'Pr16 Mg1 Hg3 Ru4'
_cell_volume   699.84816669
_cell_formula_units_Z   1
loop_
 _symmetry_equiv_pos_site_id
 _symmetry_equiv_pos_as_xyz
  1  'x, y, z'
loop_
 _atom_site_type_symbol
 _atom_site_label
 _atom_site_symmetry_multiplicity
 _atom_site_fract_x
 _atom_site_fract_y
 _atom_site_fract_z
 _atom_site_occupancy
  Pr  Pr0  1  0.059681  0.439827  0.440811  1
  Pr  Pr1  1  0.191549  0.807918  0.192615  1
  Pr  Pr2  1  0.652909  0.652909  0.653069  1
  Pr  Pr3  1  0.438862  0.438862  0.061665  1
  Pr  Pr4  1  0.060611  0.438862  0.061665  1
  Pr  Pr5  1  0.438862  0.060611  0.061665  1
  Pr  Pr6  1  0.059681  0.059681  0.440811  1
  Pr  Pr7  1  0.650535  0.650535  0.048395  1
  Pr  Pr8  1  0.652909  0.041112  0.653069  1
  Pr  Pr9  1  0.189273  0.810476  0.810978  1
  Pr  Pr10  1  0.439827  0.059681  0.440811  1
  Pr  Pr11  1  0.189273  0.189273  0.810978  1
  Pr  Pr12  1  0.041112  0.652909  0.653069  1
  Pr  Pr13  1  0.807918  0.807918  0.192615  1
  Pr  Pr14  1  0.807918  0.191549  0.192615  1
  Pr  Pr15  1  0.810476  0.189273  0.810978  1
  Mg  Mg16  1  0.429085  0.429085  0.712747  1
  Hg  Hg17  1  0.414459  0.414459  0.419925  1
  Hg  Hg18  1  0.414459  0.751157  0.419925  1
  Hg  Hg19  1  0.751157  0.414459  0.419925  1
  Ru  Ru20  1  0.862144  0.862144  0.862343  1
  Ru  Ru21  1  0.413370  0.862144  0.862343  1
  Ru  Ru22  1  0.862144  0.413370  0.862343  1
  Ru  Ru23  1  0.861786  0.861786  0.414642  1
