# generated using pymatgen
data_Nd3DyTmP12Ru19
_symmetry_space_group_name_H-M   'P 1'
_cell_length_a   12.60199700
_cell_length_b   12.60199678
_cell_length_c   4.00493100
_cell_angle_alpha   90.00000000
_cell_angle_beta   90.00000000
_cell_angle_gamma   120.00000320
_symmetry_Int_Tables_number   1
_chemical_formula_structural   Nd3DyTmP12Ru19
_chemical_formula_sum   'Nd3 Dy1 Tm1 P12 Ru19'
_cell_volume   550.81326686
_cell_formula_units_Z   1
loop_
 _symmetry_equiv_pos_site_id
 _symmetry_equiv_pos_as_xyz
  1  'x, y, z'
loop_
 _atom_site_type_symbol
 _atom_site_label
 _atom_site_symmetry_multiplicity
 _atom_site_fract_x
 _atom_site_fract_y
 _atom_site_fract_z
 _atom_site_occupancy
  Nd  Nd0  1  0.816107  0.000005  0.500000  1
  Nd  Nd1  1  0.183898  0.183893  0.500000  1
  Nd  Nd2  1  0.999995  0.816102  0.500000  1
  Dy  Dy3  1  0.333333  0.666667  0.000000  1
  Tm  Tm4  1  0.666667  0.333333  0.000000  1
  P  P5  1  0.625606  0.999941  0.000000  1
  P  P6  1  0.374336  0.374394  0.000000  1
  P  P7  1  0.000059  0.625664  0.000000  1
  P  P8  1  0.694872  0.521184  0.500000  1
  P  P9  1  0.826313  0.305128  0.500000  1
  P  P10  1  0.305032  0.826615  0.500000  1
  P  P11  1  0.521582  0.694968  0.500000  1
  P  P12  1  0.187690  0.000047  0.000000  1
  P  P13  1  0.812357  0.812310  0.000000  1
  P  P14  1  0.999953  0.187643  0.000000  1
  P  P15  1  0.478816  0.173687  0.500000  1
  P  P16  1  0.173385  0.478418  0.500000  1
  Ru  Ru17  1  0.619497  0.804879  0.000000  1
  Ru  Ru18  1  0.185381  0.380503  0.000000  1
  Ru  Ru19  1  0.380968  0.185641  0.000000  1
  Ru  Ru20  1  0.195121  0.814619  0.000000  1
  Ru  Ru21  1  0.804674  0.619032  0.000000  1
  Ru  Ru22  1  0.873664  0.506038  0.500000  1
  Ru  Ru23  1  0.493962  0.367627  0.500000  1
  Ru  Ru24  1  0.632373  0.126336  0.500000  1
  Ru  Ru25  1  0.125648  0.632324  0.500000  1
  Ru  Ru26  1  0.367676  0.493322  0.500000  1
  Ru  Ru27  1  0.506678  0.874352  0.500000  1
  Ru  Ru28  1  0.000000  0.000000  0.000000  1
  Ru  Ru29  1  0.713760  0.713682  0.500000  1
  Ru  Ru30  1  0.999923  0.286240  0.500000  1
  Ru  Ru31  1  0.445537  0.999981  0.000000  1
  Ru  Ru32  1  0.554444  0.554463  0.000000  1
  Ru  Ru33  1  0.000019  0.445556  0.000000  1
  Ru  Ru34  1  0.814359  0.195326  0.000000  1
  Ru  Ru35  1  0.286318  0.000077  0.500000  1
