# generated using pymatgen
data_Er3NbSn2(B2Ru5)2
_symmetry_space_group_name_H-M   'P 1'
_cell_length_a   9.68914454
_cell_length_b   9.68914322
_cell_length_c   3.09902300
_cell_angle_alpha   90.00000000
_cell_angle_beta   90.00000000
_cell_angle_gamma   90.84790451
_symmetry_Int_Tables_number   1
_chemical_formula_structural   Er3NbSn2(B2Ru5)2
_chemical_formula_sum   'Er3 Nb1 Sn2 B4 Ru10'
_cell_volume   290.90290084
_cell_formula_units_Z   1
loop_
 _symmetry_equiv_pos_site_id
 _symmetry_equiv_pos_as_xyz
  1  'x, y, z'
loop_
 _atom_site_type_symbol
 _atom_site_label
 _atom_site_symmetry_multiplicity
 _atom_site_fract_x
 _atom_site_fract_y
 _atom_site_fract_z
 _atom_site_occupancy
  Er  Er0  1  0.824307  0.674770  0.000000  1
  Er  Er1  1  0.174770  0.324307  0.000000  1
  Er  Er2  1  0.325574  0.825574  0.000000  1
  Nb  Nb3  1  0.674422  0.174422  0.000000  1
  Sn  Sn4  1  0.498618  0.504748  0.000000  1
  Sn  Sn5  1  0.004748  0.998618  0.000000  1
  B  B6  1  0.623642  0.881741  0.000000  1
  B  B7  1  0.381741  0.123642  0.000000  1
  B  B8  1  0.118518  0.618518  0.000000  1
  B  B9  1  0.876075  0.376075  0.000000  1
  Ru  Ru10  1  0.571767  0.726935  0.500000  1
  Ru  Ru11  1  0.443544  0.277073  0.500000  1
  Ru  Ru12  1  0.070370  0.775248  0.500000  1
  Ru  Ru13  1  0.912944  0.214981  0.500000  1
  Ru  Ru14  1  0.275248  0.570370  0.500000  1
  Ru  Ru15  1  0.714981  0.412944  0.500000  1
  Ru  Ru16  1  0.226935  0.071767  0.500000  1
  Ru  Ru17  1  0.777073  0.943544  0.500000  1
  Ru  Ru18  1  0.509349  0.009349  0.500000  1
  Ru  Ru19  1  0.995373  0.495373  0.500000  1
