# generated using pymatgen
data_PaB4Mo
_symmetry_space_group_name_H-M   'P 1'
_cell_length_a   3.72436300
_cell_length_b   5.97829500
_cell_length_c   11.60483900
_cell_angle_alpha   90.00000000
_cell_angle_beta   90.00000000
_cell_angle_gamma   90.00000000
_symmetry_Int_Tables_number   1
_chemical_formula_structural   PaB4Mo
_chemical_formula_sum   'Pa4 B16 Mo4'
_cell_volume   258.38569412
_cell_formula_units_Z   4
loop_
 _symmetry_equiv_pos_site_id
 _symmetry_equiv_pos_as_xyz
  1  'x, y, z'
loop_
 _atom_site_type_symbol
 _atom_site_label
 _atom_site_symmetry_multiplicity
 _atom_site_fract_x
 _atom_site_fract_y
 _atom_site_fract_z
 _atom_site_occupancy
  Pa  Pa0  1  0.000000  0.127286  0.650809  1
  Pa  Pa1  1  0.000000  0.872714  0.349191  1
  Pa  Pa2  1  0.000000  0.627286  0.849191  1
  Pa  Pa3  1  0.000000  0.372714  0.150809  1
  B  B4  1  0.500000  0.475802  0.692666  1
  B  B5  1  0.500000  0.524198  0.307334  1
  B  B6  1  0.500000  0.975802  0.807334  1
  B  B7  1  0.500000  0.024198  0.192666  1
  B  B8  1  0.500000  0.289880  0.813210  1
  B  B9  1  0.500000  0.710120  0.186790  1
  B  B10  1  0.500000  0.789880  0.686790  1
  B  B11  1  0.500000  0.210120  0.313210  1
  B  B12  1  0.500000  0.365603  0.968418  1
  B  B13  1  0.500000  0.634397  0.031582  1
  B  B14  1  0.500000  0.865603  0.531582  1
  B  B15  1  0.500000  0.134397  0.468418  1
  B  B16  1  0.500000  0.386820  0.546569  1
  B  B17  1  0.500000  0.613180  0.453431  1
  B  B18  1  0.500000  0.886820  0.953431  1
  B  B19  1  0.500000  0.113180  0.046569  1
  Mo  Mo20  1  0.000000  0.134355  0.909418  1
  Mo  Mo21  1  0.000000  0.865645  0.090582  1
  Mo  Mo22  1  0.000000  0.634355  0.590582  1
  Mo  Mo23  1  0.000000  0.365645  0.409418  1
