# generated using pymatgen
data_Sr2Ho3TmSe8
_symmetry_space_group_name_H-M   'P 1'
_cell_length_a   4.13054200
_cell_length_b   12.61625400
_cell_length_c   14.93509600
_cell_angle_alpha   90.00000000
_cell_angle_beta   90.00000000
_cell_angle_gamma   90.00000000
_symmetry_Int_Tables_number   1
_chemical_formula_structural   Sr2Ho3TmSe8
_chemical_formula_sum   'Sr4 Ho6 Tm2 Se16'
_cell_volume   778.29723034
_cell_formula_units_Z   2
loop_
 _symmetry_equiv_pos_site_id
 _symmetry_equiv_pos_as_xyz
  1  'x, y, z'
loop_
 _atom_site_type_symbol
 _atom_site_label
 _atom_site_symmetry_multiplicity
 _atom_site_fract_x
 _atom_site_fract_y
 _atom_site_fract_z
 _atom_site_occupancy
  Sr  Sr0  1  0.750000  0.741295  0.164554  1
  Sr  Sr1  1  0.750000  0.241295  0.335446  1
  Sr  Sr2  1  0.250000  0.258520  0.834853  1
  Sr  Sr3  1  0.250000  0.758520  0.665147  1
  Ho  Ho4  1  0.250000  0.918177  0.402398  1
  Ho  Ho5  1  0.250000  0.418177  0.097602  1
  Ho  Ho6  1  0.750000  0.064153  0.110635  1
  Ho  Ho7  1  0.750000  0.564153  0.389365  1
  Ho  Ho8  1  0.250000  0.935799  0.888893  1
  Ho  Ho9  1  0.250000  0.435800  0.611107  1
  Tm  Tm10  1  0.750000  0.081822  0.598076  1
  Tm  Tm11  1  0.750000  0.581822  0.901924  1
  Se  Se12  1  0.750000  0.292608  0.672955  1
  Se  Se13  1  0.750000  0.792608  0.827045  1
  Se  Se14  1  0.250000  0.706386  0.326588  1
  Se  Se15  1  0.250000  0.206386  0.173412  1
  Se  Se16  1  0.750000  0.370830  0.970142  1
  Se  Se17  1  0.750000  0.870830  0.529858  1
  Se  Se18  1  0.250000  0.629975  0.027803  1
  Se  Se19  1  0.250000  0.129975  0.472197  1
  Se  Se20  1  0.750000  0.974328  0.284695  1
  Se  Se21  1  0.750000  0.474328  0.215305  1
  Se  Se22  1  0.250000  0.026130  0.714479  1
  Se  Se23  1  0.250000  0.526130  0.785521  1
  Se  Se24  1  0.750000  0.088400  0.921978  1
  Se  Se25  1  0.750000  0.588400  0.578022  1
  Se  Se26  1  0.250000  0.911579  0.077666  1
  Se  Se27  1  0.250000  0.411579  0.422334  1
