# generated using pymatgen
data_Yb7Y4In9Pd4
_symmetry_space_group_name_H-M   'P 1'
_cell_length_a   13.37146770
_cell_length_b   13.37146681
_cell_length_c   3.68334700
_cell_angle_alpha   90.00000000
_cell_angle_beta   90.00000000
_cell_angle_gamma   112.12432883
_symmetry_Int_Tables_number   1
_chemical_formula_structural   Yb7Y4In9Pd4
_chemical_formula_sum   'Yb7 Y4 In9 Pd4'
_cell_volume   610.07704251
_cell_formula_units_Z   1
loop_
 _symmetry_equiv_pos_site_id
 _symmetry_equiv_pos_as_xyz
  1  'x, y, z'
loop_
 _atom_site_type_symbol
 _atom_site_label
 _atom_site_symmetry_multiplicity
 _atom_site_fract_x
 _atom_site_fract_y
 _atom_site_fract_z
 _atom_site_occupancy
  Yb  Yb0  1  0.412541  0.070516  0.000000  1
  Yb  Yb1  1  0.587459  0.929484  0.000000  1
  Yb  Yb2  1  0.070516  0.412541  0.000000  1
  Yb  Yb3  1  0.929484  0.587459  0.000000  1
  Yb  Yb4  1  0.158232  0.841768  0.000000  1
  Yb  Yb5  1  0.841768  0.158232  0.000000  1
  Yb  Yb6  1  0.000000  0.000000  0.000000  1
  Y  Y7  1  0.378551  0.621449  0.000000  1
  Y  Y8  1  0.621449  0.378551  0.000000  1
  Y  Y9  1  0.310945  0.310945  0.000000  1
  Y  Y10  1  0.689055  0.689055  0.000000  1
  In  In11  1  0.369356  0.835291  0.500000  1
  In  In12  1  0.630644  0.164709  0.500000  1
  In  In13  1  0.835291  0.369356  0.500000  1
  In  In14  1  0.164709  0.630644  0.500000  1
  In  In15  1  0.218815  0.079268  0.500000  1
  In  In16  1  0.781185  0.920732  0.500000  1
  In  In17  1  0.079268  0.218815  0.500000  1
  In  In18  1  0.920732  0.781185  0.500000  1
  In  In19  1  0.500000  0.500000  0.500000  1
  Pd  Pd20  1  0.448024  0.245573  0.500000  1
  Pd  Pd21  1  0.551976  0.754427  0.500000  1
  Pd  Pd22  1  0.245573  0.448024  0.500000  1
  Pd  Pd23  1  0.754427  0.551976  0.500000  1
