# generated using pymatgen
data_Tm5ReRuO12
_symmetry_space_group_name_H-M   'P 1'
_cell_length_a   6.76569798
_cell_length_b   6.76569875
_cell_length_c   7.41305089
_cell_angle_alpha   73.82117083
_cell_angle_beta   73.82116737
_cell_angle_gamma   49.14531958
_symmetry_Int_Tables_number   1
_chemical_formula_structural   Tm5ReRuO12
_chemical_formula_sum   'Tm5 Re1 Ru1 O12'
_cell_volume   244.31613482
_cell_formula_units_Z   1
loop_
 _symmetry_equiv_pos_site_id
 _symmetry_equiv_pos_as_xyz
  1  'x, y, z'
loop_
 _atom_site_type_symbol
 _atom_site_label
 _atom_site_symmetry_multiplicity
 _atom_site_fract_x
 _atom_site_fract_y
 _atom_site_fract_z
 _atom_site_occupancy
  Tm  Tm0  1  0.816985  0.786566  0.358608  1
  Tm  Tm1  1  0.213434  0.183015  0.641392  1
  Tm  Tm2  1  0.190836  0.180478  0.175561  1
  Tm  Tm3  1  0.819522  0.809164  0.824439  1
  Tm  Tm4  1  0.510476  0.489524  0.500000  1
  Re  Re5  1  0.702457  0.297543  0.000000  1
  Ru  Ru6  1  0.267836  0.732164  0.000000  1
  O  O7  1  0.413276  0.937862  0.912924  1
  O  O8  1  0.062138  0.586724  0.087076  1
  O  O9  1  0.588559  0.091094  0.087558  1
  O  O10  1  0.908906  0.411441  0.912442  1
  O  O11  1  0.609147  0.090109  0.567398  1
  O  O12  1  0.909891  0.390853  0.432602  1
  O  O13  1  0.411867  0.898804  0.424040  1
  O  O14  1  0.986373  0.014295  0.820452  1
  O  O15  1  0.985705  0.013627  0.179548  1
  O  O16  1  0.497520  0.496122  0.795199  1
  O  O17  1  0.503878  0.502480  0.204801  1
  O  O18  1  0.101196  0.588133  0.575960  1
