# generated using pymatgen
data_Pr3ThNp4N12
_symmetry_space_group_name_H-M   'P 1'
_cell_length_a   5.86812385
_cell_length_b   6.03512401
_cell_length_c   8.40037700
_cell_angle_alpha   90.00000000
_cell_angle_beta   90.00000000
_cell_angle_gamma   90.22945077
_symmetry_Int_Tables_number   1
_chemical_formula_structural   Pr3ThNp4N12
_chemical_formula_sum   'Pr3 Th1 Np4 N12'
_cell_volume   297.49574904
_cell_formula_units_Z   1
loop_
 _symmetry_equiv_pos_site_id
 _symmetry_equiv_pos_as_xyz
  1  'x, y, z'
loop_
 _atom_site_type_symbol
 _atom_site_label
 _atom_site_symmetry_multiplicity
 _atom_site_fract_x
 _atom_site_fract_y
 _atom_site_fract_z
 _atom_site_occupancy
  Pr  Pr0  1  0.511203  0.548283  0.250000  1
  Pr  Pr1  1  0.990186  0.046665  0.250000  1
  Pr  Pr2  1  0.491062  0.452844  0.750000  1
  Th  Th3  1  0.009281  0.946490  0.750000  1
  Np  Np4  1  0.999830  0.498387  0.000634  1
  Np  Np5  1  0.500553  0.000853  0.499397  1
  Np  Np6  1  0.999830  0.498387  0.499366  1
  Np  Np7  1  0.500553  0.000853  0.000603  1
  N  N8  1  0.402398  0.966836  0.250000  1
  N  N9  1  0.100910  0.464014  0.250000  1
  N  N10  1  0.612950  0.030969  0.750000  1
  N  N11  1  0.900793  0.542388  0.750000  1
  N  N12  1  0.784234  0.807605  0.047322  1
  N  N13  1  0.715903  0.306603  0.449602  1
  N  N14  1  0.213353  0.188011  0.558103  1
  N  N15  1  0.276736  0.699296  0.943561  1
  N  N16  1  0.213353  0.188011  0.941897  1
  N  N17  1  0.276736  0.699296  0.556439  1
  N  N18  1  0.784234  0.807605  0.452678  1
  N  N19  1  0.715903  0.306603  0.050398  1
