# generated using pymatgen
data_MnAl2FeCo4
_symmetry_space_group_name_H-M   'P 1'
_cell_length_a   6.99719382
_cell_length_b   6.99719374
_cell_length_c   6.99719437
_cell_angle_alpha   33.50450322
_cell_angle_beta   33.50450589
_cell_angle_gamma   33.50450659
_symmetry_Int_Tables_number   1
_chemical_formula_structural   MnAl2FeCo4
_chemical_formula_sum   'Mn1 Al2 Fe1 Co4'
_cell_volume   92.97349539
_cell_formula_units_Z   1
loop_
 _symmetry_equiv_pos_site_id
 _symmetry_equiv_pos_as_xyz
  1  'x, y, z'
loop_
 _atom_site_type_symbol
 _atom_site_label
 _atom_site_symmetry_multiplicity
 _atom_site_fract_x
 _atom_site_fract_y
 _atom_site_fract_z
 _atom_site_occupancy
  Mn  Mn0  1  0.000000  0.000000  0.000000  1
  Al  Al1  1  0.250747  0.250747  0.250747  1
  Al  Al2  1  0.749253  0.749253  0.749253  1
  Fe  Fe3  1  0.500000  0.500000  0.500000  1
  Co  Co4  1  0.624148  0.624148  0.624148  1
  Co  Co5  1  0.125990  0.125990  0.125990  1
  Co  Co6  1  0.874010  0.874010  0.874010  1
  Co  Co7  1  0.375852  0.375852  0.375852  1
