# generated using pymatgen
data_Ho2Er2OsRu7
_symmetry_space_group_name_H-M   'P 1'
_cell_length_a   5.33046964
_cell_length_b   5.21531780
_cell_length_c   8.92555800
_cell_angle_alpha   89.99909839
_cell_angle_beta   90.00240418
_cell_angle_gamma   120.36487084
_symmetry_Int_Tables_number   1
_chemical_formula_structural   Ho2Er2OsRu7
_chemical_formula_sum   'Ho2 Er2 Os1 Ru7'
_cell_volume   214.09362062
_cell_formula_units_Z   1
loop_
 _symmetry_equiv_pos_site_id
 _symmetry_equiv_pos_as_xyz
  1  'x, y, z'
loop_
 _atom_site_type_symbol
 _atom_site_label
 _atom_site_symmetry_multiplicity
 _atom_site_fract_x
 _atom_site_fract_y
 _atom_site_fract_z
 _atom_site_occupancy
  Ho  Ho0  1  0.332633  0.666843  0.067314  1
  Ho  Ho1  1  0.669193  0.336797  0.933340  1
  Er  Er2  1  0.669277  0.336913  0.566594  1
  Er  Er3  1  0.332509  0.666656  0.432826  1
  Os  Os4  1  0.165291  0.331088  0.749423  1
  Ru  Ru5  1  0.004717  0.008579  0.499823  1
  Ru  Ru6  1  0.004690  0.008541  0.000157  1
  Ru  Ru7  1  0.169210  0.822921  0.749515  1
  Ru  Ru8  1  0.650912  0.821335  0.749496  1
  Ru  Ru9  1  0.829680  0.658862  0.250520  1
  Ru  Ru10  1  0.828232  0.169297  0.250526  1
  Ru  Ru11  1  0.343656  0.172168  0.250466  1
