# generated using pymatgen
data_TbDy3(Al3Pt4)2
_symmetry_space_group_name_H-M   'P 1'
_cell_length_a   8.14201403
_cell_length_b   8.14201424
_cell_length_c   7.62987003
_cell_angle_alpha   89.99091721
_cell_angle_beta   90.00908215
_cell_angle_gamma   140.06029880
_symmetry_Int_Tables_number   1
_chemical_formula_structural   TbDy3(Al3Pt4)2
_chemical_formula_sum   'Tb1 Dy3 Al6 Pt8'
_cell_volume   324.71552450
_cell_formula_units_Z   1
loop_
 _symmetry_equiv_pos_site_id
 _symmetry_equiv_pos_as_xyz
  1  'x, y, z'
loop_
 _atom_site_type_symbol
 _atom_site_label
 _atom_site_symmetry_multiplicity
 _atom_site_fract_x
 _atom_site_fract_y
 _atom_site_fract_z
 _atom_site_occupancy
  Tb  Tb0  1  0.606729  0.393271  0.907856  1
  Dy  Dy1  1  0.393202  0.606798  0.092078  1
  Dy  Dy2  1  0.893269  0.106731  0.407884  1
  Dy  Dy3  1  0.106743  0.893257  0.591984  1
  Al  Al4  1  0.499978  0.500022  0.500013  1
  Al  Al5  1  0.999901  0.000099  0.000061  1
  Al  Al6  1  0.523127  0.976773  0.749902  1
  Al  Al7  1  0.976992  0.523086  0.250043  1
  Al  Al8  1  0.476914  0.023008  0.250043  1
  Al  Al9  1  0.023227  0.476873  0.749902  1
  Pt  Pt10  1  0.690954  0.809186  0.749903  1
  Pt  Pt11  1  0.809110  0.691169  0.250285  1
  Pt  Pt12  1  0.308831  0.190890  0.250285  1
  Pt  Pt13  1  0.190814  0.309046  0.749903  1
  Pt  Pt14  1  0.684131  0.315869  0.528187  1
  Pt  Pt15  1  0.315914  0.684086  0.471640  1
  Pt  Pt16  1  0.815950  0.184050  0.028351  1
  Pt  Pt17  1  0.184215  0.815785  0.971678  1
