# generated using pymatgen
data_Hf12Ti3I16
_symmetry_space_group_name_H-M   'P 1'
_cell_length_a   8.84940797
_cell_length_b   12.20232832
_cell_length_c   12.95548361
_cell_angle_alpha   117.35177756
_cell_angle_beta   100.77253435
_cell_angle_gamma   100.01981776
_symmetry_Int_Tables_number   1
_chemical_formula_structural   Hf12Ti3I16
_chemical_formula_sum   'Hf12 Ti3 I16'
_cell_volume   1165.28380021
_cell_formula_units_Z   1
loop_
 _symmetry_equiv_pos_site_id
 _symmetry_equiv_pos_as_xyz
  1  'x, y, z'
loop_
 _atom_site_type_symbol
 _atom_site_label
 _atom_site_symmetry_multiplicity
 _atom_site_fract_x
 _atom_site_fract_y
 _atom_site_fract_z
 _atom_site_occupancy
  Hf  Hf0  1  0.089621  0.271052  0.359343  1
  Hf  Hf1  1  0.910379  0.728948  0.640657  1
  Hf  Hf2  1  0.780115  0.536785  0.331795  1
  Hf  Hf3  1  0.219885  0.463215  0.668205  1
  Hf  Hf4  1  0.276210  0.729272  0.639586  1
  Hf  Hf5  1  0.723790  0.270728  0.360414  1
  Hf  Hf6  1  0.146141  0.537032  0.331281  1
  Hf  Hf7  1  0.853859  0.462968  0.668719  1
  Hf  Hf8  1  0.411654  0.369449  0.290392  1
  Hf  Hf9  1  0.588346  0.630551  0.709608  1
  Hf  Hf10  1  0.461692  0.319481  0.519265  1
  Hf  Hf11  1  0.538308  0.680519  0.480735  1
  Ti  Ti12  1  0.000000  0.500000  0.500000  1
  Ti  Ti13  1  0.326059  0.500121  0.499797  1
  Ti  Ti14  1  0.673942  0.499879  0.500203  1
  I  I15  1  0.395027  0.736736  0.880037  1
  I  I16  1  0.604973  0.263264  0.119963  1
  I  I17  1  0.189637  0.966808  0.784547  1
  I  I18  1  0.810363  0.033192  0.215453  1
  I  I19  1  0.337088  0.098321  0.254367  1
  I  I20  1  0.662912  0.901679  0.745633  1
  I  I21  1  0.565596  0.435107  0.795072  1
  I  I22  1  0.434404  0.564893  0.204928  1
  I  I23  1  0.305216  0.828139  0.464314  1
  I  I24  1  0.694784  0.171861  0.535686  1
  I  I25  1  0.165959  0.173038  0.534866  1
  I  I26  1  0.834041  0.826962  0.465134  1
  I  I27  1  0.924485  0.577388  0.158840  1
  I  I28  1  0.075515  0.422612  0.841160  1
  I  I29  1  0.925470  0.736881  0.881018  1
  I  I30  1  0.074530  0.263119  0.118982  1
