# generated using pymatgen
data_HoPa5(GaPt)6
_symmetry_space_group_name_H-M   'P 1'
_cell_length_a   7.10010553
_cell_length_b   7.08633282
_cell_length_c   8.25175855
_cell_angle_alpha   90.02239912
_cell_angle_beta   89.98301309
_cell_angle_gamma   119.99693642
_symmetry_Int_Tables_number   1
_chemical_formula_structural   HoPa5(GaPt)6
_chemical_formula_sum   'Ho1 Pa5 Ga6 Pt6'
_cell_volume   359.56454660
_cell_formula_units_Z   1
loop_
 _symmetry_equiv_pos_site_id
 _symmetry_equiv_pos_as_xyz
  1  'x, y, z'
loop_
 _atom_site_type_symbol
 _atom_site_label
 _atom_site_symmetry_multiplicity
 _atom_site_fract_x
 _atom_site_fract_y
 _atom_site_fract_z
 _atom_site_occupancy
  Ho  Ho0  1  0.999907  0.589899  0.749993  1
  Pa  Pa1  1  0.416239  0.416948  0.250001  1
  Pa  Pa2  1  0.579273  0.998685  0.750006  1
  Pa  Pa3  1  0.420653  0.420189  0.749999  1
  Pa  Pa4  1  0.998915  0.575551  0.249994  1
  Pa  Pa5  1  0.585300  0.001738  0.250005  1
  Ga  Ga6  1  0.240615  0.994261  0.998436  1
  Ga  Ga7  1  0.240630  0.994273  0.501555  1
  Ga  Ga8  1  0.999791  0.248789  0.501823  1
  Ga  Ga9  1  0.999809  0.248778  0.998192  1
  Ga  Ga10  1  0.759447  0.754379  0.998578  1
  Ga  Ga11  1  0.759437  0.754393  0.501422  1
  Pt  Pt12  1  0.658741  0.327897  0.499265  1
  Pt  Pt13  1  0.000260  0.011666  0.749995  1
  Pt  Pt14  1  0.658735  0.327883  0.000733  1
  Pt  Pt15  1  0.340609  0.668477  0.001565  1
  Pt  Pt16  1  0.340616  0.668484  0.498433  1
  Pt  Pt17  1  0.001025  0.997713  0.250005  1
