# generated using pymatgen
data_AcLa10Dy(Si7Br3)2
_symmetry_space_group_name_H-M   'P 1'
_cell_length_a   4.14232600
_cell_length_b   11.98463900
_cell_length_c   16.86855000
_cell_angle_alpha   90.00000000
_cell_angle_beta   90.00000000
_cell_angle_gamma   90.00000000
_symmetry_Int_Tables_number   1
_chemical_formula_structural   AcLa10Dy(Si7Br3)2
_chemical_formula_sum   'Ac1 La10 Dy1 Si14 Br6'
_cell_volume   837.42704858
_cell_formula_units_Z   1
loop_
 _symmetry_equiv_pos_site_id
 _symmetry_equiv_pos_as_xyz
  1  'x, y, z'
loop_
 _atom_site_type_symbol
 _atom_site_label
 _atom_site_symmetry_multiplicity
 _atom_site_fract_x
 _atom_site_fract_y
 _atom_site_fract_z
 _atom_site_occupancy
  Ac  Ac0  1  0.500000  0.337139  0.500000  1
  La  La1  1  0.000000  0.656872  0.000000  1
  La  La2  1  0.500000  0.358892  0.758412  1
  La  La3  1  0.000000  0.641926  0.746721  1
  La  La4  1  0.500000  0.358892  0.241588  1
  La  La5  1  0.000000  0.641926  0.253279  1
  La  La6  1  0.500000  0.068544  0.881738  1
  La  La7  1  0.000000  0.932433  0.620500  1
  La  La8  1  0.500000  0.068544  0.118262  1
  La  La9  1  0.000000  0.932433  0.379500  1
  La  La10  1  0.000000  0.642296  0.500000  1
  Dy  Dy11  1  0.500000  0.356503  0.000000  1
  Si  Si12  1  0.000000  0.156423  0.000000  1
  Si  Si13  1  0.500000  0.846468  0.500000  1
  Si  Si14  1  0.500000  0.561106  0.879954  1
  Si  Si15  1  0.000000  0.437948  0.626017  1
  Si  Si16  1  0.500000  0.561106  0.120046  1
  Si  Si17  1  0.000000  0.437948  0.373983  1
  Si  Si18  1  0.000000  0.257111  0.877552  1
  Si  Si19  1  0.500000  0.745284  0.625360  1
  Si  Si20  1  0.000000  0.257111  0.122448  1
  Si  Si21  1  0.500000  0.745284  0.374640  1
  Si  Si22  1  0.000000  0.456469  0.880163  1
  Si  Si23  1  0.500000  0.544176  0.625801  1
  Si  Si24  1  0.500000  0.544176  0.374199  1
  Si  Si25  1  0.000000  0.456469  0.119837  1
  Br  Br26  1  0.500000  0.108687  0.692495  1
  Br  Br27  1  0.000000  0.893315  0.808289  1
  Br  Br28  1  0.000000  0.130917  0.500000  1
  Br  Br29  1  0.500000  0.861597  0.000000  1
  Br  Br30  1  0.500000  0.108687  0.307505  1
  Br  Br31  1  0.000000  0.893315  0.191711  1
