# generated using pymatgen
data_SrDy6FeBr12
_symmetry_space_group_name_H-M   'P 1'
_cell_length_a   9.20707547
_cell_length_b   9.20707488
_cell_length_c   9.20707508
_cell_angle_alpha   106.11204942
_cell_angle_beta   106.11205134
_cell_angle_gamma   106.11202624
_symmetry_Int_Tables_number   1
_chemical_formula_structural   SrDy6FeBr12
_chemical_formula_sum   'Sr1 Dy6 Fe1 Br12'
_cell_volume   665.11299098
_cell_formula_units_Z   1
loop_
 _symmetry_equiv_pos_site_id
 _symmetry_equiv_pos_as_xyz
  1  'x, y, z'
loop_
 _atom_site_type_symbol
 _atom_site_label
 _atom_site_symmetry_multiplicity
 _atom_site_fract_x
 _atom_site_fract_y
 _atom_site_fract_z
 _atom_site_occupancy
  Sr  Sr0  1  0.500000  0.500000  0.500000  1
  Dy  Dy1  1  0.095008  0.300623  0.018974  1
  Dy  Dy2  1  0.018974  0.095008  0.300623  1
  Dy  Dy3  1  0.300623  0.018974  0.095008  1
  Dy  Dy4  1  0.904992  0.699377  0.981026  1
  Dy  Dy5  1  0.981026  0.904992  0.699377  1
  Dy  Dy6  1  0.699377  0.981026  0.904992  1
  Fe  Fe7  1  0.000000  0.000000  0.000000  1
  Br  Br8  1  0.444220  0.364734  0.137604  1
  Br  Br9  1  0.137604  0.444220  0.364734  1
  Br  Br10  1  0.364734  0.137604  0.444220  1
  Br  Br11  1  0.555780  0.635266  0.862396  1
  Br  Br12  1  0.862396  0.555780  0.635266  1
  Br  Br13  1  0.635266  0.862396  0.555780  1
  Br  Br14  1  0.778988  0.320951  0.926998  1
  Br  Br15  1  0.926998  0.778988  0.320951  1
  Br  Br16  1  0.320951  0.926998  0.778988  1
  Br  Br17  1  0.221012  0.679049  0.073002  1
  Br  Br18  1  0.073002  0.221012  0.679049  1
  Br  Br19  1  0.679049  0.073002  0.221012  1
