# generated using pymatgen
data_Sm3PaHg2Rh3
_symmetry_space_group_name_H-M   'P 1'
_cell_length_a   7.85874539
_cell_length_b   7.85874432
_cell_length_c   3.92725400
_cell_angle_alpha   90.00000000
_cell_angle_beta   90.00000000
_cell_angle_gamma   121.64485026
_symmetry_Int_Tables_number   1
_chemical_formula_structural   Sm3PaHg2Rh3
_chemical_formula_sum   'Sm3 Pa1 Hg2 Rh3'
_cell_volume   206.48400817
_cell_formula_units_Z   1
loop_
 _symmetry_equiv_pos_site_id
 _symmetry_equiv_pos_as_xyz
  1  'x, y, z'
loop_
 _atom_site_type_symbol
 _atom_site_label
 _atom_site_symmetry_multiplicity
 _atom_site_fract_x
 _atom_site_fract_y
 _atom_site_fract_z
 _atom_site_occupancy
  Sm  Sm0  1  0.962994  0.403285  0.500000  1
  Sm  Sm1  1  0.641452  0.641452  0.500000  1
  Sm  Sm2  1  0.403285  0.962994  0.500000  1
  Pa  Pa3  1  0.266770  0.266770  0.000000  1
  Hg  Hg4  1  0.013103  0.741348  0.000000  1
  Hg  Hg5  1  0.741348  0.013103  0.000000  1
  Rh  Rh6  1  0.322964  0.616280  0.000000  1
  Rh  Rh7  1  0.031808  0.031808  0.500000  1
  Rh  Rh8  1  0.616280  0.322964  0.000000  1
