# generated using pymatgen
data_Er5Tl2In2RhAu
_symmetry_space_group_name_H-M   'P 1'
_cell_length_a   3.59727900
_cell_length_b   8.20455371
_cell_length_c   18.30536795
_cell_angle_alpha   90.21425474
_cell_angle_beta   90.00000000
_cell_angle_gamma   90.00000000
_symmetry_Int_Tables_number   1
_chemical_formula_structural   Er5Tl2In2RhAu
_chemical_formula_sum   'Er10 Tl4 In4 Rh2 Au2'
_cell_volume   540.26211125
_cell_formula_units_Z   2
loop_
 _symmetry_equiv_pos_site_id
 _symmetry_equiv_pos_as_xyz
  1  'x, y, z'
loop_
 _atom_site_type_symbol
 _atom_site_label
 _atom_site_symmetry_multiplicity
 _atom_site_fract_x
 _atom_site_fract_y
 _atom_site_fract_z
 _atom_site_occupancy
  Er  Er0  1  0.000000  0.500000  0.500000  1
  Er  Er1  1  0.000000  0.000000  0.000000  1
  Er  Er2  1  0.000000  0.764781  0.283515  1
  Er  Er3  1  0.000000  0.235219  0.716485  1
  Er  Er4  1  0.000000  0.773357  0.778380  1
  Er  Er5  1  0.000000  0.226643  0.221620  1
  Er  Er6  1  0.000000  0.620196  0.083372  1
  Er  Er7  1  0.000000  0.379804  0.916628  1
  Er  Er8  1  0.000000  0.884916  0.587746  1
  Er  Er9  1  0.000000  0.115084  0.412254  1
  Tl  Tl10  1  0.500000  0.708483  0.934474  1
  Tl  Tl11  1  0.500000  0.291517  0.065526  1
  Tl  Tl12  1  0.500000  0.792516  0.434442  1
  Tl  Tl13  1  0.500000  0.207484  0.565558  1
  In  In14  1  0.500000  0.584067  0.648175  1
  In  In15  1  0.500000  0.415933  0.351825  1
  In  In16  1  0.500000  0.921702  0.149294  1
  In  In17  1  0.500000  0.078298  0.850706  1
  Rh  Rh18  1  0.500000  0.969345  0.696930  1
  Rh  Rh19  1  0.500000  0.030655  0.303070  1
  Au  Au20  1  0.500000  0.531760  0.200746  1
  Au  Au21  1  0.500000  0.468240  0.799254  1
