# generated using pymatgen
data_Nd6HfNi17P12
_symmetry_space_group_name_H-M   'P 1'
_cell_length_a   3.86999200
_cell_length_b   10.74328600
_cell_length_c   12.52408100
_cell_angle_alpha   90.00000000
_cell_angle_beta   90.00000000
_cell_angle_gamma   90.00000000
_symmetry_Int_Tables_number   1
_chemical_formula_structural   Nd6HfNi17P12
_chemical_formula_sum   'Nd6 Hf1 Ni17 P12'
_cell_volume   520.70658795
_cell_formula_units_Z   1
loop_
 _symmetry_equiv_pos_site_id
 _symmetry_equiv_pos_as_xyz
  1  'x, y, z'
loop_
 _atom_site_type_symbol
 _atom_site_label
 _atom_site_symmetry_multiplicity
 _atom_site_fract_x
 _atom_site_fract_y
 _atom_site_fract_z
 _atom_site_occupancy
  Nd  Nd0  1  0.000000  0.500000  0.525326  1
  Nd  Nd1  1  0.500000  0.000000  0.481711  1
  Nd  Nd2  1  0.500000  0.818875  0.206413  1
  Nd  Nd3  1  0.500000  0.181125  0.206413  1
  Nd  Nd4  1  0.000000  0.685851  0.796716  1
  Nd  Nd5  1  0.000000  0.314149  0.796716  1
  Hf  Hf6  1  0.500000  0.500000  0.148523  1
  Ni  Ni7  1  0.000000  0.500000  0.981984  1
  Ni  Ni8  1  0.500000  0.000000  0.016727  1
  Ni  Ni9  1  0.500000  0.298949  0.429482  1
  Ni  Ni10  1  0.500000  0.701051  0.429482  1
  Ni  Ni11  1  0.000000  0.199320  0.572968  1
  Ni  Ni12  1  0.000000  0.800680  0.572968  1
  Ni  Ni13  1  0.500000  0.881912  0.711782  1
  Ni  Ni14  1  0.500000  0.118088  0.711782  1
  Ni  Ni15  1  0.000000  0.618312  0.291429  1
  Ni  Ni16  1  0.000000  0.381688  0.291429  1
  Ni  Ni17  1  0.500000  0.324147  0.990004  1
  Ni  Ni18  1  0.500000  0.675853  0.990004  1
  Ni  Ni19  1  0.000000  0.158972  0.001451  1
  Ni  Ni20  1  0.000000  0.841028  0.001451  1
  Ni  Ni21  1  0.000000  0.000000  0.839316  1
  Ni  Ni22  1  0.500000  0.500000  0.702572  1
  Ni  Ni23  1  0.000000  0.000000  0.300707  1
  P  P24  1  0.500000  0.307802  0.615308  1
  P  P25  1  0.500000  0.692198  0.615308  1
  P  P26  1  0.000000  0.189831  0.388577  1
  P  P27  1  0.000000  0.810169  0.388577  1
  P  P28  1  0.500000  0.500000  0.882891  1
  P  P29  1  0.000000  0.000000  0.120794  1
  P  P30  1  0.500000  0.854976  0.892111  1
  P  P31  1  0.500000  0.145024  0.892111  1
  P  P32  1  0.000000  0.661710  0.097479  1
  P  P33  1  0.000000  0.338290  0.097479  1
  P  P34  1  0.500000  0.500000  0.352413  1
  P  P35  1  0.000000  0.000000  0.659596  1
