# generated using pymatgen
data_YLu3Al17SiRh6
_symmetry_space_group_name_H-M   'P 1'
_cell_length_a   7.52311471
_cell_length_b   7.50787225
_cell_length_c   9.40780816
_cell_angle_alpha   89.99562385
_cell_angle_beta   89.92402963
_cell_angle_gamma   119.55721777
_symmetry_Int_Tables_number   1
_chemical_formula_structural   YLu3Al17SiRh6
_chemical_formula_sum   'Y1 Lu3 Al17 Si1 Rh6'
_cell_volume   462.22516768
_cell_formula_units_Z   1
loop_
 _symmetry_equiv_pos_site_id
 _symmetry_equiv_pos_as_xyz
  1  'x, y, z'
loop_
 _atom_site_type_symbol
 _atom_site_label
 _atom_site_symmetry_multiplicity
 _atom_site_fract_x
 _atom_site_fract_y
 _atom_site_fract_z
 _atom_site_occupancy
  Y  Y0  1  0.994355  0.664493  0.247302  1
  Lu  Lu1  1  0.004962  0.328798  0.754873  1
  Lu  Lu2  1  0.676782  0.002469  0.246922  1
  Lu  Lu3  1  0.328259  0.005141  0.750190  1
  Al  Al4  1  0.127323  0.127839  0.249485  1
  Al  Al5  1  0.872211  0.874239  0.749527  1
  Al  Al6  1  0.999229  0.668670  0.921398  1
  Al  Al7  1  0.000170  0.665231  0.576552  1
  Al  Al8  1  0.335484  0.999556  0.424433  1
  Al  Al9  1  0.000897  0.333966  0.429525  1
  Al  Al10  1  0.664316  0.000050  0.575477  1
  Al  Al11  1  0.660087  0.995669  0.922179  1
  Al  Al12  1  0.335547  0.999904  0.075884  1
  Al  Al13  1  0.333225  0.332423  0.554430  1
  Al  Al14  1  0.667317  0.668749  0.447073  1
  Al  Al15  1  0.666562  0.668225  0.054001  1
  Al  Al16  1  0.335760  0.332988  0.946314  1
  Al  Al17  1  0.341298  0.550892  0.250217  1
  Al  Al18  1  0.661157  0.449185  0.750315  1
  Al  Al19  1  0.546185  0.338291  0.249765  1
  Al  Al20  1  0.448757  0.658595  0.749509  1
  Si  Si21  1  0.001341  0.333859  0.075431  1
  Rh  Rh22  1  0.680498  0.328006  0.001698  1
  Rh  Rh23  1  0.319620  0.664274  0.999762  1
  Rh  Rh24  1  0.327278  0.671674  0.499649  1
  Rh  Rh25  1  0.672427  0.327606  0.499069  1
  Rh  Rh26  1  0.998936  0.007980  0.999516  1
  Rh  Rh27  1  0.000021  0.001225  0.499510  1
