# generated using pymatgen
data_Lu4TaTiB4(Ir2Ru3)2
_symmetry_space_group_name_H-M   'P 1'
_cell_length_a   9.64102900
_cell_length_b   9.63675800
_cell_length_c   3.10900600
_cell_angle_alpha   90.00000000
_cell_angle_beta   90.00000000
_cell_angle_gamma   90.00000000
_symmetry_Int_Tables_number   1
_chemical_formula_structural   Lu4TaTiB4(Ir2Ru3)2
_chemical_formula_sum   'Lu4 Ta1 Ti1 B4 Ir4 Ru6'
_cell_volume   288.85234819
_cell_formula_units_Z   1
loop_
 _symmetry_equiv_pos_site_id
 _symmetry_equiv_pos_as_xyz
  1  'x, y, z'
loop_
 _atom_site_type_symbol
 _atom_site_label
 _atom_site_symmetry_multiplicity
 _atom_site_fract_x
 _atom_site_fract_y
 _atom_site_fract_z
 _atom_site_occupancy
  Lu  Lu0  1  0.823651  0.673456  0.000000  1
  Lu  Lu1  1  0.176349  0.326544  0.000000  1
  Lu  Lu2  1  0.326515  0.823524  0.000000  1
  Lu  Lu3  1  0.673485  0.176476  0.000000  1
  Ta  Ta4  1  0.000000  0.000000  0.000000  1
  Ti  Ti5  1  0.500000  0.500000  0.000000  1
  B  B6  1  0.622210  0.881852  0.000000  1
  B  B7  1  0.377790  0.118148  0.000000  1
  B  B8  1  0.127679  0.612655  0.000000  1
  B  B9  1  0.872321  0.387345  0.000000  1
  Ir  Ir10  1  0.571283  0.718736  0.500000  1
  Ir  Ir11  1  0.428717  0.281264  0.500000  1
  Ir  Ir12  1  0.071476  0.779401  0.500000  1
  Ir  Ir13  1  0.928524  0.220599  0.500000  1
  Ru  Ru14  1  0.283969  0.569736  0.500000  1
  Ru  Ru15  1  0.716031  0.430264  0.500000  1
  Ru  Ru16  1  0.217351  0.069903  0.500000  1
  Ru  Ru17  1  0.782649  0.930097  0.500000  1
  Ru  Ru18  1  0.500000  0.000000  0.500000  1
  Ru  Ru19  1  0.000000  0.500000  0.500000  1
