# generated using pymatgen
data_Sm6MgCo2Sn11
_symmetry_space_group_name_H-M   'P 1'
_cell_length_a   8.54861214
_cell_length_b   8.54861233
_cell_length_c   13.29980207
_cell_angle_alpha   90.00860998
_cell_angle_beta   89.99138947
_cell_angle_gamma   148.89215769
_symmetry_Int_Tables_number   1
_chemical_formula_structural   Sm6MgCo2Sn11
_chemical_formula_sum   'Sm6 Mg1 Co2 Sn11'
_cell_volume   502.14978755
_cell_formula_units_Z   1
loop_
 _symmetry_equiv_pos_site_id
 _symmetry_equiv_pos_as_xyz
  1  'x, y, z'
loop_
 _atom_site_type_symbol
 _atom_site_label
 _atom_site_symmetry_multiplicity
 _atom_site_fract_x
 _atom_site_fract_y
 _atom_site_fract_z
 _atom_site_occupancy
  Sm  Sm0  1  0.898630  0.101370  0.093353  1
  Sm  Sm1  1  0.095783  0.904217  0.591578  1
  Sm  Sm2  1  0.899219  0.100781  0.755044  1
  Sm  Sm3  1  0.101982  0.898018  0.906434  1
  Sm  Sm4  1  0.101495  0.898505  0.251597  1
  Sm  Sm5  1  0.903913  0.096087  0.401890  1
  Mg  Mg6  1  0.752440  0.247560  0.572603  1
  Co  Co7  1  0.301111  0.698889  0.248004  1
  Co  Co8  1  0.700029  0.299971  0.754799  1
  Sn  Sn9  1  0.422893  0.577107  0.575223  1
  Sn  Sn10  1  0.570331  0.429669  0.425495  1
  Sn  Sn11  1  0.736993  0.263007  0.256263  1
  Sn  Sn12  1  0.261276  0.738724  0.737357  1
  Sn  Sn13  1  0.244506  0.755494  0.072598  1
  Sn  Sn14  1  0.252079  0.747921  0.431636  1
  Sn  Sn15  1  0.571646  0.428354  0.076131  1
  Sn  Sn16  1  0.454800  0.545200  0.248391  1
  Sn  Sn17  1  0.546412  0.453588  0.748334  1
  Sn  Sn18  1  0.755138  0.244862  0.929373  1
  Sn  Sn19  1  0.429322  0.570678  0.923900  1
