# generated using pymatgen
data_Cs6DyTmI12
_symmetry_space_group_name_H-M   'P 1'
_cell_length_a   10.67098318
_cell_length_b   10.67343518
_cell_length_c   8.81280500
_cell_angle_alpha   90.00000000
_cell_angle_beta   90.00000000
_cell_angle_gamma   89.94607151
_symmetry_Int_Tables_number   1
_chemical_formula_structural   Cs6DyTmI12
_chemical_formula_sum   'Cs6 Dy1 Tm1 I12'
_cell_volume   1003.74321067
_cell_formula_units_Z   1
loop_
 _symmetry_equiv_pos_site_id
 _symmetry_equiv_pos_as_xyz
  1  'x, y, z'
loop_
 _atom_site_type_symbol
 _atom_site_label
 _atom_site_symmetry_multiplicity
 _atom_site_fract_x
 _atom_site_fract_y
 _atom_site_fract_z
 _atom_site_occupancy
  Cs  Cs0  1  0.000000  0.000000  0.500000  1
  Cs  Cs1  1  0.000000  0.000000  0.000000  1
  Cs  Cs2  1  0.233469  0.586587  0.500000  1
  Cs  Cs3  1  0.766531  0.413413  0.500000  1
  Cs  Cs4  1  0.413344  0.233634  0.000000  1
  Cs  Cs5  1  0.586656  0.766366  0.000000  1
  Dy  Dy6  1  0.500000  0.000000  0.500000  1
  Tm  Tm7  1  0.000000  0.500000  0.000000  1
  I  I8  1  0.694382  0.058760  0.743787  1
  I  I9  1  0.305618  0.941240  0.743787  1
  I  I10  1  0.941812  0.692339  0.241295  1
  I  I11  1  0.058188  0.307661  0.241295  1
  I  I12  1  0.305618  0.941240  0.256213  1
  I  I13  1  0.694382  0.058760  0.256213  1
  I  I14  1  0.058188  0.307661  0.758705  1
  I  I15  1  0.941812  0.692339  0.758705  1
  I  I16  1  0.571851  0.725362  0.500000  1
  I  I17  1  0.428149  0.274638  0.500000  1
  I  I18  1  0.271673  0.571111  0.000000  1
  I  I19  1  0.728327  0.428889  0.000000  1
