# generated using pymatgen
data_Nd16Cd4Ni3Ir
_symmetry_space_group_name_H-M   'P 1'
_cell_length_a   9.91967086
_cell_length_b   9.91967057
_cell_length_c   9.91967133
_cell_angle_alpha   59.95150752
_cell_angle_beta   59.95150997
_cell_angle_gamma   59.95151062
_symmetry_Int_Tables_number   1
_chemical_formula_structural   Nd16Cd4Ni3Ir
_chemical_formula_sum   'Nd16 Cd4 Ni3 Ir1'
_cell_volume   689.44388419
_cell_formula_units_Z   1
loop_
 _symmetry_equiv_pos_site_id
 _symmetry_equiv_pos_as_xyz
  1  'x, y, z'
loop_
 _atom_site_type_symbol
 _atom_site_label
 _atom_site_symmetry_multiplicity
 _atom_site_fract_x
 _atom_site_fract_y
 _atom_site_fract_z
 _atom_site_occupancy
  Nd  Nd0  1  0.596695  0.596695  0.596695  1
  Nd  Nd1  1  0.600392  0.600392  0.203992  1
  Nd  Nd2  1  0.600392  0.203992  0.600392  1
  Nd  Nd3  1  0.203992  0.600392  0.600392  1
  Nd  Nd4  1  0.059574  0.439758  0.439758  1
  Nd  Nd5  1  0.438285  0.059470  0.059470  1
  Nd  Nd6  1  0.439758  0.059574  0.439758  1
  Nd  Nd7  1  0.059470  0.438285  0.059470  1
  Nd  Nd8  1  0.439758  0.439758  0.059574  1
  Nd  Nd9  1  0.059470  0.059470  0.438285  1
  Nd  Nd10  1  0.188716  0.814146  0.814146  1
  Nd  Nd11  1  0.806761  0.188799  0.188799  1
  Nd  Nd12  1  0.814146  0.188716  0.814146  1
  Nd  Nd13  1  0.188799  0.806761  0.188799  1
  Nd  Nd14  1  0.814146  0.814146  0.188716  1
  Nd  Nd15  1  0.188799  0.188799  0.806761  1
  Cd  Cd16  1  0.830403  0.830403  0.830403  1
  Cd  Cd17  1  0.829434  0.829434  0.509770  1
  Cd  Cd18  1  0.829434  0.509770  0.829434  1
  Cd  Cd19  1  0.509770  0.829434  0.829434  1
  Ni  Ni20  1  0.392409  0.392409  0.823992  1
  Ni  Ni21  1  0.392409  0.823992  0.392409  1
  Ni  Ni22  1  0.823992  0.392409  0.392409  1
  Ir  Ir23  1  0.393000  0.393000  0.393000  1
