# generated using pymatgen
data_TmLu9In8(PtAu)2
_symmetry_space_group_name_H-M   'P 1'
_cell_length_a   3.58665800
_cell_length_b   8.06593843
_cell_length_c   18.07488007
_cell_angle_alpha   90.05793643
_cell_angle_beta   90.00000000
_cell_angle_gamma   90.00000000
_symmetry_Int_Tables_number   1
_chemical_formula_structural   TmLu9In8(PtAu)2
_chemical_formula_sum   'Tm1 Lu9 In8 Pt2 Au2'
_cell_volume   522.90172214
_cell_formula_units_Z   1
loop_
 _symmetry_equiv_pos_site_id
 _symmetry_equiv_pos_as_xyz
  1  'x, y, z'
loop_
 _atom_site_type_symbol
 _atom_site_label
 _atom_site_symmetry_multiplicity
 _atom_site_fract_x
 _atom_site_fract_y
 _atom_site_fract_z
 _atom_site_occupancy
  Tm  Tm0  1  0.000000  0.000000  0.000000  1
  Lu  Lu1  1  0.000000  0.120023  0.419083  1
  Lu  Lu2  1  0.000000  0.879977  0.580917  1
  Lu  Lu3  1  0.000000  0.383391  0.916337  1
  Lu  Lu4  1  0.000000  0.616609  0.083663  1
  Lu  Lu5  1  0.000000  0.255949  0.217459  1
  Lu  Lu6  1  0.000000  0.744051  0.782541  1
  Lu  Lu7  1  0.000000  0.265348  0.722373  1
  Lu  Lu8  1  0.000000  0.734652  0.277627  1
  Lu  Lu9  1  0.000000  0.500000  0.500000  1
  In  In10  1  0.500000  0.423230  0.352873  1
  In  In11  1  0.500000  0.576770  0.647127  1
  In  In12  1  0.500000  0.075830  0.853522  1
  In  In13  1  0.500000  0.924170  0.146478  1
  In  In14  1  0.500000  0.292864  0.064742  1
  In  In15  1  0.500000  0.707136  0.935258  1
  In  In16  1  0.500000  0.210396  0.566715  1
  In  In17  1  0.500000  0.789604  0.433285  1
  Pt  Pt18  1  0.500000  0.470224  0.804274  1
  Pt  Pt19  1  0.500000  0.529776  0.195726  1
  Au  Au20  1  0.500000  0.030198  0.302285  1
  Au  Au21  1  0.500000  0.969802  0.697715  1
