# generated using pymatgen
data_Yb2Cu2SiPd12
_symmetry_space_group_name_H-M   'P 1'
_cell_length_a   8.77259800
_cell_length_b   8.77259800
_cell_length_c   7.04442100
_cell_angle_alpha   90.00000000
_cell_angle_beta   90.00000000
_cell_angle_gamma   90.00000000
_symmetry_Int_Tables_number   1
_chemical_formula_structural   Yb2Cu2SiPd12
_chemical_formula_sum   'Yb4 Cu4 Si2 Pd24'
_cell_volume   542.12790213
_cell_formula_units_Z   2
loop_
 _symmetry_equiv_pos_site_id
 _symmetry_equiv_pos_as_xyz
  1  'x, y, z'
loop_
 _atom_site_type_symbol
 _atom_site_label
 _atom_site_symmetry_multiplicity
 _atom_site_fract_x
 _atom_site_fract_y
 _atom_site_fract_z
 _atom_site_occupancy
  Yb  Yb0  1  0.500000  0.000000  0.939572  1
  Yb  Yb1  1  0.000000  0.500000  0.060428  1
  Yb  Yb2  1  0.000000  0.000000  0.500000  1
  Yb  Yb3  1  0.500000  0.500000  0.500000  1
  Cu  Cu4  1  0.250000  0.750000  0.000000  1
  Cu  Cu5  1  0.250000  0.250000  0.000000  1
  Cu  Cu6  1  0.750000  0.750000  0.000000  1
  Cu  Cu7  1  0.750000  0.250000  0.000000  1
  Si  Si8  1  0.500000  0.000000  0.441011  1
  Si  Si9  1  0.000000  0.500000  0.558989  1
  Pd  Pd10  1  0.333320  0.833320  0.619095  1
  Pd  Pd11  1  0.333320  0.166680  0.619095  1
  Pd  Pd12  1  0.666680  0.833320  0.619095  1
  Pd  Pd13  1  0.666680  0.166680  0.619095  1
  Pd  Pd14  1  0.166680  0.666680  0.380905  1
  Pd  Pd15  1  0.166680  0.333320  0.380905  1
  Pd  Pd16  1  0.833320  0.666680  0.380905  1
  Pd  Pd17  1  0.833320  0.333320  0.380905  1
  Pd  Pd18  1  0.500000  0.766619  0.252998  1
  Pd  Pd19  1  0.500000  0.233381  0.252998  1
  Pd  Pd20  1  0.266619  0.000000  0.252998  1
  Pd  Pd21  1  0.733381  0.000000  0.252998  1
  Pd  Pd22  1  0.000000  0.733381  0.747002  1
  Pd  Pd23  1  0.000000  0.266619  0.747002  1
  Pd  Pd24  1  0.233381  0.500000  0.747002  1
  Pd  Pd25  1  0.766619  0.500000  0.747002  1
  Pd  Pd26  1  0.500000  0.342095  0.863323  1
  Pd  Pd27  1  0.500000  0.657905  0.863323  1
  Pd  Pd28  1  0.842095  0.000000  0.863323  1
  Pd  Pd29  1  0.157905  0.000000  0.863323  1
  Pd  Pd30  1  0.000000  0.157905  0.136677  1
  Pd  Pd31  1  0.000000  0.842095  0.136677  1
  Pd  Pd32  1  0.657905  0.500000  0.136677  1
  Pd  Pd33  1  0.342095  0.500000  0.136677  1
