# generated using pymatgen
data_Li8Tb8Sn7Bi
_symmetry_space_group_name_H-M   'P 1'
_cell_length_a   9.43098904
_cell_length_b   9.43099046
_cell_length_c   7.32964963
_cell_angle_alpha   90.07081286
_cell_angle_beta   89.92918530
_cell_angle_gamma   119.98019812
_symmetry_Int_Tables_number   1
_chemical_formula_structural   Li8Tb8Sn7Bi
_chemical_formula_sum   'Li8 Tb8 Sn7 Bi1'
_cell_volume   564.69582058
_cell_formula_units_Z   1
loop_
 _symmetry_equiv_pos_site_id
 _symmetry_equiv_pos_as_xyz
  1  'x, y, z'
loop_
 _atom_site_type_symbol
 _atom_site_label
 _atom_site_symmetry_multiplicity
 _atom_site_fract_x
 _atom_site_fract_y
 _atom_site_fract_z
 _atom_site_occupancy
  Li  Li0  1  0.166552  0.833448  0.196692  1
  Li  Li1  1  0.335433  0.170888  0.690259  1
  Li  Li2  1  0.829112  0.664567  0.690259  1
  Li  Li3  1  0.168148  0.334375  0.193288  1
  Li  Li4  1  0.665625  0.831852  0.193288  1
  Li  Li5  1  0.833366  0.166634  0.694190  1
  Li  Li6  1  0.335329  0.664671  0.815307  1
  Li  Li7  1  0.666087  0.333913  0.313483  1
  Tb  Tb8  1  0.512877  0.487123  0.991506  1
  Tb  Tb9  1  0.021953  0.507210  0.488851  1
  Tb  Tb10  1  0.492790  0.978047  0.488851  1
  Tb  Tb11  1  0.517390  0.027011  0.993892  1
  Tb  Tb12  1  0.972989  0.482610  0.993892  1
  Tb  Tb13  1  0.487038  0.512962  0.490588  1
  Tb  Tb14  1  0.997469  0.002531  0.988655  1
  Tb  Tb15  1  0.997951  0.002049  0.484071  1
  Sn  Sn16  1  0.333198  0.166050  0.256824  1
  Sn  Sn17  1  0.833950  0.666802  0.256824  1
  Sn  Sn18  1  0.166143  0.333197  0.756985  1
  Sn  Sn19  1  0.666803  0.833857  0.756985  1
  Sn  Sn20  1  0.833562  0.166438  0.256085  1
  Sn  Sn21  1  0.332667  0.667333  0.222878  1
  Sn  Sn22  1  0.666967  0.333033  0.722239  1
  Bi  Bi23  1  0.166599  0.833401  0.754111  1
