# generated using pymatgen
data_DySc6Sn23Rh6
_symmetry_space_group_name_H-M   'P 1'
_cell_length_a   9.72072900
_cell_length_b   9.72073076
_cell_length_c   9.95595800
_cell_angle_alpha   90.00000000
_cell_angle_beta   90.00000000
_cell_angle_gamma   119.99999742
_symmetry_Int_Tables_number   1
_chemical_formula_structural   DySc6Sn23Rh6
_chemical_formula_sum   'Dy1 Sc6 Sn23 Rh6'
_cell_volume   814.72576181
_cell_formula_units_Z   1
loop_
 _symmetry_equiv_pos_site_id
 _symmetry_equiv_pos_as_xyz
  1  'x, y, z'
loop_
 _atom_site_type_symbol
 _atom_site_label
 _atom_site_symmetry_multiplicity
 _atom_site_fract_x
 _atom_site_fract_y
 _atom_site_fract_z
 _atom_site_occupancy
  Dy  Dy0  1  0.000000  0.000000  0.000000  1
  Sc  Sc1  1  0.483196  0.516804  0.309783  1
  Sc  Sc2  1  0.516804  0.483196  0.690217  1
  Sc  Sc3  1  0.483196  0.966391  0.309783  1
  Sc  Sc4  1  0.516804  0.033609  0.690217  1
  Sc  Sc5  1  0.033609  0.516804  0.309783  1
  Sc  Sc6  1  0.966391  0.483196  0.690217  1
  Sn  Sn7  1  0.352342  0.000000  0.000000  1
  Sn  Sn8  1  0.647658  0.000000  0.000000  1
  Sn  Sn9  1  0.000000  0.352342  0.000000  1
  Sn  Sn10  1  0.000000  0.647658  0.000000  1
  Sn  Sn11  1  0.647658  0.647658  0.000000  1
  Sn  Sn12  1  0.352342  0.352342  0.000000  1
  Sn  Sn13  1  0.333333  0.666667  0.825914  1
  Sn  Sn14  1  0.666667  0.333333  0.174086  1
  Sn  Sn15  1  0.000000  0.000000  0.500000  1
  Sn  Sn16  1  0.775671  0.224329  0.458644  1
  Sn  Sn17  1  0.224329  0.775671  0.541356  1
  Sn  Sn18  1  0.775671  0.551342  0.458644  1
  Sn  Sn19  1  0.224329  0.448658  0.541356  1
  Sn  Sn20  1  0.448658  0.224329  0.458644  1
  Sn  Sn21  1  0.551342  0.775671  0.541356  1
  Sn  Sn22  1  0.333333  0.666667  0.141063  1
  Sn  Sn23  1  0.666667  0.333333  0.858937  1
  Sn  Sn24  1  0.123291  0.876709  0.283827  1
  Sn  Sn25  1  0.876709  0.123291  0.716173  1
  Sn  Sn26  1  0.123291  0.246581  0.283827  1
  Sn  Sn27  1  0.876709  0.753419  0.716173  1
  Sn  Sn28  1  0.753419  0.876709  0.283827  1
  Sn  Sn29  1  0.246581  0.123291  0.716173  1
  Rh  Rh30  1  0.830256  0.169744  0.200740  1
  Rh  Rh31  1  0.169744  0.830256  0.799260  1
  Rh  Rh32  1  0.830256  0.660511  0.200740  1
  Rh  Rh33  1  0.169744  0.339489  0.799260  1
  Rh  Rh34  1  0.339489  0.169744  0.200740  1
  Rh  Rh35  1  0.660511  0.830256  0.799260  1
