# generated using pymatgen
data_Rb4AcUI10
_symmetry_space_group_name_H-M   'P 1'
_cell_length_a   9.53728417
_cell_length_b   10.15606000
_cell_length_c   15.30719604
_cell_angle_alpha   90.00000000
_cell_angle_beta   91.22502679
_cell_angle_gamma   90.00000000
_symmetry_Int_Tables_number   1
_chemical_formula_structural   Rb4AcUI10
_chemical_formula_sum   'Rb8 Ac2 U2 I20'
_cell_volume   1482.33496142
_cell_formula_units_Z   2
loop_
 _symmetry_equiv_pos_site_id
 _symmetry_equiv_pos_as_xyz
  1  'x, y, z'
loop_
 _atom_site_type_symbol
 _atom_site_label
 _atom_site_symmetry_multiplicity
 _atom_site_fract_x
 _atom_site_fract_y
 _atom_site_fract_z
 _atom_site_occupancy
  Rb  Rb0  1  0.546525  0.499598  0.829046  1
  Rb  Rb1  1  0.453475  0.500402  0.170954  1
  Rb  Rb2  1  0.047365  0.501158  0.677295  1
  Rb  Rb3  1  0.453475  0.999598  0.170954  1
  Rb  Rb4  1  0.952635  0.498842  0.322705  1
  Rb  Rb5  1  0.546525  0.000402  0.829046  1
  Rb  Rb6  1  0.952635  0.001158  0.322705  1
  Rb  Rb7  1  0.047365  0.998842  0.677295  1
  Ac  Ac8  1  0.579326  0.750000  0.505032  1
  Ac  Ac9  1  0.420674  0.250000  0.494968  1
  U  U10  1  0.072885  0.250000  0.997568  1
  U  U11  1  0.927115  0.750000  0.002432  1
  I  I12  1  0.832972  0.750000  0.801015  1
  I  I13  1  0.167028  0.250000  0.198985  1
  I  I14  1  0.333604  0.250000  0.704897  1
  I  I15  1  0.666396  0.750000  0.295103  1
  I  I16  1  0.365461  0.750000  0.676057  1
  I  I17  1  0.634539  0.250000  0.323943  1
  I  I18  1  0.871328  0.250000  0.828245  1
  I  I19  1  0.128672  0.750000  0.171755  1
  I  I20  1  0.930654  0.750000  0.510330  1
  I  I21  1  0.069346  0.250000  0.489670  1
  I  I22  1  0.412071  0.250000  0.989908  1
  I  I23  1  0.587929  0.750000  0.010092  1
  I  I24  1  0.664753  0.045594  0.585199  1
  I  I25  1  0.335247  0.954406  0.414801  1
  I  I26  1  0.155915  0.956757  0.925255  1
  I  I27  1  0.335247  0.545594  0.414801  1
  I  I28  1  0.844085  0.043243  0.074745  1
  I  I29  1  0.664753  0.454406  0.585199  1
  I  I30  1  0.844085  0.456757  0.074745  1
  I  I31  1  0.155915  0.543243  0.925255  1
