# generated using pymatgen
data_Nb12Ga7OsN4
_symmetry_space_group_name_H-M   'P 1'
_cell_length_a   7.05803059
_cell_length_b   7.05803096
_cell_length_c   7.05803064
_cell_angle_alpha   89.72700146
_cell_angle_beta   90.27300000
_cell_angle_gamma   90.27300460
_symmetry_Int_Tables_number   1
_chemical_formula_structural   Nb12Ga7OsN4
_chemical_formula_sum   'Nb12 Ga7 Os1 N4'
_cell_volume   351.58949617
_cell_formula_units_Z   1
loop_
 _symmetry_equiv_pos_site_id
 _symmetry_equiv_pos_as_xyz
  1  'x, y, z'
loop_
 _atom_site_type_symbol
 _atom_site_label
 _atom_site_symmetry_multiplicity
 _atom_site_fract_x
 _atom_site_fract_y
 _atom_site_fract_z
 _atom_site_occupancy
  Nb  Nb0  1  0.796121  0.956911  0.373082  1
  Nb  Nb1  1  0.705302  0.043498  0.876036  1
  Nb  Nb2  1  0.207953  0.457324  0.123478  1
  Nb  Nb3  1  0.292327  0.547715  0.624333  1
  Nb  Nb4  1  0.956502  0.376036  0.794698  1
  Nb  Nb5  1  0.043089  0.873082  0.703879  1
  Nb  Nb6  1  0.452285  0.124333  0.207673  1
  Nb  Nb7  1  0.542676  0.623478  0.292047  1
  Nb  Nb8  1  0.376522  0.792047  0.957324  1
  Nb  Nb9  1  0.875667  0.707673  0.047715  1
  Nb  Nb10  1  0.126918  0.203879  0.456911  1
  Nb  Nb11  1  0.623964  0.294698  0.543498  1
  Ga  Ga12  1  0.319491  0.177485  0.818775  1
  Ga  Ga13  1  0.822515  0.318775  0.180509  1
  Ga  Ga14  1  0.681225  0.680509  0.677485  1
  Ga  Ga15  1  0.569090  0.430910  0.930910  1
  Ga  Ga16  1  0.427364  0.929079  0.564144  1
  Ga  Ga17  1  0.935856  0.572636  0.429079  1
  Ga  Ga18  1  0.070921  0.064144  0.072636  1
  Os  Os19  1  0.178802  0.821198  0.321198  1
  N  N20  1  0.875817  0.124183  0.624183  1
  N  N21  1  0.623915  0.876482  0.127839  1
  N  N22  1  0.123518  0.627839  0.876085  1
  N  N23  1  0.372161  0.376085  0.376482  1
