# generated using pymatgen
data_Ta16Be3GeTe16
_symmetry_space_group_name_H-M   'P 1'
_cell_length_a   4.78665800
_cell_length_b   11.16522998
_cell_length_c   19.41935800
_cell_angle_alpha   90.02394930
_cell_angle_beta   90.00000000
_cell_angle_gamma   90.00000000
_symmetry_Int_Tables_number   1
_chemical_formula_structural   Ta16Be3GeTe16
_chemical_formula_sum   'Ta16 Be3 Ge1 Te16'
_cell_volume   1037.85074619
_cell_formula_units_Z   1
loop_
 _symmetry_equiv_pos_site_id
 _symmetry_equiv_pos_as_xyz
  1  'x, y, z'
loop_
 _atom_site_type_symbol
 _atom_site_label
 _atom_site_symmetry_multiplicity
 _atom_site_fract_x
 _atom_site_fract_y
 _atom_site_fract_z
 _atom_site_occupancy
  Ta  Ta0  1  0.501190  0.559613  0.389621  1
  Ta  Ta1  1  0.501190  0.440387  0.610379  1
  Ta  Ta2  1  0.507935  0.062123  0.114200  1
  Ta  Ta3  1  0.507935  0.937877  0.885800  1
  Ta  Ta4  1  0.498829  0.692254  0.534519  1
  Ta  Ta5  1  0.498829  0.307746  0.465481  1
  Ta  Ta6  1  0.508295  0.199020  0.964366  1
  Ta  Ta7  1  0.508295  0.800980  0.035634  1
  Ta  Ta8  1  0.000223  0.678344  0.446148  1
  Ta  Ta9  1  0.000223  0.321656  0.553852  1
  Ta  Ta10  1  0.991920  0.184841  0.055588  1
  Ta  Ta11  1  0.991920  0.815159  0.944412  1
  Ta  Ta12  1  0.999780  0.406513  0.397630  1
  Ta  Ta13  1  0.999780  0.593487  0.602370  1
  Ta  Ta14  1  0.991746  0.903204  0.105883  1
  Ta  Ta15  1  0.991746  0.096796  0.894117  1
  Be  Be16  1  0.249923  0.500000  0.500000  1
  Be  Be17  1  0.749956  0.000000  0.000000  1
  Be  Be18  1  0.750085  0.500000  0.500000  1
  Ge  Ge19  1  0.249836  0.000000  0.000000  1
  Te  Te20  1  0.999541  0.838234  0.560490  1
  Te  Te21  1  0.999541  0.161766  0.439510  1
  Te  Te22  1  0.001243  0.341591  0.938917  1
  Te  Te23  1  0.001243  0.658409  0.061083  1
  Te  Te24  1  0.500093  0.335556  0.319715  1
  Te  Te25  1  0.500093  0.664444  0.680285  1
  Te  Te26  1  0.499069  0.834536  0.181892  1
  Te  Te27  1  0.499069  0.165464  0.818108  1
  Te  Te28  1  0.500212  0.813378  0.405428  1
  Te  Te29  1  0.500212  0.186622  0.594572  1
  Te  Te30  1  0.498823  0.316553  0.095530  1
  Te  Te31  1  0.498823  0.683447  0.904470  1
  Te  Te32  1  0.000363  0.605205  0.305763  1
  Te  Te33  1  0.000363  0.394795  0.694237  1
  Te  Te34  1  0.000839  0.106447  0.195854  1
  Te  Te35  1  0.000839  0.893553  0.804146  1
