# generated using pymatgen
data_TbHo15In6CoNi
_symmetry_space_group_name_H-M   'P 1'
_cell_length_a   10.36911300
_cell_length_b   10.36921001
_cell_length_c   6.93747700
_cell_angle_alpha   90.00305602
_cell_angle_beta   90.00005240
_cell_angle_gamma   119.99969371
_symmetry_Int_Tables_number   1
_chemical_formula_structural   TbHo15In6CoNi
_chemical_formula_sum   'Tb1 Ho15 In6 Co1 Ni1'
_cell_volume   645.98257852
_cell_formula_units_Z   1
loop_
 _symmetry_equiv_pos_site_id
 _symmetry_equiv_pos_as_xyz
  1  'x, y, z'
loop_
 _atom_site_type_symbol
 _atom_site_label
 _atom_site_symmetry_multiplicity
 _atom_site_fract_x
 _atom_site_fract_y
 _atom_site_fract_z
 _atom_site_occupancy
  Tb  Tb0  1  0.532206  0.064413  0.506057  1
  Ho  Ho1  1  0.935231  0.467596  0.506901  1
  Ho  Ho2  1  0.532365  0.467594  0.506900  1
  Ho  Ho3  1  0.464960  0.929921  0.005004  1
  Ho  Ho4  1  0.069708  0.534823  0.005566  1
  Ho  Ho5  1  0.465113  0.534822  0.005567  1
  Ho  Ho6  1  0.178319  0.356636  0.713712  1
  Ho  Ho7  1  0.643730  0.821400  0.713957  1
  Ho  Ho8  1  0.177670  0.821398  0.713957  1
  Ho  Ho9  1  0.822656  0.645310  0.212696  1
  Ho  Ho10  1  0.354688  0.177577  0.212035  1
  Ho  Ho11  1  0.822889  0.177577  0.212037  1
  Ho  Ho12  1  0.666885  0.333770  0.892598  1
  Ho  Ho13  1  0.333088  0.666175  0.395308  1
  Ho  Ho14  1  0.999993  0.999985  0.490789  1
  Ho  Ho15  1  0.000056  0.000112  0.992317  1
  In  In16  1  0.837127  0.674255  0.750705  1
  In  In17  1  0.325248  0.162727  0.751123  1
  In  In18  1  0.837479  0.162726  0.751122  1
  In  In19  1  0.162515  0.325031  0.252353  1
  In  In20  1  0.674883  0.837488  0.252408  1
  In  In21  1  0.162605  0.837488  0.252409  1
  Co  Co22  1  0.333338  0.666677  0.782188  1
  Ni  Ni23  1  0.667249  0.334497  0.280335  1
