# generated using pymatgen
data_TmTa(CoSb)2
_symmetry_space_group_name_H-M   'P 1'
_cell_length_a   6.10973900
_cell_length_b   4.30218300
_cell_length_c   8.65842500
_cell_angle_alpha   90.00000000
_cell_angle_beta   90.00000000
_cell_angle_gamma   90.00000000
_symmetry_Int_Tables_number   1
_chemical_formula_structural   TmTa(CoSb)2
_chemical_formula_sum   'Tm2 Ta2 Co4 Sb4'
_cell_volume   227.58856494
_cell_formula_units_Z   2
loop_
 _symmetry_equiv_pos_site_id
 _symmetry_equiv_pos_as_xyz
  1  'x, y, z'
loop_
 _atom_site_type_symbol
 _atom_site_label
 _atom_site_symmetry_multiplicity
 _atom_site_fract_x
 _atom_site_fract_y
 _atom_site_fract_z
 _atom_site_occupancy
  Tm  Tm0  1  0.006148  0.000000  0.376799  1
  Tm  Tm1  1  0.506149  0.500000  0.623201  1
  Ta  Ta2  1  0.492885  0.500000  0.122342  1
  Ta  Ta3  1  0.992886  0.000000  0.877659  1
  Co  Co4  1  0.734380  0.000000  0.110982  1
  Co  Co5  1  0.270361  0.500000  0.351901  1
  Co  Co6  1  0.770362  0.000000  0.648099  1
  Co  Co7  1  0.234379  0.500000  0.889017  1
  Sb  Sb8  1  0.988697  0.500000  0.122981  1
  Sb  Sb9  1  0.507528  0.000000  0.368316  1
  Sb  Sb10  1  0.007529  0.500000  0.631683  1
  Sb  Sb11  1  0.488696  0.000000  0.877019  1
