# generated using pymatgen
data_CuRu2F12
_symmetry_space_group_name_H-M   'P 1'
_cell_length_a   5.22300377
_cell_length_b   5.39104473
_cell_length_c   8.90839664
_cell_angle_alpha   104.33385350
_cell_angle_beta   88.61913141
_cell_angle_gamma   116.04377322
_symmetry_Int_Tables_number   1
_chemical_formula_structural   CuRu2F12
_chemical_formula_sum   'Cu1 Ru2 F12'
_cell_volume   217.31795660
_cell_formula_units_Z   1
loop_
 _symmetry_equiv_pos_site_id
 _symmetry_equiv_pos_as_xyz
  1  'x, y, z'
loop_
 _atom_site_type_symbol
 _atom_site_label
 _atom_site_symmetry_multiplicity
 _atom_site_fract_x
 _atom_site_fract_y
 _atom_site_fract_z
 _atom_site_occupancy
  Cu  Cu0  1  0.500000  0.500000  0.500000  1
  Ru  Ru1  1  0.269143  0.004540  0.751940  1
  Ru  Ru2  1  0.730857  0.995460  0.248060  1
  F  F3  1  0.751448  0.754445  0.379778  1
  F  F4  1  0.248552  0.245555  0.620222  1
  F  F5  1  0.335270  0.776377  0.216900  1
  F  F6  1  0.279726  0.765329  0.866211  1
  F  F7  1  0.720274  0.234671  0.133789  1
  F  F8  1  0.864026  0.776123  0.699447  1
  F  F9  1  0.135974  0.223877  0.300553  1
  F  F10  1  0.317856  0.752545  0.561015  1
  F  F11  1  0.682144  0.247455  0.438985  1
  F  F12  1  0.209368  0.242163  0.922498  1
  F  F13  1  0.790632  0.757837  0.077502  1
  F  F14  1  0.664730  0.223623  0.783100  1
