# generated using pymatgen
data_V2Ni3S8
_symmetry_space_group_name_H-M   'P 1'
_cell_length_a   3.25460500
_cell_length_b   9.90628000
_cell_length_c   13.84501400
_cell_angle_alpha   90.00000000
_cell_angle_beta   90.00000000
_cell_angle_gamma   90.00000000
_symmetry_Int_Tables_number   1
_chemical_formula_structural   V2Ni3S8
_chemical_formula_sum   'V4 Ni6 S16'
_cell_volume   446.37748984
_cell_formula_units_Z   2
loop_
 _symmetry_equiv_pos_site_id
 _symmetry_equiv_pos_as_xyz
  1  'x, y, z'
loop_
 _atom_site_type_symbol
 _atom_site_label
 _atom_site_symmetry_multiplicity
 _atom_site_fract_x
 _atom_site_fract_y
 _atom_site_fract_z
 _atom_site_occupancy
  V  V0  1  0.500000  0.199759  0.122232  1
  V  V1  1  0.500000  0.699759  0.377768  1
  V  V2  1  0.500000  0.300241  0.622232  1
  V  V3  1  0.500000  0.800241  0.877768  1
  Ni  Ni4  1  0.000000  0.369842  0.226933  1
  Ni  Ni5  1  0.000000  0.630158  0.773067  1
  Ni  Ni6  1  0.000000  0.000000  0.000000  1
  Ni  Ni7  1  0.000000  0.869842  0.273067  1
  Ni  Ni8  1  0.000000  0.130158  0.726933  1
  Ni  Ni9  1  0.000000  0.500000  0.500000  1
  S  S10  1  0.000000  0.968482  0.843701  1
  S  S11  1  0.500000  0.742568  0.214297  1
  S  S12  1  0.500000  0.757432  0.714297  1
  S  S13  1  0.000000  0.531518  0.343701  1
  S  S14  1  0.500000  0.242568  0.285703  1
  S  S15  1  0.000000  0.721441  0.500490  1
  S  S16  1  0.000000  0.221441  0.999510  1
  S  S17  1  0.500000  0.565205  0.871400  1
  S  S18  1  0.000000  0.278559  0.499510  1
  S  S19  1  0.500000  0.434795  0.128600  1
  S  S20  1  0.500000  0.065205  0.628600  1
  S  S21  1  0.000000  0.031518  0.156299  1
  S  S22  1  0.500000  0.934795  0.371400  1
  S  S23  1  0.000000  0.778559  0.000490  1
  S  S24  1  0.500000  0.257432  0.785703  1
  S  S25  1  0.000000  0.468482  0.656299  1
