# generated using pymatgen
data_Tb3Tm5Re2(B12Ru)2
_symmetry_space_group_name_H-M   'P 1'
_cell_length_a   3.64940500
_cell_length_b   9.11721415
_cell_length_c   11.51200800
_cell_angle_alpha   89.80491374
_cell_angle_beta   90.00000000
_cell_angle_gamma   90.00000000
_symmetry_Int_Tables_number   1
_chemical_formula_structural   Tb3Tm5Re2(B12Ru)2
_chemical_formula_sum   'Tb3 Tm5 Re2 B24 Ru2'
_cell_volume   383.02999440
_cell_formula_units_Z   1
loop_
 _symmetry_equiv_pos_site_id
 _symmetry_equiv_pos_as_xyz
  1  'x, y, z'
loop_
 _atom_site_type_symbol
 _atom_site_label
 _atom_site_symmetry_multiplicity
 _atom_site_fract_x
 _atom_site_fract_y
 _atom_site_fract_z
 _atom_site_occupancy
  Tb  Tb0  1  0.000000  0.323990  0.415240  1
  Tb  Tb1  1  0.000000  0.675913  0.584937  1
  Tb  Tb2  1  0.000000  0.820996  0.087248  1
  Tm  Tm3  1  0.000000  0.179540  0.912352  1
  Tm  Tm4  1  0.000000  0.943084  0.370669  1
  Tm  Tm5  1  0.000000  0.057063  0.629438  1
  Tm  Tm6  1  0.000000  0.442641  0.128937  1
  Tm  Tm7  1  0.000000  0.556822  0.870908  1
  Re  Re8  1  0.000000  0.638826  0.319629  1
  Re  Re9  1  0.000000  0.360626  0.680982  1
  B  B10  1  0.500000  0.553318  0.432702  1
  B  B11  1  0.500000  0.446402  0.567596  1
  B  B12  1  0.500000  0.054486  0.066505  1
  B  B13  1  0.500000  0.946888  0.932714  1
  B  B14  1  0.500000  0.750006  0.418616  1
  B  B15  1  0.500000  0.249959  0.581808  1
  B  B16  1  0.500000  0.249282  0.080335  1
  B  B17  1  0.500000  0.750812  0.918446  1
  B  B18  1  0.500000  0.792289  0.265217  1
  B  B19  1  0.500000  0.207253  0.735636  1
  B  B20  1  0.500000  0.290903  0.233472  1
  B  B21  1  0.500000  0.709186  0.766204  1
  B  B22  1  0.500000  0.630435  0.184523  1
  B  B23  1  0.500000  0.368674  0.816071  1
  B  B24  1  0.500000  0.130303  0.314087  1
  B  B25  1  0.500000  0.870138  0.685959  1
  B  B26  1  0.500000  0.983285  0.212159  1
  B  B27  1  0.500000  0.018008  0.788099  1
  B  B28  1  0.500000  0.482085  0.286643  1
  B  B29  1  0.500000  0.517422  0.713515  1
  B  B30  1  0.500000  0.601674  0.027835  1
  B  B31  1  0.500000  0.396776  0.971719  1
  B  B32  1  0.500000  0.101039  0.472016  1
  B  B33  1  0.500000  0.899109  0.528138  1
  Ru  Ru34  1  0.000000  0.138233  0.178466  1
  Ru  Ru35  1  0.000000  0.862537  0.821177  1
