# generated using pymatgen
data_Re8Si13P
_symmetry_space_group_name_H-M   'P 1'
_cell_length_a   3.16710125
_cell_length_b   8.31313025
_cell_length_c   11.78808747
_cell_angle_alpha   92.95695660
_cell_angle_beta   97.72016430
_cell_angle_gamma   90.00000223
_symmetry_Int_Tables_number   1
_chemical_formula_structural   Re8Si13P
_chemical_formula_sum   'Re8 Si13 P1'
_cell_volume   307.13281216
_cell_formula_units_Z   1
loop_
 _symmetry_equiv_pos_site_id
 _symmetry_equiv_pos_as_xyz
  1  'x, y, z'
loop_
 _atom_site_type_symbol
 _atom_site_label
 _atom_site_symmetry_multiplicity
 _atom_site_fract_x
 _atom_site_fract_y
 _atom_site_fract_z
 _atom_site_occupancy
  Re  Re0  1  0.149573  0.590809  0.299145  1
  Re  Re1  1  0.274279  0.480565  0.548557  1
  Re  Re2  1  0.397915  0.366117  0.795829  1
  Re  Re3  1  0.523480  0.224222  0.046960  1
  Re  Re4  1  0.653999  0.104568  0.307998  1
  Re  Re5  1  0.766570  0.967494  0.533141  1
  Re  Re6  1  0.897428  0.850809  0.794856  1
  Re  Re7  1  0.023813  0.715922  0.047628  1
  Si  Si8  1  0.316371  0.786479  0.632740  1
  Si  Si9  1  0.441940  0.655734  0.883880  1
  Si  Si10  1  0.567952  0.524383  0.135905  1
  Si  Si11  1  0.689934  0.393640  0.379867  1
  Si  Si12  1  0.828192  0.227975  0.656384  1
  Si  Si13  1  0.994263  0.001900  0.988526  1
  Si  Si14  1  0.105344  0.293016  0.210687  1
  Si  Si15  1  0.236760  0.188849  0.473520  1
  Si  Si16  1  0.731932  0.679605  0.463865  1
  Si  Si17  1  0.855747  0.560261  0.711495  1
  Si  Si18  1  0.980818  0.422791  0.961637  1
  Si  Si19  1  0.573754  0.907440  0.147508  1
  Si  Si20  1  0.414372  0.080887  0.828744  1
  P  P21  1  0.183432  0.889928  0.366864  1
