# generated using pymatgen
data_Rb4Na2CrCoH12
_symmetry_space_group_name_H-M   'P 1'
_cell_length_a   10.31621554
_cell_length_b   10.31621587
_cell_length_c   10.31621468
_cell_angle_alpha   33.65753693
_cell_angle_beta   33.65753589
_cell_angle_gamma   33.65753411
_symmetry_Int_Tables_number   1
_chemical_formula_structural   Rb4Na2CrCoH12
_chemical_formula_sum   'Rb4 Na2 Cr1 Co1 H12'
_cell_volume   300.43617987
_cell_formula_units_Z   1
loop_
 _symmetry_equiv_pos_site_id
 _symmetry_equiv_pos_as_xyz
  1  'x, y, z'
loop_
 _atom_site_type_symbol
 _atom_site_label
 _atom_site_symmetry_multiplicity
 _atom_site_fract_x
 _atom_site_fract_y
 _atom_site_fract_z
 _atom_site_occupancy
  Rb  Rb0  1  0.130289  0.130289  0.130289  1
  Rb  Rb1  1  0.869711  0.869711  0.869711  1
  Rb  Rb2  1  0.282961  0.282961  0.282961  1
  Rb  Rb3  1  0.717039  0.717039  0.717039  1
  Na  Na4  1  0.405223  0.405223  0.405223  1
  Na  Na5  1  0.594777  0.594777  0.594777  1
  Cr  Cr6  1  0.000000  0.000000  0.000000  1
  Co  Co7  1  0.500000  0.500000  0.500000  1
  H  H8  1  0.173522  0.173522  0.756221  1
  H  H9  1  0.756221  0.173522  0.173522  1
  H  H10  1  0.173522  0.756221  0.173522  1
  H  H11  1  0.826478  0.243779  0.826478  1
  H  H12  1  0.826478  0.826478  0.243779  1
  H  H13  1  0.243779  0.826478  0.826478  1
  H  H14  1  0.404352  0.404352  0.782524  1
  H  H15  1  0.782524  0.404352  0.404352  1
  H  H16  1  0.217476  0.595648  0.595648  1
  H  H17  1  0.595648  0.595648  0.217476  1
  H  H18  1  0.595648  0.217476  0.595648  1
  H  H19  1  0.404352  0.782524  0.404352  1
