# generated using pymatgen
data_YbY5TmCo6Sn23
_symmetry_space_group_name_H-M   'P 1'
_cell_length_a   9.72304500
_cell_length_b   9.72284682
_cell_length_c   9.95760500
_cell_angle_alpha   89.99999888
_cell_angle_beta   90.00292868
_cell_angle_gamma   119.99932634
_symmetry_Int_Tables_number   1
_chemical_formula_structural   YbY5TmCo6Sn23
_chemical_formula_sum   'Yb1 Y5 Tm1 Co6 Sn23'
_cell_volume   815.23762155
_cell_formula_units_Z   1
loop_
 _symmetry_equiv_pos_site_id
 _symmetry_equiv_pos_as_xyz
  1  'x, y, z'
loop_
 _atom_site_type_symbol
 _atom_site_label
 _atom_site_symmetry_multiplicity
 _atom_site_fract_x
 _atom_site_fract_y
 _atom_site_fract_z
 _atom_site_occupancy
  Yb  Yb0  1  0.000045  0.000023  0.000055  1
  Y  Y1  1  0.478463  0.956786  0.306076  1
  Y  Y2  1  0.478463  0.521677  0.306076  1
  Y  Y3  1  0.956707  0.478354  0.693727  1
  Y  Y4  1  0.521581  0.043219  0.693894  1
  Y  Y5  1  0.521581  0.478363  0.693894  1
  Tm  Tm6  1  0.042126  0.521063  0.305876  1
  Co  Co7  1  0.168043  0.831899  0.801871  1
  Co  Co8  1  0.663798  0.831899  0.801933  1
  Co  Co9  1  0.168043  0.336144  0.801871  1
  Co  Co10  1  0.832451  0.168931  0.198321  1
  Co  Co11  1  0.336080  0.168040  0.198178  1
  Co  Co12  1  0.832451  0.663521  0.198321  1
  Sn  Sn13  1  0.000067  0.000033  0.499930  1
  Sn  Sn14  1  0.116838  0.882533  0.273800  1
  Sn  Sn15  1  0.766242  0.883122  0.273827  1
  Sn  Sn16  1  0.116838  0.234307  0.273800  1
  Sn  Sn17  1  0.883157  0.116895  0.726290  1
  Sn  Sn18  1  0.233765  0.116881  0.726198  1
  Sn  Sn19  1  0.883157  0.766260  0.726290  1
  Sn  Sn20  1  0.345399  0.000000  0.000071  1
  Sn  Sn21  1  0.654607  0.654540  0.000068  1
  Sn  Sn22  1  0.000110  0.345691  0.000214  1
  Sn  Sn23  1  0.345399  0.345399  0.000071  1
  Sn  Sn24  1  0.000110  0.654418  0.000214  1
  Sn  Sn25  1  0.654607  0.000067  0.000068  1
  Sn  Sn26  1  0.781971  0.562325  0.450935  1
  Sn  Sn27  1  0.781971  0.219645  0.450935  1
  Sn  Sn28  1  0.437595  0.218797  0.451209  1
  Sn  Sn29  1  0.218459  0.437769  0.548196  1
  Sn  Sn30  1  0.218459  0.780691  0.548196  1
  Sn  Sn31  1  0.562402  0.781202  0.548698  1
  Sn  Sn32  1  0.667035  0.333517  0.184261  1
  Sn  Sn33  1  0.333281  0.666641  0.815873  1
  Sn  Sn34  1  0.666710  0.333354  0.883395  1
  Sn  Sn35  1  0.331985  0.665993  0.117364  1
