# generated using pymatgen
data_Nd5TcRhO12
_symmetry_space_group_name_H-M   'P 1'
_cell_length_a   7.08540732
_cell_length_b   7.08540784
_cell_length_c   7.79868800
_cell_angle_alpha   73.84056534
_cell_angle_beta   73.84057254
_cell_angle_gamma   48.46699844
_symmetry_Int_Tables_number   1
_chemical_formula_structural   Nd5TcRhO12
_chemical_formula_sum   'Nd5 Tc1 Rh1 O12'
_cell_volume   279.09594288
_cell_formula_units_Z   1
loop_
 _symmetry_equiv_pos_site_id
 _symmetry_equiv_pos_as_xyz
  1  'x, y, z'
loop_
 _atom_site_type_symbol
 _atom_site_label
 _atom_site_symmetry_multiplicity
 _atom_site_fract_x
 _atom_site_fract_y
 _atom_site_fract_z
 _atom_site_occupancy
  Nd  Nd0  1  0.294624  0.315634  0.355039  1
  Nd  Nd1  1  0.684366  0.705376  0.644961  1
  Nd  Nd2  1  0.685555  0.692420  0.166497  1
  Nd  Nd3  1  0.307580  0.314445  0.833503  1
  Nd  Nd4  1  0.994943  0.005057  0.500000  1
  Tc  Tc5  1  0.788813  0.211187  0.000000  1
  Rh  Rh6  1  0.236668  0.763332  0.000000  1
  O  O7  1  0.089766  0.598156  0.578106  1
  O  O8  1  0.992634  0.006590  0.191734  1
  O  O9  1  0.401844  0.910234  0.421894  1
  O  O10  1  0.508052  0.490064  0.166337  1
  O  O11  1  0.089880  0.574709  0.082041  1
  O  O12  1  0.895683  0.407309  0.427869  1
  O  O13  1  0.993410  0.007366  0.808266  1
  O  O14  1  0.592691  0.104316  0.572131  1
  O  O15  1  0.509936  0.491948  0.833663  1
  O  O16  1  0.597459  0.089198  0.079570  1
  O  O17  1  0.425291  0.910120  0.917959  1
  O  O18  1  0.910802  0.402541  0.920430  1
