# generated using pymatgen
data_Er4CrTcOs6
_symmetry_space_group_name_H-M   'P 1'
_cell_length_a   5.19319296
_cell_length_b   5.19319276
_cell_length_c   8.82296300
_cell_angle_alpha   90.00000000
_cell_angle_beta   90.00000000
_cell_angle_gamma   116.84402733
_symmetry_Int_Tables_number   1
_chemical_formula_structural   Er4CrTcOs6
_chemical_formula_sum   'Er4 Cr1 Tc1 Os6'
_cell_volume   212.30714372
_cell_formula_units_Z   1
loop_
 _symmetry_equiv_pos_site_id
 _symmetry_equiv_pos_as_xyz
  1  'x, y, z'
loop_
 _atom_site_type_symbol
 _atom_site_label
 _atom_site_symmetry_multiplicity
 _atom_site_fract_x
 _atom_site_fract_y
 _atom_site_fract_z
 _atom_site_occupancy
  Er  Er0  1  0.330865  0.669135  0.434318  1
  Er  Er1  1  0.668586  0.331414  0.563574  1
  Er  Er2  1  0.668586  0.331414  0.936426  1
  Er  Er3  1  0.330865  0.669135  0.065682  1
  Cr  Cr4  1  0.830750  0.169250  0.250000  1
  Tc  Tc5  1  0.171532  0.828468  0.750000  1
  Os  Os6  1  0.995616  0.004384  0.495939  1
  Os  Os7  1  0.995616  0.004384  0.004061  1
  Os  Os8  1  0.827464  0.650256  0.250000  1
  Os  Os9  1  0.349744  0.172536  0.250000  1
  Os  Os10  1  0.172445  0.342066  0.750000  1
  Os  Os11  1  0.657934  0.827555  0.750000  1
