# generated using pymatgen
data_La4Nd6Ir3Ru
_symmetry_space_group_name_H-M   'P 1'
_cell_length_a   9.11688516
_cell_length_b   9.18276066
_cell_length_c   7.35227797
_cell_angle_alpha   84.12931748
_cell_angle_beta   84.23086793
_cell_angle_gamma   42.85727999
_symmetry_Int_Tables_number   1
_chemical_formula_structural   La4Nd6Ir3Ru
_chemical_formula_sum   'La4 Nd6 Ir3 Ru1'
_cell_volume   416.16792885
_cell_formula_units_Z   1
loop_
 _symmetry_equiv_pos_site_id
 _symmetry_equiv_pos_as_xyz
  1  'x, y, z'
loop_
 _atom_site_type_symbol
 _atom_site_label
 _atom_site_symmetry_multiplicity
 _atom_site_fract_x
 _atom_site_fract_y
 _atom_site_fract_z
 _atom_site_occupancy
  La  La0  1  0.010104  0.802170  0.913970  1
  La  La1  1  0.200724  0.986105  0.586263  1
  La  La2  1  0.983742  0.202834  0.085589  1
  La  La3  1  0.793569  0.017082  0.405383  1
  Nd  Nd4  1  0.359801  0.210845  0.818212  1
  Nd  Nd5  1  0.790211  0.642744  0.683247  1
  Nd  Nd6  1  0.640975  0.790982  0.183743  1
  Nd  Nd7  1  0.210759  0.357577  0.317146  1
  Nd  Nd8  1  0.568414  0.429645  0.749544  1
  Nd  Nd9  1  0.429863  0.571151  0.250546  1
  Ir  Ir10  1  0.177298  0.597162  0.578015  1
  Ir  Ir11  1  0.403448  0.819680  0.921676  1
  Ir  Ir12  1  0.819918  0.405033  0.423386  1
  Ru  Ru13  1  0.611173  0.166988  0.083279  1
