# generated using pymatgen
data_Ca3Pr9(GaIr)8
_symmetry_space_group_name_H-M   'P 1'
_cell_length_a   5.79583198
_cell_length_b   8.09506944
_cell_length_c   13.73402008
_cell_angle_alpha   89.99288493
_cell_angle_beta   89.88520322
_cell_angle_gamma   90.22413840
_symmetry_Int_Tables_number   1
_chemical_formula_structural   Ca3Pr9(GaIr)8
_chemical_formula_sum   'Ca3 Pr9 Ga8 Ir8'
_cell_volume   644.36188672
_cell_formula_units_Z   1
loop_
 _symmetry_equiv_pos_site_id
 _symmetry_equiv_pos_as_xyz
  1  'x, y, z'
loop_
 _atom_site_type_symbol
 _atom_site_label
 _atom_site_symmetry_multiplicity
 _atom_site_fract_x
 _atom_site_fract_y
 _atom_site_fract_z
 _atom_site_occupancy
  Ca  Ca0  1  0.856972  0.105862  0.101070  1
  Ca  Ca1  1  0.142889  0.891665  0.597721  1
  Ca  Ca2  1  0.141762  0.607383  0.401004  1
  Pr  Pr3  1  0.146665  0.605181  0.097160  1
  Pr  Pr4  1  0.134398  0.899441  0.905589  1
  Pr  Pr5  1  0.863611  0.102912  0.406106  1
  Pr  Pr6  1  0.856574  0.400011  0.595164  1
  Pr  Pr7  1  0.853177  0.392167  0.903990  1
  Pr  Pr8  1  0.377887  0.246757  0.249219  1
  Pr  Pr9  1  0.376108  0.249698  0.748792  1
  Pr  Pr10  1  0.621479  0.748883  0.250805  1
  Pr  Pr11  1  0.622615  0.754931  0.747718  1
  Ga  Ga12  1  0.380656  0.249697  0.001697  1
  Ga  Ga13  1  0.608727  0.748043  0.499174  1
  Ga  Ga14  1  0.624456  0.749439  0.998558  1
  Ga  Ga15  1  0.378671  0.250009  0.500393  1
  Ga  Ga16  1  0.871366  0.399063  0.251740  1
  Ga  Ga17  1  0.868674  0.100475  0.747441  1
  Ga  Ga18  1  0.132653  0.901469  0.249624  1
  Ga  Ga19  1  0.132222  0.600185  0.750081  1
  Ir  Ir20  1  0.643500  0.471425  0.095767  1
  Ir  Ir21  1  0.638028  0.031492  0.907172  1
  Ir  Ir22  1  0.366501  0.972819  0.404742  1
  Ir  Ir23  1  0.360629  0.528071  0.594378  1
  Ir  Ir24  1  0.354465  0.530181  0.907089  1
  Ir  Ir25  1  0.358848  0.965978  0.090746  1
  Ir  Ir26  1  0.643867  0.029869  0.590437  1
  Ir  Ir27  1  0.642599  0.466896  0.406623  1
