# generated using pymatgen
data_Ba3GdInO6
_symmetry_space_group_name_H-M   'P 1'
_cell_length_a   7.32166058
_cell_length_b   7.32165997
_cell_length_c   7.32166169
_cell_angle_alpha   92.76547673
_cell_angle_beta   92.76546333
_cell_angle_gamma   92.76548337
_symmetry_Int_Tables_number   1
_chemical_formula_structural   Ba3GdInO6
_chemical_formula_sum   'Ba6 Gd2 In2 O12'
_cell_volume   391.07305548
_cell_formula_units_Z   2
loop_
 _symmetry_equiv_pos_site_id
 _symmetry_equiv_pos_as_xyz
  1  'x, y, z'
loop_
 _atom_site_type_symbol
 _atom_site_label
 _atom_site_symmetry_multiplicity
 _atom_site_fract_x
 _atom_site_fract_y
 _atom_site_fract_z
 _atom_site_occupancy
  Ba  Ba0  1  0.250000  0.888587  0.611413  1
  Ba  Ba1  1  0.888587  0.611413  0.250000  1
  Ba  Ba2  1  0.750000  0.111413  0.388587  1
  Ba  Ba3  1  0.388587  0.750000  0.111413  1
  Ba  Ba4  1  0.111413  0.388587  0.750000  1
  Ba  Ba5  1  0.611413  0.250000  0.888587  1
  Gd  Gd6  1  0.750000  0.750000  0.750000  1
  Gd  Gd7  1  0.250000  0.250000  0.250000  1
  In  In8  1  0.500000  0.500000  0.500000  1
  In  In9  1  0.000000  0.000000  0.000000  1
  O  O10  1  0.596681  0.789808  0.464697  1
  O  O11  1  0.464697  0.596681  0.789808  1
  O  O12  1  0.789808  0.464697  0.596681  1
  O  O13  1  0.903319  0.035303  0.710192  1
  O  O14  1  0.710192  0.903319  0.035303  1
  O  O15  1  0.035303  0.710192  0.903319  1
  O  O16  1  0.403319  0.210192  0.535303  1
  O  O17  1  0.535303  0.403319  0.210192  1
  O  O18  1  0.210192  0.535303  0.403319  1
  O  O19  1  0.096681  0.964697  0.289808  1
  O  O20  1  0.964697  0.289808  0.096681  1
  O  O21  1  0.289808  0.096681  0.964697  1
