# generated using pymatgen
data_Tb2Sc3(SnSb)2
_symmetry_space_group_name_H-M   'P 1'
_cell_length_a   7.84597500
_cell_length_b   7.82853400
_cell_length_c   14.81097100
_cell_angle_alpha   90.00000000
_cell_angle_beta   90.00000000
_cell_angle_gamma   90.00000000
_symmetry_Int_Tables_number   1
_chemical_formula_structural   Tb2Sc3(SnSb)2
_chemical_formula_sum   'Tb8 Sc12 Sn8 Sb8'
_cell_volume   909.72660040
_cell_formula_units_Z   4
loop_
 _symmetry_equiv_pos_site_id
 _symmetry_equiv_pos_as_xyz
  1  'x, y, z'
loop_
 _atom_site_type_symbol
 _atom_site_label
 _atom_site_symmetry_multiplicity
 _atom_site_fract_x
 _atom_site_fract_y
 _atom_site_fract_z
 _atom_site_occupancy
  Tb  Tb0  1  0.532912  0.322001  0.900448  1
  Tb  Tb1  1  0.032912  0.177999  0.599552  1
  Tb  Tb2  1  0.467088  0.677999  0.400448  1
  Tb  Tb3  1  0.967088  0.822001  0.099552  1
  Tb  Tb4  1  0.467088  0.677999  0.099552  1
  Tb  Tb5  1  0.967088  0.822001  0.400448  1
  Tb  Tb6  1  0.532912  0.322001  0.599552  1
  Tb  Tb7  1  0.032912  0.177999  0.900448  1
  Sc  Sc8  1  0.371829  0.840109  0.875663  1
  Sc  Sc9  1  0.871829  0.659891  0.624337  1
  Sc  Sc10  1  0.628171  0.159891  0.375663  1
  Sc  Sc11  1  0.128171  0.340109  0.124337  1
  Sc  Sc12  1  0.628171  0.159891  0.124337  1
  Sc  Sc13  1  0.128171  0.340109  0.375663  1
  Sc  Sc14  1  0.371829  0.840109  0.624337  1
  Sc  Sc15  1  0.871829  0.659891  0.875663  1
  Sc  Sc16  1  0.200108  0.501667  0.750000  1
  Sc  Sc17  1  0.700108  0.998333  0.750000  1
  Sc  Sc18  1  0.799892  0.498333  0.250000  1
  Sc  Sc19  1  0.299892  0.001667  0.250000  1
  Sn  Sn20  1  0.565867  0.629446  0.750000  1
  Sn  Sn21  1  0.065867  0.870554  0.750000  1
  Sn  Sn22  1  0.434133  0.370554  0.250000  1
  Sn  Sn23  1  0.934133  0.129446  0.250000  1
  Sn  Sn24  1  0.340143  0.143797  0.750000  1
  Sn  Sn25  1  0.840143  0.356203  0.750000  1
  Sn  Sn26  1  0.659857  0.856203  0.250000  1
  Sn  Sn27  1  0.159857  0.643797  0.250000  1
  Sb  Sb28  1  0.289784  0.039096  0.044713  1
  Sb  Sb29  1  0.789784  0.460904  0.455287  1
  Sb  Sb30  1  0.710216  0.960904  0.544713  1
  Sb  Sb31  1  0.210216  0.539096  0.955287  1
  Sb  Sb32  1  0.710216  0.960904  0.955287  1
  Sb  Sb33  1  0.210216  0.539096  0.544713  1
  Sb  Sb34  1  0.289784  0.039096  0.455287  1
  Sb  Sb35  1  0.789784  0.460904  0.044713  1
