# generated using pymatgen
data_Er5Co6
_symmetry_space_group_name_H-M   'P 1'
_cell_length_a   5.44666541
_cell_length_b   5.44666588
_cell_length_c   20.11916000
_cell_angle_alpha   90.00000000
_cell_angle_beta   90.00000000
_cell_angle_gamma   137.32560414
_symmetry_Int_Tables_number   1
_chemical_formula_structural   Er5Co6
_chemical_formula_sum   'Er10 Co12'
_cell_volume   404.56920518
_cell_formula_units_Z   2
loop_
 _symmetry_equiv_pos_site_id
 _symmetry_equiv_pos_as_xyz
  1  'x, y, z'
loop_
 _atom_site_type_symbol
 _atom_site_label
 _atom_site_symmetry_multiplicity
 _atom_site_fract_x
 _atom_site_fract_y
 _atom_site_fract_z
 _atom_site_occupancy
  Er  Er0  1  0.279108  0.720892  0.250000  1
  Er  Er1  1  0.281725  0.718275  0.065255  1
  Er  Er2  1  0.007689  0.992311  0.845713  1
  Er  Er3  1  0.720892  0.279108  0.750000  1
  Er  Er4  1  0.718275  0.281725  0.565255  1
  Er  Er5  1  0.992311  0.007689  0.345713  1
  Er  Er6  1  0.007689  0.992311  0.654287  1
  Er  Er7  1  0.718275  0.281725  0.934745  1
  Er  Er8  1  0.992311  0.007689  0.154287  1
  Er  Er9  1  0.281725  0.718275  0.434745  1
  Co  Co10  1  0.000000  0.000000  0.500000  1
  Co  Co11  1  0.000000  0.000000  0.000000  1
  Co  Co12  1  0.308968  0.691032  0.651929  1
  Co  Co13  1  0.569482  0.430518  0.446022  1
  Co  Co14  1  0.420869  0.579131  0.750000  1
  Co  Co15  1  0.430518  0.569482  0.946022  1
  Co  Co16  1  0.579131  0.420869  0.250000  1
  Co  Co17  1  0.430518  0.569482  0.553978  1
  Co  Co18  1  0.691032  0.308968  0.348071  1
  Co  Co19  1  0.691032  0.308968  0.151929  1
  Co  Co20  1  0.569482  0.430518  0.053978  1
  Co  Co21  1  0.308968  0.691032  0.848071  1
