# generated using pymatgen
data_YbErAl20IrOs3
_symmetry_space_group_name_H-M   'P 1'
_cell_length_a   6.86808619
_cell_length_b   6.86712986
_cell_length_c   9.15565500
_cell_angle_alpha   90.22570692
_cell_angle_beta   90.06467653
_cell_angle_gamma   96.46366198
_symmetry_Int_Tables_number   1
_chemical_formula_structural   YbErAl20IrOs3
_chemical_formula_sum   'Yb1 Er1 Al20 Ir1 Os3'
_cell_volume   429.06893974
_cell_formula_units_Z   1
loop_
 _symmetry_equiv_pos_site_id
 _symmetry_equiv_pos_as_xyz
  1  'x, y, z'
loop_
 _atom_site_type_symbol
 _atom_site_label
 _atom_site_symmetry_multiplicity
 _atom_site_fract_x
 _atom_site_fract_y
 _atom_site_fract_z
 _atom_site_occupancy
  Yb  Yb0  1  0.372014  0.625707  0.250249  1
  Er  Er1  1  0.630567  0.373172  0.749529  1
  Al  Al2  1  0.280442  0.019129  0.747939  1
  Al  Al3  1  0.019625  0.282386  0.249240  1
  Al  Al4  1  0.719200  0.980134  0.252278  1
  Al  Al5  1  0.981288  0.718928  0.750620  1
  Al  Al6  1  0.879178  0.123731  0.946556  1
  Al  Al7  1  0.120562  0.876090  0.046852  1
  Al  Al8  1  0.876934  0.123248  0.551528  1
  Al  Al9  1  0.123275  0.876025  0.454709  1
  Al  Al10  1  0.644864  0.916243  0.749339  1
  Al  Al11  1  0.916233  0.646266  0.250333  1
  Al  Al12  1  0.352669  0.083581  0.251154  1
  Al  Al13  1  0.085153  0.356364  0.749607  1
  Al  Al14  1  0.342517  0.655054  0.897190  1
  Al  Al15  1  0.660595  0.341033  0.102771  1
  Al  Al16  1  0.344767  0.656184  0.600613  1
  Al  Al17  1  0.658834  0.339789  0.399184  1
  Al  Al18  1  0.722863  0.723088  0.999044  1
  Al  Al19  1  0.721802  0.723305  0.500513  1
  Al  Al20  1  0.275733  0.278973  0.001195  1
  Al  Al21  1  0.275951  0.278341  0.499518  1
  Ir  Ir22  1  0.499046  0.001288  0.999324  1
  Os  Os23  1  0.998270  0.500233  0.999448  1
  Os  Os24  1  0.499421  0.001413  0.500670  1
  Os  Os25  1  0.998195  0.500296  0.500594  1
