# generated using pymatgen
data_Zr5AlGaSb2
_symmetry_space_group_name_H-M   'P 1'
_cell_length_a   8.63113110
_cell_length_b   8.65100453
_cell_length_c   5.85134400
_cell_angle_alpha   90.00000000
_cell_angle_beta   90.00000000
_cell_angle_gamma   120.07618545
_symmetry_Int_Tables_number   1
_chemical_formula_structural   Zr5AlGaSb2
_chemical_formula_sum   'Zr10 Al2 Ga2 Sb4'
_cell_volume   378.08251874
_cell_formula_units_Z   2
loop_
 _symmetry_equiv_pos_site_id
 _symmetry_equiv_pos_as_xyz
  1  'x, y, z'
loop_
 _atom_site_type_symbol
 _atom_site_label
 _atom_site_symmetry_multiplicity
 _atom_site_fract_x
 _atom_site_fract_y
 _atom_site_fract_z
 _atom_site_occupancy
  Zr  Zr0  1  0.271103  0.000931  0.250000  1
  Zr  Zr1  1  0.271103  0.270172  0.750000  1
  Zr  Zr2  1  0.994794  0.729572  0.750000  1
  Zr  Zr3  1  0.994794  0.265223  0.250000  1
  Zr  Zr4  1  0.729153  0.736739  0.250000  1
  Zr  Zr5  1  0.729153  0.992414  0.750000  1
  Zr  Zr6  1  0.337848  0.668925  0.000000  1
  Zr  Zr7  1  0.665468  0.332734  0.500000  1
  Zr  Zr8  1  0.665468  0.332734  0.000000  1
  Zr  Zr9  1  0.337848  0.668925  0.500000  1
  Al  Al10  1  0.612138  0.001142  0.250000  1
  Al  Al11  1  0.612138  0.610995  0.750000  1
  Ga  Ga12  1  0.999336  0.999668  0.000000  1
  Ga  Ga13  1  0.999336  0.999668  0.500000  1
  Sb  Sb14  1  0.999095  0.386314  0.750000  1
  Sb  Sb15  1  0.999095  0.612781  0.250000  1
  Sb  Sb16  1  0.391065  0.391971  0.250000  1
  Sb  Sb17  1  0.391065  0.999094  0.750000  1
