# generated using pymatgen
data_Sc2FeSi2Ni
_symmetry_space_group_name_H-M   'P 1'
_cell_length_a   4.01234700
_cell_length_b   6.46087597
_cell_length_c   6.86244820
_cell_angle_alpha   90.44993915
_cell_angle_beta   90.00000000
_cell_angle_gamma   90.00000000
_symmetry_Int_Tables_number   1
_chemical_formula_structural   Sc2FeSi2Ni
_chemical_formula_sum   'Sc4 Fe2 Si4 Ni2'
_cell_volume   177.89165554
_cell_formula_units_Z   2
loop_
 _symmetry_equiv_pos_site_id
 _symmetry_equiv_pos_as_xyz
  1  'x, y, z'
loop_
 _atom_site_type_symbol
 _atom_site_label
 _atom_site_symmetry_multiplicity
 _atom_site_fract_x
 _atom_site_fract_y
 _atom_site_fract_z
 _atom_site_occupancy
  Sc  Sc0  1  0.750000  0.008813  0.195040  1
  Sc  Sc1  1  0.250000  0.991187  0.804960  1
  Sc  Sc2  1  0.750000  0.505658  0.304008  1
  Sc  Sc3  1  0.250000  0.494342  0.695992  1
  Fe  Fe4  1  0.250000  0.655694  0.063495  1
  Fe  Fe5  1  0.750000  0.344306  0.936505  1
  Si  Si6  1  0.250000  0.295965  0.097877  1
  Si  Si7  1  0.750000  0.704035  0.902123  1
  Si  Si8  1  0.250000  0.793650  0.387475  1
  Si  Si9  1  0.750000  0.206350  0.612525  1
  Ni  Ni10  1  0.250000  0.164213  0.430553  1
  Ni  Ni11  1  0.750000  0.835787  0.569447  1
