# generated using pymatgen
data_CaPrUIr3
_symmetry_space_group_name_H-M   'P 1'
_cell_length_a   5.37494911
_cell_length_b   5.37495022
_cell_length_c   5.37495100
_cell_angle_alpha   65.69471557
_cell_angle_beta   65.69471020
_cell_angle_gamma   65.69470358
_symmetry_Int_Tables_number   1
_chemical_formula_structural   CaPrUIr3
_chemical_formula_sum   'Ca1 Pr1 U1 Ir3'
_cell_volume   123.37122547
_cell_formula_units_Z   1
loop_
 _symmetry_equiv_pos_site_id
 _symmetry_equiv_pos_as_xyz
  1  'x, y, z'
loop_
 _atom_site_type_symbol
 _atom_site_label
 _atom_site_symmetry_multiplicity
 _atom_site_fract_x
 _atom_site_fract_y
 _atom_site_fract_z
 _atom_site_occupancy
  Ca  Ca0  1  0.999216  0.999216  0.999216  1
  Pr  Pr1  1  0.245143  0.245143  0.245143  1
  U  U2  1  0.626809  0.626809  0.626809  1
  Ir  Ir3  1  0.125765  0.626533  0.626533  1
  Ir  Ir4  1  0.626533  0.125765  0.626533  1
  Ir  Ir5  1  0.626533  0.626533  0.125765  1
