# generated using pymatgen
data_Ta12Re7B12Os5
_symmetry_space_group_name_H-M   'P 1'
_cell_length_a   3.16238700
_cell_length_b   9.09573852
_cell_length_c   15.74388200
_cell_angle_alpha   90.11038193
_cell_angle_beta   90.00000000
_cell_angle_gamma   90.00000000
_symmetry_Int_Tables_number   1
_chemical_formula_structural   Ta12Re7B12Os5
_chemical_formula_sum   'Ta12 Re7 B12 Os5'
_cell_volume   452.86004279
_cell_formula_units_Z   1
loop_
 _symmetry_equiv_pos_site_id
 _symmetry_equiv_pos_as_xyz
  1  'x, y, z'
loop_
 _atom_site_type_symbol
 _atom_site_label
 _atom_site_symmetry_multiplicity
 _atom_site_fract_x
 _atom_site_fract_y
 _atom_site_fract_z
 _atom_site_occupancy
  Ta  Ta0  1  0.000000  0.801984  0.494053  1
  Ta  Ta1  1  0.000000  0.200363  0.505485  1
  Ta  Ta2  1  0.000000  0.302230  0.006247  1
  Ta  Ta3  1  0.000000  0.697431  0.993406  1
  Ta  Ta4  1  0.000000  0.517748  0.593535  1
  Ta  Ta5  1  0.000000  0.483063  0.406105  1
  Ta  Ta6  1  0.000000  0.017986  0.905938  1
  Ta  Ta7  1  0.000000  0.981790  0.093987  1
  Ta  Ta8  1  0.000000  0.680667  0.205106  1
  Ta  Ta9  1  0.000000  0.319208  0.794774  1
  Ta  Ta10  1  0.000000  0.180293  0.295177  1
  Ta  Ta11  1  0.000000  0.817528  0.706209  1
  Re  Re12  1  0.500000  0.715871  0.357522  1
  Re  Re13  1  0.500000  0.283201  0.642598  1
  Re  Re14  1  0.500000  0.215050  0.143166  1
  Re  Re15  1  0.500000  0.784615  0.856071  1
  Re  Re16  1  0.500000  0.517916  0.095183  1
  Re  Re17  1  0.500000  0.481836  0.904359  1
  Re  Re18  1  0.500000  0.018592  0.405862  1
  B  B19  1  0.500000  0.605892  0.494821  1
  B  B20  1  0.500000  0.396064  0.505214  1
  B  B21  1  0.500000  0.104600  0.005506  1
  B  B22  1  0.500000  0.895287  0.993946  1
  B  B23  1  0.000000  0.611226  0.834128  1
  B  B24  1  0.000000  0.388150  0.165811  1
  B  B25  1  0.000000  0.113552  0.666828  1
  B  B26  1  0.000000  0.888653  0.334496  1
  B  B27  1  0.500000  0.716708  0.601054  1
  B  B28  1  0.500000  0.283573  0.399019  1
  B  B29  1  0.500000  0.217389  0.898811  1
  B  B30  1  0.500000  0.781848  0.101172  1
  Os  Os31  1  0.500000  0.981471  0.595399  1
  Os  Os32  1  0.500000  0.568343  0.731505  1
  Os  Os33  1  0.500000  0.430963  0.268252  1
  Os  Os34  1  0.500000  0.067930  0.766814  1
  Os  Os35  1  0.500000  0.930979  0.232440  1
