# generated using pymatgen
data_Sr2NbBrO4
_symmetry_space_group_name_H-M   'P 1'
_cell_length_a   6.90432800
_cell_length_b   7.69056600
_cell_length_c   12.12682600
_cell_angle_alpha   90.00000000
_cell_angle_beta   90.00000000
_cell_angle_gamma   90.00000000
_symmetry_Int_Tables_number   1
_chemical_formula_structural   Sr2NbBrO4
_chemical_formula_sum   'Sr8 Nb4 Br4 O16'
_cell_volume   643.91251310
_cell_formula_units_Z   4
loop_
 _symmetry_equiv_pos_site_id
 _symmetry_equiv_pos_as_xyz
  1  'x, y, z'
loop_
 _atom_site_type_symbol
 _atom_site_label
 _atom_site_symmetry_multiplicity
 _atom_site_fract_x
 _atom_site_fract_y
 _atom_site_fract_z
 _atom_site_occupancy
  Sr  Sr0  1  0.872314  0.519699  0.750000  1
  Sr  Sr1  1  0.378284  0.750000  0.500000  1
  Sr  Sr2  1  0.127686  0.480301  0.250000  1
  Sr  Sr3  1  0.378284  0.750000  0.000000  1
  Sr  Sr4  1  0.127686  0.019699  0.750000  1
  Sr  Sr5  1  0.872314  0.980301  0.250000  1
  Sr  Sr6  1  0.621716  0.250000  0.500000  1
  Sr  Sr7  1  0.621716  0.250000  0.000000  1
  Nb  Nb8  1  0.126668  0.250000  0.000000  1
  Nb  Nb9  1  0.126668  0.250000  0.500000  1
  Nb  Nb10  1  0.873332  0.750000  0.500000  1
  Nb  Nb11  1  0.873332  0.750000  0.000000  1
  Br  Br12  1  0.471052  0.187694  0.250000  1
  Br  Br13  1  0.528948  0.687694  0.250000  1
  Br  Br14  1  0.528948  0.812306  0.750000  1
  Br  Br15  1  0.471052  0.312306  0.750000  1
  O  O16  1  0.290082  0.061797  0.971046  1
  O  O17  1  0.290082  0.438203  0.028954  1
  O  O18  1  0.036531  0.767669  0.624170  1
  O  O19  1  0.963469  0.232331  0.124170  1
  O  O20  1  0.709918  0.938203  0.028954  1
  O  O21  1  0.036531  0.732331  0.124170  1
  O  O22  1  0.709918  0.561797  0.528954  1
  O  O23  1  0.963469  0.267669  0.875830  1
  O  O24  1  0.963469  0.267669  0.624170  1
  O  O25  1  0.709918  0.561797  0.971046  1
  O  O26  1  0.036531  0.767669  0.875830  1
  O  O27  1  0.036531  0.732331  0.375830  1
  O  O28  1  0.963469  0.232331  0.375830  1
  O  O29  1  0.290082  0.061797  0.528954  1
  O  O30  1  0.709918  0.938203  0.471046  1
  O  O31  1  0.290082  0.438203  0.471046  1
