# generated using pymatgen
data_TbTm2Fe(Co4P3)2
_symmetry_space_group_name_H-M   'P 1'
_cell_length_a   3.67627200
_cell_length_b   10.49388500
_cell_length_c   12.14895900
_cell_angle_alpha   90.00000000
_cell_angle_beta   90.00000000
_cell_angle_gamma   90.00000000
_symmetry_Int_Tables_number   1
_chemical_formula_structural   TbTm2Fe(Co4P3)2
_chemical_formula_sum   'Tb2 Tm4 Fe2 Co16 P12'
_cell_volume   468.68710341
_cell_formula_units_Z   2
loop_
 _symmetry_equiv_pos_site_id
 _symmetry_equiv_pos_as_xyz
  1  'x, y, z'
loop_
 _atom_site_type_symbol
 _atom_site_label
 _atom_site_symmetry_multiplicity
 _atom_site_fract_x
 _atom_site_fract_y
 _atom_site_fract_z
 _atom_site_occupancy
  Tb  Tb0  1  0.000000  0.500000  0.522767  1
  Tb  Tb1  1  0.500000  0.000000  0.477233  1
  Tm  Tm2  1  0.500000  0.818205  0.204795  1
  Tm  Tm3  1  0.500000  0.181795  0.204795  1
  Tm  Tm4  1  0.000000  0.681795  0.795205  1
  Tm  Tm5  1  0.000000  0.318205  0.795205  1
  Fe  Fe6  1  0.500000  0.500000  0.157314  1
  Fe  Fe7  1  0.000000  0.000000  0.842686  1
  Co  Co8  1  0.500000  0.500000  0.703671  1
  Co  Co9  1  0.000000  0.000000  0.296329  1
  Co  Co10  1  0.000000  0.500000  0.986453  1
  Co  Co11  1  0.500000  0.000000  0.013547  1
  Co  Co12  1  0.500000  0.332865  0.994232  1
  Co  Co13  1  0.500000  0.667135  0.994232  1
  Co  Co14  1  0.000000  0.167135  0.005768  1
  Co  Co15  1  0.000000  0.832865  0.005768  1
  Co  Co16  1  0.500000  0.296662  0.430237  1
  Co  Co17  1  0.500000  0.703338  0.430237  1
  Co  Co18  1  0.000000  0.203338  0.569763  1
  Co  Co19  1  0.000000  0.796662  0.569763  1
  Co  Co20  1  0.500000  0.878343  0.709924  1
  Co  Co21  1  0.500000  0.121657  0.709924  1
  Co  Co22  1  0.000000  0.621657  0.290076  1
  Co  Co23  1  0.000000  0.378343  0.290076  1
  P  P24  1  0.500000  0.500000  0.882243  1
  P  P25  1  0.000000  0.000000  0.117757  1
  P  P26  1  0.500000  0.500000  0.342782  1
  P  P27  1  0.000000  0.000000  0.657218  1
  P  P28  1  0.500000  0.310325  0.617239  1
  P  P29  1  0.500000  0.689675  0.617239  1
  P  P30  1  0.000000  0.189675  0.382761  1
  P  P31  1  0.000000  0.810325  0.382761  1
  P  P32  1  0.500000  0.846756  0.892271  1
  P  P33  1  0.500000  0.153244  0.892271  1
  P  P34  1  0.000000  0.653244  0.107729  1
  P  P35  1  0.000000  0.346756  0.107729  1
