# generated using pymatgen
data_Ba3UAgSe6
_symmetry_space_group_name_H-M   'P 1'
_cell_length_a   8.78788594
_cell_length_b   8.78788561
_cell_length_c   8.78788700
_cell_angle_alpha   90.67726618
_cell_angle_beta   90.67726615
_cell_angle_gamma   90.67727158
_symmetry_Int_Tables_number   1
_chemical_formula_structural   Ba3UAgSe6
_chemical_formula_sum   'Ba6 U2 Ag2 Se12'
_cell_volume   678.51822141
_cell_formula_units_Z   2
loop_
 _symmetry_equiv_pos_site_id
 _symmetry_equiv_pos_as_xyz
  1  'x, y, z'
loop_
 _atom_site_type_symbol
 _atom_site_label
 _atom_site_symmetry_multiplicity
 _atom_site_fract_x
 _atom_site_fract_y
 _atom_site_fract_z
 _atom_site_occupancy
  Ba  Ba0  1  0.874414  0.625586  0.250000  1
  Ba  Ba1  1  0.250000  0.874414  0.625586  1
  Ba  Ba2  1  0.625586  0.250000  0.874414  1
  Ba  Ba3  1  0.750000  0.125586  0.374414  1
  Ba  Ba4  1  0.374414  0.750000  0.125586  1
  Ba  Ba5  1  0.125586  0.374414  0.750000  1
  U  U6  1  0.500000  0.500000  0.500000  1
  U  U7  1  0.000000  0.000000  0.000000  1
  Ag  Ag8  1  0.250000  0.250000  0.250000  1
  Ag  Ag9  1  0.750000  0.750000  0.750000  1
  Se  Se10  1  0.202392  0.552044  0.417124  1
  Se  Se11  1  0.417124  0.202392  0.552044  1
  Se  Se12  1  0.552044  0.417124  0.202392  1
  Se  Se13  1  0.917124  0.052044  0.702392  1
  Se  Se14  1  0.702392  0.917124  0.052044  1
  Se  Se15  1  0.052044  0.702392  0.917124  1
  Se  Se16  1  0.797608  0.447956  0.582876  1
  Se  Se17  1  0.582876  0.797608  0.447956  1
  Se  Se18  1  0.447956  0.582876  0.797608  1
  Se  Se19  1  0.082876  0.947956  0.297608  1
  Se  Se20  1  0.297608  0.082876  0.947956  1
  Se  Se21  1  0.947956  0.297608  0.082876  1
