# generated using pymatgen
data_Ce4Si(Rh2Au)4
_symmetry_space_group_name_H-M   'P 1'
_cell_length_a   7.38696627
_cell_length_b   7.34120979
_cell_length_c   7.34121056
_cell_angle_alpha   111.07676815
_cell_angle_beta   108.55454985
_cell_angle_gamma   108.55454648
_symmetry_Int_Tables_number   1
_chemical_formula_structural   Ce4Si(Rh2Au)4
_chemical_formula_sum   'Ce4 Si1 Rh8 Au4'
_cell_volume   307.17254126
_cell_formula_units_Z   1
loop_
 _symmetry_equiv_pos_site_id
 _symmetry_equiv_pos_as_xyz
  1  'x, y, z'
loop_
 _atom_site_type_symbol
 _atom_site_label
 _atom_site_symmetry_multiplicity
 _atom_site_fract_x
 _atom_site_fract_y
 _atom_site_fract_z
 _atom_site_occupancy
  Ce  Ce0  1  0.500000  0.508111  0.491889  1
  Ce  Ce1  1  0.000000  0.970182  0.490804  1
  Ce  Ce2  1  0.500000  0.008111  0.991889  1
  Ce  Ce3  1  0.000000  0.509196  0.029818  1
  Si  Si4  1  0.000000  0.998214  0.001786  1
  Rh  Rh5  1  0.742554  0.495761  0.246794  1
  Rh  Rh6  1  0.257446  0.753206  0.504239  1
  Rh  Rh7  1  0.000000  0.273319  0.277883  1
  Rh  Rh8  1  0.000000  0.722118  0.726682  1
  Rh  Rh9  1  0.277649  0.006988  0.270661  1
  Rh  Rh10  1  0.264711  0.268366  0.996345  1
  Rh  Rh11  1  0.735290  0.003655  0.731635  1
  Rh  Rh12  1  0.722352  0.729340  0.993012  1
  Au  Au13  1  0.500000  0.753598  0.246402  1
  Au  Au14  1  0.500000  0.253598  0.746402  1
  Au  Au15  1  0.244701  0.495471  0.749230  1
  Au  Au16  1  0.755299  0.250770  0.504529  1
