# generated using pymatgen
data_Zr6Ta4Al12Ir6Ru
_symmetry_space_group_name_H-M   'P 1'
_cell_length_a   8.85076583
_cell_length_b   8.85076665
_cell_length_c   8.85076600
_cell_angle_alpha   60.00000244
_cell_angle_beta   59.99999936
_cell_angle_gamma   60.00000265
_symmetry_Int_Tables_number   1
_chemical_formula_structural   Zr6Ta4Al12Ir6Ru
_chemical_formula_sum   'Zr6 Ta4 Al12 Ir6 Ru1'
_cell_volume   490.26130497
_cell_formula_units_Z   1
loop_
 _symmetry_equiv_pos_site_id
 _symmetry_equiv_pos_as_xyz
  1  'x, y, z'
loop_
 _atom_site_type_symbol
 _atom_site_label
 _atom_site_symmetry_multiplicity
 _atom_site_fract_x
 _atom_site_fract_y
 _atom_site_fract_z
 _atom_site_occupancy
  Zr  Zr0  1  0.690857  0.690857  0.309143  1
  Zr  Zr1  1  0.309143  0.690857  0.309143  1
  Zr  Zr2  1  0.690857  0.309143  0.309143  1
  Zr  Zr3  1  0.309143  0.309143  0.690857  1
  Zr  Zr4  1  0.690857  0.309143  0.690857  1
  Zr  Zr5  1  0.309143  0.690857  0.690857  1
  Ta  Ta6  1  0.879727  0.879727  0.360822  1
  Ta  Ta7  1  0.879727  0.360822  0.879727  1
  Ta  Ta8  1  0.360822  0.879727  0.879727  1
  Ta  Ta9  1  0.879727  0.879727  0.879727  1
  Al  Al10  1  0.121357  0.121357  0.635928  1
  Al  Al11  1  0.121357  0.635928  0.121357  1
  Al  Al12  1  0.635928  0.121357  0.121357  1
  Al  Al13  1  0.121357  0.121357  0.121357  1
  Al  Al14  1  0.659125  0.659125  0.022626  1
  Al  Al15  1  0.659125  0.022626  0.659125  1
  Al  Al16  1  0.022626  0.659125  0.659125  1
  Al  Al17  1  0.659125  0.659125  0.659125  1
  Al  Al18  1  0.338287  0.338287  0.985140  1
  Al  Al19  1  0.338287  0.985140  0.338287  1
  Al  Al20  1  0.985140  0.338287  0.338287  1
  Al  Al21  1  0.338287  0.338287  0.338287  1
  Ir  Ir22  1  0.996417  0.996417  0.503583  1
  Ir  Ir23  1  0.503583  0.996417  0.503583  1
  Ir  Ir24  1  0.996417  0.503583  0.503583  1
  Ir  Ir25  1  0.503583  0.503583  0.996417  1
  Ir  Ir26  1  0.996417  0.503583  0.996417  1
  Ir  Ir27  1  0.503583  0.996417  0.996417  1
  Ru  Ru28  1  0.000000  0.000000  0.000000  1
