# generated using pymatgen
data_Mn2GaP6BrN12
_symmetry_space_group_name_H-M   'P 1'
_cell_length_a   7.24552494
_cell_length_b   7.24049086
_cell_length_c   7.24552471
_cell_angle_alpha   109.33568008
_cell_angle_beta   109.75182049
_cell_angle_gamma   109.33567464
_symmetry_Int_Tables_number   1
_chemical_formula_structural   Mn2GaP6BrN12
_chemical_formula_sum   'Mn2 Ga1 P6 Br1 N12'
_cell_volume   292.56952261
_cell_formula_units_Z   1
loop_
 _symmetry_equiv_pos_site_id
 _symmetry_equiv_pos_as_xyz
  1  'x, y, z'
loop_
 _atom_site_type_symbol
 _atom_site_label
 _atom_site_symmetry_multiplicity
 _atom_site_fract_x
 _atom_site_fract_y
 _atom_site_fract_z
 _atom_site_occupancy
  Mn  Mn0  1  0.002310  0.998697  0.357638  1
  Mn  Mn1  1  0.357638  0.998697  0.002310  1
  Ga  Ga2  1  0.002846  0.392794  0.002846  1
  P  P3  1  0.498820  0.252220  0.750568  1
  P  P4  1  0.260645  0.747108  0.502144  1
  P  P5  1  0.745599  0.494466  0.252165  1
  P  P6  1  0.750568  0.252220  0.498820  1
  P  P7  1  0.502144  0.747108  0.260645  1
  P  P8  1  0.252165  0.494466  0.745599  1
  Br  Br9  1  0.998883  0.036721  0.998883  1
  N  N10  1  0.435306  0.702916  0.435306  1
  N  N11  1  0.715780  0.433160  0.435186  1
  N  N12  1  0.435186  0.433160  0.715780  1
  N  N13  1  0.731435  0.286177  0.731435  1
  N  N14  1  0.000387  0.558751  0.270496  1
  N  N15  1  0.270496  0.558751  0.000387  1
  N  N16  1  0.282181  0.996503  0.558936  1
  N  N17  1  0.998981  0.272092  0.563586  1
  N  N18  1  0.720740  0.717697  0.275367  1
  N  N19  1  0.558936  0.996503  0.282181  1
  N  N20  1  0.275367  0.717697  0.720740  1
  N  N21  1  0.563586  0.272092  0.998981  1
