# generated using pymatgen
data_Yb4MgRh7
_symmetry_space_group_name_H-M   'P 1'
_cell_length_a   5.40296000
_cell_length_b   5.40295897
_cell_length_c   8.58743800
_cell_angle_alpha   90.00000000
_cell_angle_beta   90.00000000
_cell_angle_gamma   119.99999408
_symmetry_Int_Tables_number   1
_chemical_formula_structural   Yb4MgRh7
_chemical_formula_sum   'Yb4 Mg1 Rh7'
_cell_volume   217.09893537
_cell_formula_units_Z   1
loop_
 _symmetry_equiv_pos_site_id
 _symmetry_equiv_pos_as_xyz
  1  'x, y, z'
loop_
 _atom_site_type_symbol
 _atom_site_label
 _atom_site_symmetry_multiplicity
 _atom_site_fract_x
 _atom_site_fract_y
 _atom_site_fract_z
 _atom_site_occupancy
  Yb  Yb0  1  0.333333  0.666667  0.439175  1
  Yb  Yb1  1  0.666667  0.333333  0.560825  1
  Yb  Yb2  1  0.666667  0.333333  0.920994  1
  Yb  Yb3  1  0.333333  0.666667  0.079006  1
  Mg  Mg4  1  0.000000  0.000000  0.000000  1
  Rh  Rh5  1  0.000000  0.000000  0.500000  1
  Rh  Rh6  1  0.828517  0.171483  0.253489  1
  Rh  Rh7  1  0.828517  0.657031  0.253489  1
  Rh  Rh8  1  0.342969  0.171483  0.253489  1
  Rh  Rh9  1  0.171483  0.828517  0.746511  1
  Rh  Rh10  1  0.171483  0.342969  0.746511  1
  Rh  Rh11  1  0.657031  0.828517  0.746511  1
