# generated using pymatgen
data_Ho19Lu(InGa2)4
_symmetry_space_group_name_H-M   'P 1'
_cell_length_a   7.70128100
_cell_length_b   7.70128100
_cell_length_c   14.28475300
_cell_angle_alpha   90.00000000
_cell_angle_beta   90.00000000
_cell_angle_gamma   90.00000000
_symmetry_Int_Tables_number   1
_chemical_formula_structural   Ho19Lu(InGa2)4
_chemical_formula_sum   'Ho19 Lu1 In4 Ga8'
_cell_volume   847.22482985
_cell_formula_units_Z   1
loop_
 _symmetry_equiv_pos_site_id
 _symmetry_equiv_pos_as_xyz
  1  'x, y, z'
loop_
 _atom_site_type_symbol
 _atom_site_label
 _atom_site_symmetry_multiplicity
 _atom_site_fract_x
 _atom_site_fract_y
 _atom_site_fract_z
 _atom_site_occupancy
  Ho  Ho0  1  0.000000  0.500000  0.260018  1
  Ho  Ho1  1  0.500000  0.000000  0.239976  1
  Ho  Ho2  1  0.500000  0.000000  0.739997  1
  Ho  Ho3  1  0.673627  0.660671  0.606098  1
  Ho  Ho4  1  0.673445  0.339153  0.105965  1
  Ho  Ho5  1  0.826492  0.839211  0.394040  1
  Ho  Ho6  1  0.173258  0.838832  0.893953  1
  Ho  Ho7  1  0.326373  0.339329  0.606098  1
  Ho  Ho8  1  0.326555  0.660847  0.105965  1
  Ho  Ho9  1  0.173508  0.160789  0.394040  1
  Ho  Ho10  1  0.826742  0.161168  0.893953  1
  Ho  Ho11  1  0.660789  0.326492  0.394040  1
  Ho  Ho12  1  0.338832  0.326742  0.893953  1
  Ho  Ho13  1  0.160671  0.826373  0.606098  1
  Ho  Ho14  1  0.839153  0.826555  0.105965  1
  Ho  Ho15  1  0.339211  0.673508  0.394040  1
  Ho  Ho16  1  0.661168  0.673258  0.893953  1
  Ho  Ho17  1  0.839329  0.173627  0.606098  1
  Ho  Ho18  1  0.160847  0.173445  0.105965  1
  Lu  Lu19  1  0.000000  0.500000  0.759697  1
  In  In20  1  0.000000  0.500000  0.496440  1
  In  In21  1  0.000000  0.500000  0.995866  1
  In  In22  1  0.500000  0.000000  0.503753  1
  In  In23  1  0.500000  0.000000  0.003754  1
  Ga  Ga24  1  0.875974  0.875228  0.750058  1
  Ga  Ga25  1  0.875887  0.124150  0.250011  1
  Ga  Ga26  1  0.624150  0.624113  0.250011  1
  Ga  Ga27  1  0.375228  0.624026  0.750058  1
  Ga  Ga28  1  0.124026  0.124772  0.750058  1
  Ga  Ga29  1  0.124113  0.875850  0.250011  1
  Ga  Ga30  1  0.375850  0.375887  0.250011  1
  Ga  Ga31  1  0.624772  0.375974  0.750058  1
