# generated using pymatgen
data_Tm5U(Co3As2)6
_symmetry_space_group_name_H-M   'P 1'
_cell_length_a   3.81457200
_cell_length_b   10.92385200
_cell_length_c   12.61024900
_cell_angle_alpha   90.00000000
_cell_angle_beta   90.00000000
_cell_angle_gamma   90.00000000
_symmetry_Int_Tables_number   1
_chemical_formula_structural   Tm5U(Co3As2)6
_chemical_formula_sum   'Tm5 U1 Co18 As12'
_cell_volume   525.46680562
_cell_formula_units_Z   1
loop_
 _symmetry_equiv_pos_site_id
 _symmetry_equiv_pos_as_xyz
  1  'x, y, z'
loop_
 _atom_site_type_symbol
 _atom_site_label
 _atom_site_symmetry_multiplicity
 _atom_site_fract_x
 _atom_site_fract_y
 _atom_site_fract_z
 _atom_site_occupancy
  Tm  Tm0  1  0.500000  0.000000  0.475738  1
  Tm  Tm1  1  0.500000  0.817076  0.207103  1
  Tm  Tm2  1  0.500000  0.182924  0.207103  1
  Tm  Tm3  1  0.000000  0.683364  0.794524  1
  Tm  Tm4  1  0.000000  0.316636  0.794524  1
  U  U5  1  0.000000  0.500000  0.531245  1
  Co  Co6  1  0.500000  0.500000  0.155430  1
  Co  Co7  1  0.000000  0.000000  0.842633  1
  Co  Co8  1  0.500000  0.500000  0.691056  1
  Co  Co9  1  0.000000  0.000000  0.298854  1
  Co  Co10  1  0.000000  0.500000  0.984342  1
  Co  Co11  1  0.500000  0.000000  0.015351  1
  Co  Co12  1  0.500000  0.334198  0.993844  1
  Co  Co13  1  0.500000  0.665802  0.993844  1
  Co  Co14  1  0.000000  0.166942  0.005073  1
  Co  Co15  1  0.000000  0.833058  0.005073  1
  Co  Co16  1  0.500000  0.302390  0.431601  1
  Co  Co17  1  0.500000  0.697610  0.431601  1
  Co  Co18  1  0.000000  0.199710  0.569378  1
  Co  Co19  1  0.000000  0.800290  0.569378  1
  Co  Co20  1  0.500000  0.880345  0.708959  1
  Co  Co21  1  0.500000  0.119655  0.708959  1
  Co  Co22  1  0.000000  0.620279  0.293670  1
  Co  Co23  1  0.000000  0.379721  0.293670  1
  As  As24  1  0.500000  0.500000  0.875424  1
  As  As25  1  0.000000  0.000000  0.120644  1
  As  As26  1  0.500000  0.500000  0.346326  1
  As  As27  1  0.000000  0.000000  0.652142  1
  As  As28  1  0.500000  0.307327  0.616998  1
  As  As29  1  0.500000  0.692673  0.616998  1
  As  As30  1  0.000000  0.186487  0.383678  1
  As  As31  1  0.000000  0.813513  0.383678  1
  As  As32  1  0.500000  0.846590  0.891465  1
  As  As33  1  0.500000  0.153410  0.891465  1
  As  As34  1  0.000000  0.653230  0.109113  1
  As  As35  1  0.000000  0.346770  0.109113  1
