# generated using pymatgen
data_Ho3TmAl4NiRh3
_symmetry_space_group_name_H-M   'P 1'
_cell_length_a   4.21269000
_cell_length_b   6.79909314
_cell_length_c   7.90106012
_cell_angle_alpha   90.29393306
_cell_angle_beta   90.00000000
_cell_angle_gamma   90.00000000
_symmetry_Int_Tables_number   1
_chemical_formula_structural   Ho3TmAl4NiRh3
_chemical_formula_sum   'Ho3 Tm1 Al4 Ni1 Rh3'
_cell_volume   226.30291281
_cell_formula_units_Z   1
loop_
 _symmetry_equiv_pos_site_id
 _symmetry_equiv_pos_as_xyz
  1  'x, y, z'
loop_
 _atom_site_type_symbol
 _atom_site_label
 _atom_site_symmetry_multiplicity
 _atom_site_fract_x
 _atom_site_fract_y
 _atom_site_fract_z
 _atom_site_occupancy
  Ho  Ho0  1  0.250000  0.963409  0.319536  1
  Ho  Ho1  1  0.750000  0.538398  0.823772  1
  Ho  Ho2  1  0.250000  0.467058  0.177539  1
  Tm  Tm3  1  0.750000  0.034937  0.677597  1
  Al  Al4  1  0.750000  0.637923  0.436204  1
  Al  Al5  1  0.750000  0.130950  0.059206  1
  Al  Al6  1  0.250000  0.363349  0.559350  1
  Al  Al7  1  0.250000  0.860987  0.945037  1
  Ni  Ni8  1  0.750000  0.769487  0.125140  1
  Rh  Rh9  1  0.750000  0.262131  0.376695  1
  Rh  Rh10  1  0.250000  0.234984  0.877584  1
  Rh  Rh11  1  0.250000  0.736385  0.622340  1
