# generated using pymatgen
data_Sm3U5(TcB6)4
_symmetry_space_group_name_H-M   'P 1'
_cell_length_a   3.66503800
_cell_length_b   9.33532236
_cell_length_c   11.44244844
_cell_angle_alpha   90.03168131
_cell_angle_beta   90.00000000
_cell_angle_gamma   90.00000000
_symmetry_Int_Tables_number   1
_chemical_formula_structural   Sm3U5(TcB6)4
_chemical_formula_sum   'Sm3 U5 Tc4 B24'
_cell_volume   391.49543164
_cell_formula_units_Z   1
loop_
 _symmetry_equiv_pos_site_id
 _symmetry_equiv_pos_as_xyz
  1  'x, y, z'
loop_
 _atom_site_type_symbol
 _atom_site_label
 _atom_site_symmetry_multiplicity
 _atom_site_fract_x
 _atom_site_fract_y
 _atom_site_fract_z
 _atom_site_occupancy
  Sm  Sm0  1  0.000000  0.337249  0.407605  1
  Sm  Sm1  1  0.000000  0.662876  0.592399  1
  Sm  Sm2  1  0.000000  0.836190  0.092766  1
  U  U3  1  0.000000  0.163000  0.907112  1
  U  U4  1  0.000000  0.956559  0.396959  1
  U  U5  1  0.000000  0.042846  0.603804  1
  U  U6  1  0.000000  0.457154  0.103279  1
  U  U7  1  0.000000  0.542501  0.896935  1
  Tc  Tc8  1  0.000000  0.646560  0.318318  1
  Tc  Tc9  1  0.000000  0.350817  0.684928  1
  Tc  Tc10  1  0.000000  0.147137  0.177971  1
  Tc  Tc11  1  0.000000  0.858116  0.819254  1
  B  B12  1  0.500000  0.553470  0.430001  1
  B  B13  1  0.500000  0.445480  0.571333  1
  B  B14  1  0.500000  0.054246  0.067658  1
  B  B15  1  0.500000  0.950269  0.929765  1
  B  B16  1  0.500000  0.744357  0.422237  1
  B  B17  1  0.500000  0.255402  0.578428  1
  B  B18  1  0.500000  0.242982  0.075800  1
  B  B19  1  0.500000  0.756331  0.921780  1
  B  B20  1  0.500000  0.802319  0.275084  1
  B  B21  1  0.500000  0.195980  0.726953  1
  B  B22  1  0.500000  0.302167  0.224158  1
  B  B23  1  0.500000  0.698649  0.775355  1
  B  B24  1  0.500000  0.643388  0.188332  1
  B  B25  1  0.500000  0.353839  0.812454  1
  B  B26  1  0.500000  0.144034  0.310790  1
  B  B27  1  0.500000  0.856580  0.688866  1
  B  B28  1  0.500000  0.990978  0.219684  1
  B  B29  1  0.500000  0.013025  0.781192  1
  B  B30  1  0.500000  0.490200  0.279656  1
  B  B31  1  0.500000  0.509244  0.720761  1
  B  B32  1  0.500000  0.638867  0.037852  1
  B  B33  1  0.500000  0.356757  0.960434  1
  B  B34  1  0.500000  0.138273  0.461567  1
  B  B35  1  0.500000  0.862160  0.538530  1
