# generated using pymatgen
data_DyYPa2(InRh2)2
_symmetry_space_group_name_H-M   'P 1'
_cell_length_a   7.80200912
_cell_length_b   7.64186222
_cell_length_c   3.63999800
_cell_angle_alpha   90.00000000
_cell_angle_beta   90.00000000
_cell_angle_gamma   90.23457497
_symmetry_Int_Tables_number   1
_chemical_formula_structural   DyYPa2(InRh2)2
_chemical_formula_sum   'Dy1 Y1 Pa2 In2 Rh4'
_cell_volume   217.02170049
_cell_formula_units_Z   1
loop_
 _symmetry_equiv_pos_site_id
 _symmetry_equiv_pos_as_xyz
  1  'x, y, z'
loop_
 _atom_site_type_symbol
 _atom_site_label
 _atom_site_symmetry_multiplicity
 _atom_site_fract_x
 _atom_site_fract_y
 _atom_site_fract_z
 _atom_site_occupancy
  Dy  Dy0  1  0.670443  0.169036  0.500000  1
  Y  Y1  1  0.170823  0.330355  0.500000  1
  Pa  Pa2  1  0.323442  0.837832  0.500000  1
  Pa  Pa3  1  0.822957  0.662031  0.500000  1
  In  In4  1  0.490865  0.489670  0.000000  1
  In  In5  1  0.991609  0.010674  0.000000  1
  Rh  Rh6  1  0.371947  0.094855  0.000000  1
  Rh  Rh7  1  0.645229  0.844204  0.000000  1
  Rh  Rh8  1  0.868750  0.404634  0.000000  1
  Rh  Rh9  1  0.143938  0.656706  0.000000  1
