# generated using pymatgen
data_Dy2Tm6Re3B24Ru
_symmetry_space_group_name_H-M   'P 1'
_cell_length_a   3.64622000
_cell_length_b   9.11056997
_cell_length_c   11.48849600
_cell_angle_alpha   89.89879092
_cell_angle_beta   90.00000000
_cell_angle_gamma   90.00000000
_symmetry_Int_Tables_number   1
_chemical_formula_structural   Dy2Tm6Re3B24Ru
_chemical_formula_sum   'Dy2 Tm6 Re3 B24 Ru1'
_cell_volume   381.63738974
_cell_formula_units_Z   1
loop_
 _symmetry_equiv_pos_site_id
 _symmetry_equiv_pos_as_xyz
  1  'x, y, z'
loop_
 _atom_site_type_symbol
 _atom_site_label
 _atom_site_symmetry_multiplicity
 _atom_site_fract_x
 _atom_site_fract_y
 _atom_site_fract_z
 _atom_site_occupancy
  Dy  Dy0  1  0.000000  0.322650  0.413507  1
  Dy  Dy1  1  0.000000  0.675793  0.584468  1
  Tm  Tm2  1  0.000000  0.822375  0.087703  1
  Tm  Tm3  1  0.000000  0.178591  0.914200  1
  Tm  Tm4  1  0.000000  0.943109  0.370886  1
  Tm  Tm5  1  0.000000  0.056802  0.630481  1
  Tm  Tm6  1  0.000000  0.443657  0.128776  1
  Tm  Tm7  1  0.000000  0.558158  0.870258  1
  Re  Re8  1  0.000000  0.638902  0.319883  1
  Re  Re9  1  0.000000  0.361004  0.680608  1
  Re  Re10  1  0.000000  0.137636  0.177846  1
  B  B11  1  0.500000  0.553005  0.432657  1
  B  B12  1  0.500000  0.446564  0.567028  1
  B  B13  1  0.500000  0.052546  0.066230  1
  B  B14  1  0.500000  0.946386  0.933119  1
  B  B15  1  0.500000  0.749498  0.418676  1
  B  B16  1  0.500000  0.249672  0.581550  1
  B  B17  1  0.500000  0.249953  0.080392  1
  B  B18  1  0.500000  0.751164  0.919122  1
  B  B19  1  0.500000  0.792767  0.265357  1
  B  B20  1  0.500000  0.207381  0.735557  1
  B  B21  1  0.500000  0.292300  0.233908  1
  B  B22  1  0.500000  0.708895  0.765736  1
  B  B23  1  0.500000  0.631097  0.184668  1
  B  B24  1  0.500000  0.369274  0.815797  1
  B  B25  1  0.500000  0.129900  0.314228  1
  B  B26  1  0.500000  0.869235  0.685658  1
  B  B27  1  0.500000  0.980845  0.211970  1
  B  B28  1  0.500000  0.017427  0.788319  1
  B  B29  1  0.500000  0.481849  0.286991  1
  B  B30  1  0.500000  0.518159  0.712503  1
  B  B31  1  0.500000  0.602326  0.027982  1
  B  B32  1  0.500000  0.399908  0.971608  1
  B  B33  1  0.500000  0.100059  0.472555  1
  B  B34  1  0.500000  0.899261  0.528569  1
  Ru  Ru35  1  0.000000  0.861852  0.821202  1
