# generated using pymatgen
data_AlGaSb2(SeO3)8
_symmetry_space_group_name_H-M   'P 1'
_cell_length_a   8.18321513
_cell_length_b   8.11835531
_cell_length_c   8.15199953
_cell_angle_alpha   89.36581722
_cell_angle_beta   90.05721886
_cell_angle_gamma   89.94092580
_symmetry_Int_Tables_number   1
_chemical_formula_structural   AlGaSb2(SeO3)8
_chemical_formula_sum   'Al1 Ga1 Sb2 Se8 O24'
_cell_volume   541.53821945
_cell_formula_units_Z   1
loop_
 _symmetry_equiv_pos_site_id
 _symmetry_equiv_pos_as_xyz
  1  'x, y, z'
loop_
 _atom_site_type_symbol
 _atom_site_label
 _atom_site_symmetry_multiplicity
 _atom_site_fract_x
 _atom_site_fract_y
 _atom_site_fract_z
 _atom_site_occupancy
  Al  Al0  1  0.500000  0.500000  0.500000  1
  Ga  Ga1  1  0.000000  0.500000  0.000000  1
  Sb  Sb2  1  0.000000  0.000000  0.500000  1
  Sb  Sb3  1  0.500000  0.000000  0.000000  1
  Se  Se4  1  0.324515  0.659991  0.179180  1
  Se  Se5  1  0.821331  0.340823  0.323183  1
  Se  Se6  1  0.666669  0.815735  0.665477  1
  Se  Se7  1  0.165131  0.180169  0.835919  1
  Se  Se8  1  0.675485  0.340009  0.820820  1
  Se  Se9  1  0.178669  0.659177  0.676817  1
  Se  Se10  1  0.333331  0.184265  0.334523  1
  Se  Se11  1  0.834869  0.819831  0.164081  1
  O  O12  1  0.239870  0.530252  0.039414  1
  O  O13  1  0.728770  0.465012  0.461661  1
  O  O14  1  0.757764  0.966226  0.534268  1
  O  O15  1  0.257761  0.028363  0.964623  1
  O  O16  1  0.528508  0.955996  0.756964  1
  O  O17  1  0.462275  0.530864  0.270888  1
  O  O18  1  0.959149  0.476318  0.239426  1
  O  O19  1  0.029004  0.039286  0.742820  1
  O  O20  1  0.963757  0.241194  0.463664  1
  O  O21  1  0.538763  0.733675  0.526435  1
  O  O22  1  0.469750  0.759263  0.041703  1
  O  O23  1  0.034707  0.256271  0.976626  1
  O  O24  1  0.760130  0.469748  0.960586  1
  O  O25  1  0.271230  0.534988  0.538339  1
  O  O26  1  0.242236  0.033774  0.465732  1
  O  O27  1  0.742239  0.971637  0.035377  1
  O  O28  1  0.471492  0.044004  0.243036  1
  O  O29  1  0.537725  0.469136  0.729112  1
  O  O30  1  0.040851  0.523682  0.760574  1
  O  O31  1  0.970996  0.960714  0.257180  1
  O  O32  1  0.036243  0.758806  0.536336  1
  O  O33  1  0.461237  0.266325  0.473565  1
  O  O34  1  0.530250  0.240737  0.958297  1
  O  O35  1  0.965293  0.743729  0.023374  1
