# generated using pymatgen
data_Tb8Y12Si15Ir
_symmetry_space_group_name_H-M   'P 1'
_cell_length_a   7.70147154
_cell_length_b   7.72745272
_cell_length_c   14.12954152
_cell_angle_alpha   89.86730953
_cell_angle_beta   89.78911797
_cell_angle_gamma   90.26145343
_symmetry_Int_Tables_number   1
_chemical_formula_structural   Tb8Y12Si15Ir
_chemical_formula_sum   'Tb8 Y12 Si15 Ir1'
_cell_volume   840.87123591
_cell_formula_units_Z   1
loop_
 _symmetry_equiv_pos_site_id
 _symmetry_equiv_pos_as_xyz
  1  'x, y, z'
loop_
 _atom_site_type_symbol
 _atom_site_label
 _atom_site_symmetry_multiplicity
 _atom_site_fract_x
 _atom_site_fract_y
 _atom_site_fract_z
 _atom_site_occupancy
  Tb  Tb0  1  0.993123  0.362377  0.211289  1
  Tb  Tb1  1  0.007330  0.641362  0.709048  1
  Tb  Tb2  1  0.144991  0.496321  0.456400  1
  Tb  Tb3  1  0.507674  0.858946  0.041777  1
  Tb  Tb4  1  0.859093  0.504803  0.957909  1
  Tb  Tb5  1  0.495389  0.140452  0.542407  1
  Tb  Tb6  1  0.360179  0.993571  0.791289  1
  Tb  Tb7  1  0.638768  0.006173  0.290957  1
  Y  Y8  1  0.182806  0.184164  0.001786  1
  Y  Y9  1  0.822029  0.817714  0.498911  1
  Y  Y10  1  0.316253  0.675081  0.251948  1
  Y  Y11  1  0.682248  0.318462  0.749619  1
  Y  Y12  1  0.151129  0.017197  0.375413  1
  Y  Y13  1  0.860068  0.992385  0.875646  1
  Y  Y14  1  0.491994  0.639276  0.626976  1
  Y  Y15  1  0.363147  0.507109  0.873864  1
  Y  Y16  1  0.507650  0.357704  0.127844  1
  Y  Y17  1  0.625785  0.482361  0.375368  1
  Y  Y18  1  0.007894  0.138552  0.623908  1
  Y  Y19  1  0.991627  0.859300  0.124144  1
  Si  Si20  1  0.654491  0.703296  0.813382  1
  Si  Si21  1  0.207816  0.849238  0.566121  1
  Si  Si22  1  0.151296  0.792374  0.935315  1
  Si  Si23  1  0.797169  0.151454  0.064166  1
  Si  Si24  1  0.847209  0.205541  0.436227  1
  Si  Si25  1  0.294370  0.347287  0.687382  1
  Si  Si26  1  0.702702  0.654680  0.187584  1
  Si  Si27  1  0.301308  0.051987  0.186483  1
  Si  Si28  1  0.704735  0.939541  0.688450  1
  Si  Si29  1  0.441811  0.798732  0.441255  1
  Si  Si30  1  0.206407  0.567010  0.058719  1
  Si  Si31  1  0.560545  0.201843  0.938421  1
  Si  Si32  1  0.795000  0.437395  0.561151  1
  Si  Si33  1  0.061993  0.292602  0.810741  1
  Si  Si34  1  0.931631  0.709011  0.311617  1
  Ir  Ir35  1  0.332338  0.304700  0.306481  1
