# generated using pymatgen
data_Li3Y2LuSi2As
_symmetry_space_group_name_H-M   'P 1'
_cell_length_a   6.97166605
_cell_length_b   7.10439671
_cell_length_c   4.16674900
_cell_angle_alpha   90.00000000
_cell_angle_beta   90.00000000
_cell_angle_gamma   120.63181043
_symmetry_Int_Tables_number   1
_chemical_formula_structural   Li3Y2LuSi2As
_chemical_formula_sum   'Li3 Y2 Lu1 Si2 As1'
_cell_volume   177.57893245
_cell_formula_units_Z   1
loop_
 _symmetry_equiv_pos_site_id
 _symmetry_equiv_pos_as_xyz
  1  'x, y, z'
loop_
 _atom_site_type_symbol
 _atom_site_label
 _atom_site_symmetry_multiplicity
 _atom_site_fract_x
 _atom_site_fract_y
 _atom_site_fract_z
 _atom_site_occupancy
  Li  Li0  1  0.233522  0.997851  0.500000  1
  Li  Li1  1  0.766478  0.764327  0.500000  1
  Li  Li2  1  0.000000  0.237653  0.500000  1
  Y  Y3  1  0.582519  0.006437  0.000000  1
  Y  Y4  1  0.417481  0.423917  0.000000  1
  Lu  Lu5  1  0.000000  0.578611  0.000000  1
  Si  Si6  1  0.330322  0.667818  0.500000  1
  Si  Si7  1  0.669678  0.337495  0.500000  1
  As  As8  1  0.000000  0.985890  0.000000  1
