# generated using pymatgen
data_Er8Ti6Nb6Si15Sn
_symmetry_space_group_name_H-M   'P 1'
_cell_length_a   7.09059142
_cell_length_b   7.05328754
_cell_length_c   13.00758829
_cell_angle_alpha   90.09645577
_cell_angle_beta   89.83449457
_cell_angle_gamma   89.94431266
_symmetry_Int_Tables_number   1
_chemical_formula_structural   Er8Ti6Nb6Si15Sn
_chemical_formula_sum   'Er8 Ti6 Nb6 Si15 Sn1'
_cell_volume   650.53130050
_cell_formula_units_Z   1
loop_
 _symmetry_equiv_pos_site_id
 _symmetry_equiv_pos_as_xyz
  1  'x, y, z'
loop_
 _atom_site_type_symbol
 _atom_site_label
 _atom_site_symmetry_multiplicity
 _atom_site_fract_x
 _atom_site_fract_y
 _atom_site_fract_z
 _atom_site_occupancy
  Er  Er0  1  0.343694  0.998386  0.461091  1
  Er  Er1  1  0.506076  0.836034  0.718519  1
  Er  Er2  1  0.501824  0.158101  0.216918  1
  Er  Er3  1  0.840662  0.498272  0.282284  1
  Er  Er4  1  0.159064  0.508128  0.785836  1
  Er  Er5  1  0.660153  0.996763  0.969102  1
  Er  Er6  1  0.990827  0.348732  0.527274  1
  Er  Er7  1  0.000446  0.659349  0.034211  1
  Ti  Ti8  1  0.514701  0.354332  0.625963  1
  Ti  Ti9  1  0.654305  0.492659  0.876447  1
  Ti  Ti10  1  0.347536  0.508616  0.374107  1
  Ti  Ti11  1  0.846073  0.991985  0.374559  1
  Ti  Ti12  1  0.009648  0.150839  0.124449  1
  Ti  Ti13  1  0.978510  0.835801  0.619652  1
  Nb  Nb14  1  0.327290  0.327319  0.001731  1
  Nb  Nb15  1  0.173226  0.827251  0.249868  1
  Nb  Nb16  1  0.818649  0.174870  0.751844  1
  Nb  Nb17  1  0.672049  0.672295  0.499564  1
  Nb  Nb18  1  0.152914  0.006610  0.882243  1
  Nb  Nb19  1  0.493119  0.650391  0.125344  1
  Si  Si20  1  0.371171  0.704208  0.934526  1
  Si  Si21  1  0.627818  0.297272  0.432662  1
  Si  Si22  1  0.706189  0.366091  0.067408  1
  Si  Si23  1  0.295033  0.631240  0.565762  1
  Si  Si24  1  0.798525  0.869940  0.184082  1
  Si  Si25  1  0.130266  0.203139  0.315396  1
  Si  Si26  1  0.868505  0.798901  0.816570  1
  Si  Si27  1  0.295065  0.952919  0.066714  1
  Si  Si28  1  0.549429  0.792026  0.313660  1
  Si  Si29  1  0.459356  0.209240  0.818679  1
  Si  Si30  1  0.795832  0.544273  0.687542  1
  Si  Si31  1  0.205881  0.451378  0.186823  1
  Si  Si32  1  0.704563  0.049276  0.563528  1
  Si  Si33  1  0.952181  0.295951  0.936219  1
  Si  Si34  1  0.047325  0.709182  0.433733  1
  Sn  Sn35  1  0.202094  0.128234  0.675690  1
