# generated using pymatgen
data_Sc2Fe5C4
_symmetry_space_group_name_H-M   'P 1'
_cell_length_a   6.77819042
_cell_length_b   5.64245357
_cell_length_c   5.10907606
_cell_angle_alpha   78.04807607
_cell_angle_beta   54.53691556
_cell_angle_gamma   47.48427477
_symmetry_Int_Tables_number   1
_chemical_formula_structural   Sc2Fe5C4
_chemical_formula_sum   'Sc2 Fe5 C4'
_cell_volume   111.60107357
_cell_formula_units_Z   1
loop_
 _symmetry_equiv_pos_site_id
 _symmetry_equiv_pos_as_xyz
  1  'x, y, z'
loop_
 _atom_site_type_symbol
 _atom_site_label
 _atom_site_symmetry_multiplicity
 _atom_site_fract_x
 _atom_site_fract_y
 _atom_site_fract_z
 _atom_site_occupancy
  Sc  Sc0  1  0.855600  0.855325  0.144864  1
  Sc  Sc1  1  0.144397  0.144676  0.855137  1
  Fe  Fe2  1  0.499999  0.500000  0.000000  1
  Fe  Fe3  1  0.250174  0.249704  0.249877  1
  Fe  Fe4  1  0.000000  0.000000  0.500000  1
  Fe  Fe5  1  0.499999  0.500001  0.500001  1
  Fe  Fe6  1  0.749824  0.750298  0.750124  1
  C  C7  1  0.476970  0.789927  0.210219  1
  C  C8  1  0.210141  0.523091  0.476796  1
  C  C9  1  0.789856  0.476911  0.523206  1
  C  C10  1  0.523028  0.210074  0.789782  1
