# generated using pymatgen
data_Tm5CoPd2
_symmetry_space_group_name_H-M   'P 1'
_cell_length_a   7.70031800
_cell_length_b   8.26237300
_cell_length_c   11.76520700
_cell_angle_alpha   90.00000000
_cell_angle_beta   90.00000000
_cell_angle_gamma   90.00000000
_symmetry_Int_Tables_number   1
_chemical_formula_structural   Tm5CoPd2
_chemical_formula_sum   'Tm20 Co4 Pd8'
_cell_volume   748.53658296
_cell_formula_units_Z   4
loop_
 _symmetry_equiv_pos_site_id
 _symmetry_equiv_pos_as_xyz
  1  'x, y, z'
loop_
 _atom_site_type_symbol
 _atom_site_label
 _atom_site_symmetry_multiplicity
 _atom_site_fract_x
 _atom_site_fract_y
 _atom_site_fract_z
 _atom_site_occupancy
  Tm  Tm0  1  0.162899  0.750000  0.217486  1
  Tm  Tm1  1  0.662899  0.250000  0.282514  1
  Tm  Tm2  1  0.837101  0.250000  0.782514  1
  Tm  Tm3  1  0.337101  0.750000  0.717486  1
  Tm  Tm4  1  0.458876  0.750000  0.004546  1
  Tm  Tm5  1  0.958876  0.250000  0.495454  1
  Tm  Tm6  1  0.541124  0.250000  0.995454  1
  Tm  Tm7  1  0.041124  0.750000  0.504546  1
  Tm  Tm8  1  0.630864  0.750000  0.308807  1
  Tm  Tm9  1  0.130864  0.250000  0.191193  1
  Tm  Tm10  1  0.369136  0.250000  0.691193  1
  Tm  Tm11  1  0.869136  0.750000  0.808807  1
  Tm  Tm12  1  0.829360  0.965737  0.081931  1
  Tm  Tm13  1  0.329360  0.034263  0.418069  1
  Tm  Tm14  1  0.170640  0.465737  0.918069  1
  Tm  Tm15  1  0.670640  0.534263  0.581931  1
  Tm  Tm16  1  0.170640  0.034263  0.918069  1
  Tm  Tm17  1  0.670640  0.965737  0.581931  1
  Tm  Tm18  1  0.829360  0.534263  0.081931  1
  Tm  Tm19  1  0.329360  0.465737  0.418069  1
  Co  Co20  1  0.432209  0.750000  0.497326  1
  Co  Co21  1  0.932209  0.250000  0.002674  1
  Co  Co22  1  0.567791  0.250000  0.502674  1
  Co  Co23  1  0.067791  0.750000  0.997326  1
  Pd  Pd24  1  0.934841  0.986018  0.331762  1
  Pd  Pd25  1  0.434841  0.013982  0.168238  1
  Pd  Pd26  1  0.065159  0.486018  0.668238  1
  Pd  Pd27  1  0.565159  0.513982  0.831762  1
  Pd  Pd28  1  0.065159  0.013982  0.668238  1
  Pd  Pd29  1  0.565159  0.986018  0.831762  1
  Pd  Pd30  1  0.934841  0.513982  0.331762  1
  Pd  Pd31  1  0.434841  0.486018  0.168238  1
