# generated using pymatgen
data_Y2Er2Hf3ScRh4
_symmetry_space_group_name_H-M   'P 1'
_cell_length_a   4.56435900
_cell_length_b   6.98724398
_cell_length_c   8.31695806
_cell_angle_alpha   90.16372844
_cell_angle_beta   90.00000000
_cell_angle_gamma   90.00000000
_symmetry_Int_Tables_number   1
_chemical_formula_structural   Y2Er2Hf3ScRh4
_chemical_formula_sum   'Y2 Er2 Hf3 Sc1 Rh4'
_cell_volume   265.24575482
_cell_formula_units_Z   1
loop_
 _symmetry_equiv_pos_site_id
 _symmetry_equiv_pos_as_xyz
  1  'x, y, z'
loop_
 _atom_site_type_symbol
 _atom_site_label
 _atom_site_symmetry_multiplicity
 _atom_site_fract_x
 _atom_site_fract_y
 _atom_site_fract_z
 _atom_site_occupancy
  Y  Y0  1  0.250000  0.986279  0.323612  1
  Y  Y1  1  0.250000  0.483686  0.174873  1
  Er  Er2  1  0.750000  0.018659  0.679654  1
  Er  Er3  1  0.750000  0.513323  0.821630  1
  Hf  Hf4  1  0.250000  0.364436  0.575097  1
  Hf  Hf5  1  0.250000  0.856936  0.926103  1
  Hf  Hf6  1  0.750000  0.644219  0.425819  1
  Sc  Sc7  1  0.750000  0.137688  0.074952  1
  Rh  Rh8  1  0.250000  0.230725  0.899346  1
  Rh  Rh9  1  0.250000  0.734960  0.591516  1
  Rh  Rh10  1  0.750000  0.757778  0.087778  1
  Rh  Rh11  1  0.750000  0.271314  0.419621  1
