# generated using pymatgen
data_La12Zn3Ge5Ir8
_symmetry_space_group_name_H-M   'P 1'
_cell_length_a   5.78808400
_cell_length_b   8.37071860
_cell_length_c   13.58401460
_cell_angle_alpha   89.92912326
_cell_angle_beta   90.00000000
_cell_angle_gamma   90.00000000
_symmetry_Int_Tables_number   1
_chemical_formula_structural   La12Zn3Ge5Ir8
_chemical_formula_sum   'La12 Zn3 Ge5 Ir8'
_cell_volume   658.15074166
_cell_formula_units_Z   1
loop_
 _symmetry_equiv_pos_site_id
 _symmetry_equiv_pos_as_xyz
  1  'x, y, z'
loop_
 _atom_site_type_symbol
 _atom_site_label
 _atom_site_symmetry_multiplicity
 _atom_site_fract_x
 _atom_site_fract_y
 _atom_site_fract_z
 _atom_site_occupancy
  La  La0  1  0.150218  0.895432  0.598114  1
  La  La1  1  0.852428  0.107496  0.097853  1
  La  La2  1  0.150218  0.604568  0.401886  1
  La  La3  1  0.852428  0.392504  0.902147  1
  La  La4  1  0.848016  0.104585  0.402067  1
  La  La5  1  0.153628  0.897209  0.901143  1
  La  La6  1  0.848016  0.395415  0.597933  1
  La  La7  1  0.153628  0.602791  0.098857  1
  La  La8  1  0.363862  0.253542  0.749215  1
  La  La9  1  0.635331  0.747912  0.249746  1
  La  La10  1  0.363862  0.246458  0.250785  1
  La  La11  1  0.635331  0.752088  0.750254  1
  Zn  Zn12  1  0.366559  0.250000  0.500000  1
  Zn  Zn13  1  0.632630  0.750000  0.000000  1
  Zn  Zn14  1  0.635305  0.750000  0.500000  1
  Ge  Ge15  1  0.858222  0.105344  0.750577  1
  Ge  Ge16  1  0.139037  0.894225  0.249746  1
  Ge  Ge17  1  0.858222  0.394656  0.249423  1
  Ge  Ge18  1  0.139037  0.605775  0.750254  1
  Ge  Ge19  1  0.365915  0.250000  0.000000  1
  Ir  Ir20  1  0.634787  0.028878  0.592073  1
  Ir  Ir21  1  0.367543  0.969831  0.093553  1
  Ir  Ir22  1  0.634787  0.471122  0.407927  1
  Ir  Ir23  1  0.367543  0.530169  0.906447  1
  Ir  Ir24  1  0.366822  0.970344  0.408165  1
  Ir  Ir25  1  0.629900  0.032244  0.909339  1
  Ir  Ir26  1  0.366822  0.529656  0.591835  1
  Ir  Ir27  1  0.629900  0.467756  0.090661  1
