# generated using pymatgen
data_Tb3Dy(Al8Pt3)3
_symmetry_space_group_name_H-M   'P 1'
_cell_length_a   7.53259443
_cell_length_b   7.55401940
_cell_length_c   13.18268435
_cell_angle_alpha   84.56199233
_cell_angle_beta   79.11016246
_cell_angle_gamma   59.97189716
_symmetry_Int_Tables_number   1
_chemical_formula_structural   Tb3Dy(Al8Pt3)3
_chemical_formula_sum   'Tb3 Dy1 Al24 Pt9'
_cell_volume   637.73778682
_cell_formula_units_Z   1
loop_
 _symmetry_equiv_pos_site_id
 _symmetry_equiv_pos_as_xyz
  1  'x, y, z'
loop_
 _atom_site_type_symbol
 _atom_site_label
 _atom_site_symmetry_multiplicity
 _atom_site_fract_x
 _atom_site_fract_y
 _atom_site_fract_z
 _atom_site_occupancy
  Tb  Tb0  1  0.393358  0.168443  0.807986  1
  Tb  Tb1  1  0.606660  0.831566  0.192017  1
  Tb  Tb2  1  0.734039  0.498434  0.807677  1
  Dy  Dy3  1  0.265864  0.501574  0.192462  1
  Al  Al4  1  0.684591  0.833656  0.944540  1
  Al  Al5  1  0.315380  0.166488  0.055527  1
  Al  Al6  1  0.146914  0.832347  0.561191  1
  Al  Al7  1  0.853093  0.167649  0.438794  1
  Al  Al8  1  0.479741  0.166862  0.558612  1
  Al  Al9  1  0.520254  0.833146  0.441376  1
  Al  Al10  1  0.216996  0.165387  0.330071  1
  Al  Al11  1  0.783038  0.834718  0.669856  1
  Al  Al12  1  0.437836  0.506266  0.669875  1
  Al  Al13  1  0.562066  0.493735  0.330058  1
  Al  Al14  1  0.109797  0.159893  0.669089  1
  Al  Al15  1  0.890353  0.839985  0.330831  1
  Al  Al16  1  0.353103  0.499135  0.944763  1
  Al  Al17  1  0.646715  0.500858  0.055380  1
  Al  Al18  1  0.014812  0.167792  0.953259  1
  Al  Al19  1  0.985289  0.832090  0.046816  1
  Al  Al20  1  0.186768  0.498890  0.441265  1
  Al  Al21  1  0.813257  0.501109  0.558681  1
  Al  Al22  1  0.734343  0.164087  0.183316  1
  Al  Al23  1  0.265501  0.836042  0.816687  1
  Al  Al24  1  0.061847  0.631767  0.815446  1
  Al  Al25  1  0.938299  0.368252  0.184555  1
  Al  Al26  1  0.855035  0.041460  0.815974  1
  Al  Al27  1  0.144992  0.958350  0.184029  1
  Pt  Pt28  1  0.120141  0.492317  0.638628  1
  Pt  Pt29  1  0.880000  0.507694  0.361294  1
  Pt  Pt30  1  0.657281  0.171184  0.999986  1
  Pt  Pt31  1  0.342668  0.828822  0.000081  1
  Pt  Pt32  1  0.538010  0.166817  0.361300  1
  Pt  Pt33  1  0.461893  0.833300  0.638620  1
  Pt  Pt34  1  0.779159  0.174799  0.637126  1
  Pt  Pt35  1  0.220893  0.825070  0.362794  1
  Pt  Pt36  1  0.000013  0.500018  0.000039  1
