# generated using pymatgen
data_Dy3YAs3S
_symmetry_space_group_name_H-M   'P 1'
_cell_length_a   7.04380579
_cell_length_b   7.04380379
_cell_length_c   7.05709261
_cell_angle_alpha   80.33317212
_cell_angle_beta   80.33318173
_cell_angle_gamma   33.71174393
_symmetry_Int_Tables_number   1
_chemical_formula_structural   Dy3YAs3S
_chemical_formula_sum   'Dy3 Y1 As3 S1'
_cell_volume   191.31770678
_cell_formula_units_Z   1
loop_
 _symmetry_equiv_pos_site_id
 _symmetry_equiv_pos_as_xyz
  1  'x, y, z'
loop_
 _atom_site_type_symbol
 _atom_site_label
 _atom_site_symmetry_multiplicity
 _atom_site_fract_x
 _atom_site_fract_y
 _atom_site_fract_z
 _atom_site_occupancy
  Dy  Dy0  1  0.249197  0.249197  0.249603  1
  Dy  Dy1  1  0.500003  0.500003  0.500701  1
  Dy  Dy2  1  0.750390  0.750390  0.749932  1
  Y  Y3  1  0.000184  0.000184  0.999663  1
  As  As4  1  0.624689  0.624689  0.123023  1
  As  As5  1  0.874644  0.874644  0.374918  1
  As  As6  1  0.125845  0.125845  0.626852  1
  S  S7  1  0.375049  0.375049  0.875309  1
