# generated using pymatgen
data_Nb16V3GaTe16
_symmetry_space_group_name_H-M   'P 1'
_cell_length_a   4.94873900
_cell_length_b   11.08828301
_cell_length_c   19.29745803
_cell_angle_alpha   89.99409010
_cell_angle_beta   90.00000000
_cell_angle_gamma   90.00000000
_symmetry_Int_Tables_number   1
_chemical_formula_structural   Nb16V3GaTe16
_chemical_formula_sum   'Nb16 V3 Ga1 Te16'
_cell_volume   1058.90976751
_cell_formula_units_Z   1
loop_
 _symmetry_equiv_pos_site_id
 _symmetry_equiv_pos_as_xyz
  1  'x, y, z'
loop_
 _atom_site_type_symbol
 _atom_site_label
 _atom_site_symmetry_multiplicity
 _atom_site_fract_x
 _atom_site_fract_y
 _atom_site_fract_z
 _atom_site_occupancy
  Nb  Nb0  1  0.499992  0.564794  0.381089  1
  Nb  Nb1  1  0.499992  0.435206  0.618911  1
  Nb  Nb2  1  0.499540  0.064586  0.118602  1
  Nb  Nb3  1  0.499540  0.935414  0.881398  1
  Nb  Nb4  1  0.500005  0.707497  0.537074  1
  Nb  Nb5  1  0.500005  0.292503  0.462926  1
  Nb  Nb6  1  0.499411  0.206896  0.963038  1
  Nb  Nb7  1  0.499411  0.793104  0.036962  1
  Nb  Nb8  1  0.000010  0.692118  0.441974  1
  Nb  Nb9  1  0.000010  0.307882  0.558026  1
  Nb  Nb10  1  0.000691  0.191938  0.057969  1
  Nb  Nb11  1  0.000691  0.808062  0.942031  1
  Nb  Nb12  1  0.000028  0.399483  0.389914  1
  Nb  Nb13  1  0.000028  0.600517  0.610086  1
  Nb  Nb14  1  0.000350  0.899560  0.110051  1
  Nb  Nb15  1  0.000350  0.100440  0.889949  1
  V  V16  1  0.254705  0.500000  0.500000  1
  V  V17  1  0.749975  0.000000  0.000000  1
  V  V18  1  0.745297  0.500000  0.500000  1
  Ga  Ga19  1  0.249960  0.000000  0.000000  1
  Te  Te20  1  0.000021  0.843855  0.561590  1
  Te  Te21  1  0.000021  0.156145  0.438410  1
  Te  Te22  1  0.998491  0.343764  0.938426  1
  Te  Te23  1  0.998491  0.656236  0.061574  1
  Te  Te24  1  0.499975  0.333144  0.317000  1
  Te  Te25  1  0.499975  0.666856  0.683000  1
  Te  Te26  1  0.501396  0.833146  0.182951  1
  Te  Te27  1  0.501396  0.166854  0.817049  1
  Te  Te28  1  0.499963  0.819383  0.403792  1
  Te  Te29  1  0.499963  0.180617  0.596208  1
  Te  Te30  1  0.501563  0.319234  0.096206  1
  Te  Te31  1  0.501563  0.680766  0.903794  1
  Te  Te32  1  0.000009  0.607023  0.302533  1
  Te  Te33  1  0.000009  0.392977  0.697467  1
  Te  Te34  1  0.998586  0.107014  0.197470  1
  Te  Te35  1  0.998586  0.892986  0.802530  1
