# generated using pymatgen
data_Pr16Cd4CoPt3
_symmetry_space_group_name_H-M   'P 1'
_cell_length_a   10.03711272
_cell_length_b   10.03711311
_cell_length_c   10.03711341
_cell_angle_alpha   60.15852298
_cell_angle_beta   60.15852332
_cell_angle_gamma   60.15852154
_symmetry_Int_Tables_number   1
_chemical_formula_structural   Pr16Cd4CoPt3
_chemical_formula_sum   'Pr16 Cd4 Co1 Pt3'
_cell_volume   717.57614584
_cell_formula_units_Z   1
loop_
 _symmetry_equiv_pos_site_id
 _symmetry_equiv_pos_as_xyz
  1  'x, y, z'
loop_
 _atom_site_type_symbol
 _atom_site_label
 _atom_site_symmetry_multiplicity
 _atom_site_fract_x
 _atom_site_fract_y
 _atom_site_fract_z
 _atom_site_occupancy
  Pr  Pr0  1  0.350389  0.350389  0.350389  1
  Pr  Pr1  1  0.345881  0.345881  0.952158  1
  Pr  Pr2  1  0.345881  0.952158  0.345881  1
  Pr  Pr3  1  0.952158  0.345881  0.345881  1
  Pr  Pr4  1  0.818915  0.189709  0.189709  1
  Pr  Pr5  1  0.191102  0.808217  0.808217  1
  Pr  Pr6  1  0.189709  0.818915  0.189709  1
  Pr  Pr7  1  0.808217  0.191102  0.808217  1
  Pr  Pr8  1  0.189709  0.189709  0.818915  1
  Pr  Pr9  1  0.808217  0.808217  0.191102  1
  Pr  Pr10  1  0.939378  0.562051  0.562051  1
  Pr  Pr11  1  0.562554  0.935815  0.935815  1
  Pr  Pr12  1  0.562051  0.939378  0.562051  1
  Pr  Pr13  1  0.935815  0.562554  0.935815  1
  Pr  Pr14  1  0.562051  0.562051  0.939378  1
  Pr  Pr15  1  0.935815  0.935815  0.562554  1
  Cd  Cd16  1  0.579777  0.579777  0.579777  1
  Cd  Cd17  1  0.580795  0.580795  0.258899  1
  Cd  Cd18  1  0.580795  0.258899  0.580795  1
  Cd  Cd19  1  0.258899  0.580795  0.580795  1
  Co  Co20  1  0.142730  0.142730  0.142730  1
  Pt  Pt21  1  0.143757  0.143757  0.571644  1
  Pt  Pt22  1  0.143757  0.571644  0.143757  1
  Pt  Pt23  1  0.571644  0.143757  0.143757  1
