# generated using pymatgen
data_Tb2Ga10Ru3
_symmetry_space_group_name_H-M   'P 1'
_cell_length_a   8.91820800
_cell_length_b   8.91820800
_cell_length_c   6.46778400
_cell_angle_alpha   90.00000000
_cell_angle_beta   90.00000000
_cell_angle_gamma   90.00000000
_symmetry_Int_Tables_number   1
_chemical_formula_structural   Tb2Ga10Ru3
_chemical_formula_sum   'Tb4 Ga20 Ru6'
_cell_volume   514.41153923
_cell_formula_units_Z   2
loop_
 _symmetry_equiv_pos_site_id
 _symmetry_equiv_pos_as_xyz
  1  'x, y, z'
loop_
 _atom_site_type_symbol
 _atom_site_label
 _atom_site_symmetry_multiplicity
 _atom_site_fract_x
 _atom_site_fract_y
 _atom_site_fract_z
 _atom_site_occupancy
  Tb  Tb0  1  0.183020  0.683020  0.000000  1
  Tb  Tb1  1  0.816980  0.316980  0.000000  1
  Tb  Tb2  1  0.683020  0.816980  0.000000  1
  Tb  Tb3  1  0.316980  0.183020  0.000000  1
  Ga  Ga4  1  0.060809  0.206229  0.705392  1
  Ga  Ga5  1  0.939191  0.793771  0.705392  1
  Ga  Ga6  1  0.560809  0.293771  0.705392  1
  Ga  Ga7  1  0.439191  0.706229  0.705392  1
  Ga  Ga8  1  0.793771  0.060809  0.705392  1
  Ga  Ga9  1  0.206229  0.939191  0.705392  1
  Ga  Ga10  1  0.706229  0.560809  0.705392  1
  Ga  Ga11  1  0.293771  0.439191  0.705392  1
  Ga  Ga12  1  0.939191  0.793771  0.294608  1
  Ga  Ga13  1  0.060809  0.206229  0.294608  1
  Ga  Ga14  1  0.439191  0.706229  0.294608  1
  Ga  Ga15  1  0.560809  0.293771  0.294608  1
  Ga  Ga16  1  0.206229  0.939191  0.294608  1
  Ga  Ga17  1  0.793771  0.060809  0.294608  1
  Ga  Ga18  1  0.293771  0.439191  0.294608  1
  Ga  Ga19  1  0.706229  0.560809  0.294608  1
  Ga  Ga20  1  0.000000  0.500000  0.709781  1
  Ga  Ga21  1  0.500000  0.000000  0.709781  1
  Ga  Ga22  1  0.000000  0.500000  0.290219  1
  Ga  Ga23  1  0.500000  0.000000  0.290219  1
  Ru  Ru24  1  0.178542  0.678542  0.500000  1
  Ru  Ru25  1  0.821458  0.321458  0.500000  1
  Ru  Ru26  1  0.678542  0.821458  0.500000  1
  Ru  Ru27  1  0.321458  0.178542  0.500000  1
  Ru  Ru28  1  0.000000  0.000000  0.000000  1
  Ru  Ru29  1  0.500000  0.500000  0.000000  1
