# generated using pymatgen
data_Tb6V3Co2P12Rh13
_symmetry_space_group_name_H-M   'P 1'
_cell_length_a   3.86577200
_cell_length_b   11.10433642
_cell_length_c   12.82661245
_cell_angle_alpha   89.96908234
_cell_angle_beta   90.00000000
_cell_angle_gamma   90.00000000
_symmetry_Int_Tables_number   1
_chemical_formula_structural   Tb6V3Co2P12Rh13
_chemical_formula_sum   'Tb6 V3 Co2 P12 Rh13'
_cell_volume   550.60576796
_cell_formula_units_Z   1
loop_
 _symmetry_equiv_pos_site_id
 _symmetry_equiv_pos_as_xyz
  1  'x, y, z'
loop_
 _atom_site_type_symbol
 _atom_site_label
 _atom_site_symmetry_multiplicity
 _atom_site_fract_x
 _atom_site_fract_y
 _atom_site_fract_z
 _atom_site_occupancy
  Tb  Tb0  1  0.000000  0.503192  0.518575  1
  Tb  Tb1  1  0.500000  0.998882  0.480273  1
  Tb  Tb2  1  0.500000  0.817432  0.198144  1
  Tb  Tb3  1  0.500000  0.181116  0.203792  1
  Tb  Tb4  1  0.000000  0.680099  0.799802  1
  Tb  Tb5  1  0.000000  0.319316  0.794695  1
  V  V6  1  0.500000  0.495716  0.155427  1
  V  V7  1  0.000000  0.000719  0.846074  1
  V  V8  1  0.500000  0.330660  0.999664  1
  Co  Co9  1  0.000000  0.498103  0.988107  1
  Co  Co10  1  0.500000  0.000246  0.010311  1
  P  P11  1  0.500000  0.492063  0.885255  1
  P  P12  1  0.000000  0.001719  0.114203  1
  P  P13  1  0.500000  0.501742  0.343894  1
  P  P14  1  0.000000  0.999495  0.658398  1
  P  P15  1  0.500000  0.314176  0.617805  1
  P  P16  1  0.500000  0.686869  0.618279  1
  P  P17  1  0.000000  0.187338  0.382326  1
  P  P18  1  0.000000  0.815371  0.380293  1
  P  P19  1  0.500000  0.851301  0.893240  1
  P  P20  1  0.500000  0.150353  0.890210  1
  P  P21  1  0.000000  0.646489  0.105953  1
  P  P22  1  0.000000  0.354183  0.110691  1
  Rh  Rh23  1  0.500000  0.499938  0.701938  1
  Rh  Rh24  1  0.000000  0.002317  0.295998  1
  Rh  Rh25  1  0.500000  0.664266  0.991959  1
  Rh  Rh26  1  0.000000  0.169969  0.005075  1
  Rh  Rh27  1  0.000000  0.834510  0.007193  1
  Rh  Rh28  1  0.500000  0.293796  0.432602  1
  Rh  Rh29  1  0.500000  0.708255  0.430297  1
  Rh  Rh30  1  0.000000  0.205167  0.569456  1
  Rh  Rh31  1  0.000000  0.794920  0.569269  1
  Rh  Rh32  1  0.500000  0.874395  0.712546  1
  Rh  Rh33  1  0.500000  0.123863  0.709652  1
  Rh  Rh34  1  0.000000  0.625444  0.287192  1
  Rh  Rh35  1  0.000000  0.376580  0.291413  1
