# generated using pymatgen
data_Sm3Er5(Sc3Pt4)4
_symmetry_space_group_name_H-M   'P 1'
_cell_length_a   7.39329741
_cell_length_b   7.33316048
_cell_length_c   13.89857510
_cell_angle_alpha   90.03555497
_cell_angle_beta   90.27568884
_cell_angle_gamma   89.97860818
_symmetry_Int_Tables_number   1
_chemical_formula_structural   Sm3Er5(Sc3Pt4)4
_chemical_formula_sum   'Sm3 Er5 Sc12 Pt16'
_cell_volume   753.51951365
_cell_formula_units_Z   1
loop_
 _symmetry_equiv_pos_site_id
 _symmetry_equiv_pos_as_xyz
  1  'x, y, z'
loop_
 _atom_site_type_symbol
 _atom_site_label
 _atom_site_symmetry_multiplicity
 _atom_site_fract_x
 _atom_site_fract_y
 _atom_site_fract_z
 _atom_site_occupancy
  Sm  Sm0  1  0.004485  0.177476  0.095857  1
  Sm  Sm1  1  0.993663  0.823380  0.904665  1
  Sm  Sm2  1  0.494323  0.674982  0.905735  1
  Er  Er3  1  0.992986  0.823679  0.593374  1
  Er  Er4  1  0.504827  0.321465  0.097330  1
  Er  Er5  1  0.007829  0.176915  0.405316  1
  Er  Er6  1  0.507827  0.322762  0.406577  1
  Er  Er7  1  0.492645  0.677068  0.593630  1
  Sc  Sc8  1  0.168766  0.497233  0.746971  1
  Sc  Sc9  1  0.830512  0.502497  0.252570  1
  Sc  Sc10  1  0.331376  0.996839  0.252282  1
  Sc  Sc11  1  0.668572  0.002624  0.747136  1
  Sc  Sc12  1  0.334838  0.161838  0.622128  1
  Sc  Sc13  1  0.665106  0.837558  0.377567  1
  Sc  Sc14  1  0.166182  0.661657  0.377192  1
  Sc  Sc15  1  0.662906  0.837715  0.126092  1
  Sc  Sc16  1  0.835888  0.337249  0.621632  1
  Sc  Sc17  1  0.338971  0.164648  0.875044  1
  Sc  Sc18  1  0.836095  0.338266  0.873667  1
  Sc  Sc19  1  0.164398  0.661256  0.125744  1
  Pt  Pt20  1  0.033987  0.128107  0.747613  1
  Pt  Pt21  1  0.965696  0.872636  0.252553  1
  Pt  Pt22  1  0.468262  0.625274  0.251118  1
  Pt  Pt23  1  0.533401  0.372413  0.746632  1
  Pt  Pt24  1  0.295985  0.855771  0.745555  1
  Pt  Pt25  1  0.701185  0.145870  0.253255  1
  Pt  Pt26  1  0.207157  0.354856  0.253723  1
  Pt  Pt27  1  0.795878  0.644645  0.744561  1
  Pt  Pt28  1  0.176196  0.456429  0.542251  1
  Pt  Pt29  1  0.825272  0.543440  0.456958  1
  Pt  Pt30  1  0.324690  0.956884  0.456862  1
  Pt  Pt31  1  0.821583  0.542820  0.044427  1
  Pt  Pt32  1  0.675772  0.043052  0.542644  1
  Pt  Pt33  1  0.172594  0.452819  0.958095  1
  Pt  Pt34  1  0.671931  0.050185  0.957986  1
  Pt  Pt35  1  0.328218  0.957689  0.045257  1
