# generated using pymatgen
data_K4PAu8
_symmetry_space_group_name_H-M   'P 1'
_cell_length_a   10.97582683
_cell_length_b   10.97582672
_cell_length_c   11.15682881
_cell_angle_alpha   81.54615171
_cell_angle_beta   81.54615121
_cell_angle_gamma   30.14159356
_symmetry_Int_Tables_number   1
_chemical_formula_structural   K4PAu8
_chemical_formula_sum   'K8 P2 Au16'
_cell_volume   667.03131024
_cell_formula_units_Z   2
loop_
 _symmetry_equiv_pos_site_id
 _symmetry_equiv_pos_as_xyz
  1  'x, y, z'
loop_
 _atom_site_type_symbol
 _atom_site_label
 _atom_site_symmetry_multiplicity
 _atom_site_fract_x
 _atom_site_fract_y
 _atom_site_fract_z
 _atom_site_occupancy
  K  K0  1  0.481469  0.481469  0.835123  1
  K  K1  1  0.518531  0.518531  0.164877  1
  K  K2  1  0.282337  0.282337  0.900214  1
  K  K3  1  0.717663  0.717663  0.099786  1
  K  K4  1  0.220294  0.220294  0.602796  1
  K  K5  1  0.779706  0.779706  0.397204  1
  K  K6  1  0.042033  0.042033  0.654411  1
  K  K7  1  0.957967  0.957967  0.345589  1
  P  P8  1  0.665576  0.665576  0.760733  1
  P  P9  1  0.334424  0.334424  0.239267  1
  Au  Au10  1  0.778387  0.778387  0.730254  1
  Au  Au11  1  0.221613  0.221613  0.269746  1
  Au  Au12  1  0.624527  0.624527  0.574896  1
  Au  Au13  1  0.375473  0.375473  0.425104  1
  Au  Au14  1  0.500000  0.500000  0.500000  1
  Au  Au15  1  0.000000  0.000000  0.000000  1
  Au  Au16  1  0.112620  0.112620  0.140141  1
  Au  Au17  1  0.887380  0.887380  0.859859  1
  Au  Au18  1  0.858213  0.363294  0.363070  1
  Au  Au19  1  0.636706  0.141787  0.636930  1
  Au  Au20  1  0.141787  0.636706  0.636930  1
  Au  Au21  1  0.363294  0.858213  0.363070  1
  Au  Au22  1  0.119847  0.642368  0.081859  1
  Au  Au23  1  0.357632  0.880153  0.918141  1
  Au  Au24  1  0.880153  0.357632  0.918141  1
  Au  Au25  1  0.642368  0.119847  0.081859  1
