# generated using pymatgen
data_Tb2U4Co3Ni3Sb8
_symmetry_space_group_name_H-M   'P 1'
_cell_length_a   8.12665832
_cell_length_b   8.10780229
_cell_length_c   8.10540214
_cell_angle_alpha   109.47647280
_cell_angle_beta   109.27787183
_cell_angle_gamma   109.57129648
_symmetry_Int_Tables_number   1
_chemical_formula_structural   Tb2U4Co3Ni3Sb8
_chemical_formula_sum   'Tb2 U4 Co3 Ni3 Sb8'
_cell_volume   411.56314605
_cell_formula_units_Z   1
loop_
 _symmetry_equiv_pos_site_id
 _symmetry_equiv_pos_as_xyz
  1  'x, y, z'
loop_
 _atom_site_type_symbol
 _atom_site_label
 _atom_site_symmetry_multiplicity
 _atom_site_fract_x
 _atom_site_fract_y
 _atom_site_fract_z
 _atom_site_occupancy
  Tb  Tb0  1  0.875149  0.251092  0.125022  1
  Tb  Tb1  1  0.624875  0.749889  0.376011  1
  U  U2  1  0.250021  0.122348  0.872232  1
  U  U3  1  0.750107  0.377367  0.627395  1
  U  U4  1  0.128108  0.872574  0.252366  1
  U  U5  1  0.371702  0.624188  0.744222  1
  Co  Co6  1  0.375832  0.249486  0.624421  1
  Co  Co7  1  0.124014  0.748389  0.873647  1
  Co  Co8  1  0.249979  0.633909  0.384097  1
  Ni  Ni9  1  0.749817  0.871533  0.121465  1
  Ni  Ni10  1  0.620624  0.370683  0.249326  1
  Ni  Ni11  1  0.879586  0.128870  0.750193  1
  Sb  Sb12  1  0.661530  0.500144  0.000143  1
  Sb  Sb13  1  0.502342  0.000638  0.662806  1
  Sb  Sb14  1  0.997567  0.660744  0.498049  1
  Sb  Sb15  1  0.838909  0.838754  0.838876  1
  Sb  Sb16  1  0.499858  0.998772  0.161650  1
  Sb  Sb17  1  0.164170  0.500690  0.002992  1
  Sb  Sb18  1  0.999969  0.161456  0.498715  1
  Sb  Sb19  1  0.335841  0.338472  0.336374  1
