# generated using pymatgen
data_Nd4Ho4Re(TcB8)3
_symmetry_space_group_name_H-M   'P 1'
_cell_length_a   3.73303900
_cell_length_b   9.23657473
_cell_length_c   11.69174509
_cell_angle_alpha   90.01574896
_cell_angle_beta   90.00000000
_cell_angle_gamma   90.00000000
_symmetry_Int_Tables_number   1
_chemical_formula_structural   Nd4Ho4Re(TcB8)3
_chemical_formula_sum   'Nd4 Ho4 Re1 Tc3 B24'
_cell_volume   403.13712743
_cell_formula_units_Z   1
loop_
 _symmetry_equiv_pos_site_id
 _symmetry_equiv_pos_as_xyz
  1  'x, y, z'
loop_
 _atom_site_type_symbol
 _atom_site_label
 _atom_site_symmetry_multiplicity
 _atom_site_fract_x
 _atom_site_fract_y
 _atom_site_fract_z
 _atom_site_occupancy
  Nd  Nd0  1  0.000000  0.323072  0.414402  1
  Nd  Nd1  1  0.000000  0.677048  0.585487  1
  Nd  Nd2  1  0.000000  0.823018  0.085846  1
  Nd  Nd3  1  0.000000  0.177364  0.914570  1
  Ho  Ho4  1  0.000000  0.942632  0.368587  1
  Ho  Ho5  1  0.000000  0.057994  0.630492  1
  Ho  Ho6  1  0.000000  0.442485  0.131460  1
  Ho  Ho7  1  0.000000  0.556381  0.869103  1
  Re  Re8  1  0.000000  0.860421  0.818895  1
  Tc  Tc9  1  0.000000  0.639940  0.318927  1
  Tc  Tc10  1  0.000000  0.360053  0.681062  1
  Tc  Tc11  1  0.000000  0.139741  0.181057  1
  B  B12  1  0.500000  0.555216  0.430528  1
  B  B13  1  0.500000  0.444945  0.569541  1
  B  B14  1  0.500000  0.055214  0.069558  1
  B  B15  1  0.500000  0.944960  0.930668  1
  B  B16  1  0.500000  0.749803  0.415951  1
  B  B17  1  0.500000  0.250556  0.584003  1
  B  B18  1  0.500000  0.249792  0.084152  1
  B  B19  1  0.500000  0.749885  0.916096  1
  B  B20  1  0.500000  0.791136  0.265933  1
  B  B21  1  0.500000  0.208806  0.733950  1
  B  B22  1  0.500000  0.291025  0.234112  1
  B  B23  1  0.500000  0.708517  0.765974  1
  B  B24  1  0.500000  0.629509  0.186527  1
  B  B25  1  0.500000  0.370311  0.813465  1
  B  B26  1  0.500000  0.129634  0.313554  1
  B  B27  1  0.500000  0.870545  0.686272  1
  B  B28  1  0.500000  0.984033  0.212850  1
  B  B29  1  0.500000  0.016332  0.786971  1
  B  B30  1  0.500000  0.483987  0.287205  1
  B  B31  1  0.500000  0.515989  0.712948  1
  B  B32  1  0.500000  0.595878  0.026646  1
  B  B33  1  0.500000  0.403629  0.973633  1
  B  B34  1  0.500000  0.096099  0.473112  1
  B  B35  1  0.500000  0.904047  0.526464  1
