# generated using pymatgen
data_Rb4CoO4
_symmetry_space_group_name_H-M   'P 1'
_cell_length_a   6.93862900
_cell_length_b   11.08660639
_cell_length_c   11.12859600
_cell_angle_alpha   68.19077682
_cell_angle_beta   90.00000000
_cell_angle_gamma   90.00000000
_symmetry_Int_Tables_number   1
_chemical_formula_structural   Rb4CoO4
_chemical_formula_sum   'Rb16 Co4 O16'
_cell_volume   794.80388705
_cell_formula_units_Z   4
loop_
 _symmetry_equiv_pos_site_id
 _symmetry_equiv_pos_as_xyz
  1  'x, y, z'
loop_
 _atom_site_type_symbol
 _atom_site_label
 _atom_site_symmetry_multiplicity
 _atom_site_fract_x
 _atom_site_fract_y
 _atom_site_fract_z
 _atom_site_occupancy
  Rb  Rb0  1  0.696818  0.291173  0.083425  1
  Rb  Rb1  1  0.196818  0.208827  0.916575  1
  Rb  Rb2  1  0.303182  0.708827  0.916575  1
  Rb  Rb3  1  0.803182  0.791173  0.083425  1
  Rb  Rb4  1  0.914787  0.195111  0.440310  1
  Rb  Rb5  1  0.414787  0.304889  0.559690  1
  Rb  Rb6  1  0.085213  0.804889  0.559690  1
  Rb  Rb7  1  0.585213  0.695111  0.440310  1
  Rb  Rb8  1  0.176377  0.393470  0.129618  1
  Rb  Rb9  1  0.676377  0.106530  0.870382  1
  Rb  Rb10  1  0.823623  0.606530  0.870382  1
  Rb  Rb11  1  0.323623  0.893470  0.129618  1
  Rb  Rb12  1  0.892618  0.419953  0.661628  1
  Rb  Rb13  1  0.392618  0.080047  0.338372  1
  Rb  Rb14  1  0.107382  0.580047  0.338372  1
  Rb  Rb15  1  0.607382  0.919953  0.661628  1
  Co  Co16  1  0.868493  0.989863  0.260072  1
  Co  Co17  1  0.368493  0.510137  0.739928  1
  Co  Co18  1  0.131507  0.010137  0.739928  1
  Co  Co19  1  0.631507  0.489863  0.260072  1
  O  O20  1  0.000313  0.840977  0.281842  1
  O  O21  1  0.500313  0.659023  0.718158  1
  O  O22  1  0.999687  0.159023  0.718158  1
  O  O23  1  0.499687  0.340977  0.281842  1
  O  O24  1  0.736655  0.470618  0.415434  1
  O  O25  1  0.236655  0.029382  0.584566  1
  O  O26  1  0.263345  0.529382  0.584566  1
  O  O27  1  0.763345  0.970618  0.415434  1
  O  O28  1  0.026480  0.133272  0.201260  1
  O  O29  1  0.526480  0.366728  0.798740  1
  O  O30  1  0.973520  0.866728  0.798740  1
  O  O31  1  0.473520  0.633272  0.201260  1
  O  O32  1  0.669365  0.014286  0.144435  1
  O  O33  1  0.169365  0.485714  0.855565  1
  O  O34  1  0.330635  0.985714  0.855565  1
  O  O35  1  0.830635  0.514286  0.144435  1
