# generated using pymatgen
data_Tb4Ge3PdF28
_symmetry_space_group_name_H-M   'P 1'
_cell_length_a   5.51398784
_cell_length_b   8.81996046
_cell_length_c   11.80717400
_cell_angle_alpha   62.23895700
_cell_angle_beta   90.11875868
_cell_angle_gamma   90.11446987
_symmetry_Int_Tables_number   1
_chemical_formula_structural   Tb4Ge3PdF28
_chemical_formula_sum   'Tb4 Ge3 Pd1 F28'
_cell_volume   508.12472989
_cell_formula_units_Z   1
loop_
 _symmetry_equiv_pos_site_id
 _symmetry_equiv_pos_as_xyz
  1  'x, y, z'
loop_
 _atom_site_type_symbol
 _atom_site_label
 _atom_site_symmetry_multiplicity
 _atom_site_fract_x
 _atom_site_fract_y
 _atom_site_fract_z
 _atom_site_occupancy
  Tb  Tb0  1  0.259050  0.811445  0.262736  1
  Tb  Tb1  1  0.740365  0.187992  0.734916  1
  Tb  Tb2  1  0.760524  0.192082  0.233686  1
  Tb  Tb3  1  0.238223  0.810467  0.766759  1
  Ge  Ge4  1  0.754765  0.725368  0.043202  1
  Ge  Ge5  1  0.244714  0.273333  0.956361  1
  Ge  Ge6  1  0.257993  0.275259  0.455575  1
  Pd  Pd7  1  0.742339  0.728570  0.542892  1
  F  F8  1  0.928689  0.699682  0.414569  1
  F  F9  1  0.058415  0.293499  0.572065  1
  F  F10  1  0.443946  0.292132  0.073350  1
  F  F11  1  0.553054  0.705796  0.927978  1
  F  F12  1  0.491830  0.731336  0.135786  1
  F  F13  1  0.508987  0.266024  0.865490  1
  F  F14  1  0.994840  0.274372  0.360179  1
  F  F15  1  0.040362  0.728667  0.631397  1
  F  F16  1  0.953677  0.741620  0.162861  1
  F  F17  1  0.048003  0.254432  0.836795  1
  F  F18  1  0.453487  0.260431  0.333710  1
  F  F19  1  0.560985  0.747112  0.677854  1
  F  F20  1  0.763730  0.492383  0.137258  1
  F  F21  1  0.235108  0.506409  0.862116  1
  F  F22  1  0.271042  0.509156  0.361953  1
  F  F23  1  0.732786  0.480253  0.644778  1
  F  F24  1  0.971916  0.285315  0.042195  1
  F  F25  1  0.027263  0.712259  0.957597  1
  F  F26  1  0.438981  0.717193  0.461614  1
  F  F27  1  0.532165  0.284730  0.541958  1
  F  F28  1  0.741774  0.976888  0.451022  1
  F  F29  1  0.258945  0.042667  0.546276  1
  F  F30  1  0.241074  0.039957  0.048285  1
  F  F31  1  0.759963  0.957944  0.952010  1
  F  F32  1  0.586622  0.969236  0.233475  1
  F  F33  1  0.410045  0.029729  0.771280  1
  F  F34  1  0.083253  0.027008  0.271081  1
  F  F35  1  0.911088  0.969254  0.728937  1
