# generated using pymatgen
data_Ta3AgPd12
_symmetry_space_group_name_H-M   'P 1'
_cell_length_a   5.58908400
_cell_length_b   5.58908374
_cell_length_c   9.15538000
_cell_angle_alpha   90.00000000
_cell_angle_beta   90.00000000
_cell_angle_gamma   119.99998973
_symmetry_Int_Tables_number   1
_chemical_formula_structural   Ta3AgPd12
_chemical_formula_sum   'Ta3 Ag1 Pd12'
_cell_volume   247.67849748
_cell_formula_units_Z   1
loop_
 _symmetry_equiv_pos_site_id
 _symmetry_equiv_pos_as_xyz
  1  'x, y, z'
loop_
 _atom_site_type_symbol
 _atom_site_label
 _atom_site_symmetry_multiplicity
 _atom_site_fract_x
 _atom_site_fract_y
 _atom_site_fract_z
 _atom_site_occupancy
  Ta  Ta0  1  0.666667  0.333333  0.500000  1
  Ta  Ta1  1  0.000000  0.000000  0.759115  1
  Ta  Ta2  1  0.000000  0.000000  0.240885  1
  Ag  Ag3  1  0.333333  0.666667  0.000000  1
  Pd  Pd4  1  0.832499  0.167501  0.000000  1
  Pd  Pd5  1  0.832499  0.664996  0.000000  1
  Pd  Pd6  1  0.335004  0.167501  0.000000  1
  Pd  Pd7  1  0.995722  0.497862  0.743381  1
  Pd  Pd8  1  0.502138  0.497862  0.743381  1
  Pd  Pd9  1  0.502138  0.004278  0.743381  1
  Pd  Pd10  1  0.995722  0.497862  0.256619  1
  Pd  Pd11  1  0.502138  0.497862  0.256619  1
  Pd  Pd12  1  0.502138  0.004278  0.256619  1
  Pd  Pd13  1  0.165831  0.834169  0.500000  1
  Pd  Pd14  1  0.165831  0.331663  0.500000  1
  Pd  Pd15  1  0.668337  0.834169  0.500000  1
