# generated using pymatgen
data_TbGd8LuSn6
_symmetry_space_group_name_H-M   'P 1'
_cell_length_a   9.05913300
_cell_length_b   9.05913161
_cell_length_c   6.66468800
_cell_angle_alpha   90.00000000
_cell_angle_beta   90.00000000
_cell_angle_gamma   120.00000142
_symmetry_Int_Tables_number   1
_chemical_formula_structural   TbGd8LuSn6
_chemical_formula_sum   'Tb1 Gd8 Lu1 Sn6'
_cell_volume   473.67847906
_cell_formula_units_Z   1
loop_
 _symmetry_equiv_pos_site_id
 _symmetry_equiv_pos_as_xyz
  1  'x, y, z'
loop_
 _atom_site_type_symbol
 _atom_site_label
 _atom_site_symmetry_multiplicity
 _atom_site_fract_x
 _atom_site_fract_y
 _atom_site_fract_z
 _atom_site_occupancy
  Tb  Tb0  1  0.333333  0.666667  0.500000  1
  Gd  Gd1  1  0.666667  0.333333  0.000000  1
  Gd  Gd2  1  0.333333  0.666667  0.000000  1
  Gd  Gd3  1  0.760803  0.760439  0.749168  1
  Gd  Gd4  1  0.239561  0.000364  0.749168  1
  Gd  Gd5  1  0.999636  0.239197  0.749168  1
  Gd  Gd6  1  0.239561  0.239197  0.250832  1
  Gd  Gd7  1  0.760803  0.000364  0.250832  1
  Gd  Gd8  1  0.999636  0.760439  0.250832  1
  Lu  Lu9  1  0.666667  0.333333  0.500000  1
  Sn  Sn10  1  0.397464  0.395322  0.742514  1
  Sn  Sn11  1  0.604678  0.002142  0.742514  1
  Sn  Sn12  1  0.997858  0.602536  0.742514  1
  Sn  Sn13  1  0.604678  0.602536  0.257486  1
  Sn  Sn14  1  0.397464  0.002142  0.257486  1
  Sn  Sn15  1  0.997858  0.395322  0.257486  1
