# generated using pymatgen
data_La2Y4OsBr10
_symmetry_space_group_name_H-M   'P 1'
_cell_length_a   7.53226096
_cell_length_b   9.48634132
_cell_length_c   9.39880192
_cell_angle_alpha   107.17200871
_cell_angle_beta   95.02310337
_cell_angle_gamma   106.73644534
_symmetry_Int_Tables_number   1
_chemical_formula_structural   La2Y4OsBr10
_chemical_formula_sum   'La2 Y4 Os1 Br10'
_cell_volume   603.43137116
_cell_formula_units_Z   1
loop_
 _symmetry_equiv_pos_site_id
 _symmetry_equiv_pos_as_xyz
  1  'x, y, z'
loop_
 _atom_site_type_symbol
 _atom_site_label
 _atom_site_symmetry_multiplicity
 _atom_site_fract_x
 _atom_site_fract_y
 _atom_site_fract_z
 _atom_site_occupancy
  La  La0  1  0.627387  0.550323  0.263085  1
  La  La1  1  0.372613  0.449677  0.736915  1
  Y  Y2  1  0.527091  0.197856  0.404220  1
  Y  Y3  1  0.472909  0.802144  0.595780  1
  Y  Y4  1  0.134955  0.359175  0.320948  1
  Y  Y5  1  0.865045  0.640825  0.679052  1
  Os  Os6  1  0.500000  0.500000  0.500000  1
  Br  Br7  1  0.153765  0.051875  0.231681  1
  Br  Br8  1  0.846235  0.948125  0.768319  1
  Br  Br9  1  0.237521  0.412193  0.051486  1
  Br  Br10  1  0.762479  0.587807  0.948514  1
  Br  Br11  1  0.718507  0.238621  0.159681  1
  Br  Br12  1  0.281493  0.761379  0.840319  1
  Br  Br13  1  0.054409  0.674762  0.421971  1
  Br  Br14  1  0.945591  0.325238  0.578029  1
  Br  Br15  1  0.416881  0.120716  0.664899  1
  Br  Br16  1  0.583119  0.879284  0.335101  1
