# generated using pymatgen
data_Cs2Zn3Se4
_symmetry_space_group_name_H-M   'P 1'
_cell_length_a   9.97706078
_cell_length_b   9.97706115
_cell_length_c   9.97706071
_cell_angle_alpha   144.00286283
_cell_angle_beta   106.01804697
_cell_angle_gamma   85.12475246
_symmetry_Int_Tables_number   1
_chemical_formula_structural   Cs2Zn3Se4
_chemical_formula_sum   'Cs4 Zn6 Se8'
_cell_volume   543.98414007
_cell_formula_units_Z   2
loop_
 _symmetry_equiv_pos_site_id
 _symmetry_equiv_pos_as_xyz
  1  'x, y, z'
loop_
 _atom_site_type_symbol
 _atom_site_label
 _atom_site_symmetry_multiplicity
 _atom_site_fract_x
 _atom_site_fract_y
 _atom_site_fract_z
 _atom_site_occupancy
  Cs  Cs0  1  0.878826  0.765870  0.644696  1
  Cs  Cs1  1  0.621174  0.265870  0.887045  1
  Cs  Cs2  1  0.378826  0.734130  0.112955  1
  Cs  Cs3  1  0.121174  0.234130  0.355304  1
  Zn  Zn4  1  0.250000  0.750000  0.500000  1
  Zn  Zn5  1  0.750000  0.250000  0.500000  1
  Zn  Zn6  1  0.023644  0.250000  0.773644  1
  Zn  Zn7  1  0.476356  0.250000  0.226356  1
  Zn  Zn8  1  0.976356  0.750000  0.226356  1
  Zn  Zn9  1  0.523644  0.750000  0.773644  1
  Se  Se10  1  0.788403  0.935250  0.413765  1
  Se  Se11  1  0.711597  0.125362  0.146848  1
  Se  Se12  1  0.978514  0.564750  0.853152  1
  Se  Se13  1  0.521486  0.374638  0.586235  1
  Se  Se14  1  0.211597  0.064750  0.586235  1
  Se  Se15  1  0.288403  0.874638  0.853152  1
  Se  Se16  1  0.021486  0.435250  0.146848  1
  Se  Se17  1  0.478514  0.625362  0.413765  1
