# generated using pymatgen
data_Th7FeTcNi
_symmetry_space_group_name_H-M   'P 1'
_cell_length_a   9.81144063
_cell_length_b   9.86040759
_cell_length_c   6.25529706
_cell_angle_alpha   90.29718350
_cell_angle_beta   89.40265849
_cell_angle_gamma   119.83586432
_symmetry_Int_Tables_number   1
_chemical_formula_structural   Th7FeTcNi
_chemical_formula_sum   'Th14 Fe2 Tc2 Ni2'
_cell_volume   524.92654979
_cell_formula_units_Z   2
loop_
 _symmetry_equiv_pos_site_id
 _symmetry_equiv_pos_as_xyz
  1  'x, y, z'
loop_
 _atom_site_type_symbol
 _atom_site_label
 _atom_site_symmetry_multiplicity
 _atom_site_fract_x
 _atom_site_fract_y
 _atom_site_fract_z
 _atom_site_occupancy
  Th  Th0  1  0.331717  0.670633  0.036871  1
  Th  Th1  1  0.661085  0.329367  0.536871  1
  Th  Th2  1  0.130673  0.881904  0.246002  1
  Th  Th3  1  0.248770  0.118096  0.746002  1
  Th  Th4  1  0.878861  0.745862  0.754996  1
  Th  Th5  1  0.132999  0.254138  0.254996  1
  Th  Th6  1  0.751603  0.877319  0.254210  1
  Th  Th7  1  0.874284  0.122681  0.754210  1
  Th  Th8  1  0.535550  0.450022  0.046319  1
  Th  Th9  1  0.085528  0.549978  0.546319  1
  Th  Th10  1  0.450063  0.913506  0.549488  1
  Th  Th11  1  0.536557  0.086494  0.049488  1
  Th  Th12  1  0.917527  0.455676  0.048697  1
  Th  Th13  1  0.461850  0.544324  0.548697  1
  Fe  Fe14  1  0.371960  0.177703  0.286798  1
  Fe  Fe15  1  0.194257  0.822297  0.786798  1
  Tc  Tc16  1  0.184443  0.370896  0.798310  1
  Tc  Tc17  1  0.813548  0.629104  0.298310  1
  Ni  Ni18  1  0.810431  0.182134  0.308306  1
  Ni  Ni19  1  0.628296  0.817866  0.808306  1
