# generated using pymatgen
data_ZrSc8Re4P
_symmetry_space_group_name_H-M   'P 1'
_cell_length_a   8.66180035
_cell_length_b   8.66078600
_cell_length_c   8.57816712
_cell_angle_alpha   90.06582525
_cell_angle_beta   89.93594758
_cell_angle_gamma   120.17608088
_symmetry_Int_Tables_number   1
_chemical_formula_structural   ZrSc8Re4P
_chemical_formula_sum   'Zr2 Sc16 Re8 P2'
_cell_volume   556.31008138
_cell_formula_units_Z   2
loop_
 _symmetry_equiv_pos_site_id
 _symmetry_equiv_pos_as_xyz
  1  'x, y, z'
loop_
 _atom_site_type_symbol
 _atom_site_label
 _atom_site_symmetry_multiplicity
 _atom_site_fract_x
 _atom_site_fract_y
 _atom_site_fract_z
 _atom_site_occupancy
  Zr  Zr0  1  0.196055  0.392535  0.046593  1
  Zr  Zr1  1  0.607453  0.803920  0.046616  1
  Sc  Sc2  1  0.197644  0.802339  0.451708  1
  Sc  Sc3  1  0.197180  0.394585  0.450490  1
  Sc  Sc4  1  0.605423  0.802814  0.450492  1
  Sc  Sc5  1  0.802288  0.197718  0.549235  1
  Sc  Sc6  1  0.802962  0.606074  0.549584  1
  Sc  Sc7  1  0.393933  0.197040  0.549576  1
  Sc  Sc8  1  0.802229  0.197806  0.950785  1
  Sc  Sc9  1  0.804318  0.606173  0.950513  1
  Sc  Sc10  1  0.393841  0.195702  0.950514  1
  Sc  Sc11  1  0.198070  0.801895  0.049269  1
  Sc  Sc12  1  0.537954  0.462031  0.250197  1
  Sc  Sc13  1  0.538660  0.076645  0.250422  1
  Sc  Sc14  1  0.923372  0.461344  0.250410  1
  Sc  Sc15  1  0.461106  0.538892  0.751900  1
  Sc  Sc16  1  0.461121  0.921802  0.751039  1
  Sc  Sc17  1  0.078202  0.538876  0.751046  1
  Re  Re18  1  0.891461  0.108544  0.249337  1
  Re  Re19  1  0.892576  0.785902  0.249723  1
  Re  Re20  1  0.214099  0.107421  0.249730  1
  Re  Re21  1  0.106854  0.893125  0.749666  1
  Re  Re22  1  0.107230  0.215779  0.751070  1
  Re  Re23  1  0.784240  0.892771  0.751067  1
  Re  Re24  1  0.999565  0.000459  0.499867  1
  Re  Re25  1  0.001716  0.998266  0.999381  1
  P  P26  1  0.333935  0.666051  0.249538  1
  P  P27  1  0.666515  0.333489  0.750231  1
