# generated using pymatgen
data_Gd4LuMo2C7
_symmetry_space_group_name_H-M   'P 1'
_cell_length_a   8.44000918
_cell_length_b   8.44000925
_cell_length_c   3.45062200
_cell_angle_alpha   90.00000000
_cell_angle_beta   90.00000000
_cell_angle_gamma   123.28966946
_symmetry_Int_Tables_number   1
_chemical_formula_structural   Gd4LuMo2C7
_chemical_formula_sum   'Gd4 Lu1 Mo2 C7'
_cell_volume   205.46641659
_cell_formula_units_Z   1
loop_
 _symmetry_equiv_pos_site_id
 _symmetry_equiv_pos_as_xyz
  1  'x, y, z'
loop_
 _atom_site_type_symbol
 _atom_site_label
 _atom_site_symmetry_multiplicity
 _atom_site_fract_x
 _atom_site_fract_y
 _atom_site_fract_z
 _atom_site_occupancy
  Gd  Gd0  1  0.328761  0.071100  0.500000  1
  Gd  Gd1  1  0.671239  0.928900  0.500000  1
  Gd  Gd2  1  0.071100  0.328761  0.500000  1
  Gd  Gd3  1  0.928900  0.671239  0.500000  1
  Lu  Lu4  1  0.500000  0.500000  0.000000  1
  Mo  Mo5  1  0.290919  0.709081  0.000000  1
  Mo  Mo6  1  0.709081  0.290919  0.000000  1
  C  C7  1  0.169232  0.169232  0.000000  1
  C  C8  1  0.830768  0.830768  0.000000  1
  C  C9  1  0.000000  0.000000  0.000000  1
  C  C10  1  0.379039  0.620961  0.500000  1
  C  C11  1  0.620961  0.379039  0.500000  1
  C  C12  1  0.500000  0.000000  0.000000  1
  C  C13  1  0.000000  0.500000  0.000000  1
