# generated using pymatgen
data_Ho12Th4MgCo4Hg3
_symmetry_space_group_name_H-M   'P 1'
_cell_length_a   9.56850220
_cell_length_b   9.54918990
_cell_length_c   9.54919100
_cell_angle_alpha   60.00000658
_cell_angle_beta   60.06674962
_cell_angle_gamma   60.06675882
_symmetry_Int_Tables_number   1
_chemical_formula_structural   Ho12Th4MgCo4Hg3
_chemical_formula_sum   'Ho12 Th4 Mg1 Co4 Hg3'
_cell_volume   617.58900752
_cell_formula_units_Z   1
loop_
 _symmetry_equiv_pos_site_id
 _symmetry_equiv_pos_as_xyz
  1  'x, y, z'
loop_
 _atom_site_type_symbol
 _atom_site_label
 _atom_site_symmetry_multiplicity
 _atom_site_fract_x
 _atom_site_fract_y
 _atom_site_fract_z
 _atom_site_occupancy
  Ho  Ho0  1  0.809810  0.189012  0.189012  1
  Ho  Ho1  1  0.184346  0.813847  0.813847  1
  Ho  Ho2  1  0.184346  0.813847  0.187959  1
  Ho  Ho3  1  0.809810  0.189012  0.812166  1
  Ho  Ho4  1  0.184346  0.187959  0.813847  1
  Ho  Ho5  1  0.809810  0.812166  0.189012  1
  Ho  Ho6  1  0.933210  0.566033  0.566033  1
  Ho  Ho7  1  0.562607  0.936254  0.936254  1
  Ho  Ho8  1  0.562607  0.936254  0.564884  1
  Ho  Ho9  1  0.933210  0.566033  0.934725  1
  Ho  Ho10  1  0.562607  0.564884  0.936254  1
  Ho  Ho11  1  0.933210  0.934725  0.566033  1
  Th  Th12  1  0.345737  0.345772  0.345772  1
  Th  Th13  1  0.345737  0.345772  0.962720  1
  Th  Th14  1  0.345737  0.962720  0.345772  1
  Th  Th15  1  0.958745  0.347085  0.347085  1
  Mg  Mg16  1  0.279158  0.573614  0.573614  1
  Co  Co17  1  0.143809  0.143543  0.143543  1
  Co  Co18  1  0.143809  0.143543  0.569104  1
  Co  Co19  1  0.143809  0.569104  0.143543  1
  Co  Co20  1  0.566930  0.144356  0.144356  1
  Hg  Hg21  1  0.585536  0.587239  0.587239  1
  Hg  Hg22  1  0.585536  0.587239  0.239986  1
  Hg  Hg23  1  0.585536  0.239986  0.587239  1
