# generated using pymatgen
data_FeH9Br2
_symmetry_space_group_name_H-M   'P 1'
_cell_length_a   5.34934870
_cell_length_b   3.77306651
_cell_length_c   11.27810973
_cell_angle_alpha   81.00790326
_cell_angle_beta   105.91310017
_cell_angle_gamma   83.42181506
_symmetry_Int_Tables_number   1
_chemical_formula_structural   FeH9Br2
_chemical_formula_sum   'Fe1 H9 Br2'
_cell_volume   213.22786585
_cell_formula_units_Z   1
loop_
 _symmetry_equiv_pos_site_id
 _symmetry_equiv_pos_as_xyz
  1  'x, y, z'
loop_
 _atom_site_type_symbol
 _atom_site_label
 _atom_site_symmetry_multiplicity
 _atom_site_fract_x
 _atom_site_fract_y
 _atom_site_fract_z
 _atom_site_occupancy
  Fe  Fe0  1  0.439064  0.904888  0.970303  1
  H  H1  1  0.108518  0.947801  0.972591  1
  H  H2  1  0.798803  0.910207  0.513825  1
  H  H3  1  0.364740  0.502396  0.485336  1
  H  H4  1  0.362006  0.214154  0.320872  1
  H  H5  1  0.351151  0.624908  0.055771  1
  H  H6  1  0.904544  0.848963  0.575575  1
  H  H7  1  0.420215  0.068108  0.293523  1
  H  H8  1  0.235663  0.616685  0.478957  1
  H  H9  1  0.090022  0.068607  0.903107  1
  Br  Br10  1  0.459728  0.461456  0.830668  1
  Br  Br11  1  0.794939  0.790904  0.144770  1
