# generated using pymatgen
data_Er8Cd3HgAu8
_symmetry_space_group_name_H-M   'P 1'
_cell_length_a   7.91326200
_cell_length_b   7.91326200
_cell_length_c   7.41898200
_cell_angle_alpha   90.00000000
_cell_angle_beta   90.00000000
_cell_angle_gamma   90.00000000
_symmetry_Int_Tables_number   1
_chemical_formula_structural   Er8Cd3HgAu8
_chemical_formula_sum   'Er8 Cd3 Hg1 Au8'
_cell_volume   464.57454200
_cell_formula_units_Z   1
loop_
 _symmetry_equiv_pos_site_id
 _symmetry_equiv_pos_as_xyz
  1  'x, y, z'
loop_
 _atom_site_type_symbol
 _atom_site_label
 _atom_site_symmetry_multiplicity
 _atom_site_fract_x
 _atom_site_fract_y
 _atom_site_fract_z
 _atom_site_occupancy
  Er  Er0  1  0.185248  0.181520  0.999742  1
  Er  Er1  1  0.318480  0.685248  0.500258  1
  Er  Er2  1  0.681520  0.314752  0.500258  1
  Er  Er3  1  0.814752  0.818480  0.999742  1
  Er  Er4  1  0.342796  0.660088  0.999950  1
  Er  Er5  1  0.657204  0.339912  0.999950  1
  Er  Er6  1  0.839912  0.842796  0.500050  1
  Er  Er7  1  0.160088  0.157204  0.500050  1
  Cd  Cd8  1  0.000000  0.500000  0.750000  1
  Cd  Cd9  1  0.500000  0.000000  0.250000  1
  Cd  Cd10  1  0.000000  0.500000  0.250000  1
  Hg  Hg11  1  0.500000  0.000000  0.750000  1
  Au  Au12  1  0.125417  0.868331  0.774625  1
  Au  Au13  1  0.871257  0.129595  0.225804  1
  Au  Au14  1  0.370405  0.371257  0.274196  1
  Au  Au15  1  0.631669  0.625417  0.725375  1
  Au  Au16  1  0.629595  0.628743  0.274196  1
  Au  Au17  1  0.874583  0.131669  0.774625  1
  Au  Au18  1  0.368331  0.374583  0.725375  1
  Au  Au19  1  0.128743  0.870405  0.225804  1
