# generated using pymatgen
data_TbYNb4(B2Ru5)2
_symmetry_space_group_name_H-M   'P 1'
_cell_length_a   9.58569885
_cell_length_b   9.58569907
_cell_length_c   3.08926400
_cell_angle_alpha   90.00000000
_cell_angle_beta   90.00000000
_cell_angle_gamma   90.78884626
_symmetry_Int_Tables_number   1
_chemical_formula_structural   TbYNb4(B2Ru5)2
_chemical_formula_sum   'Tb1 Y1 Nb4 B4 Ru10'
_cell_volume   283.83204903
_cell_formula_units_Z   1
loop_
 _symmetry_equiv_pos_site_id
 _symmetry_equiv_pos_as_xyz
  1  'x, y, z'
loop_
 _atom_site_type_symbol
 _atom_site_label
 _atom_site_symmetry_multiplicity
 _atom_site_fract_x
 _atom_site_fract_y
 _atom_site_fract_z
 _atom_site_occupancy
  Tb  Tb0  1  0.176245  0.323755  0.000000  1
  Y  Y1  1  0.823612  0.676388  0.000000  1
  Nb  Nb2  1  0.324772  0.824776  0.000000  1
  Nb  Nb3  1  0.675224  0.175228  0.000000  1
  Nb  Nb4  1  0.500267  0.500065  0.000000  1
  Nb  Nb5  1  0.999935  0.999733  0.000000  1
  B  B6  1  0.620553  0.879447  0.000000  1
  B  B7  1  0.379731  0.120269  0.000000  1
  B  B8  1  0.121283  0.621483  0.000000  1
  B  B9  1  0.878517  0.378717  0.000000  1
  Ru  Ru10  1  0.559314  0.723236  0.500000  1
  Ru  Ru11  1  0.440584  0.276825  0.500000  1
  Ru  Ru12  1  0.081937  0.785130  0.500000  1
  Ru  Ru13  1  0.918033  0.214820  0.500000  1
  Ru  Ru14  1  0.285180  0.581967  0.500000  1
  Ru  Ru15  1  0.714870  0.418063  0.500000  1
  Ru  Ru16  1  0.223175  0.059416  0.500000  1
  Ru  Ru17  1  0.776764  0.940686  0.500000  1
  Ru  Ru18  1  0.500011  0.999989  0.500000  1
  Ru  Ru19  1  0.999994  0.500006  0.500000  1
