# generated using pymatgen
data_HoLu9(In2Au)4
_symmetry_space_group_name_H-M   'P 1'
_cell_length_a   3.59686900
_cell_length_b   8.12630800
_cell_length_c   18.18317600
_cell_angle_alpha   90.00051296
_cell_angle_beta   90.00000000
_cell_angle_gamma   90.00000000
_symmetry_Int_Tables_number   1
_chemical_formula_structural   HoLu9(In2Au)4
_chemical_formula_sum   'Ho1 Lu9 In8 Au4'
_cell_volume   531.48087583
_cell_formula_units_Z   1
loop_
 _symmetry_equiv_pos_site_id
 _symmetry_equiv_pos_as_xyz
  1  'x, y, z'
loop_
 _atom_site_type_symbol
 _atom_site_label
 _atom_site_symmetry_multiplicity
 _atom_site_fract_x
 _atom_site_fract_y
 _atom_site_fract_z
 _atom_site_occupancy
  Ho  Ho0  1  0.000000  0.000000  0.000000  1
  Lu  Lu1  1  0.000000  0.500000  0.500000  1
  Lu  Lu2  1  0.000000  0.737126  0.281424  1
  Lu  Lu3  1  0.000000  0.262874  0.718576  1
  Lu  Lu4  1  0.000000  0.762882  0.781293  1
  Lu  Lu5  1  0.000000  0.237118  0.218707  1
  Lu  Lu6  1  0.000000  0.618493  0.079770  1
  Lu  Lu7  1  0.000000  0.381507  0.920230  1
  Lu  Lu8  1  0.000000  0.881341  0.579595  1
  Lu  Lu9  1  0.000000  0.118659  0.420405  1
  In  In10  1  0.500000  0.710925  0.933299  1
  In  In11  1  0.500000  0.289075  0.066701  1
  In  In12  1  0.500000  0.787339  0.433663  1
  In  In13  1  0.500000  0.212661  0.566337  1
  In  In14  1  0.500000  0.580960  0.646375  1
  In  In15  1  0.500000  0.419040  0.353625  1
  In  In16  1  0.500000  0.918533  0.146967  1
  In  In17  1  0.500000  0.081467  0.853033  1
  Au  Au18  1  0.500000  0.526419  0.196420  1
  Au  Au19  1  0.500000  0.473581  0.803580  1
  Au  Au20  1  0.500000  0.973531  0.696250  1
  Au  Au21  1  0.500000  0.026469  0.303750  1
