# generated using pymatgen
data_Ce2CoB10
_symmetry_space_group_name_H-M   'P 1'
_cell_length_a   4.16019200
_cell_length_b   5.58789500
_cell_length_c   11.14843300
_cell_angle_alpha   90.00000000
_cell_angle_beta   90.00000000
_cell_angle_gamma   90.00000000
_symmetry_Int_Tables_number   1
_chemical_formula_structural   Ce2CoB10
_chemical_formula_sum   'Ce4 Co2 B20'
_cell_volume   259.16445664
_cell_formula_units_Z   2
loop_
 _symmetry_equiv_pos_site_id
 _symmetry_equiv_pos_as_xyz
  1  'x, y, z'
loop_
 _atom_site_type_symbol
 _atom_site_label
 _atom_site_symmetry_multiplicity
 _atom_site_fract_x
 _atom_site_fract_y
 _atom_site_fract_z
 _atom_site_occupancy
  Ce  Ce0  1  0.500000  0.303644  0.865041  1
  Ce  Ce1  1  0.500000  0.696356  0.134959  1
  Ce  Ce2  1  0.500000  0.803644  0.634959  1
  Ce  Ce3  1  0.500000  0.196356  0.365041  1
  Co  Co4  1  0.000000  0.500000  0.500000  1
  Co  Co5  1  0.000000  0.000000  0.000000  1
  B  B6  1  0.000000  0.126953  0.539939  1
  B  B7  1  0.000000  0.873047  0.460061  1
  B  B8  1  0.000000  0.626953  0.960061  1
  B  B9  1  0.000000  0.373047  0.039939  1
  B  B10  1  0.000000  0.154432  0.697566  1
  B  B11  1  0.000000  0.845568  0.302434  1
  B  B12  1  0.300466  0.200833  0.112982  1
  B  B13  1  0.300466  0.799167  0.887018  1
  B  B14  1  0.699534  0.700833  0.387018  1
  B  B15  1  0.699534  0.299167  0.612982  1
  B  B16  1  0.699534  0.799167  0.887018  1
  B  B17  1  0.699534  0.200833  0.112982  1
  B  B18  1  0.300466  0.299167  0.612982  1
  B  B19  1  0.300466  0.700833  0.387018  1
  B  B20  1  0.000000  0.032686  0.186877  1
  B  B21  1  0.000000  0.967314  0.813123  1
  B  B22  1  0.000000  0.532686  0.313123  1
  B  B23  1  0.000000  0.467314  0.686877  1
  B  B24  1  0.000000  0.345568  0.197566  1
  B  B25  1  0.000000  0.654432  0.802434  1
