# generated using pymatgen
data_Ta2Cd(SnRu2)3
_symmetry_space_group_name_H-M   'P 1'
_cell_length_a   4.53738400
_cell_length_b   6.40114200
_cell_length_c   13.63500300
_cell_angle_alpha   90.00000000
_cell_angle_beta   90.00043740
_cell_angle_gamma   90.00000000
_symmetry_Int_Tables_number   1
_chemical_formula_structural   Ta2Cd(SnRu2)3
_chemical_formula_sum   'Ta4 Cd2 Sn6 Ru12'
_cell_volume   396.02101688
_cell_formula_units_Z   2
loop_
 _symmetry_equiv_pos_site_id
 _symmetry_equiv_pos_as_xyz
  1  'x, y, z'
loop_
 _atom_site_type_symbol
 _atom_site_label
 _atom_site_symmetry_multiplicity
 _atom_site_fract_x
 _atom_site_fract_y
 _atom_site_fract_z
 _atom_site_occupancy
  Ta  Ta0  1  0.999988  0.000000  0.328836  1
  Ta  Ta1  1  0.500007  0.500001  0.498435  1
  Ta  Ta2  1  0.000026  0.000000  0.668500  1
  Ta  Ta3  1  0.500015  0.500001  0.837789  1
  Cd  Cd4  1  0.999995  0.000000  0.999675  1
  Cd  Cd5  1  0.499979  0.500001  0.166760  1
  Sn  Sn6  1  0.000006  0.500001  0.001643  1
  Sn  Sn7  1  0.499956  0.000000  0.164856  1
  Sn  Sn8  1  0.000010  0.500001  0.331900  1
  Sn  Sn9  1  0.500004  0.000000  0.501373  1
  Sn  Sn10  1  0.000013  0.500001  0.665465  1
  Sn  Sn11  1  0.500006  0.000000  0.834725  1
  Ru  Ru12  1  0.500002  0.257695  0.992985  1
  Ru  Ru13  1  0.500002  0.742305  0.992985  1
  Ru  Ru14  1  0.999975  0.242288  0.173397  1
  Ru  Ru15  1  0.999975  0.757713  0.173397  1
  Ru  Ru16  1  0.499997  0.244582  0.341358  1
  Ru  Ru17  1  0.499997  0.755418  0.341358  1
  Ru  Ru18  1  0.000004  0.251211  0.501751  1
  Ru  Ru19  1  0.000004  0.748790  0.501751  1
  Ru  Ru20  1  0.500010  0.248796  0.665186  1
  Ru  Ru21  1  0.500010  0.751204  0.665186  1
  Ru  Ru22  1  0.000011  0.255430  0.825343  1
  Ru  Ru23  1  0.000011  0.744571  0.825343  1
