# generated using pymatgen
data_Dy20Sn15Pb
_symmetry_space_group_name_H-M   'P 1'
_cell_length_a   8.05270202
_cell_length_b   8.19266018
_cell_length_c   15.49022735
_cell_angle_alpha   90.02357204
_cell_angle_beta   89.99322122
_cell_angle_gamma   90.00427562
_symmetry_Int_Tables_number   1
_chemical_formula_structural   Dy20Sn15Pb
_chemical_formula_sum   'Dy20 Sn15 Pb1'
_cell_volume   1021.93746544
_cell_formula_units_Z   1
loop_
 _symmetry_equiv_pos_site_id
 _symmetry_equiv_pos_as_xyz
  1  'x, y, z'
loop_
 _atom_site_type_symbol
 _atom_site_label
 _atom_site_symmetry_multiplicity
 _atom_site_fract_x
 _atom_site_fract_y
 _atom_site_fract_z
 _atom_site_occupancy
  Dy  Dy0  1  0.368233  0.835022  0.877282  1
  Dy  Dy1  1  0.867806  0.663953  0.621808  1
  Dy  Dy2  1  0.632334  0.163926  0.378143  1
  Dy  Dy3  1  0.131221  0.338170  0.122325  1
  Dy  Dy4  1  0.633946  0.164288  0.122167  1
  Dy  Dy5  1  0.132234  0.336112  0.378232  1
  Dy  Dy6  1  0.367842  0.836011  0.621888  1
  Dy  Dy7  1  0.868073  0.663968  0.878182  1
  Dy  Dy8  1  0.522112  0.321089  0.901806  1
  Dy  Dy9  1  0.021076  0.179769  0.597788  1
  Dy  Dy10  1  0.478848  0.679802  0.402235  1
  Dy  Dy11  1  0.976872  0.818634  0.098070  1
  Dy  Dy12  1  0.479715  0.678070  0.098054  1
  Dy  Dy13  1  0.978763  0.820119  0.402270  1
  Dy  Dy14  1  0.521219  0.320194  0.597814  1
  Dy  Dy15  1  0.019832  0.180726  0.901353  1
  Dy  Dy16  1  0.198701  0.502586  0.749953  1
  Dy  Dy17  1  0.698696  0.997302  0.749913  1
  Dy  Dy18  1  0.801247  0.497421  0.250056  1
  Dy  Dy19  1  0.301525  0.002657  0.251198  1
  Sn  Sn20  1  0.791949  0.465228  0.458167  1
  Sn  Sn21  1  0.707927  0.965227  0.541922  1
  Sn  Sn22  1  0.208019  0.534652  0.958047  1
  Sn  Sn23  1  0.708101  0.965413  0.957983  1
  Sn  Sn24  1  0.207988  0.534574  0.541941  1
  Sn  Sn25  1  0.292016  0.034726  0.458246  1
  Sn  Sn26  1  0.791913  0.465206  0.041770  1
  Sn  Sn27  1  0.565387  0.618602  0.749892  1
  Sn  Sn28  1  0.065248  0.881147  0.749988  1
  Sn  Sn29  1  0.434580  0.381075  0.250013  1
  Sn  Sn30  1  0.934994  0.118721  0.249961  1
  Sn  Sn31  1  0.329201  0.146869  0.749985  1
  Sn  Sn32  1  0.829000  0.353424  0.749875  1
  Sn  Sn33  1  0.670790  0.853179  0.250081  1
  Sn  Sn34  1  0.170866  0.647007  0.250081  1
  Pb  Pb35  1  0.291724  0.035131  0.041510  1
