# generated using pymatgen
data_DyY3Al18(OsPd2)2
_symmetry_space_group_name_H-M   'P 1'
_cell_length_a   7.60774503
_cell_length_b   7.60900243
_cell_length_c   9.50105800
_cell_angle_alpha   90.00000000
_cell_angle_beta   90.00000000
_cell_angle_gamma   119.38157772
_symmetry_Int_Tables_number   1
_chemical_formula_structural   DyY3Al18(OsPd2)2
_chemical_formula_sum   'Dy1 Y3 Al18 Os2 Pd4'
_cell_volume   479.24660526
_cell_formula_units_Z   1
loop_
 _symmetry_equiv_pos_site_id
 _symmetry_equiv_pos_as_xyz
  1  'x, y, z'
loop_
 _atom_site_type_symbol
 _atom_site_label
 _atom_site_symmetry_multiplicity
 _atom_site_fract_x
 _atom_site_fract_y
 _atom_site_fract_z
 _atom_site_occupancy
  Dy  Dy0  1  0.327335  0.005502  0.750000  1
  Y  Y1  1  0.994643  0.672405  0.250000  1
  Y  Y2  1  0.005402  0.327613  0.750000  1
  Y  Y3  1  0.672380  0.994593  0.250000  1
  Al  Al4  1  0.127693  0.127631  0.250000  1
  Al  Al5  1  0.872417  0.872279  0.750000  1
  Al  Al6  1  0.000533  0.331187  0.076272  1
  Al  Al7  1  0.999672  0.668887  0.923439  1
  Al  Al8  1  0.999672  0.668887  0.576561  1
  Al  Al9  1  0.331274  0.000520  0.423926  1
  Al  Al10  1  0.000533  0.331187  0.423728  1
  Al  Al11  1  0.668575  0.999488  0.576555  1
  Al  Al12  1  0.668575  0.999488  0.923445  1
  Al  Al13  1  0.331274  0.000520  0.076074  1
  Al  Al14  1  0.329473  0.329331  0.554912  1
  Al  Al15  1  0.670618  0.670606  0.445413  1
  Al  Al16  1  0.670618  0.670606  0.054587  1
  Al  Al17  1  0.329473  0.329331  0.945088  1
  Al  Al18  1  0.342302  0.548629  0.250000  1
  Al  Al19  1  0.657366  0.451028  0.750000  1
  Al  Al20  1  0.548598  0.342229  0.250000  1
  Al  Al21  1  0.451270  0.657934  0.750000  1
  Os  Os22  1  0.000163  0.000067  0.999819  1
  Os  Os23  1  0.000163  0.000067  0.500181  1
  Pd  Pd24  1  0.672198  0.327808  0.000001  1
  Pd  Pd25  1  0.327793  0.672185  0.999996  1
  Pd  Pd26  1  0.327793  0.672185  0.500004  1
  Pd  Pd27  1  0.672198  0.327808  0.499999  1
