# generated using pymatgen
data_Zr10ZnBiPPb5
_symmetry_space_group_name_H-M   'P 1'
_cell_length_a   8.79530302
_cell_length_b   8.79122206
_cell_length_c   5.99374001
_cell_angle_alpha   89.99648003
_cell_angle_beta   90.00680360
_cell_angle_gamma   120.01515774
_symmetry_Int_Tables_number   1
_chemical_formula_structural   Zr10ZnBiPPb5
_chemical_formula_sum   'Zr10 Zn1 Bi1 P1 Pb5'
_cell_volume   401.29359844
_cell_formula_units_Z   1
loop_
 _symmetry_equiv_pos_site_id
 _symmetry_equiv_pos_as_xyz
  1  'x, y, z'
loop_
 _atom_site_type_symbol
 _atom_site_label
 _atom_site_symmetry_multiplicity
 _atom_site_fract_x
 _atom_site_fract_y
 _atom_site_fract_z
 _atom_site_occupancy
  Zr  Zr0  1  0.333107  0.666392  0.999280  1
  Zr  Zr1  1  0.666780  0.333485  0.500577  1
  Zr  Zr2  1  0.666715  0.333608  0.999280  1
  Zr  Zr3  1  0.333295  0.666515  0.500578  1
  Zr  Zr4  1  0.254556  0.000000  0.237117  1
  Zr  Zr5  1  0.254823  0.254770  0.762965  1
  Zr  Zr6  1  0.000052  0.745231  0.762964  1
  Zr  Zr7  1  0.000670  0.255115  0.237211  1
  Zr  Zr8  1  0.745553  0.744884  0.237211  1
  Zr  Zr9  1  0.745096  0.000000  0.762457  1
  Zn  Zn10  1  0.000337  0.000000  0.500278  1
  Bi  Bi11  1  0.606950  0.000001  0.255681  1
  P  P12  1  0.000183  0.000000  0.999705  1
  Pb  Pb13  1  0.607756  0.607458  0.744499  1
  Pb  Pb14  1  0.000297  0.392542  0.744500  1
  Pb  Pb15  1  0.999975  0.607787  0.255445  1
  Pb  Pb16  1  0.392188  0.392212  0.255446  1
  Pb  Pb17  1  0.391667  0.000000  0.744807  1
