# generated using pymatgen
data_NdSm2Be(PPd4)5
_symmetry_space_group_name_H-M   'P 1'
_cell_length_a   8.73947737
_cell_length_b   8.69025635
_cell_length_c   8.69025539
_cell_angle_alpha   60.36808138
_cell_angle_beta   59.81245103
_cell_angle_gamma   59.81245307
_symmetry_Int_Tables_number   1
_chemical_formula_structural   NdSm2Be(PPd4)5
_chemical_formula_sum   'Nd1 Sm2 Be1 P5 Pd20'
_cell_volume   466.64351484
_cell_formula_units_Z   1
loop_
 _symmetry_equiv_pos_site_id
 _symmetry_equiv_pos_as_xyz
  1  'x, y, z'
loop_
 _atom_site_type_symbol
 _atom_site_label
 _atom_site_symmetry_multiplicity
 _atom_site_fract_x
 _atom_site_fract_y
 _atom_site_fract_z
 _atom_site_occupancy
  Nd  Nd0  1  0.249805  0.250195  0.250195  1
  Sm  Sm1  1  0.749814  0.750186  0.750186  1
  Sm  Sm2  1  0.996282  0.003718  0.003718  1
  Be  Be3  1  0.731446  0.268554  0.268554  1
  P  P4  1  0.262653  0.737347  0.737347  1
  P  P5  1  0.264978  0.735035  0.263386  1
  P  P6  1  0.736601  0.263386  0.735035  1
  P  P7  1  0.264978  0.263386  0.735035  1
  P  P8  1  0.736601  0.735035  0.263386  1
  Pd  Pd9  1  0.388264  0.384102  0.384102  1
  Pd  Pd10  1  0.615002  0.614238  0.614238  1
  Pd  Pd11  1  0.386200  0.385446  0.842154  1
  Pd  Pd12  1  0.386200  0.842154  0.385446  1
  Pd  Pd13  1  0.616303  0.612207  0.155189  1
  Pd  Pd14  1  0.616303  0.155189  0.612207  1
  Pd  Pd15  1  0.843530  0.384102  0.384102  1
  Pd  Pd16  1  0.156524  0.614238  0.614238  1
  Pd  Pd17  1  0.344479  0.000795  0.000795  1
  Pd  Pd18  1  0.653931  0.000795  0.000795  1
  Pd  Pd19  1  0.998828  0.346430  0.655914  1
  Pd  Pd20  1  0.998828  0.655914  0.346430  1
  Pd  Pd21  1  0.995937  0.343687  0.003740  1
  Pd  Pd22  1  0.656637  0.003740  0.343687  1
  Pd  Pd23  1  0.000787  0.652525  0.998824  1
  Pd  Pd24  1  0.347864  0.998824  0.652525  1
  Pd  Pd25  1  0.995937  0.003740  0.343687  1
  Pd  Pd26  1  0.000787  0.998824  0.652525  1
  Pd  Pd27  1  0.656637  0.343687  0.003740  1
  Pd  Pd28  1  0.347864  0.652525  0.998824  1
