# generated using pymatgen
data_Ho16ZnIn6Au
_symmetry_space_group_name_H-M   'P 1'
_cell_length_a   10.59988700
_cell_length_b   10.59988775
_cell_length_c   6.80007500
_cell_angle_alpha   90.00000000
_cell_angle_beta   90.00000000
_cell_angle_gamma   120.00000077
_symmetry_Int_Tables_number   1
_chemical_formula_structural   Ho16ZnIn6Au
_chemical_formula_sum   'Ho16 Zn1 In6 Au1'
_cell_volume   661.67820986
_cell_formula_units_Z   1
loop_
 _symmetry_equiv_pos_site_id
 _symmetry_equiv_pos_as_xyz
  1  'x, y, z'
loop_
 _atom_site_type_symbol
 _atom_site_label
 _atom_site_symmetry_multiplicity
 _atom_site_fract_x
 _atom_site_fract_y
 _atom_site_fract_z
 _atom_site_occupancy
  Ho  Ho0  1  0.522300  0.044600  0.510470  1
  Ho  Ho1  1  0.955400  0.477700  0.510470  1
  Ho  Ho2  1  0.522300  0.477700  0.510470  1
  Ho  Ho3  1  0.478029  0.956059  0.010135  1
  Ho  Ho4  1  0.043941  0.521971  0.010135  1
  Ho  Ho5  1  0.478029  0.521971  0.010135  1
  Ho  Ho6  1  0.172672  0.345342  0.727603  1
  Ho  Ho7  1  0.654658  0.827328  0.727603  1
  Ho  Ho8  1  0.172672  0.827328  0.727603  1
  Ho  Ho9  1  0.826690  0.653381  0.224243  1
  Ho  Ho10  1  0.346619  0.173310  0.224243  1
  Ho  Ho11  1  0.826690  0.173310  0.224243  1
  Ho  Ho12  1  0.666667  0.333333  0.862230  1
  Ho  Ho13  1  0.333333  0.666667  0.361364  1
  Ho  Ho14  1  0.000000  0.000000  0.491462  1
  Ho  Ho15  1  0.000000  0.000000  0.989944  1
  Zn  Zn16  1  0.333333  0.666667  0.791985  1
  In  In17  1  0.836350  0.672700  0.743474  1
  In  In18  1  0.327300  0.163650  0.743474  1
  In  In19  1  0.836350  0.163650  0.743474  1
  In  In20  1  0.164597  0.329192  0.245094  1
  In  In21  1  0.670808  0.835403  0.245094  1
  In  In22  1  0.164597  0.835403  0.245094  1
  Au  Au23  1  0.666667  0.333333  0.278000  1
