# generated using pymatgen
data_MgZr2MnFe5Co3
_symmetry_space_group_name_H-M   'P 1'
_cell_length_a   4.88341128
_cell_length_b   4.87707613
_cell_length_c   8.48100029
_cell_angle_alpha   106.71012767
_cell_angle_beta   73.08687027
_cell_angle_gamma   119.95710359
_symmetry_Int_Tables_number   1
_chemical_formula_structural   MgZr2MnFe5Co3
_chemical_formula_sum   'Mg1 Zr2 Mn1 Fe5 Co3'
_cell_volume   164.95048692
_cell_formula_units_Z   1
loop_
 _symmetry_equiv_pos_site_id
 _symmetry_equiv_pos_as_xyz
  1  'x, y, z'
loop_
 _atom_site_type_symbol
 _atom_site_label
 _atom_site_symmetry_multiplicity
 _atom_site_fract_x
 _atom_site_fract_y
 _atom_site_fract_z
 _atom_site_occupancy
  Mg  Mg0  1  0.375190  0.624873  0.874557  1
  Zr  Zr1  1  0.999275  0.002430  0.005583  1
  Zr  Zr2  1  0.502914  0.499097  0.495278  1
  Mn  Mn3  1  0.874893  0.125846  0.376800  1
  Fe  Fe4  1  0.436646  0.562702  0.188530  1
  Fe  Fe5  1  0.936204  0.063194  0.686358  1
  Fe  Fe6  1  0.436646  0.062475  0.188530  1
  Fe  Fe7  1  0.936204  0.559369  0.686358  1
  Fe  Fe8  1  0.187478  0.811938  0.436399  1
  Co  Co9  1  0.687487  0.311976  0.936467  1
  Co  Co10  1  0.938597  0.564252  0.189907  1
  Co  Co11  1  0.438464  0.061850  0.685234  1
