# generated using pymatgen
data_GdTmB6Os
_symmetry_space_group_name_H-M   'P 1'
_cell_length_a   3.65095000
_cell_length_b   9.12672000
_cell_length_c   11.52847800
_cell_angle_alpha   90.00000000
_cell_angle_beta   90.00000000
_cell_angle_gamma   90.00000000
_symmetry_Int_Tables_number   1
_chemical_formula_structural   GdTmB6Os
_chemical_formula_sum   'Gd4 Tm4 B24 Os4'
_cell_volume   384.14270250
_cell_formula_units_Z   4
loop_
 _symmetry_equiv_pos_site_id
 _symmetry_equiv_pos_as_xyz
  1  'x, y, z'
loop_
 _atom_site_type_symbol
 _atom_site_label
 _atom_site_symmetry_multiplicity
 _atom_site_fract_x
 _atom_site_fract_y
 _atom_site_fract_z
 _atom_site_occupancy
  Gd  Gd0  1  0.000000  0.322371  0.413870  1
  Gd  Gd1  1  0.000000  0.677629  0.586130  1
  Gd  Gd2  1  0.000000  0.822371  0.086130  1
  Gd  Gd3  1  0.000000  0.177629  0.913870  1
  Tm  Tm4  1  0.000000  0.944254  0.373114  1
  Tm  Tm5  1  0.000000  0.055746  0.626887  1
  Tm  Tm6  1  0.000000  0.444254  0.126886  1
  Tm  Tm7  1  0.000000  0.555746  0.873113  1
  B  B8  1  0.500000  0.554598  0.432264  1
  B  B9  1  0.500000  0.445402  0.567736  1
  B  B10  1  0.500000  0.054598  0.067736  1
  B  B11  1  0.500000  0.945402  0.932264  1
  B  B12  1  0.500000  0.749258  0.419165  1
  B  B13  1  0.500000  0.250742  0.580835  1
  B  B14  1  0.500000  0.249258  0.080835  1
  B  B15  1  0.500000  0.750742  0.919165  1
  B  B16  1  0.500000  0.791399  0.266524  1
  B  B17  1  0.500000  0.208601  0.733476  1
  B  B18  1  0.500000  0.291398  0.233476  1
  B  B19  1  0.500000  0.708601  0.766524  1
  B  B20  1  0.500000  0.631278  0.184927  1
  B  B21  1  0.500000  0.368722  0.815073  1
  B  B22  1  0.500000  0.131278  0.315073  1
  B  B23  1  0.500000  0.868722  0.684927  1
  B  B24  1  0.500000  0.983667  0.213691  1
  B  B25  1  0.500000  0.016333  0.786309  1
  B  B26  1  0.500000  0.483667  0.286309  1
  B  B27  1  0.500000  0.516333  0.713691  1
  B  B28  1  0.500000  0.604904  0.028908  1
  B  B29  1  0.500000  0.395096  0.971092  1
  B  B30  1  0.500000  0.104904  0.471092  1
  B  B31  1  0.500000  0.895096  0.528908  1
  Os  Os32  1  0.000000  0.638449  0.320338  1
  Os  Os33  1  0.000000  0.361551  0.679662  1
  Os  Os34  1  0.000000  0.138449  0.179662  1
  Os  Os35  1  0.000000  0.861551  0.820338  1
