# generated using pymatgen
data_CaPr2B10O19
_symmetry_space_group_name_H-M   'P 1'
_cell_length_a   6.44142345
_cell_length_b   6.44142408
_cell_length_c   9.16359793
_cell_angle_alpha   88.55057032
_cell_angle_beta   91.44942967
_cell_angle_gamma   118.30096248
_symmetry_Int_Tables_number   1
_chemical_formula_structural   CaPr2B10O19
_chemical_formula_sum   'Ca1 Pr2 B10 O19'
_cell_volume   334.62273728
_cell_formula_units_Z   1
loop_
 _symmetry_equiv_pos_site_id
 _symmetry_equiv_pos_as_xyz
  1  'x, y, z'
loop_
 _atom_site_type_symbol
 _atom_site_label
 _atom_site_symmetry_multiplicity
 _atom_site_fract_x
 _atom_site_fract_y
 _atom_site_fract_z
 _atom_site_occupancy
  Ca  Ca0  1  0.816272  0.816272  0.500000  1
  Pr  Pr1  1  0.154711  0.835624  0.143313  1
  Pr  Pr2  1  0.835625  0.154710  0.856687  1
  B  B3  1  0.281028  0.365072  0.160658  1
  B  B4  1  0.365072  0.281028  0.839342  1
  B  B5  1  0.835864  0.188534  0.206828  1
  B  B6  1  0.188534  0.835864  0.793173  1
  B  B7  1  0.671467  0.448273  0.271804  1
  B  B8  1  0.448273  0.671467  0.728196  1
  B  B9  1  0.254548  0.786120  0.528068  1
  B  B10  1  0.786120  0.254548  0.471932  1
  B  B11  1  0.622093  0.761578  0.125496  1
  B  B12  1  0.761579  0.622092  0.874504  1
  O  O13  1  0.144814  0.849148  0.636712  1
  O  O14  1  0.849148  0.144814  0.363289  1
  O  O15  1  0.362815  0.593450  0.113044  1
  O  O16  1  0.593449  0.362816  0.886957  1
  O  O17  1  0.408275  0.699924  0.571409  1
  O  O18  1  0.699924  0.408275  0.428592  1
  O  O19  1  0.194813  0.807236  0.388762  1
  O  O20  1  0.807237  0.194812  0.611238  1
  O  O21  1  0.721899  0.696555  0.254357  1
  O  O22  1  0.696554  0.721900  0.745643  1
  O  O23  1  0.422089  0.283149  0.223375  1
  O  O24  1  0.283149  0.422089  0.776625  1
  O  O25  1  0.839061  0.413890  0.181859  1
  O  O26  1  0.413890  0.839062  0.818140  1
  O  O27  1  0.049168  0.196973  0.131443  1
  O  O28  1  0.196972  0.049168  0.868557  1
  O  O29  1  0.631434  0.993950  0.132744  1
  O  O30  1  0.993951  0.631433  0.867255  1
  O  O31  1  0.765074  0.765074  0.000000  1
