# generated using pymatgen
data_Lu2ZnIr2
_symmetry_space_group_name_H-M   'P 1'
_cell_length_a   5.39878536
_cell_length_b   5.39878426
_cell_length_c   5.39878477
_cell_angle_alpha   135.09755271
_cell_angle_beta   114.73824417
_cell_angle_gamma   82.71626046
_symmetry_Int_Tables_number   1
_chemical_formula_structural   Lu2ZnIr2
_chemical_formula_sum   'Lu2 Zn1 Ir2'
_cell_volume   97.29017983
_cell_formula_units_Z   1
loop_
 _symmetry_equiv_pos_site_id
 _symmetry_equiv_pos_as_xyz
  1  'x, y, z'
loop_
 _atom_site_type_symbol
 _atom_site_label
 _atom_site_symmetry_multiplicity
 _atom_site_fract_x
 _atom_site_fract_y
 _atom_site_fract_z
 _atom_site_occupancy
  Lu  Lu0  1  0.703299  0.203299  0.500000  1
  Lu  Lu1  1  0.296701  0.796701  0.500000  1
  Zn  Zn2  1  0.000000  0.000000  0.000000  1
  Ir  Ir3  1  0.729353  0.500000  0.229353  1
  Ir  Ir4  1  0.270647  0.500000  0.770647  1
