# generated using pymatgen
data_Ce2Y7Ho(Al2Ru3)2
_symmetry_space_group_name_H-M   'P 1'
_cell_length_a   8.48150334
_cell_length_b   8.38605849
_cell_length_c   8.35603489
_cell_angle_alpha   110.03106873
_cell_angle_beta   109.28664823
_cell_angle_gamma   110.29084332
_symmetry_Int_Tables_number   1
_chemical_formula_structural   Ce2Y7Ho(Al2Ru3)2
_chemical_formula_sum   'Ce2 Y7 Ho1 Al4 Ru6'
_cell_volume   450.61808286
_cell_formula_units_Z   1
loop_
 _symmetry_equiv_pos_site_id
 _symmetry_equiv_pos_as_xyz
  1  'x, y, z'
loop_
 _atom_site_type_symbol
 _atom_site_label
 _atom_site_symmetry_multiplicity
 _atom_site_fract_x
 _atom_site_fract_y
 _atom_site_fract_z
 _atom_site_occupancy
  Ce  Ce0  1  0.943588  0.250811  0.195522  1
  Ce  Ce1  1  0.197612  0.942723  0.251734  1
  Y  Y2  1  0.317562  0.566064  0.754599  1
  Y  Y3  1  0.751386  0.317045  0.567846  1
  Y  Y4  1  0.567455  0.748704  0.313391  1
  Y  Y5  1  0.722496  0.504004  0.998542  1
  Y  Y6  1  0.998644  0.720180  0.505880  1
  Y  Y7  1  0.501656  0.991393  0.716984  1
  Y  Y8  1  0.254158  0.189454  0.933405  1
  Ho  Ho9  1  0.783513  0.787828  0.780559  1
  Al  Al10  1  0.417292  0.412192  0.410582  1
  Al  Al11  1  0.091273  0.491608  0.996500  1
  Al  Al12  1  0.997610  0.090750  0.501876  1
  Al  Al13  1  0.502097  0.010182  0.094505  1
  Ru  Ru14  1  0.868994  0.115733  0.740867  1
  Ru  Ru15  1  0.755228  0.906341  0.121844  1
  Ru  Ru16  1  0.126476  0.764221  0.911069  1
  Ru  Ru17  1  0.222263  0.587108  0.360881  1
  Ru  Ru18  1  0.355403  0.219430  0.591834  1
  Ru  Ru19  1  0.625294  0.384229  0.251576  1
