# generated using pymatgen
data_Er3Ni8P6Ru
_symmetry_space_group_name_H-M   'P 1'
_cell_length_a   3.76554800
_cell_length_b   10.50637800
_cell_length_c   12.35969900
_cell_angle_alpha   90.00000000
_cell_angle_beta   90.00000000
_cell_angle_gamma   90.00000000
_symmetry_Int_Tables_number   1
_chemical_formula_structural   Er3Ni8P6Ru
_chemical_formula_sum   'Er6 Ni16 P12 Ru2'
_cell_volume   488.97775718
_cell_formula_units_Z   2
loop_
 _symmetry_equiv_pos_site_id
 _symmetry_equiv_pos_as_xyz
  1  'x, y, z'
loop_
 _atom_site_type_symbol
 _atom_site_label
 _atom_site_symmetry_multiplicity
 _atom_site_fract_x
 _atom_site_fract_y
 _atom_site_fract_z
 _atom_site_occupancy
  Er  Er0  1  0.000000  0.500000  0.523962  1
  Er  Er1  1  0.500000  0.000000  0.476038  1
  Er  Er2  1  0.500000  0.814984  0.208199  1
  Er  Er3  1  0.500000  0.185016  0.208199  1
  Er  Er4  1  0.000000  0.685016  0.791801  1
  Er  Er5  1  0.000000  0.314984  0.791801  1
  Ni  Ni6  1  0.500000  0.500000  0.700171  1
  Ni  Ni7  1  0.000000  0.000000  0.299829  1
  Ni  Ni8  1  0.000000  0.500000  0.981508  1
  Ni  Ni9  1  0.500000  0.000000  0.018492  1
  Ni  Ni10  1  0.500000  0.331251  0.987282  1
  Ni  Ni11  1  0.500000  0.668749  0.987282  1
  Ni  Ni12  1  0.000000  0.168749  0.012718  1
  Ni  Ni13  1  0.000000  0.831251  0.012718  1
  Ni  Ni14  1  0.500000  0.302715  0.429824  1
  Ni  Ni15  1  0.500000  0.697285  0.429824  1
  Ni  Ni16  1  0.000000  0.197285  0.570176  1
  Ni  Ni17  1  0.000000  0.802715  0.570176  1
  Ni  Ni18  1  0.500000  0.878830  0.709278  1
  Ni  Ni19  1  0.500000  0.121170  0.709278  1
  Ni  Ni20  1  0.000000  0.621170  0.290722  1
  Ni  Ni21  1  0.000000  0.378830  0.290722  1
  P  P22  1  0.500000  0.500000  0.875025  1
  P  P23  1  0.000000  0.000000  0.124975  1
  P  P24  1  0.500000  0.500000  0.349112  1
  P  P25  1  0.000000  0.000000  0.650888  1
  P  P26  1  0.500000  0.314386  0.614814  1
  P  P27  1  0.500000  0.685614  0.614814  1
  P  P28  1  0.000000  0.185614  0.385186  1
  P  P29  1  0.000000  0.814386  0.385186  1
  P  P30  1  0.500000  0.849952  0.892136  1
  P  P31  1  0.500000  0.150048  0.892136  1
  P  P32  1  0.000000  0.650048  0.107864  1
  P  P33  1  0.000000  0.349952  0.107864  1
  Ru  Ru34  1  0.500000  0.500000  0.157847  1
  Ru  Ru35  1  0.000000  0.000000  0.842153  1
