# generated using pymatgen
data_Cs3Ca(B2Pt3)6
_symmetry_space_group_name_H-M   'P 1'
_cell_length_a   8.21875654
_cell_length_b   8.21875583
_cell_length_c   8.21875600
_cell_angle_alpha   82.53136572
_cell_angle_beta   82.53136636
_cell_angle_gamma   82.53136675
_symmetry_Int_Tables_number   1
_chemical_formula_structural   Cs3Ca(B2Pt3)6
_chemical_formula_sum   'Cs3 Ca1 B12 Pt18'
_cell_volume   542.15737476
_cell_formula_units_Z   1
loop_
 _symmetry_equiv_pos_site_id
 _symmetry_equiv_pos_as_xyz
  1  'x, y, z'
loop_
 _atom_site_type_symbol
 _atom_site_label
 _atom_site_symmetry_multiplicity
 _atom_site_fract_x
 _atom_site_fract_y
 _atom_site_fract_z
 _atom_site_occupancy
  Cs  Cs0  1  0.910683  0.910683  0.910683  1
  Cs  Cs1  1  0.383629  0.383629  0.383629  1
  Cs  Cs2  1  0.149664  0.149664  0.149664  1
  Ca  Ca3  1  0.657600  0.657600  0.657600  1
  B  B4  1  0.523006  0.165488  0.861950  1
  B  B5  1  0.861950  0.523006  0.165488  1
  B  B6  1  0.165488  0.861950  0.523006  1
  B  B7  1  0.979650  0.642584  0.286744  1
  B  B8  1  0.461451  0.806144  0.161511  1
  B  B9  1  0.161511  0.461451  0.806144  1
  B  B10  1  0.806144  0.161511  0.461451  1
  B  B11  1  0.039198  0.342981  0.687950  1
  B  B12  1  0.687950  0.039198  0.342981  1
  B  B13  1  0.342981  0.687950  0.039198  1
  B  B14  1  0.286744  0.979650  0.642584  1
  B  B15  1  0.642584  0.286744  0.979650  1
  Pt  Pt16  1  0.423986  0.889095  0.419647  1
  Pt  Pt17  1  0.049239  0.120676  0.576190  1
  Pt  Pt18  1  0.889095  0.419647  0.423986  1
  Pt  Pt19  1  0.576190  0.049239  0.120676  1
  Pt  Pt20  1  0.597825  0.589993  0.053310  1
  Pt  Pt21  1  0.589993  0.053310  0.597825  1
  Pt  Pt22  1  0.053310  0.597825  0.589993  1
  Pt  Pt23  1  0.905969  0.899775  0.440999  1
  Pt  Pt24  1  0.899775  0.440999  0.905969  1
  Pt  Pt25  1  0.440999  0.905969  0.899775  1
  Pt  Pt26  1  0.746982  0.281037  0.205517  1
  Pt  Pt27  1  0.205517  0.746982  0.281037  1
  Pt  Pt28  1  0.281037  0.205517  0.746982  1
  Pt  Pt29  1  0.274681  0.725355  0.739486  1
  Pt  Pt30  1  0.739486  0.274681  0.725355  1
  Pt  Pt31  1  0.725355  0.739486  0.274681  1
  Pt  Pt32  1  0.120676  0.576190  0.049239  1
  Pt  Pt33  1  0.419647  0.423986  0.889095  1
