# generated using pymatgen
data_Ho3TlIn2Ag2Ir
_symmetry_space_group_name_H-M   'P 1'
_cell_length_a   8.03565990
_cell_length_b   8.06369007
_cell_length_c   3.70722100
_cell_angle_alpha   90.00000000
_cell_angle_beta   90.00000000
_cell_angle_gamma   120.29148086
_symmetry_Int_Tables_number   1
_chemical_formula_structural   Ho3TlIn2Ag2Ir
_chemical_formula_sum   'Ho3 Tl1 In2 Ag2 Ir1'
_cell_volume   207.42036049
_cell_formula_units_Z   1
loop_
 _symmetry_equiv_pos_site_id
 _symmetry_equiv_pos_as_xyz
  1  'x, y, z'
loop_
 _atom_site_type_symbol
 _atom_site_label
 _atom_site_symmetry_multiplicity
 _atom_site_fract_x
 _atom_site_fract_y
 _atom_site_fract_z
 _atom_site_occupancy
  Ho  Ho0  1  0.581912  0.615322  0.000000  1
  Ho  Ho1  1  0.384552  0.962146  0.000000  1
  Ho  Ho2  1  0.036786  0.423004  0.000000  1
  Tl  Tl3  1  0.986117  0.719053  0.500000  1
  In  In4  1  0.278142  0.270485  0.500000  1
  In  In5  1  0.731743  0.011700  0.500000  1
  Ag  Ag6  1  0.000770  0.007838  0.000000  1
  Ag  Ag7  1  0.660488  0.325357  0.500000  1
  Ir  Ir8  1  0.339490  0.665096  0.500000  1
