# generated using pymatgen
data_Nd16CdHg3(PdRu)2
_symmetry_space_group_name_H-M   'P 1'
_cell_length_a   9.94064416
_cell_length_b   9.96005311
_cell_length_c   10.03678600
_cell_angle_alpha   59.74482269
_cell_angle_beta   59.67954732
_cell_angle_gamma   59.73798065
_symmetry_Int_Tables_number   1
_chemical_formula_structural   Nd16CdHg3(PdRu)2
_chemical_formula_sum   'Nd16 Cd1 Hg3 Pd2 Ru2'
_cell_volume   698.22055735
_cell_formula_units_Z   1
loop_
 _symmetry_equiv_pos_site_id
 _symmetry_equiv_pos_as_xyz
  1  'x, y, z'
loop_
 _atom_site_type_symbol
 _atom_site_label
 _atom_site_symmetry_multiplicity
 _atom_site_fract_x
 _atom_site_fract_y
 _atom_site_fract_z
 _atom_site_occupancy
  Nd  Nd0  1  0.349622  0.348646  0.357319  1
  Nd  Nd1  1  0.349622  0.348646  0.944413  1
  Nd  Nd2  1  0.344390  0.953084  0.351263  1
  Nd  Nd3  1  0.950691  0.345091  0.352109  1
  Nd  Nd4  1  0.815269  0.189668  0.192217  1
  Nd  Nd5  1  0.188426  0.816023  0.803753  1
  Nd  Nd6  1  0.188426  0.816023  0.191797  1
  Nd  Nd7  1  0.815269  0.189668  0.802846  1
  Nd  Nd8  1  0.189033  0.189613  0.810677  1
  Nd  Nd9  1  0.805618  0.805586  0.194398  1
  Nd  Nd10  1  0.936379  0.558665  0.565938  1
  Nd  Nd11  1  0.557848  0.937265  0.939113  1
  Nd  Nd12  1  0.557848  0.937265  0.565773  1
  Nd  Nd13  1  0.936379  0.558665  0.939017  1
  Nd  Nd14  1  0.561778  0.562538  0.937842  1
  Nd  Nd15  1  0.936662  0.938095  0.562622  1
  Cd  Cd16  1  0.260046  0.581359  0.579298  1
  Hg  Hg17  1  0.582595  0.585165  0.583879  1
  Hg  Hg18  1  0.582595  0.585165  0.248362  1
  Hg  Hg19  1  0.583963  0.246415  0.584811  1
  Pd  Pd20  1  0.147230  0.571560  0.140604  1
  Pd  Pd21  1  0.571930  0.147001  0.140534  1
  Ru  Ru22  1  0.144191  0.144398  0.136599  1
  Ru  Ru23  1  0.144191  0.144398  0.574812  1
