# generated using pymatgen
data_ErTlAg2(IO3)8
_symmetry_space_group_name_H-M   'P 1'
_cell_length_a   5.21222975
_cell_length_b   7.35879746
_cell_length_c   16.12587088
_cell_angle_alpha   78.52122959
_cell_angle_beta   90.49687751
_cell_angle_gamma   90.26738791
_symmetry_Int_Tables_number   1
_chemical_formula_structural   ErTlAg2(IO3)8
_chemical_formula_sum   'Er1 Tl1 Ag2 I8 O24'
_cell_volume   606.12291945
_cell_formula_units_Z   1
loop_
 _symmetry_equiv_pos_site_id
 _symmetry_equiv_pos_as_xyz
  1  'x, y, z'
loop_
 _atom_site_type_symbol
 _atom_site_label
 _atom_site_symmetry_multiplicity
 _atom_site_fract_x
 _atom_site_fract_y
 _atom_site_fract_z
 _atom_site_occupancy
  Er  Er0  1  0.000000  0.000000  0.500000  1
  Tl  Tl1  1  0.500000  0.000000  0.000000  1
  Ag  Ag2  1  0.500000  0.500000  0.000000  1
  Ag  Ag3  1  0.000000  0.500000  0.500000  1
  I  I4  1  0.902475  0.663869  0.167375  1
  I  I5  1  0.404730  0.336730  0.334436  1
  I  I6  1  0.097525  0.336131  0.832625  1
  I  I7  1  0.595270  0.663270  0.665564  1
  I  I8  1  0.992935  0.182566  0.139994  1
  I  I9  1  0.493310  0.817395  0.360283  1
  I  I10  1  0.007065  0.817434  0.860006  1
  I  I11  1  0.506690  0.182605  0.639717  1
  O  O12  1  0.679394  0.732418  0.074091  1
  O  O13  1  0.182853  0.255183  0.424489  1
  O  O14  1  0.320606  0.267582  0.925909  1
  O  O15  1  0.817147  0.744817  0.575511  1
  O  O16  1  0.791451  0.827984  0.231309  1
  O  O17  1  0.297169  0.172555  0.269199  1
  O  O18  1  0.208549  0.172016  0.768691  1
  O  O19  1  0.702831  0.827445  0.730801  1
  O  O20  1  0.733502  0.447631  0.211835  1
  O  O21  1  0.233102  0.552171  0.290923  1
  O  O22  1  0.266498  0.552369  0.788165  1
  O  O23  1  0.766898  0.447829  0.709077  1
  O  O24  1  0.743484  0.205616  0.053303  1
  O  O25  1  0.247240  0.810298  0.443789  1
  O  O26  1  0.256516  0.794384  0.946697  1
  O  O27  1  0.752760  0.189702  0.556211  1
  O  O28  1  0.198871  0.003260  0.107765  1
  O  O29  1  0.708094  0.988964  0.395680  1
  O  O30  1  0.801129  0.996740  0.892235  1
  O  O31  1  0.291906  0.011036  0.604320  1
  O  O32  1  0.156980  0.398449  0.095876  1
  O  O33  1  0.651385  0.600409  0.406617  1
  O  O34  1  0.843020  0.601551  0.904124  1
  O  O35  1  0.348615  0.399591  0.593383  1
