# generated using pymatgen
data_Ba2H10Pd3
_symmetry_space_group_name_H-M   'P 1'
_cell_length_a   8.80047249
_cell_length_b   8.80047209
_cell_length_c   9.02444848
_cell_angle_alpha   71.44856990
_cell_angle_beta   71.44857130
_cell_angle_gamma   35.92304269
_symmetry_Int_Tables_number   1
_chemical_formula_structural   Ba2H10Pd3
_chemical_formula_sum   'Ba4 H20 Pd6'
_cell_volume   386.44513079
_cell_formula_units_Z   2
loop_
 _symmetry_equiv_pos_site_id
 _symmetry_equiv_pos_as_xyz
  1  'x, y, z'
loop_
 _atom_site_type_symbol
 _atom_site_label
 _atom_site_symmetry_multiplicity
 _atom_site_fract_x
 _atom_site_fract_y
 _atom_site_fract_z
 _atom_site_occupancy
  Ba  Ba0  1  0.301306  0.301306  0.280327  1
  Ba  Ba1  1  0.698694  0.698694  0.719673  1
  Ba  Ba2  1  0.397882  0.397882  0.738646  1
  Ba  Ba3  1  0.602118  0.602118  0.261354  1
  H  H4  1  0.868453  0.344032  0.992078  1
  H  H5  1  0.344032  0.868453  0.992078  1
  H  H6  1  0.131547  0.655968  0.007922  1
  H  H7  1  0.655968  0.131547  0.007922  1
  H  H8  1  0.925578  0.383312  0.496057  1
  H  H9  1  0.383312  0.925578  0.496057  1
  H  H10  1  0.074422  0.616688  0.503943  1
  H  H11  1  0.616688  0.074422  0.503943  1
  H  H12  1  0.022934  0.022934  0.866714  1
  H  H13  1  0.977066  0.977066  0.133286  1
  H  H14  1  0.149857  0.149857  0.192252  1
  H  H15  1  0.850143  0.850143  0.807748  1
  H  H16  1  0.224138  0.224138  0.792402  1
  H  H17  1  0.775862  0.775862  0.207598  1
  H  H18  1  0.524755  0.524755  0.863094  1
  H  H19  1  0.475245  0.475245  0.136906  1
  H  H20  1  0.800077  0.199923  0.500000  1
  H  H21  1  0.199923  0.800077  0.500000  1
  H  H22  1  0.000000  0.500000  0.000000  1
  H  H23  1  0.500000  0.000000  0.000000  1
  Pd  Pd24  1  0.084138  0.084138  0.504578  1
  Pd  Pd25  1  0.915862  0.915862  0.495422  1
  Pd  Pd26  1  0.182312  0.182312  0.993204  1
  Pd  Pd27  1  0.817688  0.817688  0.006796  1
  Pd  Pd28  1  0.751164  0.248836  0.000000  1
  Pd  Pd29  1  0.248836  0.751164  0.000000  1
