# generated using pymatgen
data_Th3ZnGe2Ir3
_symmetry_space_group_name_H-M   'P 1'
_cell_length_a   7.28095765
_cell_length_b   7.35705288
_cell_length_c   4.03949100
_cell_angle_alpha   90.00000000
_cell_angle_beta   90.00000000
_cell_angle_gamma   120.34634576
_symmetry_Int_Tables_number   1
_chemical_formula_structural   Th3ZnGe2Ir3
_chemical_formula_sum   'Th3 Zn1 Ge2 Ir3'
_cell_volume   186.73398384
_cell_formula_units_Z   1
loop_
 _symmetry_equiv_pos_site_id
 _symmetry_equiv_pos_as_xyz
  1  'x, y, z'
loop_
 _atom_site_type_symbol
 _atom_site_label
 _atom_site_symmetry_multiplicity
 _atom_site_fract_x
 _atom_site_fract_y
 _atom_site_fract_z
 _atom_site_occupancy
  Th  Th0  1  0.409424  0.411374  0.500000  1
  Th  Th1  1  0.590576  0.001950  0.500000  1
  Th  Th2  1  0.000000  0.584093  0.500000  1
  Zn  Zn3  1  0.000000  0.242913  0.000000  1
  Ge  Ge4  1  0.757856  0.762349  0.000000  1
  Ge  Ge5  1  0.242144  0.004493  0.000000  1
  Ir  Ir6  1  0.663448  0.334200  0.000000  1
  Ir  Ir7  1  0.336552  0.670753  0.000000  1
  Ir  Ir8  1  0.000000  0.987873  0.500000  1
