# generated using pymatgen
data_Th4Si10TcRh5
_symmetry_space_group_name_H-M   'P 1'
_cell_length_a   8.27209528
_cell_length_b   8.27209262
_cell_length_c   8.27209420
_cell_angle_alpha   138.00289894
_cell_angle_beta   105.78449486
_cell_angle_gamma   89.12916089
_symmetry_Int_Tables_number   1
_chemical_formula_structural   Th4Si10TcRh5
_chemical_formula_sum   'Th4 Si10 Tc1 Rh5'
_cell_volume   348.74834934
_cell_formula_units_Z   1
loop_
 _symmetry_equiv_pos_site_id
 _symmetry_equiv_pos_as_xyz
  1  'x, y, z'
loop_
 _atom_site_type_symbol
 _atom_site_label
 _atom_site_symmetry_multiplicity
 _atom_site_fract_x
 _atom_site_fract_y
 _atom_site_fract_z
 _atom_site_occupancy
  Th  Th0  1  0.863482  0.631495  0.236290  1
  Th  Th1  1  0.136518  0.372807  0.768012  1
  Th  Th2  1  0.395205  0.127193  0.263710  1
  Th  Th3  1  0.604795  0.868505  0.731988  1
  Si  Si4  1  0.500000  0.750000  0.250000  1
  Si  Si5  1  0.500000  0.250000  0.750000  1
  Si  Si6  1  0.224040  0.974040  0.750000  1
  Si  Si7  1  0.775960  0.525960  0.750000  1
  Si  Si8  1  0.773906  0.023906  0.250000  1
  Si  Si9  1  0.226094  0.476094  0.250000  1
  Si  Si10  1  0.044679  0.892387  0.149800  1
  Si  Si11  1  0.955321  0.105121  0.847707  1
  Si  Si12  1  0.742587  0.394879  0.350200  1
  Si  Si13  1  0.257413  0.607613  0.652293  1
  Tc  Tc14  1  0.000000  0.750000  0.750000  1
  Rh  Rh15  1  0.000000  0.250000  0.250000  1
  Rh  Rh16  1  0.249768  0.862483  0.391274  1
  Rh  Rh17  1  0.750232  0.141507  0.612715  1
  Rh  Rh18  1  0.471210  0.358493  0.108726  1
  Rh  Rh19  1  0.528790  0.637517  0.887285  1
