# generated using pymatgen
data_Zr6Nb4AlGa11Os7
_symmetry_space_group_name_H-M   'P 1'
_cell_length_a   8.87494900
_cell_length_b   8.87494880
_cell_length_c   8.85818794
_cell_angle_alpha   59.93738454
_cell_angle_beta   59.93738831
_cell_angle_gamma   59.99999678
_symmetry_Int_Tables_number   1
_chemical_formula_structural   Zr6Nb4AlGa11Os7
_chemical_formula_sum   'Zr6 Nb4 Al1 Ga11 Os7'
_cell_volume   492.88992054
_cell_formula_units_Z   1
loop_
 _symmetry_equiv_pos_site_id
 _symmetry_equiv_pos_as_xyz
  1  'x, y, z'
loop_
 _atom_site_type_symbol
 _atom_site_label
 _atom_site_symmetry_multiplicity
 _atom_site_fract_x
 _atom_site_fract_y
 _atom_site_fract_z
 _atom_site_occupancy
  Zr  Zr0  1  0.703971  0.703971  0.296019  1
  Zr  Zr1  1  0.296038  0.703971  0.296019  1
  Zr  Zr2  1  0.703971  0.296038  0.296019  1
  Zr  Zr3  1  0.296542  0.296542  0.704397  1
  Zr  Zr4  1  0.702519  0.296542  0.704397  1
  Zr  Zr5  1  0.296542  0.702519  0.704397  1
  Nb  Nb6  1  0.878108  0.878108  0.365677  1
  Nb  Nb7  1  0.877767  0.366793  0.877674  1
  Nb  Nb8  1  0.366793  0.877767  0.877674  1
  Nb  Nb9  1  0.877767  0.877767  0.877674  1
  Al  Al10  1  0.121784  0.121784  0.634647  1
  Ga  Ga11  1  0.119908  0.639906  0.120277  1
  Ga  Ga12  1  0.639906  0.119908  0.120277  1
  Ga  Ga13  1  0.119908  0.119908  0.120277  1
  Ga  Ga14  1  0.656932  0.656932  0.029203  1
  Ga  Ga15  1  0.656925  0.029291  0.656858  1
  Ga  Ga16  1  0.029291  0.656925  0.656858  1
  Ga  Ga17  1  0.656925  0.656925  0.656858  1
  Ga  Ga18  1  0.339086  0.339086  0.982742  1
  Ga  Ga19  1  0.338290  0.983039  0.340382  1
  Ga  Ga20  1  0.983039  0.338290  0.340382  1
  Ga  Ga21  1  0.338290  0.338290  0.340382  1
  Os  Os22  1  0.001507  0.001507  0.995479  1
  Os  Os23  1  0.997999  0.997999  0.502929  1
  Os  Os24  1  0.501072  0.997999  0.502929  1
  Os  Os25  1  0.997999  0.501072  0.502929  1
  Os  Os26  1  0.501552  0.501552  0.998881  1
  Os  Os27  1  0.998016  0.501552  0.998881  1
  Os  Os28  1  0.501552  0.998016  0.998881  1
