# generated using pymatgen
data_Zr4Ga2Pd3Rh7
_symmetry_space_group_name_H-M   'P 1'
_cell_length_a   5.57357103
_cell_length_b   5.60111915
_cell_length_c   8.27377100
_cell_angle_alpha   90.00000000
_cell_angle_beta   90.00000000
_cell_angle_gamma   97.54232329
_symmetry_Int_Tables_number   1
_chemical_formula_structural   Zr4Ga2Pd3Rh7
_chemical_formula_sum   'Zr4 Ga2 Pd3 Rh7'
_cell_volume   256.05782889
_cell_formula_units_Z   1
loop_
 _symmetry_equiv_pos_site_id
 _symmetry_equiv_pos_as_xyz
  1  'x, y, z'
loop_
 _atom_site_type_symbol
 _atom_site_label
 _atom_site_symmetry_multiplicity
 _atom_site_fract_x
 _atom_site_fract_y
 _atom_site_fract_z
 _atom_site_occupancy
  Zr  Zr0  1  0.776298  0.230468  0.496603  1
  Zr  Zr1  1  0.223705  0.769587  0.003370  1
  Zr  Zr2  1  0.223705  0.769587  0.496630  1
  Zr  Zr3  1  0.776298  0.230468  0.003397  1
  Ga  Ga4  1  0.502068  0.501917  0.750000  1
  Ga  Ga5  1  0.497976  0.497927  0.250000  1
  Pd  Pd6  1  0.499999  0.000302  0.750000  1
  Pd  Pd7  1  0.000217  0.000221  0.250000  1
  Pd  Pd8  1  0.999734  0.999779  0.750000  1
  Rh  Rh9  1  0.720560  0.722278  0.000229  1
  Rh  Rh10  1  0.720560  0.722278  0.499771  1
  Rh  Rh11  1  0.279426  0.277722  0.998689  1
  Rh  Rh12  1  0.279426  0.277722  0.501311  1
  Rh  Rh13  1  0.500004  0.999734  0.250000  1
  Rh  Rh14  1  0.000311  0.500013  0.750000  1
  Rh  Rh15  1  0.999716  0.499994  0.250000  1
