# generated using pymatgen
data_Sc4CrSiTc6
_symmetry_space_group_name_H-M   'P 1'
_cell_length_a   5.18870502
_cell_length_b   5.18870417
_cell_length_c   8.50472600
_cell_angle_alpha   90.00000000
_cell_angle_beta   90.00000000
_cell_angle_gamma   119.60930566
_symmetry_Int_Tables_number   1
_chemical_formula_structural   Sc4CrSiTc6
_chemical_formula_sum   'Sc4 Cr1 Si1 Tc6'
_cell_volume   199.06971503
_cell_formula_units_Z   1
loop_
 _symmetry_equiv_pos_site_id
 _symmetry_equiv_pos_as_xyz
  1  'x, y, z'
loop_
 _atom_site_type_symbol
 _atom_site_label
 _atom_site_symmetry_multiplicity
 _atom_site_fract_x
 _atom_site_fract_y
 _atom_site_fract_z
 _atom_site_occupancy
  Sc  Sc0  1  0.333705  0.666295  0.437606  1
  Sc  Sc1  1  0.666187  0.333813  0.561864  1
  Sc  Sc2  1  0.666187  0.333813  0.938136  1
  Sc  Sc3  1  0.333705  0.666295  0.062394  1
  Cr  Cr4  1  0.830569  0.169431  0.250000  1
  Si  Si5  1  0.168679  0.831321  0.750000  1
  Tc  Tc6  1  0.995907  0.004093  0.498445  1
  Tc  Tc7  1  0.995907  0.004093  0.001555  1
  Tc  Tc8  1  0.828806  0.649919  0.250000  1
  Tc  Tc9  1  0.350081  0.171194  0.250000  1
  Tc  Tc10  1  0.176130  0.345863  0.750000  1
  Tc  Tc11  1  0.654137  0.823870  0.750000  1
