# generated using pymatgen
data_Ho4Co17Si4P8Ru3
_symmetry_space_group_name_H-M   'P 1'
_cell_length_a   3.68250000
_cell_length_b   10.37512914
_cell_length_c   11.80446777
_cell_angle_alpha   90.04209081
_cell_angle_beta   90.00000000
_cell_angle_gamma   90.00000000
_symmetry_Int_Tables_number   1
_chemical_formula_structural   Ho4Co17Si4P8Ru3
_chemical_formula_sum   'Ho4 Co17 Si4 P8 Ru3'
_cell_volume   451.00624994
_cell_formula_units_Z   1
loop_
 _symmetry_equiv_pos_site_id
 _symmetry_equiv_pos_as_xyz
  1  'x, y, z'
loop_
 _atom_site_type_symbol
 _atom_site_label
 _atom_site_symmetry_multiplicity
 _atom_site_fract_x
 _atom_site_fract_y
 _atom_site_fract_z
 _atom_site_occupancy
  Ho  Ho0  1  0.250000  0.579634  0.700610  1
  Ho  Ho1  1  0.250000  0.917517  0.203976  1
  Ho  Ho2  1  0.750000  0.413950  0.296259  1
  Ho  Ho3  1  0.750000  0.085337  0.795934  1
  Co  Co4  1  0.750000  0.216778  0.507422  1
  Co  Co5  1  0.250000  0.404961  0.487012  1
  Co  Co6  1  0.250000  0.092726  0.988240  1
  Co  Co7  1  0.750000  0.587175  0.509322  1
  Co  Co8  1  0.750000  0.912809  0.010120  1
  Co  Co9  1  0.250000  0.220277  0.175028  1
  Co  Co10  1  0.250000  0.278447  0.675050  1
  Co  Co11  1  0.750000  0.788117  0.825653  1
  Co  Co12  1  0.750000  0.712533  0.325806  1
  Co  Co13  1  0.250000  0.889948  0.702455  1
  Co  Co14  1  0.250000  0.610298  0.202821  1
  Co  Co15  1  0.750000  0.119721  0.300366  1
  Co  Co16  1  0.750000  0.383493  0.797137  1
  Co  Co17  1  0.250000  0.461628  0.933860  1
  Co  Co18  1  0.250000  0.039213  0.433515  1
  Co  Co19  1  0.750000  0.528195  0.070281  1
  Co  Co20  1  0.750000  0.974333  0.571039  1
  Si  Si21  1  0.750000  0.583577  0.887610  1
  Si  Si22  1  0.750000  0.917481  0.389232  1
  Si  Si23  1  0.750000  0.728427  0.132942  1
  Si  Si24  1  0.750000  0.772395  0.632141  1
  P  P25  1  0.250000  0.419526  0.114673  1
  P  P26  1  0.250000  0.081886  0.612914  1
  P  P27  1  0.250000  0.271302  0.864298  1
  P  P28  1  0.250000  0.229878  0.367671  1
  P  P29  1  0.250000  0.596244  0.391156  1
  P  P30  1  0.250000  0.903738  0.890252  1
  P  P31  1  0.750000  0.397410  0.607101  1
  P  P32  1  0.750000  0.097223  0.112021  1
  Ru  Ru33  1  0.250000  0.712170  0.989110  1
  Ru  Ru34  1  0.250000  0.788792  0.489497  1
  Ru  Ru35  1  0.750000  0.282864  0.007478  1
