# generated using pymatgen
data_LuZr2MnF15
_symmetry_space_group_name_H-M   'P 1'
_cell_length_a   8.01520337
_cell_length_b   8.01520374
_cell_length_c   8.03642266
_cell_angle_alpha   79.74413699
_cell_angle_beta   79.74413467
_cell_angle_gamma   99.75842725
_symmetry_Int_Tables_number   1
_chemical_formula_structural   LuZr2MnF15
_chemical_formula_sum   'Lu2 Zr4 Mn2 F30'
_cell_volume   489.01103845
_cell_formula_units_Z   2
loop_
 _symmetry_equiv_pos_site_id
 _symmetry_equiv_pos_as_xyz
  1  'x, y, z'
loop_
 _atom_site_type_symbol
 _atom_site_label
 _atom_site_symmetry_multiplicity
 _atom_site_fract_x
 _atom_site_fract_y
 _atom_site_fract_z
 _atom_site_occupancy
  Lu  Lu0  1  0.678800  0.321200  0.750000  1
  Lu  Lu1  1  0.321200  0.678800  0.250000  1
  Zr  Zr2  1  0.820825  0.750651  0.326225  1
  Zr  Zr3  1  0.249349  0.179175  0.173775  1
  Zr  Zr4  1  0.179175  0.249349  0.673775  1
  Zr  Zr5  1  0.750651  0.820825  0.826225  1
  Mn  Mn6  1  0.250484  0.749516  0.750000  1
  Mn  Mn7  1  0.749516  0.250484  0.250000  1
  F  F8  1  0.148764  0.188005  0.946202  1
  F  F9  1  0.689091  0.559119  0.847553  1
  F  F10  1  0.043615  0.653303  0.310736  1
  F  F11  1  0.653303  0.043615  0.810736  1
  F  F12  1  0.559119  0.689091  0.347553  1
  F  F13  1  0.188005  0.148764  0.446202  1
  F  F14  1  0.851236  0.811995  0.053798  1
  F  F15  1  0.310909  0.440881  0.152447  1
  F  F16  1  0.956385  0.346697  0.689264  1
  F  F17  1  0.346697  0.956385  0.189264  1
  F  F18  1  0.440881  0.310909  0.652447  1
  F  F19  1  0.811995  0.851236  0.553798  1
  F  F20  1  0.968169  0.031831  0.750000  1
  F  F21  1  0.541193  0.752488  0.030763  1
  F  F22  1  0.247512  0.458807  0.469237  1
  F  F23  1  0.458807  0.247512  0.969237  1
  F  F24  1  0.752488  0.541193  0.530763  1
  F  F25  1  0.031831  0.968169  0.250000  1
  F  F26  1  0.221612  0.730119  0.986112  1
  F  F27  1  0.229273  0.511215  0.781930  1
  F  F28  1  0.009626  0.719654  0.773280  1
  F  F29  1  0.719654  0.009626  0.273280  1
  F  F30  1  0.511215  0.229273  0.281930  1
  F  F31  1  0.730119  0.221612  0.486112  1
  F  F32  1  0.778388  0.269881  0.013888  1
  F  F33  1  0.770727  0.488785  0.218070  1
  F  F34  1  0.990374  0.280346  0.226720  1
  F  F35  1  0.280346  0.990374  0.726720  1
  F  F36  1  0.488785  0.770727  0.718070  1
  F  F37  1  0.269881  0.778388  0.513888  1
