# generated using pymatgen
data_Tm5Si12Tc3Ni16
_symmetry_space_group_name_H-M   'P 1'
_cell_length_a   12.27409000
_cell_length_b   12.27408972
_cell_length_c   3.78245200
_cell_angle_alpha   90.00000000
_cell_angle_beta   90.00000000
_cell_angle_gamma   119.99999537
_symmetry_Int_Tables_number   1
_chemical_formula_structural   Tm5Si12Tc3Ni16
_chemical_formula_sum   'Tm5 Si12 Tc3 Ni16'
_cell_volume   493.49490621
_cell_formula_units_Z   1
loop_
 _symmetry_equiv_pos_site_id
 _symmetry_equiv_pos_as_xyz
  1  'x, y, z'
loop_
 _atom_site_type_symbol
 _atom_site_label
 _atom_site_symmetry_multiplicity
 _atom_site_fract_x
 _atom_site_fract_y
 _atom_site_fract_z
 _atom_site_occupancy
  Tm  Tm0  1  0.666667  0.333333  0.000000  1
  Tm  Tm1  1  0.333333  0.666667  0.000000  1
  Tm  Tm2  1  0.187511  0.187511  0.500000  1
  Tm  Tm3  1  0.812489  0.000000  0.500000  1
  Tm  Tm4  1  0.000000  0.812489  0.500000  1
  Si  Si5  1  0.368563  0.368563  0.000000  1
  Si  Si6  1  0.631437  0.000000  0.000000  1
  Si  Si7  1  0.000000  0.631437  0.000000  1
  Si  Si8  1  0.837897  0.316022  0.500000  1
  Si  Si9  1  0.683978  0.521875  0.500000  1
  Si  Si10  1  0.478125  0.162103  0.500000  1
  Si  Si11  1  0.316022  0.837897  0.500000  1
  Si  Si12  1  0.521875  0.683978  0.500000  1
  Si  Si13  1  0.162103  0.478125  0.500000  1
  Si  Si14  1  0.819590  0.819590  0.000000  1
  Si  Si15  1  0.180410  0.000000  0.000000  1
  Si  Si16  1  0.000000  0.180410  0.000000  1
  Tc  Tc17  1  0.562853  0.562853  0.000000  1
  Tc  Tc18  1  0.437147  0.000000  0.000000  1
  Tc  Tc19  1  0.000000  0.437147  0.000000  1
  Ni  Ni20  1  0.817341  0.194366  0.000000  1
  Ni  Ni21  1  0.805634  0.622975  0.000000  1
  Ni  Ni22  1  0.377025  0.182659  0.000000  1
  Ni  Ni23  1  0.194366  0.817341  0.000000  1
  Ni  Ni24  1  0.622975  0.805634  0.000000  1
  Ni  Ni25  1  0.182659  0.377025  0.000000  1
  Ni  Ni26  1  0.644313  0.124547  0.500000  1
  Ni  Ni27  1  0.875453  0.519765  0.500000  1
  Ni  Ni28  1  0.480235  0.355687  0.500000  1
  Ni  Ni29  1  0.124547  0.644313  0.500000  1
  Ni  Ni30  1  0.519765  0.875453  0.500000  1
  Ni  Ni31  1  0.355687  0.480235  0.500000  1
  Ni  Ni32  1  0.723364  0.723364  0.500000  1
  Ni  Ni33  1  0.276636  0.000000  0.500000  1
  Ni  Ni34  1  0.000000  0.276636  0.500000  1
  Ni  Ni35  1  0.000000  0.000000  0.000000  1
