# generated using pymatgen
data_Sc12Si12OsPd3
_symmetry_space_group_name_H-M   'P 1'
_cell_length_a   3.91288400
_cell_length_b   10.50693862
_cell_length_c   11.83458800
_cell_angle_alpha   90.07340470
_cell_angle_beta   90.00000000
_cell_angle_gamma   90.00000000
_symmetry_Int_Tables_number   1
_chemical_formula_structural   Sc12Si12OsPd3
_chemical_formula_sum   'Sc12 Si12 Os1 Pd3'
_cell_volume   486.54829541
_cell_formula_units_Z   1
loop_
 _symmetry_equiv_pos_site_id
 _symmetry_equiv_pos_as_xyz
  1  'x, y, z'
loop_
 _atom_site_type_symbol
 _atom_site_label
 _atom_site_symmetry_multiplicity
 _atom_site_fract_x
 _atom_site_fract_y
 _atom_site_fract_z
 _atom_site_occupancy
  Sc  Sc0  1  0.250000  0.875786  0.015829  1
  Sc  Sc1  1  0.250000  0.624766  0.520273  1
  Sc  Sc2  1  0.750000  0.122818  0.979641  1
  Sc  Sc3  1  0.750000  0.374538  0.480265  1
  Sc  Sc4  1  0.250000  0.923763  0.605080  1
  Sc  Sc5  1  0.250000  0.576167  0.099559  1
  Sc  Sc6  1  0.750000  0.075924  0.399577  1
  Sc  Sc7  1  0.750000  0.423359  0.898732  1
  Sc  Sc8  1  0.250000  0.658778  0.799521  1
  Sc  Sc9  1  0.250000  0.841057  0.299989  1
  Sc  Sc10  1  0.750000  0.341022  0.200006  1
  Sc  Sc11  1  0.750000  0.158304  0.701196  1
  Si  Si12  1  0.250000  0.017066  0.823748  1
  Si  Si13  1  0.250000  0.477314  0.327336  1
  Si  Si14  1  0.750000  0.977785  0.175180  1
  Si  Si15  1  0.750000  0.522326  0.672024  1
  Si  Si16  1  0.250000  0.247892  0.846262  1
  Si  Si17  1  0.250000  0.250339  0.345358  1
  Si  Si18  1  0.750000  0.751527  0.153804  1
  Si  Si19  1  0.750000  0.750805  0.658210  1
  Si  Si20  1  0.250000  0.187290  0.542104  1
  Si  Si21  1  0.250000  0.312313  0.041143  1
  Si  Si22  1  0.750000  0.811716  0.459678  1
  Si  Si23  1  0.750000  0.695384  0.954805  1
  Os  Os24  1  0.750000  0.888095  0.822006  1
  Pd  Pd25  1  0.250000  0.385302  0.680360  1
  Pd  Pd26  1  0.250000  0.113652  0.178565  1
  Pd  Pd27  1  0.750000  0.614911  0.319751  1
