# generated using pymatgen
data_Dy8Si8Pd5Pt3
_symmetry_space_group_name_H-M   'P 1'
_cell_length_a   4.32480900
_cell_length_b   7.49461718
_cell_length_c   14.05169700
_cell_angle_alpha   90.03214691
_cell_angle_beta   90.00000000
_cell_angle_gamma   90.00000000
_symmetry_Int_Tables_number   1
_chemical_formula_structural   Dy8Si8Pd5Pt3
_chemical_formula_sum   'Dy8 Si8 Pd5 Pt3'
_cell_volume   455.45460183
_cell_formula_units_Z   1
loop_
 _symmetry_equiv_pos_site_id
 _symmetry_equiv_pos_as_xyz
  1  'x, y, z'
loop_
 _atom_site_type_symbol
 _atom_site_label
 _atom_site_symmetry_multiplicity
 _atom_site_fract_x
 _atom_site_fract_y
 _atom_site_fract_z
 _atom_site_occupancy
  Dy  Dy0  1  0.500000  0.793261  0.750072  1
  Dy  Dy1  1  0.000000  0.206761  0.750204  1
  Dy  Dy2  1  0.500000  0.791926  0.250645  1
  Dy  Dy3  1  0.000000  0.206881  0.249930  1
  Dy  Dy4  1  0.500000  0.709329  0.999731  1
  Dy  Dy5  1  0.000000  0.290766  0.499937  1
  Dy  Dy6  1  0.500000  0.702846  0.500231  1
  Dy  Dy7  1  0.000000  0.298516  0.000141  1
  Si  Si8  1  0.500000  0.406865  0.643460  1
  Si  Si9  1  0.000000  0.593179  0.856452  1
  Si  Si10  1  0.500000  0.407004  0.356380  1
  Si  Si11  1  0.000000  0.591245  0.144425  1
  Si  Si12  1  0.500000  0.091792  0.093413  1
  Si  Si13  1  0.000000  0.910533  0.407119  1
  Si  Si14  1  0.500000  0.088849  0.908744  1
  Si  Si15  1  0.000000  0.910788  0.592544  1
  Pd  Pd16  1  0.000000  0.923384  0.107208  1
  Pd  Pd17  1  0.500000  0.421709  0.156744  1
  Pd  Pd18  1  0.000000  0.579217  0.342739  1
  Pd  Pd19  1  0.500000  0.421188  0.843354  1
  Pd  Pd20  1  0.000000  0.578608  0.657083  1
  Pt  Pt21  1  0.500000  0.075276  0.609397  1
  Pt  Pt22  1  0.000000  0.924869  0.890005  1
  Pt  Pt23  1  0.500000  0.075207  0.390043  1
