# generated using pymatgen
data_Nd12Si3AsBr12
_symmetry_space_group_name_H-M   'P 1'
_cell_length_a   10.45660403
_cell_length_b   10.45930276
_cell_length_c   10.45910971
_cell_angle_alpha   109.60783673
_cell_angle_beta   109.58801654
_cell_angle_gamma   109.58894592
_symmetry_Int_Tables_number   1
_chemical_formula_structural   Nd12Si3AsBr12
_chemical_formula_sum   'Nd12 Si3 As1 Br12'
_cell_volume   876.51819670
_cell_formula_units_Z   1
loop_
 _symmetry_equiv_pos_site_id
 _symmetry_equiv_pos_as_xyz
  1  'x, y, z'
loop_
 _atom_site_type_symbol
 _atom_site_label
 _atom_site_symmetry_multiplicity
 _atom_site_fract_x
 _atom_site_fract_y
 _atom_site_fract_z
 _atom_site_occupancy
  Nd  Nd0  1  0.475138  0.489841  0.235662  1
  Nd  Nd1  1  0.750006  0.237585  0.262422  1
  Nd  Nd2  1  0.750011  0.011974  0.488037  1
  Nd  Nd3  1  0.235658  0.475161  0.489850  1
  Nd  Nd4  1  0.262418  0.750033  0.237578  1
  Nd  Nd5  1  0.024860  0.264331  0.010147  1
  Nd  Nd6  1  0.010109  0.024784  0.264323  1
  Nd  Nd7  1  0.488104  0.750051  0.011991  1
  Nd  Nd8  1  0.489895  0.235687  0.475218  1
  Nd  Nd9  1  0.011897  0.488016  0.749952  1
  Nd  Nd10  1  0.264336  0.010149  0.024837  1
  Nd  Nd11  1  0.237571  0.262426  0.749970  1
  Si  Si12  1  0.500418  0.999613  0.249999  1
  Si  Si13  1  0.999581  0.250007  0.500397  1
  Si  Si14  1  0.249997  0.500374  0.999631  1
  As  As15  1  0.249996  0.250002  0.249991  1
  Br  Br16  1  0.250004  0.754657  0.745353  1
  Br  Br17  1  0.507318  0.503515  0.752853  1
  Br  Br18  1  0.992676  0.747155  0.996481  1
  Br  Br19  1  0.745311  0.249984  0.754651  1
  Br  Br20  1  0.996518  0.992674  0.747131  1
  Br  Br21  1  0.249996  0.996917  0.503083  1
  Br  Br22  1  0.752823  0.507351  0.503552  1
  Br  Br23  1  0.503079  0.249962  0.996890  1
  Br  Br24  1  0.754679  0.745356  0.250036  1
  Br  Br25  1  0.747162  0.996414  0.992611  1
  Br  Br26  1  0.996927  0.503120  0.250033  1
  Br  Br27  1  0.503512  0.752860  0.507323  1
