# generated using pymatgen
data_Tb2In(GaPt)3
_symmetry_space_group_name_H-M   'P 1'
_cell_length_a   6.77956458
_cell_length_b   6.77956439
_cell_length_c   4.21481900
_cell_angle_alpha   90.00000000
_cell_angle_beta   90.00000000
_cell_angle_gamma   115.97518989
_symmetry_Int_Tables_number   1
_chemical_formula_structural   Tb2In(GaPt)3
_chemical_formula_sum   'Tb2 In1 Ga3 Pt3'
_cell_volume   174.15437115
_cell_formula_units_Z   1
loop_
 _symmetry_equiv_pos_site_id
 _symmetry_equiv_pos_as_xyz
  1  'x, y, z'
loop_
 _atom_site_type_symbol
 _atom_site_label
 _atom_site_symmetry_multiplicity
 _atom_site_fract_x
 _atom_site_fract_y
 _atom_site_fract_z
 _atom_site_occupancy
  Tb  Tb0  1  0.577503  0.993500  0.500000  1
  Tb  Tb1  1  0.993500  0.577503  0.500000  1
  In  In2  1  0.408423  0.408423  0.500000  1
  Ga  Ga3  1  0.775653  0.775653  0.000000  1
  Ga  Ga4  1  0.246350  0.984902  0.000000  1
  Ga  Ga5  1  0.984902  0.246350  0.000000  1
  Pt  Pt6  1  0.646961  0.346048  0.000000  1
  Pt  Pt7  1  0.346048  0.646961  0.000000  1
  Pt  Pt8  1  0.020660  0.020660  0.500000  1
