# generated using pymatgen
data_LuPu3(AsSe)4
_symmetry_space_group_name_H-M   'P 1'
_cell_length_a   3.95088800
_cell_length_b   3.95181007
_cell_length_c   17.12675865
_cell_angle_alpha   89.98527494
_cell_angle_beta   90.00000000
_cell_angle_gamma   90.00000000
_symmetry_Int_Tables_number   1
_chemical_formula_structural   LuPu3(AsSe)4
_chemical_formula_sum   'Lu1 Pu3 As4 Se4'
_cell_volume   267.40279658
_cell_formula_units_Z   1
loop_
 _symmetry_equiv_pos_site_id
 _symmetry_equiv_pos_as_xyz
  1  'x, y, z'
loop_
 _atom_site_type_symbol
 _atom_site_label
 _atom_site_symmetry_multiplicity
 _atom_site_fract_x
 _atom_site_fract_y
 _atom_site_fract_z
 _atom_site_occupancy
  Lu  Lu0  1  0.250000  0.744166  0.637085  1
  Pu  Pu1  1  0.750000  0.245582  0.862228  1
  Pu  Pu2  1  0.750000  0.255650  0.361478  1
  Pu  Pu3  1  0.250000  0.754383  0.138535  1
  As  As4  1  0.250000  0.241609  0.500023  1
  As  As5  1  0.250000  0.255304  0.000855  1
  As  As6  1  0.750000  0.758342  0.499927  1
  As  As7  1  0.750000  0.744859  0.000772  1
  Se  Se8  1  0.750000  0.245290  0.683428  1
  Se  Se9  1  0.750000  0.254038  0.181289  1
  Se  Se10  1  0.250000  0.755035  0.318403  1
  Se  Se11  1  0.250000  0.745743  0.815977  1
