# generated using pymatgen
data_TbEu(Al3Pt)3
_symmetry_space_group_name_H-M   'P 1'
_cell_length_a   7.65305803
_cell_length_b   7.65495715
_cell_length_c   9.53328500
_cell_angle_alpha   90.00000000
_cell_angle_beta   90.00000000
_cell_angle_gamma   119.69427811
_symmetry_Int_Tables_number   1
_chemical_formula_structural   TbEu(Al3Pt)3
_chemical_formula_sum   'Tb2 Eu2 Al18 Pt6'
_cell_volume   485.15517037
_cell_formula_units_Z   2
loop_
 _symmetry_equiv_pos_site_id
 _symmetry_equiv_pos_as_xyz
  1  'x, y, z'
loop_
 _atom_site_type_symbol
 _atom_site_label
 _atom_site_symmetry_multiplicity
 _atom_site_fract_x
 _atom_site_fract_y
 _atom_site_fract_z
 _atom_site_occupancy
  Tb  Tb0  1  0.669348  0.994989  0.250000  1
  Tb  Tb1  1  0.330652  0.005011  0.750000  1
  Eu  Eu2  1  0.994714  0.667953  0.250000  1
  Eu  Eu3  1  0.005286  0.332047  0.750000  1
  Al  Al4  1  0.129994  0.130898  0.250000  1
  Al  Al5  1  0.870006  0.869102  0.750000  1
  Al  Al6  1  0.000969  0.334627  0.075722  1
  Al  Al7  1  0.999031  0.665373  0.924278  1
  Al  Al8  1  0.999031  0.665373  0.575722  1
  Al  Al9  1  0.334322  0.999876  0.424458  1
  Al  Al10  1  0.000969  0.334627  0.424278  1
  Al  Al11  1  0.665678  0.000124  0.575542  1
  Al  Al12  1  0.665678  0.000124  0.924458  1
  Al  Al13  1  0.334322  0.999876  0.075542  1
  Al  Al14  1  0.333168  0.333077  0.556952  1
  Al  Al15  1  0.666832  0.666923  0.443048  1
  Al  Al16  1  0.666832  0.666923  0.056952  1
  Al  Al17  1  0.333168  0.333077  0.943048  1
  Al  Al18  1  0.342750  0.548039  0.250000  1
  Al  Al19  1  0.657250  0.451961  0.750000  1
  Al  Al20  1  0.543938  0.336576  0.250000  1
  Al  Al21  1  0.456062  0.663424  0.750000  1
  Pt  Pt22  1  0.669289  0.327212  0.000229  1
  Pt  Pt23  1  0.330711  0.672788  0.999771  1
  Pt  Pt24  1  0.330711  0.672788  0.500229  1
  Pt  Pt25  1  0.669289  0.327212  0.499771  1
  Pt  Pt26  1  0.000000  0.000000  0.000000  1
  Pt  Pt27  1  0.000000  0.000000  0.500000  1
