# generated using pymatgen
data_Ca3Cd(Bi2O7)2
_symmetry_space_group_name_H-M   'P 1'
_cell_length_a   7.59993363
_cell_length_b   7.68751179
_cell_length_c   7.68751178
_cell_angle_alpha   120.02541213
_cell_angle_beta   120.09118273
_cell_angle_gamma   90.22895555
_symmetry_Int_Tables_number   1
_chemical_formula_structural   Ca3Cd(Bi2O7)2
_chemical_formula_sum   'Ca3 Cd1 Bi4 O14'
_cell_volume   316.38541775
_cell_formula_units_Z   1
loop_
 _symmetry_equiv_pos_site_id
 _symmetry_equiv_pos_as_xyz
  1  'x, y, z'
loop_
 _atom_site_type_symbol
 _atom_site_label
 _atom_site_symmetry_multiplicity
 _atom_site_fract_x
 _atom_site_fract_y
 _atom_site_fract_z
 _atom_site_occupancy
  Ca  Ca0  1  0.000000  0.000000  0.500000  1
  Ca  Ca1  1  0.000000  0.500000  0.000000  1
  Ca  Ca2  1  0.000000  0.000000  0.000000  1
  Cd  Cd3  1  0.500000  0.500000  0.000000  1
  Bi  Bi4  1  0.500000  0.000000  0.000000  1
  Bi  Bi5  1  0.500000  0.500000  0.500000  1
  Bi  Bi6  1  0.500000  0.000000  0.500000  1
  Bi  Bi7  1  0.000000  0.500000  0.500000  1
  O  O8  1  0.433909  0.106207  0.775497  1
  O  O9  1  0.566091  0.341588  0.672296  1
  O  O10  1  0.163577  0.407839  0.328405  1
  O  O11  1  0.836423  0.164829  0.244263  1
  O  O12  1  0.566091  0.893793  0.224503  1
  O  O13  1  0.433909  0.658412  0.327704  1
  O  O14  1  0.836423  0.592161  0.671595  1
  O  O15  1  0.163577  0.835171  0.755737  1
  O  O16  1  0.629870  0.775604  0.854266  1
  O  O17  1  0.370130  0.224396  0.145734  1
  O  O18  1  0.159780  0.898699  0.261080  1
  O  O19  1  0.840220  0.101301  0.738920  1
  O  O20  1  0.848248  0.594133  0.254114  1
  O  O21  1  0.151752  0.405867  0.745886  1
