# generated using pymatgen
data_Tb12Y8CoBi8Ru3
_symmetry_space_group_name_H-M   'P 1'
_cell_length_a   8.02707279
_cell_length_b   8.98615100
_cell_length_c   12.50213001
_cell_angle_alpha   90.00000000
_cell_angle_beta   90.25397444
_cell_angle_gamma   90.00000000
_symmetry_Int_Tables_number   1
_chemical_formula_structural   Tb12Y8CoBi8Ru3
_chemical_formula_sum   'Tb12 Y8 Co1 Bi8 Ru3'
_cell_volume   901.80088563
_cell_formula_units_Z   1
loop_
 _symmetry_equiv_pos_site_id
 _symmetry_equiv_pos_as_xyz
  1  'x, y, z'
loop_
 _atom_site_type_symbol
 _atom_site_label
 _atom_site_symmetry_multiplicity
 _atom_site_fract_x
 _atom_site_fract_y
 _atom_site_fract_z
 _atom_site_occupancy
  Tb  Tb0  1  0.622137  0.250000  0.306000  1
  Tb  Tb1  1  0.876928  0.250000  0.806948  1
  Tb  Tb2  1  0.054125  0.250000  0.496188  1
  Tb  Tb3  1  0.448415  0.250000  0.996870  1
  Tb  Tb4  1  0.676186  0.040631  0.564076  1
  Tb  Tb5  1  0.323542  0.958026  0.435961  1
  Tb  Tb6  1  0.177043  0.957451  0.935808  1
  Tb  Tb7  1  0.323542  0.541974  0.435961  1
  Tb  Tb8  1  0.824753  0.035579  0.062732  1
  Tb  Tb9  1  0.676186  0.459369  0.564076  1
  Tb  Tb10  1  0.824753  0.464421  0.062732  1
  Tb  Tb11  1  0.177043  0.542549  0.935808  1
  Y  Y12  1  0.844898  0.750000  0.798434  1
  Y  Y13  1  0.156272  0.250000  0.206368  1
  Y  Y14  1  0.343718  0.250000  0.707249  1
  Y  Y15  1  0.655185  0.750000  0.293890  1
  Y  Y16  1  0.376295  0.750000  0.695269  1
  Y  Y17  1  0.120732  0.750000  0.190330  1
  Y  Y18  1  0.946597  0.750000  0.504324  1
  Y  Y19  1  0.550161  0.750000  0.003161  1
  Co  Co20  1  0.931940  0.750000  0.010025  1
  Bi  Bi21  1  0.571858  0.492561  0.827752  1
  Bi  Bi22  1  0.428462  0.508391  0.172168  1
  Bi  Bi23  1  0.070494  0.508287  0.673399  1
  Bi  Bi24  1  0.428462  0.991609  0.172168  1
  Bi  Bi25  1  0.929203  0.492900  0.326516  1
  Bi  Bi26  1  0.571858  0.007439  0.827752  1
  Bi  Bi27  1  0.929203  0.007100  0.326516  1
  Bi  Bi28  1  0.070494  0.991713  0.673399  1
  Ru  Ru29  1  0.572447  0.750000  0.511832  1
  Ru  Ru30  1  0.425415  0.250000  0.487750  1
  Ru  Ru31  1  0.071651  0.250000  0.988535  1
