# generated using pymatgen
data_TaMnNb2(PO4)6
_symmetry_space_group_name_H-M   'P 1'
_cell_length_a   8.71672203
_cell_length_b   8.71361014
_cell_length_c   9.09147306
_cell_angle_alpha   91.03686331
_cell_angle_beta   118.73330784
_cell_angle_gamma   119.47733608
_symmetry_Int_Tables_number   1
_chemical_formula_structural   TaMnNb2(PO4)6
_chemical_formula_sum   'Ta1 Mn1 Nb2 P6 O24'
_cell_volume   496.92827147
_cell_formula_units_Z   1
loop_
 _symmetry_equiv_pos_site_id
 _symmetry_equiv_pos_as_xyz
  1  'x, y, z'
loop_
 _atom_site_type_symbol
 _atom_site_label
 _atom_site_symmetry_multiplicity
 _atom_site_fract_x
 _atom_site_fract_y
 _atom_site_fract_z
 _atom_site_occupancy
  Ta  Ta0  1  0.217890  0.859265  0.076133  1
  Mn  Mn1  1  0.788162  0.641352  0.433135  1
  Nb  Nb2  1  0.215763  0.357794  0.572968  1
  Nb  Nb3  1  0.786564  0.141692  0.928394  1
  P  P4  1  0.993702  0.961674  0.246887  1
  P  P5  1  0.291222  0.535637  0.256305  1
  P  P6  1  0.275022  0.750748  0.743515  1
  P  P7  1  0.719030  0.257303  0.255501  1
  P  P8  1  0.719683  0.467129  0.747255  1
  P  P9  1  0.997739  0.024903  0.745573  1
  O  O10  1  0.288068  0.709461  0.219308  1
  O  O11  1  0.868063  0.998333  0.077247  1
  O  O12  1  0.844325  0.848583  0.585003  1
  O  O13  1  0.846165  0.798069  0.270573  1
  O  O14  1  0.146526  0.936255  0.222565  1
  O  O15  1  0.482816  0.552449  0.281133  1
  O  O16  1  0.095312  0.737662  0.578572  1
  O  O17  1  0.914895  0.640534  0.916549  1
  O  O18  1  0.275893  0.780606  0.912384  1
  O  O19  1  0.489121  0.916832  0.780412  1
  O  O20  1  0.727348  0.474439  0.586902  1
  O  O21  1  0.720494  0.431020  0.274596  1
  O  O22  1  0.275128  0.573135  0.722239  1
  O  O23  1  0.271908  0.511955  0.417036  1
  O  O24  1  0.512808  0.081405  0.223615  1
  O  O25  1  0.721457  0.216389  0.090492  1
  O  O26  1  0.085564  0.364871  0.088346  1
  O  O27  1  0.908930  0.271534  0.419979  1
  O  O28  1  0.517598  0.446672  0.718683  1
  O  O29  1  0.863179  0.073036  0.776433  1
  O  O30  1  0.145559  0.196112  0.714687  1
  O  O31  1  0.145057  0.146693  0.407328  1
  O  O32  1  0.141130  0.004956  0.918252  1
  O  O33  1  0.707883  0.291501  0.792000  1
