# generated using pymatgen
data_HfScMn3Re
_symmetry_space_group_name_H-M   'P 1'
_cell_length_a   5.02073800
_cell_length_b   5.02073830
_cell_length_c   8.16620300
_cell_angle_alpha   90.00000000
_cell_angle_beta   90.00000000
_cell_angle_gamma   119.99999802
_symmetry_Int_Tables_number   1
_chemical_formula_structural   HfScMn3Re
_chemical_formula_sum   'Hf2 Sc2 Mn6 Re2'
_cell_volume   178.27315717
_cell_formula_units_Z   2
loop_
 _symmetry_equiv_pos_site_id
 _symmetry_equiv_pos_as_xyz
  1  'x, y, z'
loop_
 _atom_site_type_symbol
 _atom_site_label
 _atom_site_symmetry_multiplicity
 _atom_site_fract_x
 _atom_site_fract_y
 _atom_site_fract_z
 _atom_site_occupancy
  Hf  Hf0  1  0.666667  0.333333  0.936906  1
  Hf  Hf1  1  0.333333  0.666667  0.436906  1
  Sc  Sc2  1  0.333333  0.666667  0.063504  1
  Sc  Sc3  1  0.666667  0.333333  0.563504  1
  Mn  Mn4  1  0.825111  0.650224  0.249860  1
  Mn  Mn5  1  0.174889  0.825111  0.749860  1
  Mn  Mn6  1  0.650224  0.825111  0.749860  1
  Mn  Mn7  1  0.349776  0.174889  0.249860  1
  Mn  Mn8  1  0.825111  0.174889  0.249860  1
  Mn  Mn9  1  0.174889  0.349776  0.749860  1
  Re  Re10  1  0.000000  0.000000  0.000011  1
  Re  Re11  1  0.000000  0.000000  0.500011  1
