# generated using pymatgen
data_Tl5B(SO4)4
_symmetry_space_group_name_H-M   'P 1'
_cell_length_a   10.10268100
_cell_length_b   10.10268100
_cell_length_c   16.52966300
_cell_angle_alpha   90.00000000
_cell_angle_beta   90.00000000
_cell_angle_gamma   90.00000000
_symmetry_Int_Tables_number   1
_chemical_formula_structural   Tl5B(SO4)4
_chemical_formula_sum   'Tl20 B4 S16 O64'
_cell_volume   1687.08622518
_cell_formula_units_Z   4
loop_
 _symmetry_equiv_pos_site_id
 _symmetry_equiv_pos_as_xyz
  1  'x, y, z'
loop_
 _atom_site_type_symbol
 _atom_site_label
 _atom_site_symmetry_multiplicity
 _atom_site_fract_x
 _atom_site_fract_y
 _atom_site_fract_z
 _atom_site_occupancy
  Tl  Tl0  1  0.063102  0.243524  0.010823  1
  Tl  Tl1  1  0.936898  0.756476  0.510823  1
  Tl  Tl2  1  0.243524  0.936898  0.760823  1
  Tl  Tl3  1  0.756476  0.063102  0.260823  1
  Tl  Tl4  1  0.687312  0.151321  0.832988  1
  Tl  Tl5  1  0.312688  0.848679  0.332988  1
  Tl  Tl6  1  0.151321  0.312688  0.582988  1
  Tl  Tl7  1  0.848679  0.687312  0.082988  1
  Tl  Tl8  1  0.356933  0.418536  0.802217  1
  Tl  Tl9  1  0.643067  0.581464  0.302217  1
  Tl  Tl10  1  0.418536  0.643067  0.552217  1
  Tl  Tl11  1  0.581464  0.356933  0.052217  1
  Tl  Tl12  1  0.915203  0.837964  0.858162  1
  Tl  Tl13  1  0.084797  0.162036  0.358162  1
  Tl  Tl14  1  0.837964  0.084797  0.608162  1
  Tl  Tl15  1  0.162036  0.915203  0.108162  1
  Tl  Tl16  1  0.502845  0.756393  0.893591  1
  Tl  Tl17  1  0.497155  0.243607  0.393591  1
  Tl  Tl18  1  0.756393  0.497155  0.643591  1
  Tl  Tl19  1  0.243607  0.502845  0.143591  1
  B  B20  1  0.000293  0.490139  0.831750  1
  B  B21  1  0.999707  0.509861  0.331750  1
  B  B22  1  0.490139  0.999707  0.581750  1
  B  B23  1  0.509861  0.000293  0.081750  1
  S  S24  1  0.022404  0.228425  0.794115  1
  S  S25  1  0.977596  0.771575  0.294115  1
  S  S26  1  0.228425  0.977596  0.544115  1
  S  S27  1  0.771575  0.022404  0.044115  1
  S  S28  1  0.739128  0.513607  0.865885  1
  S  S29  1  0.260872  0.486393  0.365885  1
  S  S30  1  0.513607  0.260872  0.615885  1
  S  S31  1  0.486393  0.739128  0.115885  1
  S  S32  1  0.161173  0.614061  0.943117  1
  S  S33  1  0.838827  0.385939  0.443117  1
  S  S34  1  0.614061  0.838827  0.693117  1
  S  S35  1  0.385939  0.161173  0.193117  1
  S  S36  1  0.380795  0.098908  0.943089  1
  S  S37  1  0.619205  0.901092  0.443089  1
  S  S38  1  0.098908  0.619205  0.693089  1
  S  S39  1  0.901092  0.380795  0.193089  1
  O  O40  1  0.021685  0.350244  0.855863  1
  O  O41  1  0.978315  0.649756  0.355863  1
  O  O42  1  0.350244  0.978315  0.605863  1
  O  O43  1  0.649756  0.021685  0.105863  1
  O  O44  1  0.922653  0.256379  0.731528  1
  O  O45  1  0.077347  0.743621  0.231528  1
  O  O46  1  0.256379  0.077347  0.481528  1
  O  O47  1  0.743621  0.922653  0.981528  1
  O  O48  1  0.986381  0.116014  0.846296  1
  O  O49  1  0.013619  0.883986  0.346296  1
  O  O50  1  0.116014  0.013619  0.596296  1
  O  O51  1  0.883986  0.986381  0.096296  1
  O  O52  1  0.157086  0.217868  0.761524  1
  O  O53  1  0.842914  0.782132  0.261524  1
  O  O54  1  0.217868  0.842914  0.511524  1
  O  O55  1  0.782132  0.157086  0.011524  1
  O  O56  1  0.863170  0.518126  0.806064  1
  O  O57  1  0.136830  0.481874  0.306064  1
  O  O58  1  0.518126  0.136830  0.556064  1
  O  O59  1  0.481874  0.863170  0.056064  1
  O  O60  1  0.626954  0.518442  0.809729  1
  O  O61  1  0.373046  0.481558  0.309729  1
  O  O62  1  0.518442  0.373046  0.559729  1
  O  O63  1  0.481558  0.626954  0.059729  1
  O  O64  1  0.747117  0.390942  0.912896  1
  O  O65  1  0.252883  0.609058  0.412896  1
  O  O66  1  0.390942  0.252883  0.662896  1
  O  O67  1  0.609058  0.747117  0.162896  1
  O  O68  1  0.747439  0.632177  0.917738  1
  O  O69  1  0.252561  0.367823  0.417738  1
  O  O70  1  0.632177  0.252561  0.667738  1
  O  O71  1  0.367823  0.747439  0.167738  1
  O  O72  1  0.023174  0.573933  0.903565  1
  O  O73  1  0.976826  0.426067  0.403565  1
  O  O74  1  0.573933  0.976826  0.653565  1
  O  O75  1  0.426067  0.023174  0.153565  1
  O  O76  1  0.230801  0.695246  0.883178  1
  O  O77  1  0.769199  0.304754  0.383178  1
  O  O78  1  0.695246  0.769199  0.633178  1
  O  O79  1  0.304754  0.230801  0.133178  1
  O  O80  1  0.119083  0.689751  0.014931  1
  O  O81  1  0.880917  0.310249  0.514931  1
  O  O82  1  0.689751  0.880917  0.764931  1
  O  O83  1  0.310249  0.119083  0.264931  1
  O  O84  1  0.230177  0.490594  0.963153  1
  O  O85  1  0.769823  0.509406  0.463153  1
  O  O86  1  0.490594  0.769823  0.713153  1
  O  O87  1  0.509406  0.230177  0.213153  1
  O  O88  1  0.257222  0.036396  0.969500  1
  O  O89  1  0.742778  0.963604  0.469500  1
  O  O90  1  0.036396  0.742778  0.719500  1
  O  O91  1  0.963604  0.257222  0.219500  1
  O  O92  1  0.486060  0.091751  0.014201  1
  O  O93  1  0.513940  0.908249  0.514201  1
  O  O94  1  0.091751  0.513940  0.764201  1
  O  O95  1  0.908249  0.486060  0.264201  1
  O  O96  1  0.370721  0.241191  0.928493  1
  O  O97  1  0.629279  0.758809  0.428493  1
  O  O98  1  0.241191  0.629279  0.678493  1
  O  O99  1  0.758809  0.370721  0.178493  1
  O  O100  1  0.441635  0.027653  0.874355  1
  O  O101  1  0.558365  0.972347  0.374355  1
  O  O102  1  0.027653  0.558365  0.624355  1
  O  O103  1  0.972347  0.441635  0.124355  1
