# generated using pymatgen
data_NaCu2F6
_symmetry_space_group_name_H-M   'P 1'
_cell_length_a   5.30728080
_cell_length_b   5.30728037
_cell_length_c   9.61246245
_cell_angle_alpha   90.21061757
_cell_angle_beta   90.21061770
_cell_angle_gamma   121.82573779
_symmetry_Int_Tables_number   1
_chemical_formula_structural   NaCu2F6
_chemical_formula_sum   'Na2 Cu4 F12'
_cell_volume   230.04320612
_cell_formula_units_Z   2
loop_
 _symmetry_equiv_pos_site_id
 _symmetry_equiv_pos_as_xyz
  1  'x, y, z'
loop_
 _atom_site_type_symbol
 _atom_site_label
 _atom_site_symmetry_multiplicity
 _atom_site_fract_x
 _atom_site_fract_y
 _atom_site_fract_z
 _atom_site_occupancy
  Na  Na0  1  0.000276  0.999724  0.750000  1
  Na  Na1  1  0.999724  0.000276  0.250000  1
  Cu  Cu2  1  0.332536  0.666856  0.500063  1
  Cu  Cu3  1  0.333144  0.667464  0.999937  1
  Cu  Cu4  1  0.666856  0.332536  0.000063  1
  Cu  Cu5  1  0.667464  0.333144  0.499937  1
  F  F6  1  0.007514  0.368810  0.389590  1
  F  F7  1  0.008839  0.370543  0.888749  1
  F  F8  1  0.360039  0.361686  0.107010  1
  F  F9  1  0.638314  0.639961  0.392990  1
  F  F10  1  0.370543  0.008839  0.388749  1
  F  F11  1  0.368810  0.007514  0.889590  1
  F  F12  1  0.631190  0.992486  0.110410  1
  F  F13  1  0.629457  0.991161  0.611251  1
  F  F14  1  0.361686  0.360039  0.607010  1
  F  F15  1  0.639961  0.638314  0.892990  1
  F  F16  1  0.991161  0.629457  0.111251  1
  F  F17  1  0.992486  0.631190  0.610410  1
