# generated using pymatgen
data_Dy2LuPaPt4
_symmetry_space_group_name_H-M   'P 1'
_cell_length_a   4.53625900
_cell_length_b   5.58414921
_cell_length_c   6.95992451
_cell_angle_alpha   89.44371347
_cell_angle_beta   90.00000000
_cell_angle_gamma   90.00000000
_symmetry_Int_Tables_number   1
_chemical_formula_structural   Dy2LuPaPt4
_chemical_formula_sum   'Dy2 Lu1 Pa1 Pt4'
_cell_volume   176.29456214
_cell_formula_units_Z   1
loop_
 _symmetry_equiv_pos_site_id
 _symmetry_equiv_pos_as_xyz
  1  'x, y, z'
loop_
 _atom_site_type_symbol
 _atom_site_label
 _atom_site_symmetry_multiplicity
 _atom_site_fract_x
 _atom_site_fract_y
 _atom_site_fract_z
 _atom_site_occupancy
  Dy  Dy0  1  0.750000  0.354045  0.815064  1
  Dy  Dy1  1  0.250000  0.858317  0.682801  1
  Lu  Lu2  1  0.750000  0.144992  0.320503  1
  Pa  Pa3  1  0.250000  0.644854  0.183095  1
  Pt  Pt4  1  0.250000  0.161197  0.055285  1
  Pt  Pt5  1  0.750000  0.833589  0.964079  1
  Pt  Pt6  1  0.750000  0.658917  0.445064  1
  Pt  Pt7  1  0.250000  0.344088  0.534110  1
