# generated using pymatgen
data_Na20Si4As5P7
_symmetry_space_group_name_H-M   'P 1'
_cell_length_a   7.43841063
_cell_length_b   8.11355997
_cell_length_c   15.52112440
_cell_angle_alpha   59.28105183
_cell_angle_beta   89.96197289
_cell_angle_gamma   90.09719594
_symmetry_Int_Tables_number   1
_chemical_formula_structural   Na20Si4As5P7
_chemical_formula_sum   'Na20 Si4 As5 P7'
_cell_volume   805.28943183
_cell_formula_units_Z   1
loop_
 _symmetry_equiv_pos_site_id
 _symmetry_equiv_pos_as_xyz
  1  'x, y, z'
loop_
 _atom_site_type_symbol
 _atom_site_label
 _atom_site_symmetry_multiplicity
 _atom_site_fract_x
 _atom_site_fract_y
 _atom_site_fract_z
 _atom_site_occupancy
  Na  Na0  1  0.507122  0.556602  0.256028  1
  Na  Na1  1  0.009862  0.441594  0.243051  1
  Na  Na2  1  0.490215  0.441130  0.743648  1
  Na  Na3  1  0.989974  0.558567  0.756785  1
  Na  Na4  1  0.982014  0.912820  0.413094  1
  Na  Na5  1  0.481256  0.088202  0.087068  1
  Na  Na6  1  0.019042  0.086711  0.587923  1
  Na  Na7  1  0.518782  0.911947  0.912770  1
  Na  Na8  1  0.527753  0.256850  0.582668  1
  Na  Na9  1  0.027960  0.742504  0.917582  1
  Na  Na10  1  0.469788  0.742832  0.418559  1
  Na  Na11  1  0.971750  0.256580  0.082754  1
  Na  Na12  1  0.156777  0.838106  0.242720  1
  Na  Na13  1  0.651106  0.167089  0.256421  1
  Na  Na14  1  0.847320  0.162021  0.757109  1
  Na  Na15  1  0.347473  0.837513  0.743281  1
  Na  Na16  1  0.334684  0.162389  0.416366  1
  Na  Na17  1  0.835566  0.837956  0.081212  1
  Na  Na18  1  0.665135  0.836915  0.583916  1
  Na  Na19  1  0.165220  0.162786  0.916318  1
  Si  Si20  1  0.634707  0.519014  0.916813  1
  Si  Si21  1  0.135257  0.480387  0.583685  1
  Si  Si22  1  0.365331  0.481359  0.082883  1
  Si  Si23  1  0.867626  0.511978  0.420311  1
  As  As24  1  0.740181  0.236735  0.421297  1
  As  As25  1  0.239863  0.761268  0.079015  1
  As  As26  1  0.259781  0.761298  0.579526  1
  As  As27  1  0.759635  0.239488  0.920049  1
  As  As28  1  0.767866  0.804520  0.277214  1
  P  P29  1  0.270942  0.204921  0.218745  1
  P  P30  1  0.229136  0.203521  0.718765  1
  P  P31  1  0.728966  0.796504  0.781110  1
  P  P32  1  0.322333  0.481470  0.935043  1
  P  P33  1  0.822955  0.517396  0.565968  1
  P  P34  1  0.677788  0.519210  0.064437  1
  P  P35  1  0.178834  0.479816  0.435866  1
