# generated using pymatgen
data_ErZr2ScIr2
_symmetry_space_group_name_H-M   'P 1'
_cell_length_a   4.51917600
_cell_length_b   6.98133100
_cell_length_c   8.24636900
_cell_angle_alpha   90.00000000
_cell_angle_beta   90.00000000
_cell_angle_gamma   90.00000000
_symmetry_Int_Tables_number   1
_chemical_formula_structural   ErZr2ScIr2
_chemical_formula_sum   'Er2 Zr4 Sc2 Ir4'
_cell_volume   260.17181635
_cell_formula_units_Z   2
loop_
 _symmetry_equiv_pos_site_id
 _symmetry_equiv_pos_as_xyz
  1  'x, y, z'
loop_
 _atom_site_type_symbol
 _atom_site_label
 _atom_site_symmetry_multiplicity
 _atom_site_fract_x
 _atom_site_fract_y
 _atom_site_fract_z
 _atom_site_occupancy
  Er  Er0  1  0.750000  0.011775  0.674717  1
  Er  Er1  1  0.750000  0.511775  0.825283  1
  Zr  Zr2  1  0.250000  0.355158  0.568957  1
  Zr  Zr3  1  0.250000  0.855158  0.931043  1
  Zr  Zr4  1  0.750000  0.647103  0.415841  1
  Zr  Zr5  1  0.750000  0.147103  0.084159  1
  Sc  Sc6  1  0.250000  0.983763  0.326430  1
  Sc  Sc7  1  0.250000  0.483763  0.173570  1
  Ir  Ir8  1  0.250000  0.241366  0.912282  1
  Ir  Ir9  1  0.250000  0.741366  0.587718  1
  Ir  Ir10  1  0.750000  0.760833  0.094749  1
  Ir  Ir11  1  0.750000  0.260833  0.405251  1
