# generated using pymatgen
data_Na2Mn(SiS3)2
_symmetry_space_group_name_H-M   'P 1'
_cell_length_a   7.19720973
_cell_length_b   7.19720907
_cell_length_c   11.44400385
_cell_angle_alpha   84.79553125
_cell_angle_beta   84.79553468
_cell_angle_gamma   118.70241410
_symmetry_Int_Tables_number   1
_chemical_formula_structural   Na2Mn(SiS3)2
_chemical_formula_sum   'Na4 Mn2 Si4 S12'
_cell_volume   511.65993264
_cell_formula_units_Z   2
loop_
 _symmetry_equiv_pos_site_id
 _symmetry_equiv_pos_as_xyz
  1  'x, y, z'
loop_
 _atom_site_type_symbol
 _atom_site_label
 _atom_site_symmetry_multiplicity
 _atom_site_fract_x
 _atom_site_fract_y
 _atom_site_fract_z
 _atom_site_occupancy
  Na  Na0  1  0.165570  0.762243  0.121384  1
  Na  Na1  1  0.762243  0.165570  0.621384  1
  Na  Na2  1  0.583449  0.563462  0.985986  1
  Na  Na3  1  0.563462  0.583449  0.485986  1
  Mn  Mn4  1  0.652682  0.156050  0.278025  1
  Mn  Mn5  1  0.156050  0.652682  0.778025  1
  Si  Si6  1  0.227233  0.182242  0.752622  1
  Si  Si7  1  0.182242  0.227233  0.252622  1
  Si  Si8  1  0.170124  0.896204  0.503504  1
  Si  Si9  1  0.896204  0.170124  0.003504  1
  S  S10  1  0.387968  0.018440  0.803613  1
  S  S11  1  0.018440  0.387968  0.303613  1
  S  S12  1  0.943597  0.619043  0.620406  1
  S  S13  1  0.619043  0.943597  0.120406  1
  S  S14  1  0.026674  0.892748  0.342778  1
  S  S15  1  0.892748  0.026674  0.842778  1
  S  S16  1  0.929319  0.479131  0.967209  1
  S  S17  1  0.479131  0.929319  0.467209  1
  S  S18  1  0.513358  0.400587  0.261491  1
  S  S19  1  0.400587  0.513358  0.761491  1
  S  S20  1  0.178627  0.178948  0.566410  1
  S  S21  1  0.178948  0.178627  0.066410  1
