# generated using pymatgen
data_Y3B6IrRh7
_symmetry_space_group_name_H-M   'P 1'
_cell_length_a   9.98848585
_cell_length_b   9.16622278
_cell_length_c   5.55596420
_cell_angle_alpha   81.46388986
_cell_angle_beta   65.16392956
_cell_angle_gamma   33.37216744
_symmetry_Int_Tables_number   1
_chemical_formula_structural   Y3B6IrRh7
_chemical_formula_sum   'Y3 B6 Ir1 Rh7'
_cell_volume   232.14216723
_cell_formula_units_Z   1
loop_
 _symmetry_equiv_pos_site_id
 _symmetry_equiv_pos_as_xyz
  1  'x, y, z'
loop_
 _atom_site_type_symbol
 _atom_site_label
 _atom_site_symmetry_multiplicity
 _atom_site_fract_x
 _atom_site_fract_y
 _atom_site_fract_z
 _atom_site_occupancy
  Y  Y0  1  0.000000  0.000000  0.000000  1
  Y  Y1  1  0.180371  0.180371  0.819629  1
  Y  Y2  1  0.819629  0.819629  0.180371  1
  B  B3  1  0.823416  0.524892  0.480164  1
  B  B4  1  0.171527  0.480164  0.524892  1
  B  B5  1  0.480164  0.171527  0.823416  1
  B  B6  1  0.670249  0.329751  0.670249  1
  B  B7  1  0.524892  0.823416  0.171527  1
  B  B8  1  0.329751  0.670249  0.329751  1
  Ir  Ir9  1  0.750000  0.750000  0.750000  1
  Rh  Rh10  1  0.415045  0.415045  0.584955  1
  Rh  Rh11  1  0.585997  0.585997  0.914003  1
  Rh  Rh12  1  0.085846  0.085846  0.414154  1
  Rh  Rh13  1  0.914003  0.914003  0.585997  1
  Rh  Rh14  1  0.584955  0.584955  0.415045  1
  Rh  Rh15  1  0.250000  0.250000  0.250000  1
  Rh  Rh16  1  0.414154  0.414154  0.085846  1
