# generated using pymatgen
data_Tm5Lu7(TcOs)2
_symmetry_space_group_name_H-M   'P 1'
_cell_length_a   7.32748027
_cell_length_b   8.88106957
_cell_length_c   6.16723799
_cell_angle_alpha   90.08690547
_cell_angle_beta   89.96910815
_cell_angle_gamma   90.00096613
_symmetry_Int_Tables_number   1
_chemical_formula_structural   Tm5Lu7(TcOs)2
_chemical_formula_sum   'Tm5 Lu7 Tc2 Os2'
_cell_volume   401.33780822
_cell_formula_units_Z   1
loop_
 _symmetry_equiv_pos_site_id
 _symmetry_equiv_pos_as_xyz
  1  'x, y, z'
loop_
 _atom_site_type_symbol
 _atom_site_label
 _atom_site_symmetry_multiplicity
 _atom_site_fract_x
 _atom_site_fract_y
 _atom_site_fract_z
 _atom_site_occupancy
  Tm  Tm0  1  0.675293  0.061265  0.337716  1
  Tm  Tm1  1  0.174970  0.438810  0.162347  1
  Tm  Tm2  1  0.539031  0.250041  0.875583  1
  Tm  Tm3  1  0.039051  0.249958  0.624555  1
  Tm  Tm4  1  0.459717  0.749963  0.128068  1
  Lu  Lu5  1  0.325128  0.562719  0.664269  1
  Lu  Lu6  1  0.825226  0.937175  0.835466  1
  Lu  Lu7  1  0.324749  0.937332  0.664412  1
  Lu  Lu8  1  0.824853  0.562781  0.835300  1
  Lu  Lu9  1  0.675033  0.439042  0.337756  1
  Lu  Lu10  1  0.174701  0.060890  0.162282  1
  Lu  Lu11  1  0.959640  0.750041  0.371778  1
  Tc  Tc12  1  0.883548  0.250045  0.039069  1
  Tc  Tc13  1  0.383431  0.249930  0.460952  1
  Os  Os14  1  0.117485  0.750349  0.960327  1
  Os  Os15  1  0.618139  0.749659  0.540120  1
