# generated using pymatgen
data_V2ZnRu3
_symmetry_space_group_name_H-M   'P 1'
_cell_length_a   4.24607102
_cell_length_b   5.23300800
_cell_length_c   4.24625800
_cell_angle_alpha   90.00084213
_cell_angle_beta   59.99671110
_cell_angle_gamma   90.00092910
_symmetry_Int_Tables_number   1
_chemical_formula_structural   V2ZnRu3
_chemical_formula_sum   'V2 Zn1 Ru3'
_cell_volume   81.70737699
_cell_formula_units_Z   1
loop_
 _symmetry_equiv_pos_site_id
 _symmetry_equiv_pos_as_xyz
  1  'x, y, z'
loop_
 _atom_site_type_symbol
 _atom_site_label
 _atom_site_symmetry_multiplicity
 _atom_site_fract_x
 _atom_site_fract_y
 _atom_site_fract_z
 _atom_site_occupancy
  V  V0  1  0.885157  0.851959  0.339016  1
  V  V1  1  0.551806  0.215857  0.005717  1
  Zn  Zn2  1  0.218499  0.533956  0.672369  1
  Ru  Ru3  1  0.885112  0.354792  0.339038  1
  Ru  Ru4  1  0.551889  0.712999  0.005631  1
  Ru  Ru5  1  0.218499  0.033704  0.672412  1
