# generated using pymatgen
data_Mg4AlSi3Pt4
_symmetry_space_group_name_H-M   'P 1'
_cell_length_a   6.49422752
_cell_length_b   4.00887200
_cell_length_c   7.61650152
_cell_angle_alpha   90.00000000
_cell_angle_beta   91.44192787
_cell_angle_gamma   90.00000000
_symmetry_Int_Tables_number   1
_chemical_formula_structural   Mg4AlSi3Pt4
_chemical_formula_sum   'Mg4 Al1 Si3 Pt4'
_cell_volume   198.22922298
_cell_formula_units_Z   1
loop_
 _symmetry_equiv_pos_site_id
 _symmetry_equiv_pos_as_xyz
  1  'x, y, z'
loop_
 _atom_site_type_symbol
 _atom_site_label
 _atom_site_symmetry_multiplicity
 _atom_site_fract_x
 _atom_site_fract_y
 _atom_site_fract_z
 _atom_site_occupancy
  Mg  Mg0  1  0.972646  0.750000  0.166530  1
  Mg  Mg1  1  0.471022  0.750000  0.332823  1
  Mg  Mg2  1  0.526108  0.250001  0.664701  1
  Mg  Mg3  1  0.028334  0.250001  0.832021  1
  Al  Al4  1  0.647674  0.250001  0.055633  1
  Si  Si5  1  0.159240  0.250001  0.442831  1
  Si  Si6  1  0.849534  0.750000  0.556614  1
  Si  Si7  1  0.350039  0.750000  0.946986  1
  Pt  Pt8  1  0.273646  0.250001  0.136010  1
  Pt  Pt9  1  0.787578  0.250001  0.375308  1
  Pt  Pt10  1  0.219587  0.750000  0.633958  1
  Pt  Pt11  1  0.714594  0.750000  0.856584  1
