# generated using pymatgen
data_TbTm4PPb3
_symmetry_space_group_name_H-M   'P 1'
_cell_length_a   9.07354659
_cell_length_b   9.07354733
_cell_length_c   6.72599900
_cell_angle_alpha   90.00000000
_cell_angle_beta   90.00000000
_cell_angle_gamma   120.06795903
_symmetry_Int_Tables_number   1
_chemical_formula_structural   TbTm4PPb3
_chemical_formula_sum   'Tb2 Tm8 P2 Pb6'
_cell_volume   479.22978268
_cell_formula_units_Z   2
loop_
 _symmetry_equiv_pos_site_id
 _symmetry_equiv_pos_as_xyz
  1  'x, y, z'
loop_
 _atom_site_type_symbol
 _atom_site_label
 _atom_site_symmetry_multiplicity
 _atom_site_fract_x
 _atom_site_fract_y
 _atom_site_fract_z
 _atom_site_occupancy
  Tb  Tb0  1  0.759760  0.999969  0.250000  1
  Tb  Tb1  1  0.999969  0.759760  0.250000  1
  Tm  Tm2  1  0.762398  0.762398  0.750000  1
  Tm  Tm3  1  0.238016  0.000218  0.750000  1
  Tm  Tm4  1  0.000218  0.238016  0.750000  1
  Tm  Tm5  1  0.237542  0.237542  0.250000  1
  Tm  Tm6  1  0.666247  0.333120  0.999739  1
  Tm  Tm7  1  0.333120  0.666247  0.999739  1
  Tm  Tm8  1  0.333120  0.666247  0.500261  1
  Tm  Tm9  1  0.666247  0.333120  0.500261  1
  P  P10  1  0.001527  0.001527  0.997576  1
  P  P11  1  0.001527  0.001527  0.502424  1
  Pb  Pb12  1  0.399585  0.399585  0.750000  1
  Pb  Pb13  1  0.600912  0.000218  0.750000  1
  Pb  Pb14  1  0.000218  0.600912  0.750000  1
  Pb  Pb15  1  0.598586  0.598586  0.250000  1
  Pb  Pb16  1  0.399909  0.001101  0.250000  1
  Pb  Pb17  1  0.001101  0.399909  0.250000  1
