# generated using pymatgen
data_BaNaAs4(RuRh)2
_symmetry_space_group_name_H-M   'P 1'
_cell_length_a   6.91688926
_cell_length_b   6.91688865
_cell_length_c   5.80451300
_cell_angle_alpha   90.00000000
_cell_angle_beta   90.00000000
_cell_angle_gamma   130.51382658
_symmetry_Int_Tables_number   1
_chemical_formula_structural   BaNaAs4(RuRh)2
_chemical_formula_sum   'Ba1 Na1 As4 Ru2 Rh2'
_cell_volume   211.12680624
_cell_formula_units_Z   1
loop_
 _symmetry_equiv_pos_site_id
 _symmetry_equiv_pos_as_xyz
  1  'x, y, z'
loop_
 _atom_site_type_symbol
 _atom_site_label
 _atom_site_symmetry_multiplicity
 _atom_site_fract_x
 _atom_site_fract_y
 _atom_site_fract_z
 _atom_site_occupancy
  Ba  Ba0  1  0.500000  0.500000  0.500000  1
  Na  Na1  1  0.000000  0.000000  0.000000  1
  As  As2  1  0.357247  0.642753  0.000000  1
  As  As3  1  0.855979  0.144021  0.500000  1
  As  As4  1  0.144021  0.855979  0.500000  1
  As  As5  1  0.642753  0.357247  0.000000  1
  Ru  Ru6  1  0.500000  0.000000  0.752296  1
  Ru  Ru7  1  0.000000  0.500000  0.247704  1
  Rh  Rh8  1  0.000000  0.500000  0.751466  1
  Rh  Rh9  1  0.500000  0.000000  0.248534  1
