# generated using pymatgen
data_Sc2MnB2Ir4Ru
_symmetry_space_group_name_H-M   'P 1'
_cell_length_a   3.01555000
_cell_length_b   9.45124300
_cell_length_c   9.45124300
_cell_angle_alpha   90.00000000
_cell_angle_beta   90.00000000
_cell_angle_gamma   90.00000000
_symmetry_Int_Tables_number   1
_chemical_formula_structural   Sc2MnB2Ir4Ru
_chemical_formula_sum   'Sc4 Mn2 B4 Ir8 Ru2'
_cell_volume   269.36700195
_cell_formula_units_Z   2
loop_
 _symmetry_equiv_pos_site_id
 _symmetry_equiv_pos_as_xyz
  1  'x, y, z'
loop_
 _atom_site_type_symbol
 _atom_site_label
 _atom_site_symmetry_multiplicity
 _atom_site_fract_x
 _atom_site_fract_y
 _atom_site_fract_z
 _atom_site_occupancy
  Sc  Sc0  1  0.000000  0.673976  0.173976  1
  Sc  Sc1  1  0.000000  0.173976  0.326024  1
  Sc  Sc2  1  0.000000  0.826023  0.673976  1
  Sc  Sc3  1  0.000000  0.326024  0.826023  1
  Mn  Mn4  1  0.000000  0.000000  0.000000  1
  Mn  Mn5  1  0.000000  0.499999  0.499999  1
  B  B6  1  0.000000  0.377940  0.122061  1
  B  B7  1  0.000000  0.877939  0.377940  1
  B  B8  1  0.000000  0.122061  0.622060  1
  B  B9  1  0.000000  0.622060  0.877939  1
  Ir  Ir10  1  0.499997  0.215585  0.071411  1
  Ir  Ir11  1  0.499997  0.928589  0.215585  1
  Ir  Ir12  1  0.499997  0.428589  0.284415  1
  Ir  Ir13  1  0.499997  0.715585  0.428589  1
  Ir  Ir14  1  0.499997  0.284415  0.571411  1
  Ir  Ir15  1  0.499997  0.571411  0.715585  1
  Ir  Ir16  1  0.499997  0.071411  0.784414  1
  Ir  Ir17  1  0.499997  0.784414  0.928589  1
  Ru  Ru18  1  0.499997  0.499999  0.000000  1
  Ru  Ru19  1  0.499997  0.000000  0.499999  1
