# generated using pymatgen
data_Mn3AlZn3(NiO6)2
_symmetry_space_group_name_H-M   'P 1'
_cell_length_a   5.96433213
_cell_length_b   5.98204308
_cell_length_c   13.14515163
_cell_angle_alpha   76.82561949
_cell_angle_beta   76.52314689
_cell_angle_gamma   88.85457870
_symmetry_Int_Tables_number   1
_chemical_formula_structural   Mn3AlZn3(NiO6)2
_chemical_formula_sum   'Mn6 Al2 Zn6 Ni4 O24'
_cell_volume   443.81428044
_cell_formula_units_Z   2
loop_
 _symmetry_equiv_pos_site_id
 _symmetry_equiv_pos_as_xyz
  1  'x, y, z'
loop_
 _atom_site_type_symbol
 _atom_site_label
 _atom_site_symmetry_multiplicity
 _atom_site_fract_x
 _atom_site_fract_y
 _atom_site_fract_z
 _atom_site_occupancy
  Mn  Mn0  1  0.500000  0.000000  0.000000  1
  Mn  Mn1  1  0.000000  0.500000  0.500000  1
  Mn  Mn2  1  0.500000  0.500000  0.500000  1
  Mn  Mn3  1  0.160578  0.158669  0.667699  1
  Mn  Mn4  1  0.839422  0.841331  0.332301  1
  Mn  Mn5  1  0.500000  0.500000  0.000000  1
  Al  Al6  1  0.163583  0.168495  0.163605  1
  Al  Al7  1  0.836417  0.831505  0.836395  1
  Zn  Zn8  1  0.290267  0.025901  0.413279  1
  Zn  Zn9  1  0.963522  0.702690  0.086980  1
  Zn  Zn10  1  0.620782  0.367933  0.756856  1
  Zn  Zn11  1  0.036478  0.297310  0.913020  1
  Zn  Zn12  1  0.709733  0.974099  0.586721  1
  Zn  Zn13  1  0.379218  0.632067  0.243144  1
  Ni  Ni14  1  0.161352  0.662073  0.672004  1
  Ni  Ni15  1  0.838648  0.337927  0.327996  1
  Ni  Ni16  1  0.666314  0.167417  0.167168  1
  Ni  Ni17  1  0.333686  0.832583  0.832832  1
  O  O18  1  0.073719  0.070137  0.820620  1
  O  O19  1  0.779659  0.745191  0.491858  1
  O  O20  1  0.400150  0.393991  0.158932  1
  O  O21  1  0.927609  0.923900  0.680948  1
  O  O22  1  0.605914  0.602831  0.340853  1
  O  O23  1  0.255475  0.219926  0.009482  1
  O  O24  1  0.385357  0.926343  0.666164  1
  O  O25  1  0.060772  0.590397  0.343881  1
  O  O26  1  0.709649  0.242745  0.001574  1
  O  O27  1  0.070567  0.617005  0.833973  1
  O  O28  1  0.758443  0.293742  0.495067  1
  O  O29  1  0.409668  0.948881  0.155482  1
  O  O30  1  0.220341  0.254809  0.508142  1
  O  O31  1  0.926281  0.929863  0.179380  1
  O  O32  1  0.599850  0.606009  0.841068  1
  O  O33  1  0.394086  0.397169  0.659147  1
  O  O34  1  0.072391  0.076101  0.319052  1
  O  O35  1  0.744525  0.780074  0.990518  1
  O  O36  1  0.939228  0.409603  0.656119  1
  O  O37  1  0.614643  0.073657  0.333836  1
  O  O38  1  0.290351  0.757255  0.998426  1
  O  O39  1  0.241557  0.706258  0.504933  1
  O  O40  1  0.929433  0.382995  0.166027  1
  O  O41  1  0.590332  0.051119  0.844518  1
