# generated using pymatgen
data_Nd2Er5Tm3In8(PdPt)2
_symmetry_space_group_name_H-M   'P 1'
_cell_length_a   3.60823000
_cell_length_b   8.18099051
_cell_length_c   18.31940300
_cell_angle_alpha   90.02026120
_cell_angle_beta   90.00000000
_cell_angle_gamma   90.00000000
_symmetry_Int_Tables_number   1
_chemical_formula_structural   Nd2Er5Tm3In8(PdPt)2
_chemical_formula_sum   'Nd2 Er5 Tm3 In8 Pd2 Pt2'
_cell_volume   540.76850701
_cell_formula_units_Z   1
loop_
 _symmetry_equiv_pos_site_id
 _symmetry_equiv_pos_as_xyz
  1  'x, y, z'
loop_
 _atom_site_type_symbol
 _atom_site_label
 _atom_site_symmetry_multiplicity
 _atom_site_fract_x
 _atom_site_fract_y
 _atom_site_fract_z
 _atom_site_occupancy
  Nd  Nd0  1  0.000000  0.999940  0.999917  1
  Nd  Nd1  1  0.000000  0.499853  0.500059  1
  Er  Er2  1  0.000000  0.620867  0.086199  1
  Er  Er3  1  0.000000  0.245403  0.218507  1
  Er  Er4  1  0.000000  0.754838  0.781626  1
  Er  Er5  1  0.000000  0.260767  0.719105  1
  Er  Er6  1  0.000000  0.739289  0.280869  1
  Tm  Tm7  1  0.000000  0.121281  0.414271  1
  Tm  Tm8  1  0.000000  0.878391  0.585845  1
  Tm  Tm9  1  0.000000  0.379483  0.913379  1
  In  In10  1  0.500000  0.420049  0.348547  1
  In  In11  1  0.500000  0.579745  0.651641  1
  In  In12  1  0.500000  0.078357  0.846962  1
  In  In13  1  0.500000  0.922834  0.153113  1
  In  In14  1  0.500000  0.301398  0.066633  1
  In  In15  1  0.500000  0.698208  0.933010  1
  In  In16  1  0.500000  0.196735  0.566783  1
  In  In17  1  0.500000  0.802841  0.433222  1
  Pd  Pd18  1  0.500000  0.026096  0.304227  1
  Pd  Pd19  1  0.500000  0.973932  0.695868  1
  Pt  Pt20  1  0.500000  0.473555  0.803560  1
  Pt  Pt21  1  0.500000  0.526139  0.196659  1
