# generated using pymatgen
data_TmScCdNi7B2
_symmetry_space_group_name_H-M   'P 1'
_cell_length_a   4.94706414
_cell_length_b   4.95239521
_cell_length_c   14.04406000
_cell_angle_alpha   90.00000000
_cell_angle_beta   90.00000000
_cell_angle_gamma   119.98474362
_symmetry_Int_Tables_number   1
_chemical_formula_structural   TmScCdNi7B2
_chemical_formula_sum   'Tm2 Sc2 Cd2 Ni14 B4'
_cell_volume   298.02513204
_cell_formula_units_Z   2
loop_
 _symmetry_equiv_pos_site_id
 _symmetry_equiv_pos_as_xyz
  1  'x, y, z'
loop_
 _atom_site_type_symbol
 _atom_site_label
 _atom_site_symmetry_multiplicity
 _atom_site_fract_x
 _atom_site_fract_y
 _atom_site_fract_z
 _atom_site_occupancy
  Tm  Tm0  1  0.333216  0.666313  0.745473  1
  Tm  Tm1  1  0.666784  0.333687  0.245473  1
  Sc  Sc2  1  0.666903  0.333812  0.471607  1
  Sc  Sc3  1  0.333097  0.666188  0.971607  1
  Cd  Cd4  1  0.333315  0.666696  0.530755  1
  Cd  Cd5  1  0.666685  0.333304  0.030755  1
  Ni  Ni6  1  0.000032  0.999855  0.000198  1
  Ni  Ni7  1  0.999968  0.000145  0.500198  1
  Ni  Ni8  1  0.166441  0.332938  0.145942  1
  Ni  Ni9  1  0.833559  0.667062  0.645942  1
  Ni  Ni10  1  0.667659  0.834143  0.146126  1
  Ni  Ni11  1  0.166360  0.834117  0.146171  1
  Ni  Ni12  1  0.833640  0.165883  0.646171  1
  Ni  Ni13  1  0.332341  0.165857  0.646126  1
  Ni  Ni14  1  0.833745  0.667384  0.853876  1
  Ni  Ni15  1  0.833756  0.165426  0.853653  1
  Ni  Ni16  1  0.331781  0.165447  0.853681  1
  Ni  Ni17  1  0.668219  0.834553  0.353681  1
  Ni  Ni18  1  0.166244  0.834574  0.353653  1
  Ni  Ni19  1  0.166255  0.332616  0.353876  1
  B  B20  1  0.333349  0.666704  0.250197  1
  B  B21  1  0.666651  0.333296  0.750197  1
  B  B22  1  0.000449  0.001036  0.252321  1
  B  B23  1  0.999551  0.998964  0.752321  1
