# generated using pymatgen
data_ThSc(Ni4B)2
_symmetry_space_group_name_H-M   'P 1'
_cell_length_a   4.92274800
_cell_length_b   4.92274815
_cell_length_c   6.94060300
_cell_angle_alpha   90.00000000
_cell_angle_beta   90.00000000
_cell_angle_gamma   119.99999898
_symmetry_Int_Tables_number   1
_chemical_formula_structural   ThSc(Ni4B)2
_chemical_formula_sum   'Th1 Sc1 Ni8 B2'
_cell_volume   145.66092449
_cell_formula_units_Z   1
loop_
 _symmetry_equiv_pos_site_id
 _symmetry_equiv_pos_as_xyz
  1  'x, y, z'
loop_
 _atom_site_type_symbol
 _atom_site_label
 _atom_site_symmetry_multiplicity
 _atom_site_fract_x
 _atom_site_fract_y
 _atom_site_fract_z
 _atom_site_occupancy
  Th  Th0  1  0.000000  0.000000  0.000000  1
  Sc  Sc1  1  0.000000  0.000000  0.500000  1
  Ni  Ni2  1  0.333333  0.666667  0.000000  1
  Ni  Ni3  1  0.666667  0.333333  0.000000  1
  Ni  Ni4  1  0.500000  0.000000  0.297427  1
  Ni  Ni5  1  0.500000  0.500000  0.297427  1
  Ni  Ni6  1  0.000000  0.500000  0.297427  1
  Ni  Ni7  1  0.500000  0.000000  0.702573  1
  Ni  Ni8  1  0.500000  0.500000  0.702573  1
  Ni  Ni9  1  0.000000  0.500000  0.702573  1
  B  B10  1  0.666667  0.333333  0.500000  1
  B  B11  1  0.333333  0.666667  0.500000  1
