# generated using pymatgen
data_Sr3Ga3Si2MoO14
_symmetry_space_group_name_H-M   'P 1'
_cell_length_a   8.39180224
_cell_length_b   8.38861915
_cell_length_c   5.14983201
_cell_angle_alpha   89.45991112
_cell_angle_beta   90.54396952
_cell_angle_gamma   120.16161568
_symmetry_Int_Tables_number   1
_chemical_formula_structural   Sr3Ga3Si2MoO14
_chemical_formula_sum   'Sr3 Ga3 Si2 Mo1 O14'
_cell_volume   313.42523901
_cell_formula_units_Z   1
loop_
 _symmetry_equiv_pos_site_id
 _symmetry_equiv_pos_as_xyz
  1  'x, y, z'
loop_
 _atom_site_type_symbol
 _atom_site_label
 _atom_site_symmetry_multiplicity
 _atom_site_fract_x
 _atom_site_fract_y
 _atom_site_fract_z
 _atom_site_occupancy
  Sr  Sr0  1  0.427361  0.002203  0.994405  1
  Sr  Sr1  1  0.002275  0.427624  0.005941  1
  Sr  Sr2  1  0.573001  0.572858  0.999857  1
  Ga  Ga3  1  0.748126  0.001353  0.497080  1
  Ga  Ga4  1  0.001666  0.748351  0.502991  1
  Ga  Ga5  1  0.255921  0.255783  0.500064  1
  Si  Si6  1  0.668417  0.334550  0.464726  1
  Si  Si7  1  0.335140  0.668885  0.535282  1
  Mo  Mo8  1  0.995424  0.995578  0.999967  1
  O  O9  1  0.333146  0.670052  0.222156  1
  O  O10  1  0.121801  0.903004  0.221160  1
  O  O11  1  0.089634  0.219513  0.239822  1
  O  O12  1  0.776353  0.870421  0.234181  1
  O  O13  1  0.476203  0.309827  0.329883  1
  O  O14  1  0.691837  0.167629  0.330938  1
  O  O15  1  0.836263  0.526768  0.331148  1
  O  O16  1  0.168184  0.692382  0.668889  1
  O  O17  1  0.310800  0.476622  0.669582  1
  O  O18  1  0.527067  0.836222  0.669743  1
  O  O19  1  0.219249  0.089309  0.760180  1
  O  O20  1  0.902672  0.121759  0.778983  1
  O  O21  1  0.870152  0.776564  0.765156  1
  O  O22  1  0.669306  0.332743  0.777868  1
