# generated using pymatgen
data_Er2Be(Pd2Pt)2
_symmetry_space_group_name_H-M   'P 1'
_cell_length_a   5.93576298
_cell_length_b   5.93576355
_cell_length_c   6.02585400
_cell_angle_alpha   59.49664714
_cell_angle_beta   59.49664389
_cell_angle_gamma   58.72015026
_symmetry_Int_Tables_number   1
_chemical_formula_structural   Er2Be(Pd2Pt)2
_chemical_formula_sum   'Er2 Be1 Pd4 Pt2'
_cell_volume   147.50148472
_cell_formula_units_Z   1
loop_
 _symmetry_equiv_pos_site_id
 _symmetry_equiv_pos_as_xyz
  1  'x, y, z'
loop_
 _atom_site_type_symbol
 _atom_site_label
 _atom_site_symmetry_multiplicity
 _atom_site_fract_x
 _atom_site_fract_y
 _atom_site_fract_z
 _atom_site_occupancy
  Er  Er0  1  0.251710  0.251710  0.247027  1
  Er  Er1  1  0.748290  0.748290  0.750447  1
  Be  Be2  1  0.000000  0.000000  0.001318  1
  Pd  Pd3  1  0.738117  0.738117  0.261276  1
  Pd  Pd4  1  0.261883  0.261883  0.737510  1
  Pd  Pd5  1  0.742140  0.257860  0.737442  1
  Pd  Pd6  1  0.257860  0.742140  0.737442  1
  Pt  Pt7  1  0.740245  0.259755  0.263769  1
  Pt  Pt8  1  0.259755  0.740245  0.263769  1
