# generated using pymatgen
data_Ac2AlSiI2
_symmetry_space_group_name_H-M   'P 1'
_cell_length_a   4.40486800
_cell_length_b   4.40486836
_cell_length_c   13.36227400
_cell_angle_alpha   90.00000000
_cell_angle_beta   90.00000000
_cell_angle_gamma   119.99999732
_symmetry_Int_Tables_number   1
_chemical_formula_structural   Ac2AlSiI2
_chemical_formula_sum   'Ac2 Al1 Si1 I2'
_cell_volume   224.53127810
_cell_formula_units_Z   1
loop_
 _symmetry_equiv_pos_site_id
 _symmetry_equiv_pos_as_xyz
  1  'x, y, z'
loop_
 _atom_site_type_symbol
 _atom_site_label
 _atom_site_symmetry_multiplicity
 _atom_site_fract_x
 _atom_site_fract_y
 _atom_site_fract_z
 _atom_site_occupancy
  Ac  Ac0  1  0.000000  0.000000  0.831913  1
  Ac  Ac1  1  0.000000  0.000000  0.168036  1
  Al  Al2  1  0.333333  0.666667  0.990655  1
  Si  Si3  1  0.666667  0.333333  0.010182  1
  I  I4  1  0.333333  0.666667  0.334226  1
  I  I5  1  0.666667  0.333333  0.664988  1
