# generated using pymatgen
data_YbTm7(Tc3Ge4)4
_symmetry_space_group_name_H-M   'P 1'
_cell_length_a   6.95718618
_cell_length_b   6.91435897
_cell_length_c   12.85403900
_cell_angle_alpha   90.05283468
_cell_angle_beta   90.01319324
_cell_angle_gamma   90.04392282
_symmetry_Int_Tables_number   1
_chemical_formula_structural   YbTm7(Tc3Ge4)4
_chemical_formula_sum   'Yb1 Tm7 Tc12 Ge16'
_cell_volume   618.33643586
_cell_formula_units_Z   1
loop_
 _symmetry_equiv_pos_site_id
 _symmetry_equiv_pos_as_xyz
  1  'x, y, z'
loop_
 _atom_site_type_symbol
 _atom_site_label
 _atom_site_symmetry_multiplicity
 _atom_site_fract_x
 _atom_site_fract_y
 _atom_site_fract_z
 _atom_site_occupancy
  Yb  Yb0  1  0.984393  0.163476  0.089566  1
  Tm  Tm1  1  0.483950  0.334316  0.092560  1
  Tm  Tm2  1  0.983489  0.166677  0.407976  1
  Tm  Tm3  1  0.516133  0.666929  0.591910  1
  Tm  Tm4  1  0.018247  0.833880  0.909070  1
  Tm  Tm5  1  0.516570  0.665703  0.907861  1
  Tm  Tm6  1  0.016824  0.834317  0.592136  1
  Tm  Tm7  1  0.482784  0.333278  0.407097  1
  Tc  Tc8  1  0.676808  0.990104  0.750202  1
  Tc  Tc9  1  0.175451  0.513066  0.750778  1
  Tc  Tc10  1  0.325701  0.008866  0.250655  1
  Tc  Tc11  1  0.823632  0.492643  0.251103  1
  Tc  Tc12  1  0.822863  0.358209  0.625378  1
  Tc  Tc13  1  0.326252  0.143235  0.876692  1
  Tc  Tc14  1  0.176467  0.643588  0.125547  1
  Tc  Tc15  1  0.676025  0.858047  0.376048  1
  Tc  Tc16  1  0.176507  0.641505  0.373906  1
  Tc  Tc17  1  0.672197  0.852897  0.125699  1
  Tc  Tc18  1  0.820606  0.357728  0.874021  1
  Tc  Tc19  1  0.323854  0.142460  0.622549  1
  Ge  Ge20  1  0.819403  0.647542  0.750456  1
  Ge  Ge21  1  0.320020  0.855770  0.750197  1
  Ge  Ge22  1  0.177124  0.350665  0.247725  1
  Ge  Ge23  1  0.683051  0.145682  0.248451  1
  Ge  Ge24  1  0.523999  0.352497  0.749004  1
  Ge  Ge25  1  0.026013  0.149375  0.750865  1
  Ge  Ge26  1  0.473936  0.646771  0.250648  1
  Ge  Ge27  1  0.974663  0.853112  0.248946  1
  Ge  Ge28  1  0.667984  0.054344  0.550976  1
  Ge  Ge29  1  0.166946  0.445235  0.949432  1
  Ge  Ge30  1  0.334480  0.947360  0.051343  1
  Ge  Ge31  1  0.832428  0.554144  0.449760  1
  Ge  Ge32  1  0.332580  0.945956  0.449053  1
  Ge  Ge33  1  0.833825  0.551389  0.051528  1
  Ge  Ge34  1  0.666727  0.052891  0.950153  1
  Ge  Ge35  1  0.168068  0.446342  0.550711  1
