# generated using pymatgen
data_Tb9Cd5(NiRu)2
_symmetry_space_group_name_H-M   'P 1'
_cell_length_a   10.78273722
_cell_length_b   10.78273722
_cell_length_c   3.67539200
_cell_angle_alpha   90.00000000
_cell_angle_beta   90.00000000
_cell_angle_gamma   90.11270271
_symmetry_Int_Tables_number   1
_chemical_formula_structural   Tb9Cd5(NiRu)2
_chemical_formula_sum   'Tb9 Cd5 Ni2 Ru2'
_cell_volume   427.32752541
_cell_formula_units_Z   1
loop_
 _symmetry_equiv_pos_site_id
 _symmetry_equiv_pos_as_xyz
  1  'x, y, z'
loop_
 _atom_site_type_symbol
 _atom_site_label
 _atom_site_symmetry_multiplicity
 _atom_site_fract_x
 _atom_site_fract_y
 _atom_site_fract_z
 _atom_site_occupancy
  Tb  Tb0  1  0.325521  0.325521  0.500000  1
  Tb  Tb1  1  0.674479  0.674479  0.500000  1
  Tb  Tb2  1  0.324321  0.675679  0.500000  1
  Tb  Tb3  1  0.675679  0.324321  0.500000  1
  Tb  Tb4  1  0.999608  0.285563  0.500000  1
  Tb  Tb5  1  0.000392  0.714437  0.500000  1
  Tb  Tb6  1  0.285563  0.999608  0.500000  1
  Tb  Tb7  1  0.714437  0.000392  0.500000  1
  Tb  Tb8  1  0.000000  0.000000  0.000000  1
  Cd  Cd9  1  0.500550  0.143967  0.000000  1
  Cd  Cd10  1  0.499450  0.856033  0.000000  1
  Cd  Cd11  1  0.143967  0.500550  0.000000  1
  Cd  Cd12  1  0.856033  0.499450  0.000000  1
  Cd  Cd13  1  0.500000  0.500000  0.000000  1
  Ni  Ni14  1  0.190481  0.809519  0.000000  1
  Ni  Ni15  1  0.809519  0.190481  0.000000  1
  Ru  Ru16  1  0.185728  0.185728  0.000000  1
  Ru  Ru17  1  0.814272  0.814272  0.000000  1
