# generated using pymatgen
data_LiNd4Sc5Si8
_symmetry_space_group_name_H-M   'P 1'
_cell_length_a   7.16159300
_cell_length_b   7.55199500
_cell_length_c   14.26929100
_cell_angle_alpha   90.00000000
_cell_angle_beta   90.00000000
_cell_angle_gamma   90.00000000
_symmetry_Int_Tables_number   1
_chemical_formula_structural   LiNd4Sc5Si8
_chemical_formula_sum   'Li2 Nd8 Sc10 Si16'
_cell_volume   771.74482254
_cell_formula_units_Z   2
loop_
 _symmetry_equiv_pos_site_id
 _symmetry_equiv_pos_as_xyz
  1  'x, y, z'
loop_
 _atom_site_type_symbol
 _atom_site_label
 _atom_site_symmetry_multiplicity
 _atom_site_fract_x
 _atom_site_fract_y
 _atom_site_fract_z
 _atom_site_occupancy
  Li  Li0  1  0.654593  0.003902  0.750000  1
  Li  Li1  1  0.845407  0.503902  0.250000  1
  Nd  Nd2  1  0.009882  0.181657  0.400202  1
  Nd  Nd3  1  0.518999  0.328586  0.398762  1
  Nd  Nd4  1  0.490118  0.681657  0.900202  1
  Nd  Nd5  1  0.490118  0.681657  0.599798  1
  Nd  Nd6  1  0.981001  0.828586  0.601238  1
  Nd  Nd7  1  0.981001  0.828586  0.898762  1
  Nd  Nd8  1  0.518999  0.328586  0.101238  1
  Nd  Nd9  1  0.009882  0.181657  0.099798  1
  Sc  Sc10  1  0.334877  0.173249  0.625000  1
  Sc  Sc11  1  0.674079  0.814741  0.374311  1
  Sc  Sc12  1  0.165123  0.673249  0.375000  1
  Sc  Sc13  1  0.825921  0.314741  0.874311  1
  Sc  Sc14  1  0.825921  0.314741  0.625689  1
  Sc  Sc15  1  0.340638  0.996654  0.250000  1
  Sc  Sc16  1  0.334877  0.173249  0.875000  1
  Sc  Sc17  1  0.165123  0.673249  0.125000  1
  Sc  Sc18  1  0.674079  0.814741  0.125689  1
  Sc  Sc19  1  0.159362  0.496654  0.750000  1
  Si  Si20  1  0.281037  0.884801  0.750000  1
  Si  Si21  1  0.460051  0.622490  0.250000  1
  Si  Si22  1  0.039949  0.122490  0.750000  1
  Si  Si23  1  0.531064  0.384567  0.750000  1
  Si  Si24  1  0.153899  0.465635  0.540745  1
  Si  Si25  1  0.968936  0.884567  0.250000  1
  Si  Si26  1  0.710231  0.100868  0.250000  1
  Si  Si27  1  0.847812  0.539491  0.031716  1
  Si  Si28  1  0.346101  0.965635  0.040745  1
  Si  Si29  1  0.153899  0.465635  0.959255  1
  Si  Si30  1  0.652188  0.039491  0.531716  1
  Si  Si31  1  0.346101  0.965635  0.459255  1
  Si  Si32  1  0.847812  0.539491  0.468284  1
  Si  Si33  1  0.789769  0.600868  0.750000  1
  Si  Si34  1  0.218963  0.384801  0.250000  1
  Si  Si35  1  0.652188  0.039491  0.968284  1
