# generated using pymatgen
data_Ni(IrO3)2
_symmetry_space_group_name_H-M   'P 1'
_cell_length_a   4.54011003
_cell_length_b   10.45056166
_cell_length_c   9.08392905
_cell_angle_alpha   64.23839253
_cell_angle_beta   89.98781790
_cell_angle_gamma   89.99434601
_symmetry_Int_Tables_number   1
_chemical_formula_structural   Ni(IrO3)2
_chemical_formula_sum   'Ni4 Ir8 O24'
_cell_volume   388.16520095
_cell_formula_units_Z   4
loop_
 _symmetry_equiv_pos_site_id
 _symmetry_equiv_pos_as_xyz
  1  'x, y, z'
loop_
 _atom_site_type_symbol
 _atom_site_label
 _atom_site_symmetry_multiplicity
 _atom_site_fract_x
 _atom_site_fract_y
 _atom_site_fract_z
 _atom_site_occupancy
  Ni  Ni0  1  0.500107  0.499863  0.000182  1
  Ni  Ni1  1  0.000042  0.000051  0.500138  1
  Ni  Ni2  1  0.499861  0.500077  0.499842  1
  Ni  Ni3  1  0.000298  0.000131  0.000105  1
  Ir  Ir4  1  0.500048  0.168012  0.165987  1
  Ir  Ir5  1  0.500010  0.168035  0.665987  1
  Ir  Ir6  1  0.999947  0.668033  0.165953  1
  Ir  Ir7  1  0.999959  0.668039  0.665985  1
  Ir  Ir8  1  0.499988  0.831960  0.834012  1
  Ir  Ir9  1  0.499949  0.831979  0.333997  1
  Ir  Ir10  1  0.000013  0.331942  0.334013  1
  Ir  Ir11  1  0.000017  0.331940  0.834007  1
  O  O12  1  0.187487  0.499992  0.843913  1
  O  O13  1  0.187496  0.499997  0.343890  1
  O  O14  1  0.812481  0.499991  0.156062  1
  O  O15  1  0.812457  0.499986  0.656071  1
  O  O16  1  0.312446  0.999992  0.343913  1
  O  O17  1  0.312478  0.999985  0.843913  1
  O  O18  1  0.687528  0.999995  0.156078  1
  O  O19  1  0.687513  0.999972  0.656103  1
  O  O20  1  0.197334  0.168874  0.013979  1
  O  O21  1  0.197332  0.168839  0.513994  1
  O  O22  1  0.802681  0.168832  0.317166  1
  O  O23  1  0.802724  0.168867  0.817177  1
  O  O24  1  0.302620  0.668880  0.013978  1
  O  O25  1  0.302605  0.668867  0.514008  1
  O  O26  1  0.697313  0.668883  0.817120  1
  O  O27  1  0.697336  0.668873  0.317123  1
  O  O28  1  0.802633  0.831170  0.985969  1
  O  O29  1  0.802643  0.831159  0.485993  1
  O  O30  1  0.197308  0.831137  0.682850  1
  O  O31  1  0.197318  0.831169  0.182823  1
  O  O32  1  0.697388  0.331108  0.985964  1
  O  O33  1  0.697393  0.331129  0.485965  1
  O  O34  1  0.302633  0.331113  0.182856  1
  O  O35  1  0.302616  0.331129  0.682886  1
