# generated using pymatgen
data_La5Th(Sb4Pt3)2
_symmetry_space_group_name_H-M   'P 1'
_cell_length_a   8.70677356
_cell_length_b   8.70677315
_cell_length_c   8.70677305
_cell_angle_alpha   109.46505360
_cell_angle_beta   109.46505077
_cell_angle_gamma   109.48355593
_symmetry_Int_Tables_number   1
_chemical_formula_structural   La5Th(Sb4Pt3)2
_chemical_formula_sum   'La5 Th1 Sb8 Pt6'
_cell_volume   508.10071978
_cell_formula_units_Z   1
loop_
 _symmetry_equiv_pos_site_id
 _symmetry_equiv_pos_as_xyz
  1  'x, y, z'
loop_
 _atom_site_type_symbol
 _atom_site_label
 _atom_site_symmetry_multiplicity
 _atom_site_fract_x
 _atom_site_fract_y
 _atom_site_fract_z
 _atom_site_occupancy
  La  La0  1  0.874709  0.249804  0.123984  1
  La  La1  1  0.625821  0.750725  0.376016  1
  La  La2  1  0.249275  0.125291  0.875095  1
  La  La3  1  0.750196  0.374179  0.624905  1
  La  La4  1  0.125000  0.875000  0.250000  1
  Th  Th5  1  0.375000  0.625000  0.750000  1
  Sb  Sb6  1  0.668663  0.500848  0.001400  1
  Sb  Sb7  1  0.499030  0.999739  0.667202  1
  Sb  Sb8  1  0.999448  0.667263  0.498600  1
  Sb  Sb9  1  0.832537  0.831828  0.832798  1
  Sb  Sb10  1  0.499152  0.000552  0.167815  1
  Sb  Sb11  1  0.168172  0.500970  0.000709  1
  Sb  Sb12  1  0.000261  0.167463  0.499291  1
  Sb  Sb13  1  0.332737  0.331337  0.332185  1
  Pt  Pt14  1  0.378426  0.263481  0.632351  1
  Pt  Pt15  1  0.131130  0.746075  0.867649  1
  Pt  Pt16  1  0.253925  0.621574  0.385055  1
  Pt  Pt17  1  0.736519  0.868870  0.114945  1
  Pt  Pt18  1  0.625000  0.375000  0.250000  1
  Pt  Pt19  1  0.875000  0.125000  0.750000  1
