# generated using pymatgen
data_Tb3Y5Pt4
_symmetry_space_group_name_H-M   'P 1'
_cell_length_a   4.76570300
_cell_length_b   7.20138838
_cell_length_c   8.87701711
_cell_angle_alpha   89.88935559
_cell_angle_beta   90.00000000
_cell_angle_gamma   90.00000000
_symmetry_Int_Tables_number   1
_chemical_formula_structural   Tb3Y5Pt4
_chemical_formula_sum   'Tb3 Y5 Pt4'
_cell_volume   304.65580258
_cell_formula_units_Z   1
loop_
 _symmetry_equiv_pos_site_id
 _symmetry_equiv_pos_as_xyz
  1  'x, y, z'
loop_
 _atom_site_type_symbol
 _atom_site_label
 _atom_site_symmetry_multiplicity
 _atom_site_fract_x
 _atom_site_fract_y
 _atom_site_fract_z
 _atom_site_occupancy
  Tb  Tb0  1  0.250000  0.854787  0.919411  1
  Tb  Tb1  1  0.250000  0.354710  0.580049  1
  Tb  Tb2  1  0.750000  0.145398  0.080763  1
  Y  Y3  1  0.750000  0.645899  0.419551  1
  Y  Y4  1  0.250000  0.990437  0.332424  1
  Y  Y5  1  0.250000  0.491299  0.167868  1
  Y  Y6  1  0.750000  0.008736  0.668313  1
  Y  Y7  1  0.750000  0.509691  0.831756  1
  Pt  Pt8  1  0.250000  0.258127  0.906363  1
  Pt  Pt9  1  0.250000  0.757805  0.594099  1
  Pt  Pt10  1  0.750000  0.742231  0.093252  1
  Pt  Pt11  1  0.750000  0.240882  0.406149  1
