# generated using pymatgen
data_Yb8Al3Si12Rh
_symmetry_space_group_name_H-M   'P 1'
_cell_length_a   8.19860600
_cell_length_b   8.19860767
_cell_length_c   8.61569200
_cell_angle_alpha   90.00000000
_cell_angle_beta   90.00000000
_cell_angle_gamma   119.99999326
_symmetry_Int_Tables_number   1
_chemical_formula_structural   Yb8Al3Si12Rh
_chemical_formula_sum   'Yb8 Al3 Si12 Rh1'
_cell_volume   501.53465453
_cell_formula_units_Z   1
loop_
 _symmetry_equiv_pos_site_id
 _symmetry_equiv_pos_as_xyz
  1  'x, y, z'
loop_
 _atom_site_type_symbol
 _atom_site_label
 _atom_site_symmetry_multiplicity
 _atom_site_fract_x
 _atom_site_fract_y
 _atom_site_fract_z
 _atom_site_occupancy
  Yb  Yb0  1  0.504461  0.495539  0.742046  1
  Yb  Yb1  1  0.505744  0.494256  0.257896  1
  Yb  Yb2  1  0.991076  0.495539  0.742046  1
  Yb  Yb3  1  0.988514  0.494256  0.257896  1
  Yb  Yb4  1  0.504461  0.008924  0.742046  1
  Yb  Yb5  1  0.505744  0.011486  0.257896  1
  Yb  Yb6  1  0.000000  0.000000  0.748532  1
  Yb  Yb7  1  0.000000  0.000000  0.251628  1
  Al  Al8  1  0.666667  0.333333  0.997472  1
  Al  Al9  1  0.333333  0.666667  0.003427  1
  Al  Al10  1  0.333333  0.666667  0.497133  1
  Si  Si11  1  0.835890  0.164110  0.000607  1
  Si  Si12  1  0.163913  0.836087  0.999233  1
  Si  Si13  1  0.328218  0.164110  0.000607  1
  Si  Si14  1  0.158576  0.841424  0.499987  1
  Si  Si15  1  0.672174  0.836087  0.999233  1
  Si  Si16  1  0.829459  0.170541  0.500477  1
  Si  Si17  1  0.835890  0.671782  0.000607  1
  Si  Si18  1  0.682850  0.841424  0.499987  1
  Si  Si19  1  0.163913  0.327826  0.999233  1
  Si  Si20  1  0.341082  0.170541  0.500477  1
  Si  Si21  1  0.158576  0.317150  0.499987  1
  Si  Si22  1  0.829459  0.658918  0.500477  1
  Rh  Rh23  1  0.666667  0.333333  0.501067  1
