# generated using pymatgen
data_La10Zn(CdRu2)3
_symmetry_space_group_name_H-M   'P 1'
_cell_length_a   8.73689339
_cell_length_b   8.73689332
_cell_length_c   8.75230600
_cell_angle_alpha   109.50695766
_cell_angle_beta   109.50695752
_cell_angle_gamma   109.43546026
_symmetry_Int_Tables_number   1
_chemical_formula_structural   La10Zn(CdRu2)3
_chemical_formula_sum   'La10 Zn1 Cd3 Ru6'
_cell_volume   514.07080274
_cell_formula_units_Z   1
loop_
 _symmetry_equiv_pos_site_id
 _symmetry_equiv_pos_as_xyz
  1  'x, y, z'
loop_
 _atom_site_type_symbol
 _atom_site_label
 _atom_site_symmetry_multiplicity
 _atom_site_fract_x
 _atom_site_fract_y
 _atom_site_fract_z
 _atom_site_occupancy
  La  La0  1  0.252515  0.690922  0.440643  1
  La  La1  1  0.746225  0.817732  0.061888  1
  La  La2  1  0.438407  0.247485  0.688127  1
  La  La3  1  0.682268  0.428494  0.244157  1
  La  La4  1  0.071507  0.753775  0.815664  1
  La  La5  1  0.809078  0.061594  0.749721  1
  La  La6  1  0.211072  0.209976  0.211807  1
  La  La7  1  0.500001  0.000000  0.282221  1
  La  La8  1  0.290024  0.501098  0.001832  1
  La  La9  1  0.998903  0.288928  0.500736  1
  Zn  Zn10  1  0.500001  0.000000  0.914796  1
  Cd  Cd11  1  0.589815  0.588064  0.589345  1
  Cd  Cd12  1  0.911936  0.501752  0.001281  1
  Cd  Cd13  1  0.998249  0.910185  0.499531  1
  Ru  Ru14  1  0.261216  0.134145  0.891197  1
  Ru  Ru15  1  0.751517  0.359015  0.610184  1
  Ru  Ru16  1  0.872930  0.238786  0.129982  1
  Ru  Ru17  1  0.140984  0.892500  0.251170  1
  Ru  Ru18  1  0.607499  0.748483  0.358668  1
  Ru  Ru19  1  0.365854  0.627069  0.757052  1
