# generated using pymatgen
data_Hf12Th8Si15Pt
_symmetry_space_group_name_H-M   'P 1'
_cell_length_a   7.42673755
_cell_length_b   7.38200440
_cell_length_c   13.63767629
_cell_angle_alpha   90.19024322
_cell_angle_beta   90.18362707
_cell_angle_gamma   90.17938964
_symmetry_Int_Tables_number   1
_chemical_formula_structural   Hf12Th8Si15Pt
_chemical_formula_sum   'Hf12 Th8 Si15 Pt1'
_cell_volume   747.66316845
_cell_formula_units_Z   1
loop_
 _symmetry_equiv_pos_site_id
 _symmetry_equiv_pos_as_xyz
  1  'x, y, z'
loop_
 _atom_site_type_symbol
 _atom_site_label
 _atom_site_symmetry_multiplicity
 _atom_site_fract_x
 _atom_site_fract_y
 _atom_site_fract_z
 _atom_site_occupancy
  Hf  Hf0  1  0.673197  0.327265  0.748669  1
  Hf  Hf1  1  0.325990  0.674003  0.250321  1
  Hf  Hf2  1  0.825720  0.827091  0.500404  1
  Hf  Hf3  1  0.178714  0.170555  0.998939  1
  Hf  Hf4  1  0.496687  0.345768  0.126278  1
  Hf  Hf5  1  0.502610  0.655841  0.624038  1
  Hf  Hf6  1  0.845347  0.004216  0.873862  1
  Hf  Hf7  1  0.154263  0.995873  0.375233  1
  Hf  Hf8  1  0.653946  0.501751  0.375084  1
  Hf  Hf9  1  0.346236  0.499174  0.874097  1
  Hf  Hf10  1  0.006003  0.846490  0.127973  1
  Hf  Hf11  1  0.997419  0.155175  0.624404  1
  Th  Th12  1  0.496791  0.156869  0.534101  1
  Th  Th13  1  0.501926  0.844246  0.034798  1
  Th  Th14  1  0.656603  0.003371  0.285901  1
  Th  Th15  1  0.343277  0.996796  0.782769  1
  Th  Th16  1  0.842658  0.501394  0.965749  1
  Th  Th17  1  0.156367  0.496345  0.464832  1
  Th  Th18  1  0.004656  0.658328  0.716420  1
  Th  Th19  1  0.994286  0.339586  0.216206  1
  Si  Si20  1  0.201152  0.866441  0.565753  1
  Si  Si21  1  0.633458  0.702770  0.815115  1
  Si  Si22  1  0.367689  0.296629  0.315772  1
  Si  Si23  1  0.867794  0.202176  0.434667  1
  Si  Si24  1  0.134292  0.797875  0.934332  1
  Si  Si25  1  0.700835  0.632650  0.185709  1
  Si  Si26  1  0.298122  0.368513  0.684324  1
  Si  Si27  1  0.544463  0.212126  0.933922  1
  Si  Si28  1  0.453278  0.788678  0.435019  1
  Si  Si29  1  0.710399  0.955115  0.684695  1
  Si  Si30  1  0.291400  0.047002  0.186343  1
  Si  Si31  1  0.790570  0.454434  0.564984  1
  Si  Si32  1  0.209320  0.545561  0.064462  1
  Si  Si33  1  0.951782  0.710379  0.315520  1
  Si  Si34  1  0.047587  0.289653  0.814009  1
  Pt  Pt35  1  0.795164  0.129861  0.065295  1
