# generated using pymatgen
data_YCdBi2Ir2(RhO7)2
_symmetry_space_group_name_H-M   'P 1'
_cell_length_a   7.18991752
_cell_length_b   7.20037433
_cell_length_c   7.20037400
_cell_angle_alpha   60.98598573
_cell_angle_beta   61.02281381
_cell_angle_gamma   61.02281559
_symmetry_Int_Tables_number   1
_chemical_formula_structural   YCdBi2Ir2(RhO7)2
_chemical_formula_sum   'Y1 Cd1 Bi2 Ir2 Rh2 O14'
_cell_volume   269.58326262
_cell_formula_units_Z   1
loop_
 _symmetry_equiv_pos_site_id
 _symmetry_equiv_pos_as_xyz
  1  'x, y, z'
loop_
 _atom_site_type_symbol
 _atom_site_label
 _atom_site_symmetry_multiplicity
 _atom_site_fract_x
 _atom_site_fract_y
 _atom_site_fract_z
 _atom_site_occupancy
  Y  Y0  1  0.625000  0.125000  0.125000  1
  Cd  Cd1  1  0.125000  0.125000  0.125000  1
  Bi  Bi2  1  0.125000  0.625000  0.125000  1
  Bi  Bi3  1  0.125000  0.125000  0.625000  1
  Ir  Ir4  1  0.625000  0.125000  0.625000  1
  Ir  Ir5  1  0.625000  0.625000  0.125000  1
  Rh  Rh6  1  0.125000  0.625000  0.625000  1
  Rh  Rh7  1  0.625000  0.625000  0.625000  1
  O  O8  1  0.706162  0.717140  0.288278  1
  O  O9  1  0.297538  0.291203  0.705805  1
  O  O10  1  0.706162  0.288278  0.717140  1
  O  O11  1  0.297538  0.705805  0.291203  1
  O  O12  1  0.291718  0.709908  0.709908  1
  O  O13  1  0.688387  0.299982  0.299982  1
  O  O14  1  0.543838  0.532860  0.961722  1
  O  O15  1  0.952462  0.958797  0.544195  1
  O  O16  1  0.543838  0.961722  0.532860  1
  O  O17  1  0.952462  0.544195  0.958797  1
  O  O18  1  0.958282  0.540092  0.540092  1
  O  O19  1  0.561613  0.950018  0.950018  1
  O  O20  1  0.254169  0.244788  0.244788  1
  O  O21  1  0.995831  0.005212  0.005212  1
