# generated using pymatgen
data_YNpB6Mo
_symmetry_space_group_name_H-M   'P 1'
_cell_length_a   3.63064000
_cell_length_b   9.34930400
_cell_length_c   11.41311200
_cell_angle_alpha   90.00000000
_cell_angle_beta   90.00000000
_cell_angle_gamma   90.00000000
_symmetry_Int_Tables_number   1
_chemical_formula_structural   YNpB6Mo
_chemical_formula_sum   'Y4 Np4 B24 Mo4'
_cell_volume   387.40618382
_cell_formula_units_Z   4
loop_
 _symmetry_equiv_pos_site_id
 _symmetry_equiv_pos_as_xyz
  1  'x, y, z'
loop_
 _atom_site_type_symbol
 _atom_site_label
 _atom_site_symmetry_multiplicity
 _atom_site_fract_x
 _atom_site_fract_y
 _atom_site_fract_z
 _atom_site_occupancy
  Y  Y0  1  0.000000  0.338485  0.407980  1
  Y  Y1  1  0.000000  0.661515  0.592020  1
  Y  Y2  1  0.000000  0.838485  0.092020  1
  Y  Y3  1  0.000000  0.161515  0.907980  1
  Np  Np4  1  0.000000  0.959172  0.400568  1
  Np  Np5  1  0.000000  0.040828  0.599432  1
  Np  Np6  1  0.000000  0.459172  0.099432  1
  Np  Np7  1  0.000000  0.540828  0.900568  1
  B  B8  1  0.500000  0.552380  0.431852  1
  B  B9  1  0.500000  0.447620  0.568148  1
  B  B10  1  0.500000  0.052380  0.068148  1
  B  B11  1  0.500000  0.947620  0.931852  1
  B  B12  1  0.500000  0.746606  0.423649  1
  B  B13  1  0.500000  0.253394  0.576351  1
  B  B14  1  0.500000  0.246606  0.076351  1
  B  B15  1  0.500000  0.753394  0.923649  1
  B  B16  1  0.500000  0.806538  0.275406  1
  B  B17  1  0.500000  0.193462  0.724594  1
  B  B18  1  0.500000  0.306538  0.224594  1
  B  B19  1  0.500000  0.693462  0.775406  1
  B  B20  1  0.500000  0.644046  0.186843  1
  B  B21  1  0.500000  0.355954  0.813157  1
  B  B22  1  0.500000  0.144046  0.313157  1
  B  B23  1  0.500000  0.855954  0.686843  1
  B  B24  1  0.500000  0.988437  0.221795  1
  B  B25  1  0.500000  0.011563  0.778205  1
  B  B26  1  0.500000  0.488437  0.278205  1
  B  B27  1  0.500000  0.511563  0.721795  1
  B  B28  1  0.500000  0.638183  0.038339  1
  B  B29  1  0.500000  0.361817  0.961661  1
  B  B30  1  0.500000  0.138183  0.461661  1
  B  B31  1  0.500000  0.861817  0.538339  1
  Mo  Mo32  1  0.000000  0.647852  0.317516  1
  Mo  Mo33  1  0.000000  0.352148  0.682484  1
  Mo  Mo34  1  0.000000  0.147852  0.182484  1
  Mo  Mo35  1  0.000000  0.852148  0.817516  1
