# generated using pymatgen
data_Tb16In2NiAg2Ir3
_symmetry_space_group_name_H-M   'P 1'
_cell_length_a   9.60934881
_cell_length_b   9.59190882
_cell_length_c   9.59197090
_cell_angle_alpha   60.43532259
_cell_angle_beta   60.35692697
_cell_angle_gamma   60.35682239
_symmetry_Int_Tables_number   1
_chemical_formula_structural   Tb16In2NiAg2Ir3
_chemical_formula_sum   'Tb16 In2 Ni1 Ag2 Ir3'
_cell_volume   630.57588794
_cell_formula_units_Z   1
loop_
 _symmetry_equiv_pos_site_id
 _symmetry_equiv_pos_as_xyz
  1  'x, y, z'
loop_
 _atom_site_type_symbol
 _atom_site_label
 _atom_site_symmetry_multiplicity
 _atom_site_fract_x
 _atom_site_fract_y
 _atom_site_fract_z
 _atom_site_occupancy
  Tb  Tb0  1  0.099146  0.700572  0.099467  1
  Tb  Tb1  1  0.941991  0.940309  0.560753  1
  Tb  Tb2  1  0.941994  0.560751  0.940303  1
  Tb  Tb3  1  0.312026  0.686063  0.310516  1
  Tb  Tb4  1  0.937685  0.560382  0.560391  1
  Tb  Tb5  1  0.312029  0.310513  0.686068  1
  Tb  Tb6  1  0.100432  0.099271  0.099250  1
  Tb  Tb7  1  0.558423  0.559902  0.939350  1
  Tb  Tb8  1  0.099141  0.099472  0.700576  1
  Tb  Tb9  1  0.691289  0.312522  0.684418  1
  Tb  Tb10  1  0.691290  0.684412  0.312526  1
  Tb  Tb11  1  0.691943  0.309369  0.309372  1
  Tb  Tb12  1  0.315076  0.686898  0.686903  1
  Tb  Tb13  1  0.558418  0.939350  0.559909  1
  Tb  Tb14  1  0.700781  0.098430  0.098417  1
  Tb  Tb15  1  0.557460  0.942526  0.942525  1
  In  In16  1  0.329259  0.007646  0.334187  1
  In  In17  1  0.329259  0.334186  0.007647  1
  Ni  Ni18  1  0.891209  0.892190  0.892180  1
  Ag  Ag19  1  0.331815  0.332761  0.332763  1
  Ag  Ag20  1  0.000750  0.334181  0.334183  1
  Ir  Ir21  1  0.892035  0.892014  0.324155  1
  Ir  Ir22  1  0.324515  0.892124  0.892125  1
  Ir  Ir23  1  0.892033  0.324155  0.892013  1
