# generated using pymatgen
data_Ho4Si4Ir2RuRh
_symmetry_space_group_name_H-M   'P 1'
_cell_length_a   4.27923800
_cell_length_b   6.89898648
_cell_length_c   7.28941296
_cell_angle_alpha   90.12641529
_cell_angle_beta   90.00000000
_cell_angle_gamma   90.00000000
_symmetry_Int_Tables_number   1
_chemical_formula_structural   Ho4Si4Ir2RuRh
_chemical_formula_sum   'Ho4 Si4 Ir2 Ru1 Rh1'
_cell_volume   215.20047873
_cell_formula_units_Z   1
loop_
 _symmetry_equiv_pos_site_id
 _symmetry_equiv_pos_as_xyz
  1  'x, y, z'
loop_
 _atom_site_type_symbol
 _atom_site_label
 _atom_site_symmetry_multiplicity
 _atom_site_fract_x
 _atom_site_fract_y
 _atom_site_fract_z
 _atom_site_occupancy
  Ho  Ho0  1  0.250000  0.992045  0.812900  1
  Ho  Ho1  1  0.750000  0.006746  0.188775  1
  Ho  Ho2  1  0.250000  0.496981  0.685885  1
  Ho  Ho3  1  0.750000  0.505815  0.313266  1
  Si  Si4  1  0.250000  0.300886  0.104154  1
  Si  Si5  1  0.750000  0.700861  0.896774  1
  Si  Si6  1  0.250000  0.798121  0.388129  1
  Si  Si7  1  0.750000  0.201217  0.611342  1
  Ir  Ir8  1  0.750000  0.843576  0.568200  1
  Ir  Ir9  1  0.750000  0.343121  0.931981  1
  Ru  Ru10  1  0.250000  0.653911  0.066598  1
  Rh  Rh11  1  0.250000  0.156720  0.431995  1
