# generated using pymatgen
data_NaHf2Np(SbPt)4
_symmetry_space_group_name_H-M   'P 1'
_cell_length_a   6.50450354
_cell_length_b   6.50450365
_cell_length_c   7.96612812
_cell_angle_alpha   65.90441798
_cell_angle_beta   65.90442408
_cell_angle_gamma   89.99999742
_symmetry_Int_Tables_number   1
_chemical_formula_structural   NaHf2Np(SbPt)4
_chemical_formula_sum   'Na1 Hf2 Np1 Sb4 Pt4'
_cell_volume   275.18435393
_cell_formula_units_Z   1
loop_
 _symmetry_equiv_pos_site_id
 _symmetry_equiv_pos_as_xyz
  1  'x, y, z'
loop_
 _atom_site_type_symbol
 _atom_site_label
 _atom_site_symmetry_multiplicity
 _atom_site_fract_x
 _atom_site_fract_y
 _atom_site_fract_z
 _atom_site_occupancy
  Na  Na0  1  0.000000  0.000000  0.000000  1
  Hf  Hf1  1  0.499999  0.499999  0.000000  1
  Hf  Hf2  1  0.750000  0.250000  0.500001  1
  Np  Np3  1  0.250000  0.750000  0.500001  1
  Sb  Sb4  1  0.498148  0.998149  0.003703  1
  Sb  Sb5  1  0.758443  0.758443  0.483114  1
  Sb  Sb6  1  0.241557  0.241557  0.516886  1
  Sb  Sb7  1  0.001853  0.501853  0.996295  1
  Pt  Pt8  1  0.617065  0.593379  0.255379  1
  Pt  Pt9  1  0.127557  0.151240  0.255380  1
  Pt  Pt10  1  0.406620  0.872444  0.744620  1
  Pt  Pt11  1  0.848758  0.382936  0.744621  1
