# generated using pymatgen
data_Y2Tm3Zr3(Ni4P3)4
_symmetry_space_group_name_H-M   'P 1'
_cell_length_a   12.32568700
_cell_length_b   12.32568633
_cell_length_c   3.79263300
_cell_angle_alpha   90.00000000
_cell_angle_beta   90.00000000
_cell_angle_gamma   120.00000448
_symmetry_Int_Tables_number   1
_chemical_formula_structural   Y2Tm3Zr3(Ni4P3)4
_chemical_formula_sum   'Y2 Tm3 Zr3 Ni16 P12'
_cell_volume   498.99210934
_cell_formula_units_Z   1
loop_
 _symmetry_equiv_pos_site_id
 _symmetry_equiv_pos_as_xyz
  1  'x, y, z'
loop_
 _atom_site_type_symbol
 _atom_site_label
 _atom_site_symmetry_multiplicity
 _atom_site_fract_x
 _atom_site_fract_y
 _atom_site_fract_z
 _atom_site_occupancy
  Y  Y0  1  0.333333  0.666667  0.000000  1
  Y  Y1  1  0.666667  0.333333  0.000000  1
  Tm  Tm2  1  0.183504  0.183504  0.500000  1
  Tm  Tm3  1  0.816496  0.000000  0.500000  1
  Tm  Tm4  1  0.000000  0.816496  0.500000  1
  Zr  Zr5  1  0.560637  0.560637  0.000000  1
  Zr  Zr6  1  0.439363  0.000000  0.000000  1
  Zr  Zr7  1  0.000000  0.439363  0.000000  1
  Ni  Ni8  1  0.727793  0.727793  0.500000  1
  Ni  Ni9  1  0.272207  0.000000  0.500000  1
  Ni  Ni10  1  0.000000  0.272207  0.500000  1
  Ni  Ni11  1  0.184256  0.374442  0.000000  1
  Ni  Ni12  1  0.625558  0.809814  0.000000  1
  Ni  Ni13  1  0.190186  0.815744  0.000000  1
  Ni  Ni14  1  0.809814  0.625558  0.000000  1
  Ni  Ni15  1  0.815744  0.190186  0.000000  1
  Ni  Ni16  1  0.374442  0.184256  0.000000  1
  Ni  Ni17  1  0.359277  0.483399  0.500000  1
  Ni  Ni18  1  0.516601  0.875879  0.500000  1
  Ni  Ni19  1  0.124121  0.640723  0.500000  1
  Ni  Ni20  1  0.875879  0.516601  0.500000  1
  Ni  Ni21  1  0.640723  0.124121  0.500000  1
  Ni  Ni22  1  0.483399  0.359277  0.500000  1
  Ni  Ni23  1  0.000000  0.000000  0.000000  1
  P  P24  1  0.823332  0.823332  0.000000  1
  P  P25  1  0.176668  0.000000  0.000000  1
  P  P26  1  0.000000  0.176668  0.000000  1
  P  P27  1  0.170370  0.475718  0.500000  1
  P  P28  1  0.524282  0.694651  0.500000  1
  P  P29  1  0.305349  0.829630  0.500000  1
  P  P30  1  0.694651  0.524282  0.500000  1
  P  P31  1  0.829630  0.305349  0.500000  1
  P  P32  1  0.475718  0.170370  0.500000  1
  P  P33  1  0.354526  0.354526  0.000000  1
  P  P34  1  0.645474  0.000000  0.000000  1
  P  P35  1  0.000000  0.645474  0.000000  1
