# generated using pymatgen
data_SmYEr4Ta2O14
_symmetry_space_group_name_H-M   'P 1'
_cell_length_a   6.43826437
_cell_length_b   6.43826494
_cell_length_c   7.51650502
_cell_angle_alpha   89.95126828
_cell_angle_beta   90.04873492
_cell_angle_gamma   109.34023353
_symmetry_Int_Tables_number   1
_chemical_formula_structural   SmYEr4Ta2O14
_chemical_formula_sum   'Sm1 Y1 Er4 Ta2 O14'
_cell_volume   293.98614243
_cell_formula_units_Z   1
loop_
 _symmetry_equiv_pos_site_id
 _symmetry_equiv_pos_as_xyz
  1  'x, y, z'
loop_
 _atom_site_type_symbol
 _atom_site_label
 _atom_site_symmetry_multiplicity
 _atom_site_fract_x
 _atom_site_fract_y
 _atom_site_fract_z
 _atom_site_occupancy
  Sm  Sm0  1  0.500000  0.500000  0.500000  1
  Y  Y1  1  0.500000  0.500000  0.000000  1
  Er  Er2  1  0.533897  0.000935  0.751576  1
  Er  Er3  1  0.000935  0.533897  0.248424  1
  Er  Er4  1  0.466103  0.999065  0.248424  1
  Er  Er5  1  0.999065  0.466103  0.751576  1
  Ta  Ta6  1  0.000000  0.000000  0.500000  1
  Ta  Ta7  1  0.000000  0.000000  0.000000  1
  O  O8  1  0.677131  0.929511  0.466814  1
  O  O9  1  0.929511  0.677131  0.533186  1
  O  O10  1  0.677530  0.928670  0.033074  1
  O  O11  1  0.928670  0.677530  0.966926  1
  O  O12  1  0.322869  0.070489  0.533186  1
  O  O13  1  0.070489  0.322869  0.466814  1
  O  O14  1  0.322470  0.071330  0.966926  1
  O  O15  1  0.071330  0.322470  0.033074  1
  O  O16  1  0.932533  0.067467  0.749819  1
  O  O17  1  0.067467  0.932533  0.250181  1
  O  O18  1  0.366945  0.633055  0.754880  1
  O  O19  1  0.633055  0.366945  0.245120  1
  O  O20  1  0.641208  0.358792  0.753753  1
  O  O21  1  0.358792  0.641208  0.246247  1
