# generated using pymatgen
data_Dy9Ho5Tm2(Ga3Co)2
_symmetry_space_group_name_H-M   'P 1'
_cell_length_a   9.96779100
_cell_length_b   9.96747747
_cell_length_c   6.93929405
_cell_angle_alpha   89.98838527
_cell_angle_beta   90.00000000
_cell_angle_gamma   120.00103058
_symmetry_Int_Tables_number   1
_chemical_formula_structural   Dy9Ho5Tm2(Ga3Co)2
_chemical_formula_sum   'Dy9 Ho5 Tm2 Ga6 Co2'
_cell_volume   597.07046209
_cell_formula_units_Z   1
loop_
 _symmetry_equiv_pos_site_id
 _symmetry_equiv_pos_as_xyz
  1  'x, y, z'
loop_
 _atom_site_type_symbol
 _atom_site_label
 _atom_site_symmetry_multiplicity
 _atom_site_fract_x
 _atom_site_fract_y
 _atom_site_fract_z
 _atom_site_occupancy
  Dy  Dy0  1  0.666840  0.333680  0.327917  1
  Dy  Dy1  1  0.463508  0.536965  0.207258  1
  Dy  Dy2  1  0.073455  0.536965  0.207258  1
  Dy  Dy3  1  0.463128  0.926256  0.207424  1
  Dy  Dy4  1  0.536690  0.463851  0.708629  1
  Dy  Dy5  1  0.927161  0.463851  0.708629  1
  Dy  Dy6  1  0.536402  0.072803  0.708298  1
  Dy  Dy7  1  0.999940  0.999879  0.231826  1
  Dy  Dy8  1  0.999829  0.999657  0.731480  1
  Ho  Ho9  1  0.173397  0.826627  0.512427  1
  Ho  Ho10  1  0.653229  0.826627  0.512427  1
  Ho  Ho11  1  0.173403  0.346808  0.512360  1
  Ho  Ho12  1  0.827230  0.172737  0.011248  1
  Ho  Ho13  1  0.345507  0.172737  0.011248  1
  Tm  Tm14  1  0.827034  0.654069  0.011295  1
  Tm  Tm15  1  0.333343  0.666686  0.826210  1
  Ga  Ga16  1  0.163100  0.835483  0.957537  1
  Ga  Ga17  1  0.672384  0.835483  0.957537  1
  Ga  Ga18  1  0.164048  0.328095  0.957398  1
  Ga  Ga19  1  0.836840  0.163183  0.458483  1
  Ga  Ga20  1  0.326342  0.163183  0.458483  1
  Ga  Ga21  1  0.836882  0.673766  0.457741  1
  Co  Co22  1  0.333337  0.666675  0.445240  1
  Co  Co23  1  0.666968  0.333935  0.946484  1
