# generated using pymatgen
data_Er3USi2Ru3
_symmetry_space_group_name_H-M   'P 1'
_cell_length_a   6.94764400
_cell_length_b   6.94764519
_cell_length_c   4.09589700
_cell_angle_alpha   90.00000000
_cell_angle_beta   90.00000000
_cell_angle_gamma   120.00000385
_symmetry_Int_Tables_number   1
_chemical_formula_structural   Er3USi2Ru3
_chemical_formula_sum   'Er3 U1 Si2 Ru3'
_cell_volume   171.22013302
_cell_formula_units_Z   1
loop_
 _symmetry_equiv_pos_site_id
 _symmetry_equiv_pos_as_xyz
  1  'x, y, z'
loop_
 _atom_site_type_symbol
 _atom_site_label
 _atom_site_symmetry_multiplicity
 _atom_site_fract_x
 _atom_site_fract_y
 _atom_site_fract_z
 _atom_site_occupancy
  Er  Er0  1  0.457316  0.457316  0.000000  1
  Er  Er1  1  0.542684  0.000000  0.000000  1
  Er  Er2  1  0.000000  0.542684  0.000000  1
  U  U3  1  0.000000  0.000000  0.000000  1
  Si  Si4  1  0.666667  0.333333  0.500000  1
  Si  Si5  1  0.333333  0.666667  0.500000  1
  Ru  Ru6  1  0.000000  0.238874  0.500000  1
  Ru  Ru7  1  0.761126  0.761126  0.500000  1
  Ru  Ru8  1  0.238874  0.000000  0.500000  1
