# generated using pymatgen
data_Dy4Tm12AlNi4Ag3
_symmetry_space_group_name_H-M   'P 1'
_cell_length_a   9.30656948
_cell_length_b   9.34831321
_cell_length_c   9.34831200
_cell_angle_alpha   59.99999722
_cell_angle_beta   59.85150993
_cell_angle_gamma   59.85151319
_symmetry_Int_Tables_number   1
_chemical_formula_structural   Dy4Tm12AlNi4Ag3
_chemical_formula_sum   'Dy4 Tm12 Al1 Ni4 Ag3'
_cell_volume   573.80282768
_cell_formula_units_Z   1
loop_
 _symmetry_equiv_pos_site_id
 _symmetry_equiv_pos_as_xyz
  1  'x, y, z'
loop_
 _atom_site_type_symbol
 _atom_site_label
 _atom_site_symmetry_multiplicity
 _atom_site_fract_x
 _atom_site_fract_y
 _atom_site_fract_z
 _atom_site_occupancy
  Dy  Dy0  1  0.349927  0.351943  0.351943  1
  Dy  Dy1  1  0.349927  0.351943  0.946188  1
  Dy  Dy2  1  0.349927  0.946188  0.351943  1
  Dy  Dy3  1  0.944397  0.351867  0.351867  1
  Tm  Tm4  1  0.811959  0.188173  0.188173  1
  Tm  Tm5  1  0.188912  0.809897  0.809897  1
  Tm  Tm6  1  0.188912  0.809897  0.191293  1
  Tm  Tm7  1  0.811959  0.188173  0.811695  1
  Tm  Tm8  1  0.188912  0.191293  0.809897  1
  Tm  Tm9  1  0.811959  0.811695  0.188173  1
  Tm  Tm10  1  0.935862  0.564742  0.564742  1
  Tm  Tm11  1  0.564209  0.935798  0.935798  1
  Tm  Tm12  1  0.564209  0.935798  0.564196  1
  Tm  Tm13  1  0.935862  0.564742  0.934654  1
  Tm  Tm14  1  0.564209  0.564196  0.935798  1
  Tm  Tm15  1  0.935862  0.934654  0.564742  1
  Al  Al16  1  0.265191  0.578270  0.578270  1
  Ni  Ni17  1  0.142120  0.142353  0.142353  1
  Ni  Ni18  1  0.142120  0.142353  0.573177  1
  Ni  Ni19  1  0.142120  0.573177  0.142353  1
  Ni  Ni20  1  0.571310  0.142896  0.142896  1
  Ag  Ag21  1  0.580048  0.583434  0.583434  1
  Ag  Ag22  1  0.580048  0.583434  0.253086  1
  Ag  Ag23  1  0.580048  0.253086  0.583434  1
