# generated using pymatgen
data_Th10Sn6PAu
_symmetry_space_group_name_H-M   'P 1'
_cell_length_a   9.53674700
_cell_length_b   9.53674797
_cell_length_c   6.60791700
_cell_angle_alpha   90.00000000
_cell_angle_beta   90.00000000
_cell_angle_gamma   120.00000011
_symmetry_Int_Tables_number   1
_chemical_formula_structural   Th10Sn6PAu
_chemical_formula_sum   'Th10 Sn6 P1 Au1'
_cell_volume   520.47009065
_cell_formula_units_Z   1
loop_
 _symmetry_equiv_pos_site_id
 _symmetry_equiv_pos_as_xyz
  1  'x, y, z'
loop_
 _atom_site_type_symbol
 _atom_site_label
 _atom_site_symmetry_multiplicity
 _atom_site_fract_x
 _atom_site_fract_y
 _atom_site_fract_z
 _atom_site_occupancy
  Th  Th0  1  0.262437  0.000000  0.737323  1
  Th  Th1  1  0.737563  0.000000  0.262677  1
  Th  Th2  1  0.000000  0.262437  0.737323  1
  Th  Th3  1  0.000000  0.737563  0.262677  1
  Th  Th4  1  0.737563  0.737563  0.737323  1
  Th  Th5  1  0.262437  0.262437  0.262677  1
  Th  Th6  1  0.333333  0.666667  0.500000  1
  Th  Th7  1  0.666667  0.333333  0.500000  1
  Th  Th8  1  0.666667  0.333333  0.000000  1
  Th  Th9  1  0.333333  0.666667  0.000000  1
  Sn  Sn10  1  0.614447  0.000000  0.755040  1
  Sn  Sn11  1  0.385553  0.000000  0.244960  1
  Sn  Sn12  1  0.000000  0.614447  0.755040  1
  Sn  Sn13  1  0.000000  0.385553  0.244960  1
  Sn  Sn14  1  0.385553  0.385553  0.755040  1
  Sn  Sn15  1  0.614447  0.614447  0.244960  1
  P  P16  1  0.000000  0.000000  0.500000  1
  Au  Au17  1  0.000000  0.000000  0.000000  1
