# generated using pymatgen
data_Y9TmPb8
_symmetry_space_group_name_H-M   'P 1'
_cell_length_a   8.22296510
_cell_length_b   15.67797100
_cell_length_c   8.29311700
_cell_angle_alpha   90.00000000
_cell_angle_beta   89.99108125
_cell_angle_gamma   90.00000000
_symmetry_Int_Tables_number   1
_chemical_formula_structural   Y9TmPb8
_chemical_formula_sum   'Y18 Tm2 Pb16'
_cell_volume   1069.14372420
_cell_formula_units_Z   2
loop_
 _symmetry_equiv_pos_site_id
 _symmetry_equiv_pos_as_xyz
  1  'x, y, z'
loop_
 _atom_site_type_symbol
 _atom_site_label
 _atom_site_symmetry_multiplicity
 _atom_site_fract_x
 _atom_site_fract_y
 _atom_site_fract_z
 _atom_site_occupancy
  Y  Y0  1  0.623038  0.620825  0.159318  1
  Y  Y1  1  0.122529  0.879102  0.341439  1
  Y  Y2  1  0.377510  0.120964  0.841497  1
  Y  Y3  1  0.876734  0.379126  0.659200  1
  Y  Y4  1  0.377510  0.379036  0.841497  1
  Y  Y5  1  0.876734  0.120874  0.659200  1
  Y  Y6  1  0.623038  0.879175  0.159318  1
  Y  Y7  1  0.122529  0.620898  0.341439  1
  Y  Y8  1  0.465423  0.600088  0.676046  1
  Y  Y9  1  0.964660  0.899937  0.823665  1
  Y  Y10  1  0.535070  0.100101  0.323336  1
  Y  Y11  1  0.034798  0.399715  0.175943  1
  Y  Y12  1  0.535070  0.399899  0.323336  1
  Y  Y13  1  0.034798  0.100285  0.175943  1
  Y  Y14  1  0.465423  0.899912  0.676046  1
  Y  Y15  1  0.964660  0.600063  0.823665  1
  Y  Y16  1  0.291094  0.750000  0.002991  1
  Y  Y17  1  0.209172  0.250000  0.503329  1
  Tm  Tm18  1  0.709480  0.250000  0.995807  1
  Tm  Tm19  1  0.790732  0.750000  0.495844  1
  Pb  Pb20  1  0.717654  0.456822  0.967426  1
  Pb  Pb21  1  0.217975  0.042543  0.533272  1
  Pb  Pb22  1  0.282176  0.957386  0.033003  1
  Pb  Pb23  1  0.782229  0.543116  0.467266  1
  Pb  Pb24  1  0.282176  0.542614  0.033003  1
  Pb  Pb25  1  0.782229  0.956884  0.467266  1
  Pb  Pb26  1  0.717654  0.043178  0.967426  1
  Pb  Pb27  1  0.217975  0.457457  0.533272  1
  Pb  Pb28  1  0.428653  0.750000  0.375860  1
  Pb  Pb29  1  0.927476  0.750000  0.125302  1
  Pb  Pb30  1  0.572714  0.250000  0.625280  1
  Pb  Pb31  1  0.071556  0.250000  0.875939  1
  Pb  Pb32  1  0.654653  0.750000  0.846948  1
  Pb  Pb33  1  0.153315  0.750000  0.651477  1
  Pb  Pb34  1  0.346700  0.250000  0.151520  1
  Pb  Pb35  1  0.844855  0.250000  0.346879  1
