# generated using pymatgen
data_Zn22RuPt3
_symmetry_space_group_name_H-M   'P 1'
_cell_length_a   7.94999546
_cell_length_b   7.94999588
_cell_length_c   7.94999535
_cell_angle_alpha   109.52377225
_cell_angle_beta   109.52376865
_cell_angle_gamma   109.52377099
_symmetry_Int_Tables_number   1
_chemical_formula_structural   Zn22RuPt3
_chemical_formula_sum   'Zn22 Ru1 Pt3'
_cell_volume   386.03876157
_cell_formula_units_Z   1
loop_
 _symmetry_equiv_pos_site_id
 _symmetry_equiv_pos_as_xyz
  1  'x, y, z'
loop_
 _atom_site_type_symbol
 _atom_site_label
 _atom_site_symmetry_multiplicity
 _atom_site_fract_x
 _atom_site_fract_y
 _atom_site_fract_z
 _atom_site_occupancy
  Zn  Zn0  1  0.784728  0.995217  0.995217  1
  Zn  Zn1  1  0.650035  0.269395  0.001198  1
  Zn  Zn2  1  0.355370  0.355370  0.995004  1
  Zn  Zn3  1  0.640992  0.640992  0.998319  1
  Zn  Zn4  1  0.269395  0.650035  0.001198  1
  Zn  Zn5  1  0.995217  0.784728  0.995217  1
  Zn  Zn6  1  0.220314  0.220314  0.220314  1
  Zn  Zn7  1  0.650035  0.001198  0.269395  1
  Zn  Zn8  1  0.001198  0.650035  0.269395  1
  Zn  Zn9  1  0.619138  0.354289  0.354289  1
  Zn  Zn10  1  0.354289  0.619138  0.354289  1
  Zn  Zn11  1  0.355370  0.995004  0.355370  1
  Zn  Zn12  1  0.995004  0.355370  0.355370  1
  Zn  Zn13  1  0.731157  0.731157  0.382099  1
  Zn  Zn14  1  0.354289  0.354289  0.619138  1
  Zn  Zn15  1  0.640992  0.998319  0.640992  1
  Zn  Zn16  1  0.998319  0.640992  0.640992  1
  Zn  Zn17  1  0.269395  0.001198  0.650035  1
  Zn  Zn18  1  0.001198  0.269395  0.650035  1
  Zn  Zn19  1  0.731157  0.382099  0.731157  1
  Zn  Zn20  1  0.382099  0.731157  0.731157  1
  Zn  Zn21  1  0.995217  0.995217  0.784728  1
  Ru  Ru22  1  0.654745  0.654745  0.654745  1
  Pt  Pt23  1  0.347144  0.001604  0.001604  1
  Pt  Pt24  1  0.001604  0.347144  0.001604  1
  Pt  Pt25  1  0.001604  0.001604  0.347144  1
