# generated using pymatgen
data_Gd6ReB14Os
_symmetry_space_group_name_H-M   'P 1'
_cell_length_a   3.54705200
_cell_length_b   8.17279124
_cell_length_c   9.40384900
_cell_angle_alpha   90.00000000
_cell_angle_beta   90.00000000
_cell_angle_gamma   102.53310702
_symmetry_Int_Tables_number   1
_chemical_formula_structural   Gd6ReB14Os
_chemical_formula_sum   'Gd6 Re1 B14 Os1'
_cell_volume   266.11503475
_cell_formula_units_Z   1
loop_
 _symmetry_equiv_pos_site_id
 _symmetry_equiv_pos_as_xyz
  1  'x, y, z'
loop_
 _atom_site_type_symbol
 _atom_site_label
 _atom_site_symmetry_multiplicity
 _atom_site_fract_x
 _atom_site_fract_y
 _atom_site_fract_z
 _atom_site_occupancy
  Gd  Gd0  1  0.105687  0.211375  0.438775  1
  Gd  Gd1  1  0.894346  0.788691  0.562096  1
  Gd  Gd2  1  0.105687  0.211375  0.061225  1
  Gd  Gd3  1  0.894346  0.788691  0.937904  1
  Gd  Gd4  1  0.756142  0.512284  0.250000  1
  Gd  Gd5  1  0.243564  0.487129  0.750000  1
  Re  Re6  1  0.054069  0.108138  0.750000  1
  B  B7  1  0.273436  0.546873  0.466700  1
  B  B8  1  0.727158  0.454314  0.532024  1
  B  B9  1  0.273436  0.546873  0.033300  1
  B  B10  1  0.727158  0.454314  0.967976  1
  B  B11  1  0.367976  0.735952  0.151322  1
  B  B12  1  0.632624  0.265248  0.849572  1
  B  B13  1  0.367976  0.735952  0.348678  1
  B  B14  1  0.632624  0.265248  0.650428  1
  B  B15  1  0.478161  0.956320  0.096918  1
  B  B16  1  0.521586  0.043172  0.904299  1
  B  B17  1  0.478161  0.956320  0.403082  1
  B  B18  1  0.521586  0.043172  0.595701  1
  B  B19  1  0.540161  0.080323  0.250000  1
  B  B20  1  0.459069  0.918136  0.750000  1
  Os  Os21  1  0.945048  0.890096  0.250000  1
