# generated using pymatgen
data_TbEuB4Ir5
_symmetry_space_group_name_H-M   'P 1'
_cell_length_a   7.56937045
_cell_length_b   6.34892983
_cell_length_c   5.68757939
_cell_angle_alpha   77.72235552
_cell_angle_beta   55.04244332
_cell_angle_gamma   47.24086731
_symmetry_Int_Tables_number   1
_chemical_formula_structural   TbEuB4Ir5
_chemical_formula_sum   'Tb1 Eu1 B4 Ir5'
_cell_volume   157.25346138
_cell_formula_units_Z   1
loop_
 _symmetry_equiv_pos_site_id
 _symmetry_equiv_pos_as_xyz
  1  'x, y, z'
loop_
 _atom_site_type_symbol
 _atom_site_label
 _atom_site_symmetry_multiplicity
 _atom_site_fract_x
 _atom_site_fract_y
 _atom_site_fract_z
 _atom_site_occupancy
  Tb  Tb0  1  0.861776  0.861942  0.138057  1
  Eu  Eu1  1  0.142046  0.141973  0.858019  1
  B  B2  1  0.472556  0.789528  0.210465  1
  B  B3  1  0.210023  0.526078  0.473955  1
  B  B4  1  0.789490  0.472409  0.527592  1
  B  B5  1  0.526300  0.210042  0.789966  1
  Ir  Ir6  1  0.499784  0.499895  0.000167  1
  Ir  Ir7  1  0.250349  0.250482  0.249609  1
  Ir  Ir8  1  0.999854  0.999826  0.500099  1
  Ir  Ir9  1  0.497391  0.497430  0.502550  1
  Ir  Ir10  1  0.750426  0.750401  0.749531  1
