# generated using pymatgen
data_Ce2Er2B12MoOs
_symmetry_space_group_name_H-M   'P 1'
_cell_length_a   3.71009600
_cell_length_b   9.20528117
_cell_length_c   11.60270503
_cell_angle_alpha   89.85697545
_cell_angle_beta   90.00000000
_cell_angle_gamma   90.00000000
_symmetry_Int_Tables_number   1
_chemical_formula_structural   Ce2Er2B12MoOs
_chemical_formula_sum   'Ce4 Er4 B24 Mo2 Os2'
_cell_volume   396.25988056
_cell_formula_units_Z   2
loop_
 _symmetry_equiv_pos_site_id
 _symmetry_equiv_pos_as_xyz
  1  'x, y, z'
loop_
 _atom_site_type_symbol
 _atom_site_label
 _atom_site_symmetry_multiplicity
 _atom_site_fract_x
 _atom_site_fract_y
 _atom_site_fract_z
 _atom_site_occupancy
  Ce  Ce0  1  0.000000  0.323948  0.414751  1
  Ce  Ce1  1  0.000000  0.676052  0.585249  1
  Ce  Ce2  1  0.000000  0.820868  0.087454  1
  Ce  Ce3  1  0.000000  0.179132  0.912546  1
  Er  Er4  1  0.000000  0.944313  0.373659  1
  Er  Er5  1  0.000000  0.055687  0.626341  1
  Er  Er6  1  0.000000  0.445640  0.126971  1
  Er  Er7  1  0.000000  0.554360  0.873029  1
  B  B8  1  0.500000  0.553636  0.432332  1
  B  B9  1  0.500000  0.446364  0.567668  1
  B  B10  1  0.500000  0.055267  0.068586  1
  B  B11  1  0.500000  0.944733  0.931414  1
  B  B12  1  0.500000  0.750000  0.419723  1
  B  B13  1  0.500000  0.250000  0.580277  1
  B  B14  1  0.500000  0.249798  0.081365  1
  B  B15  1  0.500000  0.750202  0.918635  1
  B  B16  1  0.500000  0.794570  0.265019  1
  B  B17  1  0.500000  0.205430  0.734981  1
  B  B18  1  0.500000  0.291274  0.233464  1
  B  B19  1  0.500000  0.708726  0.766536  1
  B  B20  1  0.500000  0.632777  0.183852  1
  B  B21  1  0.500000  0.367223  0.816148  1
  B  B22  1  0.500000  0.131400  0.314154  1
  B  B23  1  0.500000  0.868600  0.685846  1
  B  B24  1  0.500000  0.984634  0.213149  1
  B  B25  1  0.500000  0.015366  0.786851  1
  B  B26  1  0.500000  0.482137  0.285779  1
  B  B27  1  0.500000  0.517863  0.714221  1
  B  B28  1  0.500000  0.606922  0.028384  1
  B  B29  1  0.500000  0.393078  0.971616  1
  B  B30  1  0.500000  0.105831  0.469966  1
  B  B31  1  0.500000  0.894169  0.530034  1
  Mo  Mo32  1  0.000000  0.639683  0.319833  1
  Mo  Mo33  1  0.000000  0.360317  0.680167  1
  Os  Os34  1  0.000000  0.139172  0.178943  1
  Os  Os35  1  0.000000  0.860828  0.821057  1
