# generated using pymatgen
data_Er9Th3Co3Ru
_symmetry_space_group_name_H-M   'P 1'
_cell_length_a   6.24682266
_cell_length_b   6.95838759
_cell_length_c   9.49487300
_cell_angle_alpha   90.00000000
_cell_angle_beta   90.00000000
_cell_angle_gamma   90.93699907
_symmetry_Int_Tables_number   1
_chemical_formula_structural   Er9Th3Co3Ru
_chemical_formula_sum   'Er9 Th3 Co3 Ru1'
_cell_volume   412.66617743
_cell_formula_units_Z   1
loop_
 _symmetry_equiv_pos_site_id
 _symmetry_equiv_pos_as_xyz
  1  'x, y, z'
loop_
 _atom_site_type_symbol
 _atom_site_label
 _atom_site_symmetry_multiplicity
 _atom_site_fract_x
 _atom_site_fract_y
 _atom_site_fract_z
 _atom_site_occupancy
  Er  Er0  1  0.328016  0.673405  0.069147  1
  Er  Er1  1  0.169118  0.170482  0.432221  1
  Er  Er2  1  0.673426  0.330529  0.567649  1
  Er  Er3  1  0.824005  0.822614  0.930804  1
  Er  Er4  1  0.673426  0.330529  0.932351  1
  Er  Er5  1  0.824005  0.822614  0.569196  1
  Er  Er6  1  0.328016  0.673405  0.430853  1
  Er  Er7  1  0.169118  0.170482  0.067779  1
  Er  Er8  1  0.363480  0.958373  0.750000  1
  Th  Th9  1  0.842306  0.552165  0.250000  1
  Th  Th10  1  0.652153  0.053307  0.250000  1
  Th  Th11  1  0.164780  0.455869  0.750000  1
  Co  Co12  1  0.032345  0.871099  0.250000  1
  Co  Co13  1  0.461954  0.369931  0.250000  1
  Co  Co14  1  0.535040  0.615836  0.750000  1
  Ru  Ru15  1  0.958811  0.129362  0.750000  1
