# generated using pymatgen
data_Ti8Al14GaFe3Co4
_symmetry_space_group_name_H-M   'P 1'
_cell_length_a   8.44314184
_cell_length_b   8.44466392
_cell_length_c   8.44314197
_cell_angle_alpha   120.13051872
_cell_angle_beta   119.80827811
_cell_angle_gamma   90.04804127
_symmetry_Int_Tables_number   1
_chemical_formula_structural   Ti8Al14GaFe3Co4
_chemical_formula_sum   'Ti8 Al14 Ga1 Fe3 Co4'
_cell_volume   425.88427144
_cell_formula_units_Z   1
loop_
 _symmetry_equiv_pos_site_id
 _symmetry_equiv_pos_as_xyz
  1  'x, y, z'
loop_
 _atom_site_type_symbol
 _atom_site_label
 _atom_site_symmetry_multiplicity
 _atom_site_fract_x
 _atom_site_fract_y
 _atom_site_fract_z
 _atom_site_occupancy
  Ti  Ti0  1  0.784143  0.285122  0.069358  1
  Ti  Ti1  1  0.215766  0.285122  0.500979  1
  Ti  Ti2  1  0.211592  0.719614  0.508021  1
  Ti  Ti3  1  0.221787  0.722967  0.930212  1
  Ti  Ti4  1  0.792756  0.722967  0.501180  1
  Ti  Ti5  1  0.780889  0.273275  0.492386  1
  Ti  Ti6  1  0.379513  0.122523  0.743010  1
  Ti  Ti7  1  0.380691  0.638671  0.257980  1
  Al  Al8  1  0.156656  0.342965  0.186308  1
  Al  Al9  1  0.159388  0.982156  0.822768  1
  Al  Al10  1  0.154969  0.343715  0.814383  1
  Al  Al11  1  0.529331  0.343715  0.188746  1
  Al  Al12  1  0.843517  0.654398  0.810881  1
  Al  Al13  1  0.842199  0.023825  0.181625  1
  Al  Al14  1  0.840145  0.656860  0.179295  1
  Al  Al15  1  0.477565  0.656860  0.816716  1
  Al  Al16  1  0.379721  0.121671  0.262050  1
  Al  Al17  1  0.859622  0.121671  0.741952  1
  Al  Al18  1  0.619759  0.875997  0.256239  1
  Al  Al19  1  0.620250  0.360888  0.740637  1
  Al  Al20  1  0.619715  0.878014  0.739156  1
  Al  Al21  1  0.138856  0.878014  0.258298  1
  Ga  Ga22  1  0.995716  0.495172  0.499455  1
  Fe  Fe23  1  0.001640  0.999515  0.502204  1
  Fe  Fe24  1  0.497311  0.999515  0.997875  1
  Fe  Fe25  1  0.497387  0.496797  0.999409  1
  Co  Co26  1  0.497801  0.500231  0.497684  1
  Co  Co27  1  0.002546  0.500231  0.002430  1
  Co  Co28  1  0.000159  0.999783  0.999624  1
  Co  Co29  1  0.498605  0.997746  0.499141  1
