# generated using pymatgen
data_CePm2UO8
_symmetry_space_group_name_H-M   'P 1'
_cell_length_a   6.65358828
_cell_length_b   6.65358874
_cell_length_c   6.65358802
_cell_angle_alpha   131.45488303
_cell_angle_beta   131.45488569
_cell_angle_gamma   71.09135480
_symmetry_Int_Tables_number   1
_chemical_formula_structural   CePm2UO8
_chemical_formula_sum   'Ce1 Pm2 U1 O8'
_cell_volume   161.99986819
_cell_formula_units_Z   1
loop_
 _symmetry_equiv_pos_site_id
 _symmetry_equiv_pos_as_xyz
  1  'x, y, z'
loop_
 _atom_site_type_symbol
 _atom_site_label
 _atom_site_symmetry_multiplicity
 _atom_site_fract_x
 _atom_site_fract_y
 _atom_site_fract_z
 _atom_site_occupancy
  Ce  Ce0  1  0.500000  0.500000  0.000000  1
  Pm  Pm1  1  0.000000  0.000000  0.000000  1
  Pm  Pm2  1  0.750000  0.250000  0.500000  1
  U  U3  1  0.250000  0.750000  0.500000  1
  O  O4  1  0.369639  0.398138  0.508326  1
  O  O5  1  0.889812  0.861314  0.491674  1
  O  O6  1  0.138686  0.110188  0.508326  1
  O  O7  1  0.601862  0.110188  0.971502  1
  O  O8  1  0.889812  0.398138  0.028498  1
  O  O9  1  0.601862  0.630361  0.491674  1
  O  O10  1  0.138686  0.630361  0.028498  1
  O  O11  1  0.369639  0.861314  0.971502  1
