# generated using pymatgen
data_Th2Si4Ni17Ru
_symmetry_space_group_name_H-M   'P 1'
_cell_length_a   7.63683519
_cell_length_b   7.63683770
_cell_length_c   7.63683656
_cell_angle_alpha   99.43267744
_cell_angle_beta   99.43267878
_cell_angle_gamma   132.23885245
_symmetry_Int_Tables_number   1
_chemical_formula_structural   Th2Si4Ni17Ru
_chemical_formula_sum   'Th2 Si4 Ni17 Ru1'
_cell_volume   301.51505035
_cell_formula_units_Z   1
loop_
 _symmetry_equiv_pos_site_id
 _symmetry_equiv_pos_as_xyz
  1  'x, y, z'
loop_
 _atom_site_type_symbol
 _atom_site_label
 _atom_site_symmetry_multiplicity
 _atom_site_fract_x
 _atom_site_fract_y
 _atom_site_fract_z
 _atom_site_occupancy
  Th  Th0  1  0.500000  0.500000  0.000000  1
  Th  Th1  1  0.750000  0.250000  0.500000  1
  Si  Si2  1  0.625307  0.875548  0.749759  1
  Si  Si3  1  0.124452  0.374693  0.250241  1
  Si  Si4  1  0.124452  0.874211  0.749759  1
  Si  Si5  1  0.125789  0.875548  0.250241  1
  Ni  Ni6  1  0.000000  0.000000  0.000000  1
  Ni  Ni7  1  0.688622  0.015172  0.078555  1
  Ni  Ni8  1  0.688622  0.610067  0.673451  1
  Ni  Ni9  1  0.266635  0.435428  0.581279  1
  Ni  Ni10  1  0.266635  0.685356  0.831205  1
  Ni  Ni11  1  0.936617  0.015172  0.326549  1
  Ni  Ni12  1  0.936617  0.610067  0.921445  1
  Ni  Ni13  1  0.854150  0.435428  0.168795  1
  Ni  Ni14  1  0.854150  0.685356  0.418721  1
  Ni  Ni15  1  0.564572  0.733365  0.418721  1
  Ni  Ni16  1  0.564572  0.145850  0.831205  1
  Ni  Ni17  1  0.984828  0.311378  0.921445  1
  Ni  Ni18  1  0.984828  0.063383  0.673451  1
  Ni  Ni19  1  0.314644  0.733365  0.168795  1
  Ni  Ni20  1  0.314644  0.145850  0.581279  1
  Ni  Ni21  1  0.389933  0.311378  0.326549  1
  Ni  Ni22  1  0.389933  0.063383  0.078555  1
  Ru  Ru23  1  0.250000  0.750000  0.500000  1
