# generated using pymatgen
data_Rb4CuP2Au
_symmetry_space_group_name_H-M   'P 1'
_cell_length_a   6.47360038
_cell_length_b   6.47359818
_cell_length_c   6.17651780
_cell_angle_alpha   89.44546811
_cell_angle_beta   89.44546363
_cell_angle_gamma   107.52606663
_symmetry_Int_Tables_number   1
_chemical_formula_structural   Rb4CuP2Au
_chemical_formula_sum   'Rb4 Cu1 P2 Au1'
_cell_volume   246.79380877
_cell_formula_units_Z   1
loop_
 _symmetry_equiv_pos_site_id
 _symmetry_equiv_pos_as_xyz
  1  'x, y, z'
loop_
 _atom_site_type_symbol
 _atom_site_label
 _atom_site_symmetry_multiplicity
 _atom_site_fract_x
 _atom_site_fract_y
 _atom_site_fract_z
 _atom_site_occupancy
  Rb  Rb0  1  0.974051  0.315436  0.749092  1
  Rb  Rb1  1  0.315436  0.974051  0.749092  1
  Rb  Rb2  1  0.025949  0.684564  0.250908  1
  Rb  Rb3  1  0.684564  0.025949  0.250908  1
  Cu  Cu4  1  0.500000  0.500000  0.000000  1
  P  P5  1  0.729774  0.729774  0.766346  1
  P  P6  1  0.270226  0.270226  0.233654  1
  Au  Au7  1  0.500000  0.500000  0.500000  1
