# generated using pymatgen
data_Ho3Pa(CdPt2)2
_symmetry_space_group_name_H-M   'P 1'
_cell_length_a   7.77738635
_cell_length_b   7.77738646
_cell_length_c   3.67396900
_cell_angle_alpha   90.00000000
_cell_angle_beta   90.00000000
_cell_angle_gamma   91.55106507
_symmetry_Int_Tables_number   1
_chemical_formula_structural   Ho3Pa(CdPt2)2
_chemical_formula_sum   'Ho3 Pa1 Cd2 Pt4'
_cell_volume   222.14865344
_cell_formula_units_Z   1
loop_
 _symmetry_equiv_pos_site_id
 _symmetry_equiv_pos_as_xyz
  1  'x, y, z'
loop_
 _atom_site_type_symbol
 _atom_site_label
 _atom_site_symmetry_multiplicity
 _atom_site_fract_x
 _atom_site_fract_y
 _atom_site_fract_z
 _atom_site_occupancy
  Ho  Ho0  1  0.327113  0.827113  0.500000  1
  Ho  Ho1  1  0.170209  0.333043  0.500000  1
  Ho  Ho2  1  0.833043  0.670209  0.500000  1
  Pa  Pa3  1  0.666626  0.166626  0.500000  1
  Cd  Cd4  1  0.005750  0.999343  0.000000  1
  Cd  Cd5  1  0.499343  0.505750  0.000000  1
  Pt  Pt6  1  0.124540  0.624540  0.000000  1
  Pt  Pt7  1  0.859449  0.359449  0.000000  1
  Pt  Pt8  1  0.635193  0.878735  0.000000  1
  Pt  Pt9  1  0.378735  0.135193  0.000000  1
