# generated using pymatgen
data_Er8Ti12Si15As
_symmetry_space_group_name_H-M   'P 1'
_cell_length_a   7.03100505
_cell_length_b   7.02406237
_cell_length_c   12.91091044
_cell_angle_alpha   89.98343150
_cell_angle_beta   89.82955619
_cell_angle_gamma   89.93044223
_symmetry_Int_Tables_number   1
_chemical_formula_structural   Er8Ti12Si15As
_chemical_formula_sum   'Er8 Ti12 Si15 As1'
_cell_volume   637.61772079
_cell_formula_units_Z   1
loop_
 _symmetry_equiv_pos_site_id
 _symmetry_equiv_pos_as_xyz
  1  'x, y, z'
loop_
 _atom_site_type_symbol
 _atom_site_label
 _atom_site_symmetry_multiplicity
 _atom_site_fract_x
 _atom_site_fract_y
 _atom_site_fract_z
 _atom_site_occupancy
  Er  Er0  1  0.341450  0.001198  0.465955  1
  Er  Er1  1  0.497930  0.842378  0.717484  1
  Er  Er2  1  0.501749  0.158687  0.216438  1
  Er  Er3  1  0.840249  0.497305  0.283129  1
  Er  Er4  1  0.158946  0.501106  0.783333  1
  Er  Er5  1  0.660931  0.995468  0.967706  1
  Er  Er6  1  0.998885  0.343481  0.531806  1
  Er  Er7  1  0.998863  0.659059  0.033422  1
  Ti  Ti8  1  0.326657  0.326951  0.999812  1
  Ti  Ti9  1  0.172852  0.827134  0.249905  1
  Ti  Ti10  1  0.824157  0.173661  0.750195  1
  Ti  Ti11  1  0.672365  0.672854  0.500171  1
  Ti  Ti12  1  0.154213  0.009060  0.875157  1
  Ti  Ti13  1  0.492252  0.651349  0.125326  1
  Ti  Ti14  1  0.508450  0.347802  0.626917  1
  Ti  Ti15  1  0.654502  0.495161  0.875433  1
  Ti  Ti16  1  0.347126  0.507346  0.374206  1
  Ti  Ti17  1  0.847238  0.992847  0.375549  1
  Ti  Ti18  1  0.007751  0.151228  0.124392  1
  Ti  Ti19  1  0.989831  0.844464  0.623305  1
  Si  Si20  1  0.368702  0.703678  0.933028  1
  Si  Si21  1  0.629512  0.297225  0.433995  1
  Si  Si22  1  0.703833  0.369018  0.066888  1
  Si  Si23  1  0.296716  0.630978  0.566727  1
  Si  Si24  1  0.796408  0.868707  0.183840  1
  Si  Si25  1  0.130884  0.203105  0.316682  1
  Si  Si26  1  0.870232  0.797373  0.816004  1
  Si  Si27  1  0.291918  0.953112  0.064357  1
  Si  Si28  1  0.546514  0.790875  0.314344  1
  Si  Si29  1  0.462311  0.210927  0.819573  1
  Si  Si30  1  0.791169  0.546625  0.685461  1
  Si  Si31  1  0.208369  0.453011  0.185454  1
  Si  Si32  1  0.707723  0.046230  0.564245  1
  Si  Si33  1  0.954195  0.291448  0.935565  1
  Si  Si34  1  0.046392  0.709195  0.434805  1
  As  As35  1  0.198724  0.129954  0.679392  1
