# generated using pymatgen
data_Lu3Al2Ga3Ru
_symmetry_space_group_name_H-M   'P 1'
_cell_length_a   6.80870203
_cell_length_b   6.80870297
_cell_length_c   4.27606600
_cell_angle_alpha   90.00000000
_cell_angle_beta   90.00000000
_cell_angle_gamma   119.72770510
_symmetry_Int_Tables_number   1
_chemical_formula_structural   Lu3Al2Ga3Ru
_chemical_formula_sum   'Lu3 Al2 Ga3 Ru1'
_cell_volume   172.14279426
_cell_formula_units_Z   1
loop_
 _symmetry_equiv_pos_site_id
 _symmetry_equiv_pos_as_xyz
  1  'x, y, z'
loop_
 _atom_site_type_symbol
 _atom_site_label
 _atom_site_symmetry_multiplicity
 _atom_site_fract_x
 _atom_site_fract_y
 _atom_site_fract_z
 _atom_site_occupancy
  Lu  Lu0  1  0.582902  0.999624  0.500000  1
  Lu  Lu1  1  0.418186  0.418186  0.500000  1
  Lu  Lu2  1  0.999624  0.582902  0.500000  1
  Al  Al3  1  0.230498  0.001608  0.000000  1
  Al  Al4  1  0.001608  0.230498  0.000000  1
  Ga  Ga5  1  0.667451  0.330762  0.000000  1
  Ga  Ga6  1  0.330762  0.667451  0.000000  1
  Ga  Ga7  1  0.763517  0.763517  0.000000  1
  Ru  Ru8  1  0.005451  0.005451  0.500000  1
