# generated using pymatgen
data_K20Zr4(AsP3)3
_symmetry_space_group_name_H-M   'P 1'
_cell_length_a   8.35550232
_cell_length_b   9.06737826
_cell_length_c   17.61570721
_cell_angle_alpha   59.79999548
_cell_angle_beta   90.10757212
_cell_angle_gamma   90.14759097
_symmetry_Int_Tables_number   1
_chemical_formula_structural   K20Zr4(AsP3)3
_chemical_formula_sum   'K20 Zr4 As3 P9'
_cell_volume   1153.46567006
_cell_formula_units_Z   1
loop_
 _symmetry_equiv_pos_site_id
 _symmetry_equiv_pos_as_xyz
  1  'x, y, z'
loop_
 _atom_site_type_symbol
 _atom_site_label
 _atom_site_symmetry_multiplicity
 _atom_site_fract_x
 _atom_site_fract_y
 _atom_site_fract_z
 _atom_site_occupancy
  K  K0  1  0.164049  0.843781  0.742328  1
  K  K1  1  0.664526  0.156016  0.757980  1
  K  K2  1  0.836443  0.157541  0.257179  1
  K  K3  1  0.334959  0.842550  0.239928  1
  K  K4  1  0.172003  0.168128  0.416662  1
  K  K5  1  0.667479  0.831388  0.083004  1
  K  K6  1  0.828026  0.831992  0.583298  1
  K  K7  1  0.327081  0.162371  0.919106  1
  K  K8  1  0.008874  0.086263  0.091879  1
  K  K9  1  0.507984  0.915402  0.407275  1
  K  K10  1  0.993300  0.913079  0.909734  1
  K  K11  1  0.491516  0.085247  0.591933  1
  K  K12  1  0.519237  0.262572  0.079068  1
  K  K13  1  0.018576  0.739310  0.420772  1
  K  K14  1  0.480833  0.739774  0.921829  1
  K  K15  1  0.981288  0.260863  0.579138  1
  K  K16  1  0.983612  0.552514  0.256291  1
  K  K17  1  0.481714  0.450928  0.241590  1
  K  K18  1  0.017352  0.448801  0.742855  1
  K  K19  1  0.516504  0.550024  0.758284  1
  Zr  Zr20  1  0.368551  0.489749  0.581982  1
  Zr  Zr21  1  0.869081  0.510517  0.918583  1
  Zr  Zr22  1  0.631338  0.510657  0.417640  1
  Zr  Zr23  1  0.133938  0.493562  0.081956  1
  As  As24  1  0.754626  0.237608  0.420884  1
  As  As25  1  0.745249  0.235798  0.922062  1
  As  As26  1  0.245522  0.762771  0.578804  1
  P  P27  1  0.322942  0.489101  0.436498  1
  P  P28  1  0.824325  0.514090  0.063054  1
  P  P29  1  0.676755  0.511661  0.562878  1
  P  P30  1  0.177336  0.489000  0.937065  1
  P  P31  1  0.217470  0.215058  0.216837  1
  P  P32  1  0.715961  0.786337  0.281920  1
  P  P33  1  0.783650  0.785665  0.783184  1
  P  P34  1  0.283973  0.214090  0.717731  1
  P  P35  1  0.253924  0.755788  0.078789  1
