# generated using pymatgen
data_HfNb2(MoP)3
_symmetry_space_group_name_H-M   'P 1'
_cell_length_a   6.83714000
_cell_length_b   6.87630853
_cell_length_c   3.37117700
_cell_angle_alpha   90.00000000
_cell_angle_beta   90.00000000
_cell_angle_gamma   119.81175085
_symmetry_Int_Tables_number   1
_chemical_formula_structural   HfNb2(MoP)3
_chemical_formula_sum   'Hf1 Nb2 Mo3 P3'
_cell_volume   137.51900342
_cell_formula_units_Z   1
loop_
 _symmetry_equiv_pos_site_id
 _symmetry_equiv_pos_as_xyz
  1  'x, y, z'
loop_
 _atom_site_type_symbol
 _atom_site_label
 _atom_site_symmetry_multiplicity
 _atom_site_fract_x
 _atom_site_fract_y
 _atom_site_fract_z
 _atom_site_occupancy
  Hf  Hf0  1  0.596720  0.000000  0.500000  1
  Nb  Nb1  1  0.998690  0.596792  0.500000  1
  Nb  Nb2  1  0.401898  0.403208  0.500000  1
  Mo  Mo3  1  0.253284  0.000000  0.000000  1
  Mo  Mo4  1  0.747146  0.744218  0.000000  1
  Mo  Mo5  1  0.002928  0.255782  0.000000  1
  P  P6  1  0.667019  0.335624  0.000000  1
  P  P7  1  0.331394  0.664376  0.000000  1
  P  P8  1  0.000922  0.000000  0.500000  1
