# generated using pymatgen
data_Tb(S8Cl)3
_symmetry_space_group_name_H-M   'P 1'
_cell_length_a   15.34104048
_cell_length_b   15.34104205
_cell_length_c   15.34104164
_cell_angle_alpha   119.26208182
_cell_angle_beta   119.26208819
_cell_angle_gamma   119.26209704
_symmetry_Int_Tables_number   1
_chemical_formula_structural   Tb(S8Cl)3
_chemical_formula_sum   'Tb1 S24 Cl3'
_cell_volume   804.30960010
_cell_formula_units_Z   1
loop_
 _symmetry_equiv_pos_site_id
 _symmetry_equiv_pos_as_xyz
  1  'x, y, z'
loop_
 _atom_site_type_symbol
 _atom_site_label
 _atom_site_symmetry_multiplicity
 _atom_site_fract_x
 _atom_site_fract_y
 _atom_site_fract_z
 _atom_site_occupancy
  Tb  Tb0  1  0.560195  0.560195  0.560195  1
  S  S1  1  0.814289  0.535780  0.535780  1
  S  S2  1  0.535780  0.535780  0.814289  1
  S  S3  1  0.535780  0.814289  0.535780  1
  S  S4  1  0.214346  0.343197  0.601718  1
  S  S5  1  0.389651  0.984793  0.389651  1
  S  S6  1  0.389651  0.389651  0.984793  1
  S  S7  1  0.984793  0.389651  0.389651  1
  S  S8  1  0.111242  0.720105  0.238460  1
  S  S9  1  0.238460  0.111242  0.720105  1
  S  S10  1  0.720105  0.238460  0.111242  1
  S  S11  1  0.720105  0.111242  0.238460  1
  S  S12  1  0.238460  0.720105  0.111242  1
  S  S13  1  0.111242  0.238460  0.720105  1
  S  S14  1  0.377736  0.903980  0.557390  1
  S  S15  1  0.557390  0.377736  0.903980  1
  S  S16  1  0.903980  0.557390  0.377736  1
  S  S17  1  0.903980  0.377736  0.557390  1
  S  S18  1  0.557390  0.903980  0.377736  1
  S  S19  1  0.377736  0.557390  0.903980  1
  S  S20  1  0.214346  0.601718  0.343197  1
  S  S21  1  0.343197  0.214346  0.601718  1
  S  S22  1  0.601718  0.343197  0.214346  1
  S  S23  1  0.601718  0.214346  0.343197  1
  S  S24  1  0.343197  0.601718  0.214346  1
  Cl  Cl25  1  0.975979  0.101417  0.101417  1
  Cl  Cl26  1  0.101417  0.101417  0.975979  1
  Cl  Cl27  1  0.101417  0.975979  0.101417  1
