# generated using pymatgen
data_Er20BiOs4Au7
_symmetry_space_group_name_H-M   'P 1'
_cell_length_a   11.15801818
_cell_length_b   11.15801860
_cell_length_c   6.35562200
_cell_angle_alpha   89.80117464
_cell_angle_beta   89.80117464
_cell_angle_gamma   90.84115760
_symmetry_Int_Tables_number   1
_chemical_formula_structural   Er20BiOs4Au7
_chemical_formula_sum   'Er20 Bi1 Os4 Au7'
_cell_volume   791.18873354
_cell_formula_units_Z   1
loop_
 _symmetry_equiv_pos_site_id
 _symmetry_equiv_pos_as_xyz
  1  'x, y, z'
loop_
 _atom_site_type_symbol
 _atom_site_label
 _atom_site_symmetry_multiplicity
 _atom_site_fract_x
 _atom_site_fract_y
 _atom_site_fract_z
 _atom_site_occupancy
  Er  Er0  1  0.302926  0.084563  0.355965  1
  Er  Er1  1  0.298350  0.927302  0.856253  1
  Er  Er2  1  0.700420  0.083882  0.853601  1
  Er  Er3  1  0.700456  0.918108  0.356390  1
  Er  Er4  1  0.585316  0.805257  0.854481  1
  Er  Er5  1  0.585341  0.198413  0.351863  1
  Er  Er6  1  0.418401  0.805446  0.344811  1
  Er  Er7  1  0.419963  0.200842  0.856018  1
  Er  Er8  1  0.194773  0.414689  0.645543  1
  Er  Er9  1  0.194576  0.581593  0.155135  1
  Er  Er10  1  0.801639  0.414681  0.148122  1
  Er  Er11  1  0.799165  0.580019  0.643942  1
  Er  Er12  1  0.915430  0.697044  0.144034  1
  Er  Er13  1  0.916144  0.299606  0.646374  1
  Er  Er14  1  0.072735  0.701670  0.643743  1
  Er  Er15  1  0.081864  0.299575  0.143577  1
  Er  Er16  1  0.000127  0.001909  0.499896  1
  Er  Er17  1  0.998071  0.999841  0.000215  1
  Er  Er18  1  0.509292  0.491373  0.003571  1
  Er  Er19  1  0.508595  0.490683  0.496610  1
  Bi  Bi20  1  0.341641  0.658395  0.750059  1
  Os  Os21  1  0.501267  0.001224  0.104613  1
  Os  Os22  1  0.500728  0.001903  0.606106  1
  Os  Os23  1  0.998124  0.499209  0.893576  1
  Os  Os24  1  0.998875  0.498719  0.395117  1
  Au  Au25  1  0.846082  0.153942  0.250045  1
  Au  Au26  1  0.844297  0.844834  0.749151  1
  Au  Au27  1  0.155107  0.155732  0.750943  1
  Au  Au28  1  0.153044  0.846862  0.250050  1
  Au  Au29  1  0.658413  0.341561  0.750056  1
  Au  Au30  1  0.654698  0.655826  0.250584  1
  Au  Au31  1  0.344142  0.345294  0.249555  1
