# generated using pymatgen
data_Rb3In13S21
_symmetry_space_group_name_H-M   'P 1'
_cell_length_a   15.97903130
_cell_length_b   15.97903150
_cell_length_c   10.09057700
_cell_angle_alpha   78.22679371
_cell_angle_beta   78.22679355
_cell_angle_gamma   61.26300132
_symmetry_Int_Tables_number   1
_chemical_formula_structural   Rb3In13S21
_chemical_formula_sum   'Rb6 In26 S42'
_cell_volume   2194.66653520
_cell_formula_units_Z   2
loop_
 _symmetry_equiv_pos_site_id
 _symmetry_equiv_pos_as_xyz
  1  'x, y, z'
loop_
 _atom_site_type_symbol
 _atom_site_label
 _atom_site_symmetry_multiplicity
 _atom_site_fract_x
 _atom_site_fract_y
 _atom_site_fract_z
 _atom_site_occupancy
  Rb  Rb0  1  0.183721  0.183720  0.400117  1
  Rb  Rb1  1  0.111469  0.111469  0.958929  1
  Rb  Rb2  1  0.549981  0.549984  0.718304  1
  Rb  Rb3  1  0.420058  0.420061  0.377977  1
  Rb  Rb4  1  0.819180  0.819179  0.615141  1
  Rb  Rb5  1  0.889828  0.889828  0.038602  1
  In  In6  1  0.820161  0.354376  0.304291  1
  In  In7  1  0.354374  0.820161  0.304290  1
  In  In8  1  0.775478  0.282921  0.967771  1
  In  In9  1  0.282920  0.775479  0.967772  1
  In  In10  1  0.792340  0.532739  0.945274  1
  In  In11  1  0.532739  0.792339  0.945278  1
  In  In12  1  0.137714  0.898593  0.635786  1
  In  In13  1  0.898594  0.137714  0.635785  1
  In  In14  1  0.849049  0.594170  0.287762  1
  In  In15  1  0.594166  0.849055  0.287760  1
  In  In16  1  0.592954  0.592954  0.285154  1
  In  In17  1  0.399543  0.901997  0.634604  1
  In  In18  1  0.901996  0.399546  0.634607  1
  In  In19  1  0.516814  0.051589  0.964051  1
  In  In20  1  0.051589  0.516812  0.964042  1
  In  In21  1  0.286067  0.286059  0.958307  1
  In  In22  1  0.092560  0.846684  0.286625  1
  In  In23  1  0.846684  0.092559  0.286627  1
  In  In24  1  0.584969  0.093609  0.298446  1
  In  In25  1  0.093610  0.584967  0.298446  1
  In  In26  1  0.653231  0.151986  0.631281  1
  In  In27  1  0.151986  0.653231  0.631280  1
  In  In28  1  0.400098  0.147115  0.621281  1
  In  In29  1  0.147113  0.400100  0.621280  1
  In  In30  1  0.539358  0.291183  0.937045  1
  In  In31  1  0.291184  0.539357  0.937045  1
  S  S32  1  0.044030  0.809403  0.710810  1
  S  S33  1  0.809405  0.044028  0.710812  1
  S  S34  1  0.347606  0.115220  0.048137  1
  S  S35  1  0.115222  0.347600  0.048137  1
  S  S36  1  0.614219  0.614220  0.030236  1
  S  S37  1  0.922602  0.417548  0.370421  1
  S  S38  1  0.417542  0.922606  0.370422  1
  S  S39  1  0.864063  0.360200  0.046533  1
  S  S40  1  0.360201  0.864063  0.046532  1
  S  S41  1  0.551837  0.314659  0.688053  1
  S  S42  1  0.314660  0.551837  0.688053  1
  S  S43  1  0.306210  0.805393  0.706627  1
  S  S44  1  0.805394  0.306209  0.706629  1
  S  S45  1  0.793301  0.560584  0.699593  1
  S  S46  1  0.560584  0.793302  0.699590  1
  S  S47  1  0.672214  0.672220  0.374889  1
  S  S48  1  0.299216  0.064950  0.692896  1
  S  S49  1  0.064950  0.299216  0.692895  1
  S  S50  1  0.065439  0.065438  0.679491  1
  S  S51  1  0.616063  0.113766  0.035938  1
  S  S52  1  0.113765  0.616061  0.035940  1
  S  S53  1  0.870338  0.614567  0.028350  1
  S  S54  1  0.614570  0.870337  0.028353  1
  S  S55  1  0.113528  0.878235  0.036371  1
  S  S56  1  0.878238  0.113525  0.036372  1
  S  S57  1  0.313152  0.313153  0.701138  1
  S  S58  1  0.050230  0.562504  0.708968  1
  S  S59  1  0.562506  0.050228  0.708964  1
  S  S60  1  0.175064  0.668921  0.370281  1
  S  S61  1  0.668922  0.175064  0.370283  1
  S  S62  1  0.603460  0.376306  0.029467  1
  S  S63  1  0.376307  0.603459  0.029468  1
  S  S64  1  0.364984  0.364984  0.046340  1
  S  S65  1  0.652611  0.427645  0.394504  1
  S  S66  1  0.427644  0.652611  0.394504  1
  S  S67  1  0.919614  0.683048  0.349607  1
  S  S68  1  0.683047  0.919614  0.349606  1
  S  S69  1  0.178262  0.919918  0.373195  1
  S  S70  1  0.919918  0.178262  0.373195  1
  S  S71  1  0.416620  0.192767  0.373279  1
  S  S72  1  0.192767  0.416620  0.373279  1
  S  S73  1  0.919579  0.919579  0.360483  1
