# generated using pymatgen
data_Dy3LuGaSi3
_symmetry_space_group_name_H-M   'P 1'
_cell_length_a   3.86009000
_cell_length_b   4.29487500
_cell_length_c   10.56499100
_cell_angle_alpha   90.00000000
_cell_angle_beta   90.00000000
_cell_angle_gamma   90.00000000
_symmetry_Int_Tables_number   1
_chemical_formula_structural   Dy3LuGaSi3
_chemical_formula_sum   'Dy3 Lu1 Ga1 Si3'
_cell_volume   175.15280246
_cell_formula_units_Z   1
loop_
 _symmetry_equiv_pos_site_id
 _symmetry_equiv_pos_as_xyz
  1  'x, y, z'
loop_
 _atom_site_type_symbol
 _atom_site_label
 _atom_site_symmetry_multiplicity
 _atom_site_fract_x
 _atom_site_fract_y
 _atom_site_fract_z
 _atom_site_occupancy
  Dy  Dy0  1  0.000000  0.000000  0.361512  1
  Dy  Dy1  1  0.000000  0.500000  0.858255  1
  Dy  Dy2  1  0.500000  0.000000  0.638827  1
  Lu  Lu3  1  0.500000  0.500000  0.141317  1
  Ga  Ga4  1  0.000000  0.000000  0.077414  1
  Si  Si5  1  0.000000  0.500000  0.575945  1
  Si  Si6  1  0.500000  0.500000  0.424479  1
  Si  Si7  1  0.500000  0.000000  0.922252  1
