# generated using pymatgen
data_CeEr2In3Ir2Rh
_symmetry_space_group_name_H-M   'P 1'
_cell_length_a   7.56192914
_cell_length_b   7.71351368
_cell_length_c   3.85790000
_cell_angle_alpha   90.00000000
_cell_angle_beta   90.00000000
_cell_angle_gamma   120.66534887
_symmetry_Int_Tables_number   1
_chemical_formula_structural   CeEr2In3Ir2Rh
_chemical_formula_sum   'Ce1 Er2 In3 Ir2 Rh1'
_cell_volume   193.55995401
_cell_formula_units_Z   1
loop_
 _symmetry_equiv_pos_site_id
 _symmetry_equiv_pos_as_xyz
  1  'x, y, z'
loop_
 _atom_site_type_symbol
 _atom_site_label
 _atom_site_symmetry_multiplicity
 _atom_site_fract_x
 _atom_site_fract_y
 _atom_site_fract_z
 _atom_site_occupancy
  Ce  Ce0  1  0.000000  0.580831  0.500000  1
  Er  Er1  1  0.406973  0.408292  0.500000  1
  Er  Er2  1  0.593027  0.001319  0.500000  1
  In  In3  1  0.263352  0.006744  0.000000  1
  In  In4  1  0.736648  0.743393  0.000000  1
  In  In5  1  0.000000  0.247624  0.000000  1
  Ir  Ir6  1  0.679365  0.346354  0.000000  1
  Ir  Ir7  1  0.320635  0.666989  0.000000  1
  Rh  Rh8  1  0.000000  0.998453  0.500000  1
