# generated using pymatgen
data_Dy4Zn4Ir3Rh
_symmetry_space_group_name_H-M   'P 1'
_cell_length_a   4.04486200
_cell_length_b   7.01751879
_cell_length_c   8.11950294
_cell_angle_alpha   90.05469597
_cell_angle_beta   90.00000000
_cell_angle_gamma   90.00000000
_symmetry_Int_Tables_number   1
_chemical_formula_structural   Dy4Zn4Ir3Rh
_chemical_formula_sum   'Dy4 Zn4 Ir3 Rh1'
_cell_volume   230.47113399
_cell_formula_units_Z   1
loop_
 _symmetry_equiv_pos_site_id
 _symmetry_equiv_pos_as_xyz
  1  'x, y, z'
loop_
 _atom_site_type_symbol
 _atom_site_label
 _atom_site_symmetry_multiplicity
 _atom_site_fract_x
 _atom_site_fract_y
 _atom_site_fract_z
 _atom_site_occupancy
  Dy  Dy0  1  0.250000  0.536433  0.183958  1
  Dy  Dy1  1  0.750000  0.459794  0.816762  1
  Dy  Dy2  1  0.250000  0.038143  0.317290  1
  Dy  Dy3  1  0.750000  0.964432  0.682065  1
  Zn  Zn4  1  0.250000  0.136331  0.934877  1
  Zn  Zn5  1  0.750000  0.863468  0.064917  1
  Zn  Zn6  1  0.250000  0.637372  0.564589  1
  Zn  Zn7  1  0.750000  0.362917  0.434217  1
  Ir  Ir8  1  0.750000  0.743596  0.377187  1
  Ir  Ir9  1  0.250000  0.258587  0.624448  1
  Ir  Ir10  1  0.750000  0.242556  0.122096  1
  Rh  Rh11  1  0.250000  0.756370  0.877592  1
