# generated using pymatgen
data_Sc3Al2Ga3Au
_symmetry_space_group_name_H-M   'P 1'
_cell_length_a   6.75660870
_cell_length_b   6.75660930
_cell_length_c   4.15572000
_cell_angle_alpha   90.00000000
_cell_angle_beta   90.00000000
_cell_angle_gamma   119.87838618
_symmetry_Int_Tables_number   1
_chemical_formula_structural   Sc3Al2Ga3Au
_chemical_formula_sum   'Sc3 Al2 Ga3 Au1'
_cell_volume   164.49980702
_cell_formula_units_Z   1
loop_
 _symmetry_equiv_pos_site_id
 _symmetry_equiv_pos_as_xyz
  1  'x, y, z'
loop_
 _atom_site_type_symbol
 _atom_site_label
 _atom_site_symmetry_multiplicity
 _atom_site_fract_x
 _atom_site_fract_y
 _atom_site_fract_z
 _atom_site_occupancy
  Sc  Sc0  1  0.578378  0.999524  0.000000  1
  Sc  Sc1  1  0.999524  0.578378  0.000000  1
  Sc  Sc2  1  0.424376  0.424376  0.000000  1
  Al  Al3  1  0.247673  0.002462  0.500000  1
  Al  Al4  1  0.002462  0.247673  0.500000  1
  Ga  Ga5  1  0.745158  0.745158  0.500000  1
  Ga  Ga6  1  0.330438  0.666996  0.500000  1
  Ga  Ga7  1  0.666996  0.330438  0.500000  1
  Au  Au8  1  0.004995  0.004995  0.000000  1
