# generated using pymatgen
data_Nd2MnSi2SnIr4
_symmetry_space_group_name_H-M   'P 1'
_cell_length_a   4.15558300
_cell_length_b   4.15558300
_cell_length_c   10.79583000
_cell_angle_alpha   90.00000000
_cell_angle_beta   90.00000000
_cell_angle_gamma   90.00000000
_symmetry_Int_Tables_number   1
_chemical_formula_structural   Nd2MnSi2SnIr4
_chemical_formula_sum   'Nd2 Mn1 Si2 Sn1 Ir4'
_cell_volume   186.43178557
_cell_formula_units_Z   1
loop_
 _symmetry_equiv_pos_site_id
 _symmetry_equiv_pos_as_xyz
  1  'x, y, z'
loop_
 _atom_site_type_symbol
 _atom_site_label
 _atom_site_symmetry_multiplicity
 _atom_site_fract_x
 _atom_site_fract_y
 _atom_site_fract_z
 _atom_site_occupancy
  Nd  Nd0  1  0.000000  0.500000  0.240232  1
  Nd  Nd1  1  0.500000  0.000000  0.759768  1
  Mn  Mn2  1  0.500000  0.500000  0.500000  1
  Si  Si3  1  0.000000  0.500000  0.881421  1
  Si  Si4  1  0.500000  0.000000  0.118579  1
  Sn  Sn5  1  0.000000  0.000000  0.500000  1
  Ir  Ir6  1  0.000000  0.000000  0.000000  1
  Ir  Ir7  1  0.500000  0.500000  0.000000  1
  Ir  Ir8  1  0.000000  0.500000  0.660507  1
  Ir  Ir9  1  0.500000  0.000000  0.339493  1
