# generated using pymatgen
data_Dy6ThAu10
_symmetry_space_group_name_H-M   'P 1'
_cell_length_a   8.79457282
_cell_length_b   8.79457388
_cell_length_c   10.44362178
_cell_angle_alpha   90.11140078
_cell_angle_beta   90.11140194
_cell_angle_gamma   107.16825351
_symmetry_Int_Tables_number   1
_chemical_formula_structural   Dy6ThAu10
_chemical_formula_sum   'Dy12 Th2 Au20'
_cell_volume   771.76079557
_cell_formula_units_Z   2
loop_
 _symmetry_equiv_pos_site_id
 _symmetry_equiv_pos_as_xyz
  1  'x, y, z'
loop_
 _atom_site_type_symbol
 _atom_site_label
 _atom_site_symmetry_multiplicity
 _atom_site_fract_x
 _atom_site_fract_y
 _atom_site_fract_z
 _atom_site_occupancy
  Dy  Dy0  1  0.807842  0.192158  0.500000  1
  Dy  Dy1  1  0.192158  0.807842  0.500000  1
  Dy  Dy2  1  0.000000  0.000000  0.000000  1
  Dy  Dy3  1  0.500000  0.500000  0.500000  1
  Dy  Dy4  1  0.002646  0.502296  0.253312  1
  Dy  Dy5  1  0.997354  0.497704  0.746688  1
  Dy  Dy6  1  0.497704  0.997354  0.746688  1
  Dy  Dy7  1  0.502296  0.002646  0.253312  1
  Dy  Dy8  1  0.310650  0.310650  0.190609  1
  Dy  Dy9  1  0.689350  0.689350  0.809391  1
  Dy  Dy10  1  0.188113  0.188113  0.687320  1
  Dy  Dy11  1  0.811887  0.811887  0.312680  1
  Th  Th12  1  0.692897  0.307103  0.000000  1
  Th  Th13  1  0.307103  0.692897  0.000000  1
  Au  Au14  1  0.860904  0.147536  0.210059  1
  Au  Au15  1  0.139096  0.852464  0.789941  1
  Au  Au16  1  0.640290  0.350396  0.707151  1
  Au  Au17  1  0.649604  0.359710  0.292849  1
  Au  Au18  1  0.359710  0.649604  0.292849  1
  Au  Au19  1  0.350396  0.640290  0.707151  1
  Au  Au20  1  0.852464  0.139096  0.789941  1
  Au  Au21  1  0.147536  0.860904  0.210059  1
  Au  Au22  1  0.938007  0.646682  0.001125  1
  Au  Au23  1  0.061993  0.353318  0.998875  1
  Au  Au24  1  0.562578  0.854050  0.501817  1
  Au  Au25  1  0.145950  0.437422  0.498183  1
  Au  Au26  1  0.437422  0.145950  0.498183  1
  Au  Au27  1  0.854050  0.562578  0.501817  1
  Au  Au28  1  0.353318  0.061993  0.998875  1
  Au  Au29  1  0.646682  0.938007  0.001125  1
  Au  Au30  1  0.105048  0.105048  0.398332  1
  Au  Au31  1  0.894952  0.894952  0.601668  1
  Au  Au32  1  0.394934  0.394934  0.897001  1
  Au  Au33  1  0.605066  0.605066  0.102999  1
