# generated using pymatgen
data_CeNdRh2Pb
_symmetry_space_group_name_H-M   'P 1'
_cell_length_a   7.85458353
_cell_length_b   7.85458359
_cell_length_c   3.72264400
_cell_angle_alpha   90.00000000
_cell_angle_beta   90.00000000
_cell_angle_gamma   86.53098230
_symmetry_Int_Tables_number   1
_chemical_formula_structural   CeNdRh2Pb
_chemical_formula_sum   'Ce2 Nd2 Rh4 Pb2'
_cell_volume   229.24577023
_cell_formula_units_Z   2
loop_
 _symmetry_equiv_pos_site_id
 _symmetry_equiv_pos_as_xyz
  1  'x, y, z'
loop_
 _atom_site_type_symbol
 _atom_site_label
 _atom_site_symmetry_multiplicity
 _atom_site_fract_x
 _atom_site_fract_y
 _atom_site_fract_z
 _atom_site_occupancy
  Ce  Ce0  1  0.170888  0.329112  0.500000  1
  Ce  Ce1  1  0.829112  0.670888  0.500000  1
  Nd  Nd2  1  0.670897  0.170897  0.500000  1
  Nd  Nd3  1  0.329103  0.829103  0.500000  1
  Rh  Rh4  1  0.123759  0.623759  0.000000  1
  Rh  Rh5  1  0.876241  0.376241  0.000000  1
  Rh  Rh6  1  0.643246  0.856754  0.000000  1
  Rh  Rh7  1  0.356754  0.143246  0.000000  1
  Pb  Pb8  1  0.000000  0.000000  0.000000  1
  Pb  Pb9  1  0.500000  0.500000  0.000000  1
