# generated using pymatgen
data_YbCo(P4Ru)3
_symmetry_space_group_name_H-M   'P 1'
_cell_length_a   6.92242436
_cell_length_b   6.92242459
_cell_length_c   6.92242473
_cell_angle_alpha   109.27154367
_cell_angle_beta   109.27154587
_cell_angle_gamma   109.27155124
_symmetry_Int_Tables_number   1
_chemical_formula_structural   YbCo(P4Ru)3
_chemical_formula_sum   'Yb1 Co1 P12 Ru3'
_cell_volume   257.23044671
_cell_formula_units_Z   1
loop_
 _symmetry_equiv_pos_site_id
 _symmetry_equiv_pos_as_xyz
  1  'x, y, z'
loop_
 _atom_site_type_symbol
 _atom_site_label
 _atom_site_symmetry_multiplicity
 _atom_site_fract_x
 _atom_site_fract_y
 _atom_site_fract_z
 _atom_site_occupancy
  Yb  Yb0  1  0.000000  0.000000  0.000000  1
  Co  Co1  1  0.500000  0.500000  0.500000  1
  P  P2  1  0.358100  0.216173  0.857172  1
  P  P3  1  0.641900  0.783827  0.142828  1
  P  P4  1  0.639572  0.500177  0.848952  1
  P  P5  1  0.360428  0.499823  0.151048  1
  P  P6  1  0.216173  0.857172  0.358100  1
  P  P7  1  0.783827  0.142828  0.641900  1
  P  P8  1  0.500177  0.848952  0.639572  1
  P  P9  1  0.499823  0.151048  0.360428  1
  P  P10  1  0.857172  0.358100  0.216173  1
  P  P11  1  0.142828  0.641900  0.783827  1
  P  P12  1  0.848952  0.639572  0.500177  1
  P  P13  1  0.151048  0.360428  0.499823  1
  Ru  Ru14  1  0.000000  0.000000  0.500000  1
  Ru  Ru15  1  0.500000  0.000000  0.000000  1
  Ru  Ru16  1  0.000000  0.500000  0.000000  1
