# generated using pymatgen
data_SmHoLu4(Co3P2)6
_symmetry_space_group_name_H-M   'P 1'
_cell_length_a   3.67425400
_cell_length_b   10.48071000
_cell_length_c   12.12059100
_cell_angle_alpha   90.00000000
_cell_angle_beta   90.00000000
_cell_angle_gamma   90.00000000
_symmetry_Int_Tables_number   1
_chemical_formula_structural   SmHoLu4(Co3P2)6
_chemical_formula_sum   'Sm1 Ho1 Lu4 Co18 P12'
_cell_volume   466.74930126
_cell_formula_units_Z   1
loop_
 _symmetry_equiv_pos_site_id
 _symmetry_equiv_pos_as_xyz
  1  'x, y, z'
loop_
 _atom_site_type_symbol
 _atom_site_label
 _atom_site_symmetry_multiplicity
 _atom_site_fract_x
 _atom_site_fract_y
 _atom_site_fract_z
 _atom_site_occupancy
  Sm  Sm0  1  0.000000  0.500000  0.523635  1
  Ho  Ho1  1  0.500000  0.000000  0.476937  1
  Lu  Lu2  1  0.500000  0.818758  0.205926  1
  Lu  Lu3  1  0.500000  0.181242  0.205926  1
  Lu  Lu4  1  0.000000  0.681714  0.794466  1
  Lu  Lu5  1  0.000000  0.318286  0.794466  1
  Co  Co6  1  0.500000  0.500000  0.158982  1
  Co  Co7  1  0.000000  0.000000  0.840310  1
  Co  Co8  1  0.500000  0.500000  0.706741  1
  Co  Co9  1  0.000000  0.000000  0.295104  1
  Co  Co10  1  0.000000  0.500000  0.986927  1
  Co  Co11  1  0.500000  0.000000  0.013142  1
  Co  Co12  1  0.500000  0.332859  0.994825  1
  Co  Co13  1  0.500000  0.667141  0.994825  1
  Co  Co14  1  0.000000  0.167073  0.005200  1
  Co  Co15  1  0.000000  0.832927  0.005200  1
  Co  Co16  1  0.500000  0.295219  0.429711  1
  Co  Co17  1  0.500000  0.704781  0.429711  1
  Co  Co18  1  0.000000  0.201938  0.569782  1
  Co  Co19  1  0.000000  0.798062  0.569782  1
  Co  Co20  1  0.500000  0.878547  0.710165  1
  Co  Co21  1  0.500000  0.121453  0.710165  1
  Co  Co22  1  0.000000  0.622302  0.289234  1
  Co  Co23  1  0.000000  0.377698  0.289234  1
  P  P24  1  0.500000  0.500000  0.883408  1
  P  P25  1  0.000000  0.000000  0.117318  1
  P  P26  1  0.500000  0.500000  0.342489  1
  P  P27  1  0.000000  0.000000  0.655035  1
  P  P28  1  0.500000  0.309270  0.618295  1
  P  P29  1  0.500000  0.690730  0.618295  1
  P  P30  1  0.000000  0.188265  0.382565  1
  P  P31  1  0.000000  0.811735  0.382565  1
  P  P32  1  0.500000  0.846249  0.891850  1
  P  P33  1  0.500000  0.153751  0.891850  1
  P  P34  1  0.000000  0.653979  0.107966  1
  P  P35  1  0.000000  0.346021  0.107966  1
