# generated using pymatgen
data_NdHo7Cd2OsPd
_symmetry_space_group_name_H-M   'P 1'
_cell_length_a   9.67517263
_cell_length_b   9.67517283
_cell_length_c   9.74205700
_cell_angle_alpha   59.77105956
_cell_angle_beta   59.77105885
_cell_angle_gamma   59.29052428
_symmetry_Int_Tables_number   1
_chemical_formula_structural   NdHo7Cd2OsPd
_chemical_formula_sum   'Nd2 Ho14 Cd4 Os2 Pd2'
_cell_volume   639.10873753
_cell_formula_units_Z   2
loop_
 _symmetry_equiv_pos_site_id
 _symmetry_equiv_pos_as_xyz
  1  'x, y, z'
loop_
 _atom_site_type_symbol
 _atom_site_label
 _atom_site_symmetry_multiplicity
 _atom_site_fract_x
 _atom_site_fract_y
 _atom_site_fract_z
 _atom_site_occupancy
  Nd  Nd0  1  0.567426  0.567426  0.932574  1
  Nd  Nd1  1  0.936320  0.936320  0.563680  1
  Ho  Ho2  1  0.350462  0.350462  0.352312  1
  Ho  Ho3  1  0.350462  0.350462  0.946764  1
  Ho  Ho4  1  0.344378  0.954912  0.350355  1
  Ho  Ho5  1  0.954912  0.344378  0.350355  1
  Ho  Ho6  1  0.817454  0.186253  0.189274  1
  Ho  Ho7  1  0.186253  0.817454  0.807020  1
  Ho  Ho8  1  0.186253  0.817454  0.189274  1
  Ho  Ho9  1  0.817454  0.186253  0.807020  1
  Ho  Ho10  1  0.187826  0.187826  0.812174  1
  Ho  Ho11  1  0.809079  0.809079  0.190921  1
  Ho  Ho12  1  0.940273  0.552942  0.565376  1
  Ho  Ho13  1  0.552942  0.940273  0.941408  1
  Ho  Ho14  1  0.552942  0.940273  0.565376  1
  Ho  Ho15  1  0.940273  0.552942  0.941408  1
  Cd  Cd16  1  0.580674  0.580674  0.579315  1
  Cd  Cd17  1  0.580674  0.580674  0.259338  1
  Cd  Cd18  1  0.577863  0.256803  0.582667  1
  Cd  Cd19  1  0.256803  0.577863  0.582667  1
  Os  Os20  1  0.146856  0.146856  0.133559  1
  Os  Os21  1  0.146856  0.146856  0.572728  1
  Pd  Pd22  1  0.142602  0.572962  0.142217  1
  Pd  Pd23  1  0.572962  0.142602  0.142217  1
