# generated using pymatgen
data_Mg2Zn3B4IrRh7
_symmetry_space_group_name_H-M   'P 1'
_cell_length_a   9.52424660
_cell_length_b   9.51172785
_cell_length_c   2.90405400
_cell_angle_alpha   90.00000000
_cell_angle_beta   90.00000000
_cell_angle_gamma   125.92105368
_symmetry_Int_Tables_number   1
_chemical_formula_structural   Mg2Zn3B4IrRh7
_chemical_formula_sum   'Mg2 Zn3 B4 Ir1 Rh7'
_cell_volume   213.05244142
_cell_formula_units_Z   1
loop_
 _symmetry_equiv_pos_site_id
 _symmetry_equiv_pos_as_xyz
  1  'x, y, z'
loop_
 _atom_site_type_symbol
 _atom_site_label
 _atom_site_symmetry_multiplicity
 _atom_site_fract_x
 _atom_site_fract_y
 _atom_site_fract_z
 _atom_site_occupancy
  Mg  Mg0  1  0.199516  0.798212  0.500000  1
  Mg  Mg1  1  0.800484  0.201788  0.500000  1
  Zn  Zn2  1  0.357626  0.357770  0.500000  1
  Zn  Zn3  1  0.000000  0.000000  0.500000  1
  Zn  Zn4  1  0.642374  0.642230  0.500000  1
  B  B5  1  0.463326  0.152580  0.500000  1
  B  B6  1  0.152277  0.462944  0.500000  1
  B  B7  1  0.536674  0.847420  0.500000  1
  B  B8  1  0.847723  0.537056  0.500000  1
  Ir  Ir9  1  0.500000  0.000000  0.000000  1
  Rh  Rh10  1  0.627912  0.372514  0.000000  1
  Rh  Rh11  1  0.372088  0.627486  0.000000  1
  Rh  Rh12  1  0.911336  0.730377  0.000000  1
  Rh  Rh13  1  0.088664  0.269623  0.000000  1
  Rh  Rh14  1  0.268958  0.088346  0.000000  1
  Rh  Rh15  1  0.731042  0.911654  0.000000  1
  Rh  Rh16  1  0.000000  0.500000  0.000000  1
