# generated using pymatgen
data_Li12Dy5TmIn6
_symmetry_space_group_name_H-M   'P 1'
_cell_length_a   4.85116284
_cell_length_b   6.81977304
_cell_length_c   14.54605000
_cell_angle_alpha   89.99439625
_cell_angle_beta   90.03379050
_cell_angle_gamma   90.00172560
_symmetry_Int_Tables_number   1
_chemical_formula_structural   Li12Dy5TmIn6
_chemical_formula_sum   'Li12 Dy5 Tm1 In6'
_cell_volume   481.23895266
_cell_formula_units_Z   1
loop_
 _symmetry_equiv_pos_site_id
 _symmetry_equiv_pos_as_xyz
  1  'x, y, z'
loop_
 _atom_site_type_symbol
 _atom_site_label
 _atom_site_symmetry_multiplicity
 _atom_site_fract_x
 _atom_site_fract_y
 _atom_site_fract_z
 _atom_site_occupancy
  Li  Li0  1  0.499868  0.249812  0.000024  1
  Li  Li1  1  0.500149  0.750174  0.999974  1
  Li  Li2  1  0.000414  0.248875  0.166034  1
  Li  Li3  1  0.000633  0.751073  0.166125  1
  Li  Li4  1  0.500511  0.250842  0.333208  1
  Li  Li5  1  0.500430  0.749153  0.333194  1
  Li  Li6  1  0.000031  0.249478  0.500030  1
  Li  Li7  1  0.999972  0.750512  0.499984  1
  Li  Li8  1  0.499580  0.250811  0.666813  1
  Li  Li9  1  0.499498  0.749178  0.666794  1
  Li  Li10  1  0.999390  0.248891  0.833868  1
  Li  Li11  1  0.999595  0.751149  0.833965  1
  Dy  Dy12  1  0.500562  0.500040  0.166852  1
  Dy  Dy13  1  0.000373  0.000088  0.333315  1
  Dy  Dy14  1  0.500006  0.499997  0.500008  1
  Dy  Dy15  1  0.999623  0.999894  0.666685  1
  Dy  Dy16  1  0.499452  0.499952  0.833145  1
  Tm  Tm17  1  0.999994  0.999995  0.999999  1
  In  In18  1  0.000055  0.499994  0.999943  1
  In  In19  1  0.500298  0.999943  0.165985  1
  In  In20  1  0.000469  0.500079  0.333175  1
  In  In21  1  0.499923  0.000041  0.500050  1
  In  In22  1  0.999459  0.499970  0.666868  1
  In  In23  1  0.499719  0.000055  0.833962  1
