# generated using pymatgen
data_Tm4Co16Si11PRu4
_symmetry_space_group_name_H-M   'P 1'
_cell_length_a   3.72557600
_cell_length_b   10.49159531
_cell_length_c   11.92203560
_cell_angle_alpha   89.92416298
_cell_angle_beta   90.00000000
_cell_angle_gamma   90.00000000
_symmetry_Int_Tables_number   1
_chemical_formula_structural   Tm4Co16Si11PRu4
_chemical_formula_sum   'Tm4 Co16 Si11 P1 Ru4'
_cell_volume   465.99900706
_cell_formula_units_Z   1
loop_
 _symmetry_equiv_pos_site_id
 _symmetry_equiv_pos_as_xyz
  1  'x, y, z'
loop_
 _atom_site_type_symbol
 _atom_site_label
 _atom_site_symmetry_multiplicity
 _atom_site_fract_x
 _atom_site_fract_y
 _atom_site_fract_z
 _atom_site_occupancy
  Tm  Tm0  1  0.250000  0.582267  0.703738  1
  Tm  Tm1  1  0.250000  0.918342  0.202603  1
  Tm  Tm2  1  0.750000  0.418488  0.297058  1
  Tm  Tm3  1  0.750000  0.082629  0.795122  1
  Co  Co4  1  0.250000  0.407359  0.489385  1
  Co  Co5  1  0.250000  0.092597  0.992408  1
  Co  Co6  1  0.750000  0.592822  0.510801  1
  Co  Co7  1  0.750000  0.911550  0.012605  1
  Co  Co8  1  0.250000  0.213301  0.174450  1
  Co  Co9  1  0.250000  0.284710  0.675005  1
  Co  Co10  1  0.750000  0.786103  0.825758  1
  Co  Co11  1  0.750000  0.715018  0.324659  1
  Co  Co12  1  0.250000  0.886017  0.700135  1
  Co  Co13  1  0.250000  0.614540  0.200544  1
  Co  Co14  1  0.750000  0.113293  0.295559  1
  Co  Co15  1  0.750000  0.385176  0.800302  1
  Co  Co16  1  0.250000  0.467502  0.932000  1
  Co  Co17  1  0.250000  0.031569  0.429342  1
  Co  Co18  1  0.750000  0.530637  0.069204  1
  Co  Co19  1  0.750000  0.968918  0.568052  1
  Si  Si20  1  0.250000  0.416223  0.113509  1
  Si  Si21  1  0.250000  0.083780  0.611232  1
  Si  Si22  1  0.750000  0.583924  0.887956  1
  Si  Si23  1  0.750000  0.915839  0.387063  1
  Si  Si24  1  0.250000  0.270101  0.867309  1
  Si  Si25  1  0.250000  0.230001  0.366938  1
  Si  Si26  1  0.750000  0.729208  0.132524  1
  Si  Si27  1  0.750000  0.770932  0.632868  1
  Si  Si28  1  0.250000  0.599436  0.392604  1
  Si  Si29  1  0.250000  0.901898  0.892219  1
  Si  Si30  1  0.750000  0.400482  0.607594  1
  P  P31  1  0.750000  0.098056  0.108546  1
  Ru  Ru32  1  0.250000  0.706299  0.990622  1
  Ru  Ru33  1  0.250000  0.794869  0.490421  1
  Ru  Ru34  1  0.750000  0.290659  0.011905  1
  Ru  Ru35  1  0.750000  0.205456  0.507962  1
