# generated using pymatgen
data_PrNd15CdHg3Pt4
_symmetry_space_group_name_H-M   'P 1'
_cell_length_a   9.99694337
_cell_length_b   10.01837769
_cell_length_c   9.98299800
_cell_angle_alpha   60.11674520
_cell_angle_beta   60.04612768
_cell_angle_gamma   60.13164060
_symmetry_Int_Tables_number   1
_chemical_formula_structural   PrNd15CdHg3Pt4
_chemical_formula_sum   'Pr1 Nd15 Cd1 Hg3 Pt4'
_cell_volume   708.55740649
_cell_formula_units_Z   1
loop_
 _symmetry_equiv_pos_site_id
 _symmetry_equiv_pos_as_xyz
  1  'x, y, z'
loop_
 _atom_site_type_symbol
 _atom_site_label
 _atom_site_symmetry_multiplicity
 _atom_site_fract_x
 _atom_site_fract_y
 _atom_site_fract_z
 _atom_site_occupancy
  Pr  Pr0  1  0.935168  0.935058  0.564886  1
  Nd  Nd1  1  0.351355  0.350947  0.350273  1
  Nd  Nd2  1  0.351355  0.350947  0.947424  1
  Nd  Nd3  1  0.352848  0.944858  0.351147  1
  Nd  Nd4  1  0.942211  0.353411  0.352189  1
  Nd  Nd5  1  0.808645  0.192185  0.191537  1
  Nd  Nd6  1  0.190780  0.809417  0.808390  1
  Nd  Nd7  1  0.190780  0.809417  0.191413  1
  Nd  Nd8  1  0.808645  0.192185  0.807633  1
  Nd  Nd9  1  0.190330  0.191646  0.809012  1
  Nd  Nd10  1  0.807834  0.808088  0.192039  1
  Nd  Nd11  1  0.936660  0.563060  0.564827  1
  Nd  Nd12  1  0.562023  0.937451  0.935670  1
  Nd  Nd13  1  0.562023  0.937451  0.564855  1
  Nd  Nd14  1  0.936660  0.563060  0.935453  1
  Nd  Nd15  1  0.562771  0.563802  0.936713  1
  Cd  Cd16  1  0.260624  0.579321  0.580027  1
  Hg  Hg17  1  0.583361  0.585586  0.586003  1
  Hg  Hg18  1  0.583361  0.585586  0.245048  1
  Hg  Hg19  1  0.582522  0.245542  0.585967  1
  Pt  Pt20  1  0.143039  0.143624  0.143359  1
  Pt  Pt21  1  0.143039  0.143624  0.569978  1
  Pt  Pt22  1  0.142646  0.570973  0.143191  1
  Pt  Pt23  1  0.571322  0.142755  0.142961  1
