# generated using pymatgen
data_Tb10OsRh3
_symmetry_space_group_name_H-M   'P 1'
_cell_length_a   6.46957409
_cell_length_b   7.26546038
_cell_length_c   8.65734583
_cell_angle_alpha   96.64676758
_cell_angle_beta   112.24619877
_cell_angle_gamma   90.06442839
_symmetry_Int_Tables_number   1
_chemical_formula_structural   Tb10OsRh3
_chemical_formula_sum   'Tb10 Os1 Rh3'
_cell_volume   373.66487991
_cell_formula_units_Z   1
loop_
 _symmetry_equiv_pos_site_id
 _symmetry_equiv_pos_as_xyz
  1  'x, y, z'
loop_
 _atom_site_type_symbol
 _atom_site_label
 _atom_site_symmetry_multiplicity
 _atom_site_fract_x
 _atom_site_fract_y
 _atom_site_fract_z
 _atom_site_occupancy
  Tb  Tb0  1  0.982872  0.917043  0.188989  1
  Tb  Tb1  1  0.792108  0.585145  0.811222  1
  Tb  Tb2  1  0.023812  0.083494  0.819552  1
  Tb  Tb3  1  0.209652  0.415242  0.189045  1
  Tb  Tb4  1  0.647257  0.817338  0.435178  1
  Tb  Tb5  1  0.210231  0.684734  0.563106  1
  Tb  Tb6  1  0.352526  0.184174  0.559112  1
  Tb  Tb7  1  0.784454  0.313007  0.436834  1
  Tb  Tb8  1  0.427081  0.751782  0.001549  1
  Tb  Tb9  1  0.573919  0.248460  0.000158  1
  Os  Os10  1  0.396130  0.074713  0.215581  1
  Rh  Rh11  1  0.824350  0.573445  0.224653  1
  Rh  Rh12  1  0.600127  0.924601  0.779408  1
  Rh  Rh13  1  0.175482  0.426823  0.775613  1
