# generated using pymatgen
data_YbPr5Cr(SiSe7)2
_symmetry_space_group_name_H-M   'P 1'
_cell_length_a   10.65508590
_cell_length_b   10.67054064
_cell_length_c   6.06980080
_cell_angle_alpha   89.95114114
_cell_angle_beta   89.90584105
_cell_angle_gamma   119.97668292
_symmetry_Int_Tables_number   1
_chemical_formula_structural   YbPr5Cr(SiSe7)2
_chemical_formula_sum   'Yb1 Pr5 Cr1 Si2 Se14'
_cell_volume   597.79055097
_cell_formula_units_Z   1
loop_
 _symmetry_equiv_pos_site_id
 _symmetry_equiv_pos_as_xyz
  1  'x, y, z'
loop_
 _atom_site_type_symbol
 _atom_site_label
 _atom_site_symmetry_multiplicity
 _atom_site_fract_x
 _atom_site_fract_y
 _atom_site_fract_z
 _atom_site_occupancy
  Yb  Yb0  1  0.433783  0.460346  0.747098  1
  Pr  Pr1  1  0.026000  0.566618  0.748243  1
  Pr  Pr2  1  0.538282  0.972972  0.747452  1
  Pr  Pr3  1  0.901193  0.208579  0.250011  1
  Pr  Pr4  1  0.311086  0.105102  0.248240  1
  Pr  Pr5  1  0.788490  0.687720  0.251029  1
  Cr  Cr6  1  0.664710  0.334355  0.518181  1
  Si  Si7  1  0.333457  0.665856  0.166319  1
  Si  Si8  1  0.000314  0.000987  0.659043  1
  Se  Se9  1  0.333146  0.665852  0.538444  1
  Se  Se10  1  0.999578  0.999028  0.032577  1
  Se  Se11  1  0.514168  0.417667  0.288683  1
  Se  Se12  1  0.905018  0.485989  0.282146  1
  Se  Se13  1  0.582519  0.096091  0.282099  1
  Se  Se14  1  0.824487  0.251883  0.742541  1
  Se  Se15  1  0.429268  0.177277  0.741794  1
  Se  Se16  1  0.746346  0.569827  0.742505  1
  Se  Se17  1  0.559212  0.744988  0.017506  1
  Se  Se18  1  0.187348  0.439855  0.016500  1
  Se  Se19  1  0.254040  0.814969  0.019786  1
  Se  Se20  1  0.772703  0.919505  0.514099  1
  Se  Se21  1  0.148152  0.227333  0.516648  1
  Se  Se22  1  0.080032  0.853870  0.512329  1
