# generated using pymatgen
data_Ho4Lu4Co(B8W)3
_symmetry_space_group_name_H-M   'P 1'
_cell_length_a   3.55485800
_cell_length_b   9.19467820
_cell_length_c   11.59528040
_cell_angle_alpha   90.19571156
_cell_angle_beta   90.00000000
_cell_angle_gamma   90.00000000
_symmetry_Int_Tables_number   1
_chemical_formula_structural   Ho4Lu4Co(B8W)3
_chemical_formula_sum   'Ho4 Lu4 Co1 B24 W3'
_cell_volume   378.99851940
_cell_formula_units_Z   1
loop_
 _symmetry_equiv_pos_site_id
 _symmetry_equiv_pos_as_xyz
  1  'x, y, z'
loop_
 _atom_site_type_symbol
 _atom_site_label
 _atom_site_symmetry_multiplicity
 _atom_site_fract_x
 _atom_site_fract_y
 _atom_site_fract_z
 _atom_site_occupancy
  Ho  Ho0  1  0.000000  0.820482  0.086572  1
  Ho  Ho1  1  0.000000  0.177602  0.915059  1
  Ho  Ho2  1  0.000000  0.321329  0.414872  1
  Ho  Ho3  1  0.000000  0.678696  0.586119  1
  Lu  Lu4  1  0.000000  0.443965  0.126505  1
  Lu  Lu5  1  0.000000  0.552748  0.867813  1
  Lu  Lu6  1  0.000000  0.946064  0.373849  1
  Lu  Lu7  1  0.000000  0.061655  0.629821  1
  Co  Co8  1  0.000000  0.360646  0.680105  1
  B  B9  1  0.500000  0.050715  0.065202  1
  B  B10  1  0.500000  0.947597  0.934235  1
  B  B11  1  0.500000  0.550560  0.437009  1
  B  B12  1  0.500000  0.444117  0.569092  1
  B  B13  1  0.500000  0.252011  0.077752  1
  B  B14  1  0.500000  0.745198  0.919771  1
  B  B15  1  0.500000  0.754291  0.422690  1
  B  B16  1  0.500000  0.253089  0.583572  1
  B  B17  1  0.500000  0.296007  0.235600  1
  B  B18  1  0.500000  0.702490  0.761645  1
  B  B19  1  0.500000  0.795501  0.264897  1
  B  B20  1  0.500000  0.210986  0.734667  1
  B  B21  1  0.500000  0.132002  0.318296  1
  B  B22  1  0.500000  0.870341  0.681188  1
  B  B23  1  0.500000  0.629738  0.182902  1
  B  B24  1  0.500000  0.368275  0.813694  1
  B  B25  1  0.500000  0.477694  0.286870  1
  B  B26  1  0.500000  0.512733  0.710806  1
  B  B27  1  0.500000  0.978185  0.214497  1
  B  B28  1  0.500000  0.023123  0.786818  1
  B  B29  1  0.500000  0.104282  0.474284  1
  B  B30  1  0.500000  0.903033  0.528623  1
  B  B31  1  0.500000  0.598640  0.025784  1
  B  B32  1  0.500000  0.398224  0.969351  1
  W  W33  1  0.000000  0.139208  0.180177  1
  W  W34  1  0.000000  0.859806  0.818264  1
  W  W35  1  0.000000  0.638967  0.321599  1
