# generated using pymatgen
data_Sc3Mn3SiGe2
_symmetry_space_group_name_H-M   'P 1'
_cell_length_a   6.61576700
_cell_length_b   6.61576650
_cell_length_c   3.82877600
_cell_angle_alpha   90.00000000
_cell_angle_beta   90.00000000
_cell_angle_gamma   119.99999749
_symmetry_Int_Tables_number   1
_chemical_formula_structural   Sc3Mn3SiGe2
_chemical_formula_sum   'Sc3 Mn3 Si1 Ge2'
_cell_volume   145.12792028
_cell_formula_units_Z   1
loop_
 _symmetry_equiv_pos_site_id
 _symmetry_equiv_pos_as_xyz
  1  'x, y, z'
loop_
 _atom_site_type_symbol
 _atom_site_label
 _atom_site_symmetry_multiplicity
 _atom_site_fract_x
 _atom_site_fract_y
 _atom_site_fract_z
 _atom_site_occupancy
  Sc  Sc0  1  0.411810  0.411810  0.500000  1
  Sc  Sc1  1  0.588190  0.000000  0.500000  1
  Sc  Sc2  1  0.000000  0.588190  0.500000  1
  Mn  Mn3  1  0.775702  0.775702  0.000000  1
  Mn  Mn4  1  0.224298  0.000000  0.000000  1
  Mn  Mn5  1  0.000000  0.224298  0.000000  1
  Si  Si6  1  0.000000  0.000000  0.500000  1
  Ge  Ge7  1  0.666667  0.333333  0.000000  1
  Ge  Ge8  1  0.333333  0.666667  0.000000  1
