# generated using pymatgen
data_Pa2InOsPt
_symmetry_space_group_name_H-M   'P 1'
_cell_length_a   7.82044300
_cell_length_b   7.81926400
_cell_length_c   3.62793100
_cell_angle_alpha   90.00000000
_cell_angle_beta   90.00000000
_cell_angle_gamma   90.00000000
_symmetry_Int_Tables_number   1
_chemical_formula_structural   Pa2InOsPt
_chemical_formula_sum   'Pa4 In2 Os2 Pt2'
_cell_volume   221.84837397
_cell_formula_units_Z   2
loop_
 _symmetry_equiv_pos_site_id
 _symmetry_equiv_pos_as_xyz
  1  'x, y, z'
loop_
 _atom_site_type_symbol
 _atom_site_label
 _atom_site_symmetry_multiplicity
 _atom_site_fract_x
 _atom_site_fract_y
 _atom_site_fract_z
 _atom_site_occupancy
  Pa  Pa0  1  0.681551  0.830978  0.500000  1
  Pa  Pa1  1  0.818449  0.330978  0.500000  1
  Pa  Pa2  1  0.345827  0.169549  0.500000  1
  Pa  Pa3  1  0.154173  0.669549  0.500000  1
  In  In4  1  0.498937  0.503777  0.000000  1
  In  In5  1  0.001063  0.003777  0.000000  1
  Os  Os6  1  0.632444  0.132338  0.000000  1
  Os  Os7  1  0.867556  0.632338  0.000000  1
  Pt  Pt8  1  0.134780  0.363358  0.000000  1
  Pt  Pt9  1  0.365220  0.863358  0.000000  1
