# generated using pymatgen
data_Sc6TiAl15Os6Pt
_symmetry_space_group_name_H-M   'P 1'
_cell_length_a   8.78622917
_cell_length_b   8.78622966
_cell_length_c   8.78764306
_cell_angle_alpha   60.00532669
_cell_angle_beta   60.00532482
_cell_angle_gamma   60.00000480
_symmetry_Int_Tables_number   1
_chemical_formula_structural   Sc6TiAl15Os6Pt
_chemical_formula_sum   'Sc6 Ti1 Al15 Os6 Pt1'
_cell_volume   479.73064206
_cell_formula_units_Z   1
loop_
 _symmetry_equiv_pos_site_id
 _symmetry_equiv_pos_as_xyz
  1  'x, y, z'
loop_
 _atom_site_type_symbol
 _atom_site_label
 _atom_site_symmetry_multiplicity
 _atom_site_fract_x
 _atom_site_fract_y
 _atom_site_fract_z
 _atom_site_occupancy
  Sc  Sc0  1  0.710677  0.710677  0.284768  1
  Sc  Sc1  1  0.293878  0.710677  0.284768  1
  Sc  Sc2  1  0.710677  0.293878  0.284768  1
  Sc  Sc3  1  0.286193  0.286193  0.714220  1
  Sc  Sc4  1  0.713393  0.286193  0.714220  1
  Sc  Sc5  1  0.286193  0.713393  0.714220  1
  Ti  Ti6  1  0.875671  0.875671  0.372986  1
  Al  Al7  1  0.877841  0.367523  0.876795  1
  Al  Al8  1  0.367523  0.877841  0.876795  1
  Al  Al9  1  0.877841  0.877841  0.876795  1
  Al  Al10  1  0.123248  0.123248  0.630258  1
  Al  Al11  1  0.121260  0.633068  0.124412  1
  Al  Al12  1  0.633068  0.121260  0.124412  1
  Al  Al13  1  0.121260  0.121260  0.124412  1
  Al  Al14  1  0.664140  0.664140  0.007580  1
  Al  Al15  1  0.661499  0.013159  0.663844  1
  Al  Al16  1  0.013159  0.661499  0.663844  1
  Al  Al17  1  0.661499  0.661499  0.663844  1
  Al  Al18  1  0.336531  0.336531  0.990405  1
  Al  Al19  1  0.337221  0.988326  0.337231  1
  Al  Al20  1  0.988326  0.337221  0.337231  1
  Al  Al21  1  0.337221  0.337221  0.337231  1
  Os  Os22  1  0.999254  0.999254  0.499515  1
  Os  Os23  1  0.501977  0.999254  0.499515  1
  Os  Os24  1  0.999254  0.501977  0.499515  1
  Os  Os25  1  0.500035  0.500035  0.999414  1
  Os  Os26  1  0.000515  0.500035  0.999414  1
  Os  Os27  1  0.500035  0.000515  0.999414  1
  Pt  Pt28  1  0.000611  0.000611  0.998168  1
