# generated using pymatgen
data_TbHo3(Pd2Pb)2
_symmetry_space_group_name_H-M   'P 1'
_cell_length_a   7.90148287
_cell_length_b   7.90148287
_cell_length_c   3.64219300
_cell_angle_alpha   90.00000000
_cell_angle_beta   90.00000000
_cell_angle_gamma   89.82833339
_symmetry_Int_Tables_number   1
_chemical_formula_structural   TbHo3(Pd2Pb)2
_chemical_formula_sum   'Tb1 Ho3 Pd4 Pb2'
_cell_volume   227.39358648
_cell_formula_units_Z   1
loop_
 _symmetry_equiv_pos_site_id
 _symmetry_equiv_pos_as_xyz
  1  'x, y, z'
loop_
 _atom_site_type_symbol
 _atom_site_label
 _atom_site_symmetry_multiplicity
 _atom_site_fract_x
 _atom_site_fract_y
 _atom_site_fract_z
 _atom_site_occupancy
  Tb  Tb0  1  0.671479  0.171479  0.500000  1
  Ho  Ho1  1  0.171017  0.329080  0.500000  1
  Ho  Ho2  1  0.829080  0.671017  0.500000  1
  Ho  Ho3  1  0.328578  0.828578  0.500000  1
  Pd  Pd4  1  0.373513  0.125095  0.000000  1
  Pd  Pd5  1  0.125605  0.625605  0.000000  1
  Pd  Pd6  1  0.625095  0.873513  0.000000  1
  Pd  Pd7  1  0.875444  0.375444  0.000000  1
  Pb  Pb8  1  0.000326  0.999862  0.000000  1
  Pb  Pb9  1  0.499862  0.500326  0.000000  1
