# generated using pymatgen
data_Ho7Er3InBi5
_symmetry_space_group_name_H-M   'P 1'
_cell_length_a   9.09605715
_cell_length_b   9.09684483
_cell_length_c   6.42745103
_cell_angle_alpha   89.99272148
_cell_angle_beta   90.01183212
_cell_angle_gamma   120.00804100
_symmetry_Int_Tables_number   1
_chemical_formula_structural   Ho7Er3InBi5
_chemical_formula_sum   'Ho7 Er3 In1 Bi5'
_cell_volume   460.55146789
_cell_formula_units_Z   1
loop_
 _symmetry_equiv_pos_site_id
 _symmetry_equiv_pos_as_xyz
  1  'x, y, z'
loop_
 _atom_site_type_symbol
 _atom_site_label
 _atom_site_symmetry_multiplicity
 _atom_site_fract_x
 _atom_site_fract_y
 _atom_site_fract_z
 _atom_site_occupancy
  Ho  Ho0  1  0.672052  0.334416  0.499602  1
  Ho  Ho1  1  0.759594  0.758137  0.750027  1
  Ho  Ho2  1  0.240441  0.998622  0.750050  1
  Ho  Ho3  1  0.000009  0.240173  0.750078  1
  Ho  Ho4  1  0.234862  0.242927  0.249932  1
  Ho  Ho5  1  0.765172  0.008097  0.249994  1
  Ho  Ho6  1  0.000002  0.755753  0.249992  1
  Er  Er7  1  0.672249  0.334453  0.000626  1
  Er  Er8  1  0.327810  0.662262  0.000614  1
  Er  Er9  1  0.327691  0.662205  0.499363  1
  In  In10  1  0.000399  0.394588  0.249497  1
  Bi  Bi11  1  0.392045  0.389810  0.750220  1
  Bi  Bi12  1  0.607665  0.997209  0.750185  1
  Bi  Bi13  1  0.000254  0.608753  0.750234  1
  Bi  Bi14  1  0.609793  0.611449  0.249813  1
  Bi  Bi15  1  0.389962  0.001145  0.249774  1
