# generated using pymatgen
data_Sr2Er(Zn3Ni2)3
_symmetry_space_group_name_H-M   'P 1'
_cell_length_a   8.97492400
_cell_length_b   8.97492248
_cell_length_c   4.23710500
_cell_angle_alpha   90.00000000
_cell_angle_beta   90.00000000
_cell_angle_gamma   119.99999824
_symmetry_Int_Tables_number   1
_chemical_formula_structural   Sr2Er(Zn3Ni2)3
_chemical_formula_sum   'Sr2 Er1 Zn9 Ni6'
_cell_volume   295.57068045
_cell_formula_units_Z   1
loop_
 _symmetry_equiv_pos_site_id
 _symmetry_equiv_pos_as_xyz
  1  'x, y, z'
loop_
 _atom_site_type_symbol
 _atom_site_label
 _atom_site_symmetry_multiplicity
 _atom_site_fract_x
 _atom_site_fract_y
 _atom_site_fract_z
 _atom_site_occupancy
  Sr  Sr0  1  0.333333  0.666667  0.000000  1
  Sr  Sr1  1  0.666667  0.333333  0.000000  1
  Er  Er2  1  0.000000  0.000000  0.500000  1
  Zn  Zn3  1  0.500000  0.000000  0.500000  1
  Zn  Zn4  1  0.500000  0.500000  0.500000  1
  Zn  Zn5  1  0.000000  0.500000  0.500000  1
  Zn  Zn6  1  0.285934  0.000000  0.000000  1
  Zn  Zn7  1  0.285934  0.285934  0.000000  1
  Zn  Zn8  1  0.000000  0.714066  0.000000  1
  Zn  Zn9  1  0.000000  0.285934  0.000000  1
  Zn  Zn10  1  0.714066  0.714066  0.000000  1
  Zn  Zn11  1  0.714066  0.000000  0.000000  1
  Ni  Ni12  1  0.175460  0.350919  0.500000  1
  Ni  Ni13  1  0.824540  0.175460  0.500000  1
  Ni  Ni14  1  0.350919  0.175460  0.500000  1
  Ni  Ni15  1  0.649081  0.824540  0.500000  1
  Ni  Ni16  1  0.175460  0.824540  0.500000  1
  Ni  Ni17  1  0.824540  0.649081  0.500000  1
