# generated using pymatgen
data_Hf3Sc5(Si4Ru3)4
_symmetry_space_group_name_H-M   'P 1'
_cell_length_a   9.93109553
_cell_length_b   9.94112191
_cell_length_c   13.35727259
_cell_angle_alpha   53.85138524
_cell_angle_beta   53.83009097
_cell_angle_gamma   31.08068183
_symmetry_Int_Tables_number   1
_chemical_formula_structural   Hf3Sc5(Si4Ru3)4
_chemical_formula_sum   'Hf3 Sc5 Si16 Ru12'
_cell_volume   538.17717646
_cell_formula_units_Z   1
loop_
 _symmetry_equiv_pos_site_id
 _symmetry_equiv_pos_as_xyz
  1  'x, y, z'
loop_
 _atom_site_type_symbol
 _atom_site_label
 _atom_site_symmetry_multiplicity
 _atom_site_fract_x
 _atom_site_fract_y
 _atom_site_fract_z
 _atom_site_occupancy
  Hf  Hf0  1  0.704283  0.961198  0.863933  1
  Hf  Hf1  1  0.961378  0.704290  0.364112  1
  Hf  Hf2  1  0.295547  0.038714  0.136173  1
  Sc  Sc3  1  0.292402  0.560371  0.646318  1
  Sc  Sc4  1  0.438799  0.707925  0.853819  1
  Sc  Sc5  1  0.707329  0.439722  0.353730  1
  Sc  Sc6  1  0.561033  0.292321  0.146459  1
  Sc  Sc7  1  0.037537  0.293805  0.638715  1
  Si  Si8  1  0.874696  0.124930  0.250167  1
  Si  Si9  1  0.126666  0.874288  0.749334  1
  Si  Si10  1  0.382423  0.618083  0.249782  1
  Si  Si11  1  0.617862  0.382565  0.749627  1
  Si  Si12  1  0.973296  0.254713  0.891241  1
  Si  Si13  1  0.747080  0.025227  0.608129  1
  Si  Si14  1  0.026690  0.745301  0.108507  1
  Si  Si15  1  0.253286  0.974401  0.392000  1
  Si  Si16  1  0.574210  0.083711  0.065689  1
  Si  Si17  1  0.917312  0.424687  0.434646  1
  Si  Si18  1  0.424980  0.917057  0.934079  1
  Si  Si19  1  0.082251  0.573517  0.566295  1
  Si  Si20  1  0.386116  0.144595  0.396324  1
  Si  Si21  1  0.854684  0.613681  0.104721  1
  Si  Si22  1  0.613023  0.856272  0.604323  1
  Si  Si23  1  0.145729  0.386206  0.894877  1
  Ru  Ru24  1  0.648412  0.829931  0.281880  1
  Ru  Ru25  1  0.170267  0.350970  0.217454  1
  Ru  Ru26  1  0.758800  0.484865  0.070264  1
  Ru  Ru27  1  0.828875  0.649461  0.782752  1
  Ru  Ru28  1  0.897100  0.142113  0.585872  1
  Ru  Ru29  1  0.857264  0.101657  0.914400  1
  Ru  Ru30  1  0.102695  0.857380  0.414010  1
  Ru  Ru31  1  0.142671  0.897448  0.085946  1
  Ru  Ru32  1  0.241270  0.515171  0.929881  1
  Ru  Ru33  1  0.488588  0.756542  0.567963  1
  Ru  Ru34  1  0.513069  0.245715  0.428613  1
  Ru  Ru35  1  0.352377  0.171168  0.717967  1
