# generated using pymatgen
data_SrPb(AuO2)4
_symmetry_space_group_name_H-M   'P 1'
_cell_length_a   6.85033743
_cell_length_b   6.85033795
_cell_length_c   6.85033857
_cell_angle_alpha   124.85691416
_cell_angle_beta   124.85691517
_cell_angle_gamma   81.77515852
_symmetry_Int_Tables_number   1
_chemical_formula_structural   SrPb(AuO2)4
_chemical_formula_sum   'Sr1 Pb1 Au4 O8'
_cell_volume   208.26035298
_cell_formula_units_Z   1
loop_
 _symmetry_equiv_pos_site_id
 _symmetry_equiv_pos_as_xyz
  1  'x, y, z'
loop_
 _atom_site_type_symbol
 _atom_site_label
 _atom_site_symmetry_multiplicity
 _atom_site_fract_x
 _atom_site_fract_y
 _atom_site_fract_z
 _atom_site_occupancy
  Sr  Sr0  1  0.000000  0.000000  0.000000  1
  Pb  Pb1  1  0.750000  0.250000  0.500000  1
  Au  Au2  1  0.375315  0.625096  0.250490  1
  Au  Au3  1  0.875176  0.624685  0.249782  1
  Au  Au4  1  0.374606  0.124824  0.749510  1
  Au  Au5  1  0.374904  0.625394  0.750218  1
  O  O6  1  0.577749  0.949455  0.930444  1
  O  O7  1  0.701237  0.266893  0.874364  1
  O  O8  1  0.392529  0.826873  0.125636  1
  O  O9  1  0.019012  0.647305  0.069556  1
  O  O10  1  0.173127  0.298763  0.565655  1
  O  O11  1  0.050545  0.980988  0.628294  1
  O  O12  1  0.733107  0.607471  0.434345  1
  O  O13  1  0.352695  0.422251  0.371706  1
