# generated using pymatgen
data_Lu8Sc12Si15Rh
_symmetry_space_group_name_H-M   'P 1'
_cell_length_a   7.04094746
_cell_length_b   7.30770583
_cell_length_c   13.88355828
_cell_angle_alpha   89.89004328
_cell_angle_beta   89.78046365
_cell_angle_gamma   90.17717294
_symmetry_Int_Tables_number   1
_chemical_formula_structural   Lu8Sc12Si15Rh
_chemical_formula_sum   'Lu8 Sc12 Si15 Rh1'
_cell_volume   714.34313209
_cell_formula_units_Z   1
loop_
 _symmetry_equiv_pos_site_id
 _symmetry_equiv_pos_as_xyz
  1  'x, y, z'
loop_
 _atom_site_type_symbol
 _atom_site_label
 _atom_site_symmetry_multiplicity
 _atom_site_fract_x
 _atom_site_fract_y
 _atom_site_fract_z
 _atom_site_occupancy
  Lu  Lu0  1  0.012633  0.176582  0.096703  1
  Lu  Lu1  1  0.987902  0.823479  0.903190  1
  Lu  Lu2  1  0.486783  0.677660  0.903135  1
  Lu  Lu3  1  0.989213  0.820583  0.596299  1
  Lu  Lu4  1  0.512336  0.323008  0.096029  1
  Lu  Lu5  1  0.011736  0.180879  0.403672  1
  Lu  Lu6  1  0.507839  0.324135  0.403941  1
  Lu  Lu7  1  0.485690  0.671044  0.597477  1
  Sc  Sc8  1  0.163297  0.504518  0.745127  1
  Sc  Sc9  1  0.838113  0.496613  0.251964  1
  Sc  Sc10  1  0.339135  0.001010  0.250422  1
  Sc  Sc11  1  0.662340  0.995635  0.749422  1
  Sc  Sc12  1  0.330569  0.187396  0.621235  1
  Sc  Sc13  1  0.668188  0.823429  0.373902  1
  Sc  Sc14  1  0.171348  0.665186  0.378225  1
  Sc  Sc15  1  0.671454  0.824250  0.126326  1
  Sc  Sc16  1  0.834372  0.326535  0.623547  1
  Sc  Sc17  1  0.328073  0.177112  0.875667  1
  Sc  Sc18  1  0.831208  0.321742  0.875653  1
  Sc  Sc19  1  0.170144  0.676959  0.124967  1
  Si  Si20  1  0.033215  0.111830  0.749713  1
  Si  Si21  1  0.970305  0.885972  0.251389  1
  Si  Si22  1  0.467690  0.612064  0.248361  1
  Si  Si23  1  0.536592  0.386538  0.752952  1
  Si  Si24  1  0.285969  0.874140  0.750473  1
  Si  Si25  1  0.714251  0.131362  0.249599  1
  Si  Si26  1  0.215946  0.367573  0.247658  1
  Si  Si27  1  0.784028  0.629728  0.752877  1
  Si  Si28  1  0.834467  0.535763  0.460861  1
  Si  Si29  1  0.341930  0.963841  0.461020  1
  Si  Si30  1  0.841810  0.535601  0.038676  1
  Si  Si31  1  0.657286  0.033147  0.538833  1
  Si  Si32  1  0.157498  0.466282  0.960991  1
  Si  Si33  1  0.658781  0.033761  0.961803  1
  Si  Si34  1  0.342746  0.965145  0.038867  1
  Rh  Rh35  1  0.155111  0.469501  0.539025  1
