# generated using pymatgen
data_Mn2NiAs2Ru
_symmetry_space_group_name_H-M   'P 1'
_cell_length_a   6.24208900
_cell_length_b   3.71550200
_cell_length_c   7.25684900
_cell_angle_alpha   90.00000000
_cell_angle_beta   90.00000000
_cell_angle_gamma   90.00000000
_symmetry_Int_Tables_number   1
_chemical_formula_structural   Mn2NiAs2Ru
_chemical_formula_sum   'Mn4 Ni2 As4 Ru2'
_cell_volume   168.30442808
_cell_formula_units_Z   2
loop_
 _symmetry_equiv_pos_site_id
 _symmetry_equiv_pos_as_xyz
  1  'x, y, z'
loop_
 _atom_site_type_symbol
 _atom_site_label
 _atom_site_symmetry_multiplicity
 _atom_site_fract_x
 _atom_site_fract_y
 _atom_site_fract_z
 _atom_site_occupancy
  Mn  Mn0  1  0.037211  0.250000  0.327200  1
  Mn  Mn1  1  0.537211  0.250000  0.172800  1
  Mn  Mn2  1  0.963601  0.750000  0.669772  1
  Mn  Mn3  1  0.463601  0.750000  0.830228  1
  Ni  Ni4  1  0.855346  0.750000  0.063793  1
  Ni  Ni5  1  0.355346  0.750000  0.436207  1
  As  As6  1  0.254170  0.250000  0.620617  1
  As  As7  1  0.754170  0.250000  0.879383  1
  As  As8  1  0.746450  0.750000  0.366639  1
  As  As9  1  0.246450  0.750000  0.133361  1
  Ru  Ru10  1  0.143221  0.250000  0.938788  1
  Ru  Ru11  1  0.643221  0.250000  0.561212  1
