# generated using pymatgen
data_Na3LaPrNd3Te8
_symmetry_space_group_name_H-M   'P 1'
_cell_length_a   9.14767398
_cell_length_b   9.14767456
_cell_length_c   9.14767361
_cell_angle_alpha   59.66893582
_cell_angle_beta   59.66893943
_cell_angle_gamma   59.66893705
_symmetry_Int_Tables_number   1
_chemical_formula_structural   Na3LaPrNd3Te8
_chemical_formula_sum   'Na3 La1 Pr1 Nd3 Te8'
_cell_volume   537.20266547
_cell_formula_units_Z   1
loop_
 _symmetry_equiv_pos_site_id
 _symmetry_equiv_pos_as_xyz
  1  'x, y, z'
loop_
 _atom_site_type_symbol
 _atom_site_label
 _atom_site_symmetry_multiplicity
 _atom_site_fract_x
 _atom_site_fract_y
 _atom_site_fract_z
 _atom_site_occupancy
  Na  Na0  1  0.125000  0.625000  0.125000  1
  Na  Na1  1  0.125000  0.125000  0.625000  1
  Na  Na2  1  0.625000  0.125000  0.125000  1
  La  La3  1  0.125000  0.125000  0.125000  1
  Pr  Pr4  1  0.625000  0.625000  0.625000  1
  Nd  Nd5  1  0.625000  0.125000  0.625000  1
  Nd  Nd6  1  0.125000  0.625000  0.625000  1
  Nd  Nd7  1  0.625000  0.625000  0.125000  1
  Te  Te8  1  0.375580  0.871901  0.375580  1
  Te  Te9  1  0.874420  0.378099  0.874420  1
  Te  Te10  1  0.874420  0.874420  0.378099  1
  Te  Te11  1  0.872524  0.872524  0.872524  1
  Te  Te12  1  0.871901  0.375580  0.375580  1
  Te  Te13  1  0.375580  0.375580  0.871901  1
  Te  Te14  1  0.377476  0.377476  0.377476  1
  Te  Te15  1  0.378099  0.874420  0.874420  1
