# generated using pymatgen
data_Li3Tm4Co3(P6Rh7)2
_symmetry_space_group_name_H-M   'P 1'
_cell_length_a   3.83792000
_cell_length_b   10.69936733
_cell_length_c   12.50840296
_cell_angle_alpha   89.83032593
_cell_angle_beta   90.00000000
_cell_angle_gamma   90.00000000
_symmetry_Int_Tables_number   1
_chemical_formula_structural   Li3Tm4Co3(P6Rh7)2
_chemical_formula_sum   'Li3 Tm4 Co3 P12 Rh14'
_cell_volume   513.63424944
_cell_formula_units_Z   1
loop_
 _symmetry_equiv_pos_site_id
 _symmetry_equiv_pos_as_xyz
  1  'x, y, z'
loop_
 _atom_site_type_symbol
 _atom_site_label
 _atom_site_symmetry_multiplicity
 _atom_site_fract_x
 _atom_site_fract_y
 _atom_site_fract_z
 _atom_site_occupancy
  Li  Li0  1  0.250000  0.709402  0.991403  1
  Li  Li1  1  0.250000  0.795471  0.488456  1
  Li  Li2  1  0.750000  0.292434  0.010903  1
  Tm  Tm3  1  0.250000  0.581190  0.704754  1
  Tm  Tm4  1  0.250000  0.921147  0.208450  1
  Tm  Tm5  1  0.750000  0.422217  0.297109  1
  Tm  Tm6  1  0.750000  0.076626  0.790817  1
  Co  Co7  1  0.250000  0.037831  0.434598  1
  Co  Co8  1  0.750000  0.537132  0.067601  1
  Co  Co9  1  0.750000  0.963304  0.563467  1
  P  P10  1  0.250000  0.428532  0.117479  1
  P  P11  1  0.250000  0.070992  0.605633  1
  P  P12  1  0.750000  0.575255  0.888684  1
  P  P13  1  0.750000  0.926291  0.391160  1
  P  P14  1  0.250000  0.260627  0.859748  1
  P  P15  1  0.250000  0.230640  0.367758  1
  P  P16  1  0.750000  0.732743  0.137844  1
  P  P17  1  0.750000  0.768669  0.635287  1
  P  P18  1  0.250000  0.602390  0.389552  1
  P  P19  1  0.250000  0.900291  0.888515  1
  P  P20  1  0.750000  0.400390  0.609129  1
  P  P21  1  0.750000  0.099839  0.110897  1
  Rh  Rh22  1  0.750000  0.211230  0.510752  1
  Rh  Rh23  1  0.250000  0.406583  0.476979  1
  Rh  Rh24  1  0.250000  0.094617  0.978218  1
  Rh  Rh25  1  0.750000  0.594683  0.523158  1
  Rh  Rh26  1  0.750000  0.904493  0.022931  1
  Rh  Rh27  1  0.250000  0.227281  0.176476  1
  Rh  Rh28  1  0.250000  0.267841  0.672387  1
  Rh  Rh29  1  0.750000  0.774520  0.826002  1
  Rh  Rh30  1  0.750000  0.726437  0.327143  1
  Rh  Rh31  1  0.250000  0.881519  0.695215  1
  Rh  Rh32  1  0.250000  0.621435  0.196996  1
  Rh  Rh33  1  0.750000  0.114615  0.301291  1
  Rh  Rh34  1  0.750000  0.378114  0.797912  1
  Rh  Rh35  1  0.250000  0.463216  0.935291  1
