# generated using pymatgen
data_LaDy3(WO6)2
_symmetry_space_group_name_H-M   'P 1'
_cell_length_a   5.47057000
_cell_length_b   7.80353390
_cell_length_c   11.60903018
_cell_angle_alpha   75.67994285
_cell_angle_beta   90.00000000
_cell_angle_gamma   90.00000000
_symmetry_Int_Tables_number   1
_chemical_formula_structural   LaDy3(WO6)2
_chemical_formula_sum   'La2 Dy6 W4 O24'
_cell_volume   480.18864720
_cell_formula_units_Z   2
loop_
 _symmetry_equiv_pos_site_id
 _symmetry_equiv_pos_as_xyz
  1  'x, y, z'
loop_
 _atom_site_type_symbol
 _atom_site_label
 _atom_site_symmetry_multiplicity
 _atom_site_fract_x
 _atom_site_fract_y
 _atom_site_fract_z
 _atom_site_occupancy
  La  La0  1  0.686693  0.500000  0.750000  1
  La  La1  1  0.313307  0.500000  0.250000  1
  Dy  Dy2  1  0.741009  0.000000  0.750000  1
  Dy  Dy3  1  0.258991  0.000000  0.250000  1
  Dy  Dy4  1  0.188400  0.799104  0.576314  1
  Dy  Dy5  1  0.811600  0.799104  0.076314  1
  Dy  Dy6  1  0.188400  0.200896  0.923686  1
  Dy  Dy7  1  0.811600  0.200896  0.423686  1
  W  W8  1  0.252062  0.728793  0.884080  1
  W  W9  1  0.747938  0.728793  0.384080  1
  W  W10  1  0.252062  0.271207  0.615920  1
  W  W11  1  0.747938  0.271207  0.115920  1
  O  O12  1  0.040033  0.941650  0.895752  1
  O  O13  1  0.529873  0.846802  0.930742  1
  O  O14  1  0.959967  0.941650  0.395752  1
  O  O15  1  0.454468  0.795529  0.727900  1
  O  O16  1  0.470127  0.846802  0.430742  1
  O  O17  1  0.987515  0.721397  0.769210  1
  O  O18  1  0.545532  0.795529  0.227900  1
  O  O19  1  0.858444  0.643491  0.543859  1
  O  O20  1  0.346778  0.495021  0.887780  1
  O  O21  1  0.012485  0.721397  0.269210  1
  O  O22  1  0.346778  0.504979  0.612220  1
  O  O23  1  0.858444  0.356509  0.956141  1
  O  O24  1  0.141556  0.643491  0.043859  1
  O  O25  1  0.653222  0.495021  0.387780  1
  O  O26  1  0.987515  0.278603  0.730790  1
  O  O27  1  0.653222  0.504979  0.112220  1
  O  O28  1  0.141556  0.356509  0.456141  1
  O  O29  1  0.454468  0.204471  0.772100  1
  O  O30  1  0.012485  0.278603  0.230790  1
  O  O31  1  0.529873  0.153198  0.569258  1
  O  O32  1  0.545532  0.204471  0.272100  1
  O  O33  1  0.040033  0.058350  0.604248  1
  O  O34  1  0.470127  0.153198  0.069258  1
  O  O35  1  0.959967  0.058350  0.104248  1
