# generated using pymatgen
data_TbY2Sn3PdRh2
_symmetry_space_group_name_H-M   'P 1'
_cell_length_a   7.61769902
_cell_length_b   7.61697861
_cell_length_c   3.87242900
_cell_angle_alpha   90.00000000
_cell_angle_beta   90.00000000
_cell_angle_gamma   120.01137196
_symmetry_Int_Tables_number   1
_chemical_formula_structural   TbY2Sn3PdRh2
_chemical_formula_sum   'Tb1 Y2 Sn3 Pd1 Rh2'
_cell_volume   194.56775300
_cell_formula_units_Z   1
loop_
 _symmetry_equiv_pos_site_id
 _symmetry_equiv_pos_as_xyz
  1  'x, y, z'
loop_
 _atom_site_type_symbol
 _atom_site_label
 _atom_site_symmetry_multiplicity
 _atom_site_fract_x
 _atom_site_fract_y
 _atom_site_fract_z
 _atom_site_occupancy
  Tb  Tb0  1  0.409742  0.009086  0.500000  1
  Y  Y1  1  0.991011  0.400480  0.500000  1
  Y  Y2  1  0.599629  0.590589  0.500000  1
  Sn  Sn3  1  0.741155  0.000885  0.000000  1
  Sn  Sn4  1  0.998983  0.740038  0.000000  1
  Sn  Sn5  1  0.259818  0.259089  0.000000  1
  Pd  Pd6  1  0.333289  0.666745  0.000000  1
  Rh  Rh7  1  0.666348  0.333068  0.000000  1
  Rh  Rh8  1  0.000025  0.000020  0.500000  1
