# generated using pymatgen
data_Sm2Sc3Sn4
_symmetry_space_group_name_H-M   'P 1'
_cell_length_a   7.82906900
_cell_length_b   7.96593300
_cell_length_c   15.01950000
_cell_angle_alpha   90.00000000
_cell_angle_beta   90.00000000
_cell_angle_gamma   90.00000000
_symmetry_Int_Tables_number   1
_chemical_formula_structural   Sm2Sc3Sn4
_chemical_formula_sum   'Sm8 Sc12 Sn16'
_cell_volume   936.70372046
_cell_formula_units_Z   4
loop_
 _symmetry_equiv_pos_site_id
 _symmetry_equiv_pos_as_xyz
  1  'x, y, z'
loop_
 _atom_site_type_symbol
 _atom_site_label
 _atom_site_symmetry_multiplicity
 _atom_site_fract_x
 _atom_site_fract_y
 _atom_site_fract_z
 _atom_site_occupancy
  Sm  Sm0  1  0.517499  0.322991  0.904092  1
  Sm  Sm1  1  0.017499  0.177009  0.595908  1
  Sm  Sm2  1  0.482501  0.677009  0.404092  1
  Sm  Sm3  1  0.982501  0.822991  0.095908  1
  Sm  Sm4  1  0.482501  0.677009  0.095908  1
  Sm  Sm5  1  0.982501  0.822991  0.404092  1
  Sm  Sm6  1  0.517499  0.322991  0.595908  1
  Sm  Sm7  1  0.017499  0.177009  0.904092  1
  Sc  Sc8  1  0.360987  0.836511  0.874970  1
  Sc  Sc9  1  0.860987  0.663489  0.625030  1
  Sc  Sc10  1  0.639013  0.163489  0.374970  1
  Sc  Sc11  1  0.139013  0.336511  0.125030  1
  Sc  Sc12  1  0.639013  0.163489  0.125030  1
  Sc  Sc13  1  0.139013  0.336511  0.374970  1
  Sc  Sc14  1  0.360987  0.836511  0.625030  1
  Sc  Sc15  1  0.860987  0.663489  0.874970  1
  Sc  Sc16  1  0.192366  0.506501  0.750000  1
  Sc  Sc17  1  0.692366  0.993499  0.750000  1
  Sc  Sc18  1  0.807634  0.493499  0.250000  1
  Sc  Sc19  1  0.307634  0.006501  0.250000  1
  Sn  Sn20  1  0.307444  0.043333  0.042905  1
  Sn  Sn21  1  0.807444  0.456667  0.457095  1
  Sn  Sn22  1  0.692556  0.956667  0.542905  1
  Sn  Sn23  1  0.192556  0.543333  0.957095  1
  Sn  Sn24  1  0.692556  0.956667  0.957095  1
  Sn  Sn25  1  0.192556  0.543333  0.542905  1
  Sn  Sn26  1  0.307444  0.043333  0.457095  1
  Sn  Sn27  1  0.807444  0.456667  0.042905  1
  Sn  Sn28  1  0.557317  0.629659  0.750000  1
  Sn  Sn29  1  0.057317  0.870341  0.750000  1
  Sn  Sn30  1  0.442683  0.370341  0.250000  1
  Sn  Sn31  1  0.942683  0.129659  0.250000  1
  Sn  Sn32  1  0.326689  0.141623  0.750000  1
  Sn  Sn33  1  0.826689  0.358377  0.750000  1
  Sn  Sn34  1  0.673311  0.858377  0.250000  1
  Sn  Sn35  1  0.173311  0.641623  0.250000  1
