# generated using pymatgen
data_Lu4Al18Ir5Pt
_symmetry_space_group_name_H-M   'P 1'
_cell_length_a   7.53715939
_cell_length_b   7.53715902
_cell_length_c   9.40249140
_cell_angle_alpha   89.96857140
_cell_angle_beta   89.96856848
_cell_angle_gamma   119.62842845
_symmetry_Int_Tables_number   1
_chemical_formula_structural   Lu4Al18Ir5Pt
_chemical_formula_sum   'Lu4 Al18 Ir5 Pt1'
_cell_volume   464.30422457
_cell_formula_units_Z   1
loop_
 _symmetry_equiv_pos_site_id
 _symmetry_equiv_pos_as_xyz
  1  'x, y, z'
loop_
 _atom_site_type_symbol
 _atom_site_label
 _atom_site_symmetry_multiplicity
 _atom_site_fract_x
 _atom_site_fract_y
 _atom_site_fract_z
 _atom_site_occupancy
  Lu  Lu0  1  0.996229  0.671099  0.250735  1
  Lu  Lu1  1  0.005029  0.329763  0.749392  1
  Lu  Lu2  1  0.670237  0.994971  0.250608  1
  Lu  Lu3  1  0.328901  0.003771  0.749265  1
  Al  Al4  1  0.127386  0.126724  0.250341  1
  Al  Al5  1  0.873276  0.872614  0.749659  1
  Al  Al6  1  0.003114  0.335057  0.076627  1
  Al  Al7  1  0.002733  0.668268  0.923381  1
  Al  Al8  1  0.000157  0.664928  0.574967  1
  Al  Al9  1  0.335072  0.999843  0.425033  1
  Al  Al10  1  0.000145  0.334580  0.424498  1
  Al  Al11  1  0.665420  0.999855  0.575502  1
  Al  Al12  1  0.664943  0.996886  0.923373  1
  Al  Al13  1  0.331732  0.997267  0.076619  1
  Al  Al14  1  0.332803  0.332598  0.554955  1
  Al  Al15  1  0.667402  0.667197  0.445045  1
  Al  Al16  1  0.666791  0.669982  0.057358  1
  Al  Al17  1  0.330018  0.333209  0.942642  1
  Al  Al18  1  0.339408  0.548703  0.250364  1
  Al  Al19  1  0.660757  0.453077  0.747552  1
  Al  Al20  1  0.546923  0.339243  0.252448  1
  Al  Al21  1  0.451297  0.660592  0.749636  1
  Ir  Ir22  1  0.327915  0.672085  0.000000  1
  Ir  Ir23  1  0.327941  0.672059  0.500000  1
  Ir  Ir24  1  0.672265  0.327735  0.500000  1
  Ir  Ir25  1  0.999966  0.000034  0.000000  1
  Ir  Ir26  1  0.000094  0.999906  0.500000  1
  Pt  Pt27  1  0.672046  0.327954  0.000000  1
