# generated using pymatgen
data_Er2Zn14Rh3
_symmetry_space_group_name_H-M   'P 1'
_cell_length_a   6.79611087
_cell_length_b   6.79611140
_cell_length_c   6.79611008
_cell_angle_alpha   82.16783041
_cell_angle_beta   82.16782922
_cell_angle_gamma   82.16783435
_symmetry_Int_Tables_number   1
_chemical_formula_structural   Er2Zn14Rh3
_chemical_formula_sum   'Er2 Zn14 Rh3'
_cell_volume   305.84035099
_cell_formula_units_Z   1
loop_
 _symmetry_equiv_pos_site_id
 _symmetry_equiv_pos_as_xyz
  1  'x, y, z'
loop_
 _atom_site_type_symbol
 _atom_site_label
 _atom_site_symmetry_multiplicity
 _atom_site_fract_x
 _atom_site_fract_y
 _atom_site_fract_z
 _atom_site_occupancy
  Er  Er0  1  0.674713  0.674713  0.674713  1
  Er  Er1  1  0.325287  0.325287  0.325287  1
  Zn  Zn2  1  0.353000  0.353000  0.840415  1
  Zn  Zn3  1  0.840415  0.353000  0.353000  1
  Zn  Zn4  1  0.100006  0.100006  0.100006  1
  Zn  Zn5  1  0.899994  0.899994  0.899994  1
  Zn  Zn6  1  0.296603  0.703397  0.000000  1
  Zn  Zn7  1  0.703397  0.000000  0.296603  1
  Zn  Zn8  1  0.000000  0.296603  0.703397  1
  Zn  Zn9  1  0.703397  0.296603  0.000000  1
  Zn  Zn10  1  0.296603  0.000000  0.703397  1
  Zn  Zn11  1  0.000000  0.703397  0.296603  1
  Zn  Zn12  1  0.159585  0.647000  0.647000  1
  Zn  Zn13  1  0.647000  0.647000  0.159585  1
  Zn  Zn14  1  0.647000  0.159585  0.647000  1
  Zn  Zn15  1  0.353000  0.840415  0.353000  1
  Rh  Rh16  1  0.000000  0.000000  0.500000  1
  Rh  Rh17  1  0.000000  0.500000  0.000000  1
  Rh  Rh18  1  0.500000  0.000000  0.000000  1
