# generated using pymatgen
data_YbPr3Er4(B6Ru)4
_symmetry_space_group_name_H-M   'P 1'
_cell_length_a   3.69894000
_cell_length_b   9.19868916
_cell_length_c   11.62832312
_cell_angle_alpha   89.93185677
_cell_angle_beta   90.00000000
_cell_angle_gamma   90.00000000
_symmetry_Int_Tables_number   1
_chemical_formula_structural   YbPr3Er4(B6Ru)4
_chemical_formula_sum   'Yb1 Pr3 Er4 B24 Ru4'
_cell_volume   395.65805716
_cell_formula_units_Z   1
loop_
 _symmetry_equiv_pos_site_id
 _symmetry_equiv_pos_as_xyz
  1  'x, y, z'
loop_
 _atom_site_type_symbol
 _atom_site_label
 _atom_site_symmetry_multiplicity
 _atom_site_fract_x
 _atom_site_fract_y
 _atom_site_fract_z
 _atom_site_occupancy
  Yb  Yb0  1  0.000000  0.323143  0.414246  1
  Pr  Pr1  1  0.000000  0.675380  0.584264  1
  Pr  Pr2  1  0.000000  0.822768  0.086571  1
  Pr  Pr3  1  0.000000  0.177689  0.914752  1
  Er  Er4  1  0.000000  0.944923  0.371140  1
  Er  Er5  1  0.000000  0.058585  0.627327  1
  Er  Er6  1  0.000000  0.442797  0.130986  1
  Er  Er7  1  0.000000  0.555639  0.870781  1
  B  B8  1  0.500000  0.553453  0.430042  1
  B  B9  1  0.500000  0.442499  0.567701  1
  B  B10  1  0.500000  0.056896  0.070976  1
  B  B11  1  0.500000  0.943286  0.929281  1
  B  B12  1  0.500000  0.748825  0.416266  1
  B  B13  1  0.500000  0.251014  0.580631  1
  B  B14  1  0.500000  0.249920  0.084775  1
  B  B15  1  0.500000  0.749674  0.916497  1
  B  B16  1  0.500000  0.789948  0.267269  1
  B  B17  1  0.500000  0.210696  0.732015  1
  B  B18  1  0.500000  0.291029  0.235957  1
  B  B19  1  0.500000  0.709911  0.766260  1
  B  B20  1  0.500000  0.629135  0.186908  1
  B  B21  1  0.500000  0.370005  0.814073  1
  B  B22  1  0.500000  0.132089  0.316122  1
  B  B23  1  0.500000  0.870340  0.684706  1
  B  B24  1  0.500000  0.986919  0.214526  1
  B  B25  1  0.500000  0.014530  0.785269  1
  B  B26  1  0.500000  0.482988  0.287954  1
  B  B27  1  0.500000  0.513497  0.712870  1
  B  B28  1  0.500000  0.600292  0.027866  1
  B  B29  1  0.500000  0.399310  0.973010  1
  B  B30  1  0.500000  0.103312  0.471693  1
  B  B31  1  0.500000  0.899730  0.527270  1
  Ru  Ru32  1  0.000000  0.638908  0.319456  1
  Ru  Ru33  1  0.000000  0.360262  0.680197  1
  Ru  Ru34  1  0.000000  0.140199  0.181733  1
  Ru  Ru35  1  0.000000  0.860407  0.818611  1
