# generated using pymatgen
data_DyTh2(ZnNi)3
_symmetry_space_group_name_H-M   'P 1'
_cell_length_a   7.19922476
_cell_length_b   7.18488704
_cell_length_c   3.75662600
_cell_angle_alpha   90.00000000
_cell_angle_beta   90.00000000
_cell_angle_gamma   119.93413775
_symmetry_Int_Tables_number   1
_chemical_formula_structural   DyTh2(ZnNi)3
_chemical_formula_sum   'Dy1 Th2 Zn3 Ni3'
_cell_volume   168.39225587
_cell_formula_units_Z   1
loop_
 _symmetry_equiv_pos_site_id
 _symmetry_equiv_pos_as_xyz
  1  'x, y, z'
loop_
 _atom_site_type_symbol
 _atom_site_label
 _atom_site_symmetry_multiplicity
 _atom_site_fract_x
 _atom_site_fract_y
 _atom_site_fract_z
 _atom_site_occupancy
  Dy  Dy0  1  0.000000  0.590957  0.500000  1
  Th  Th1  1  0.415687  0.413727  0.500000  1
  Th  Th2  1  0.584313  0.998040  0.500000  1
  Zn  Zn3  1  0.770723  0.760720  0.000000  1
  Zn  Zn4  1  0.229277  0.989997  0.000000  1
  Zn  Zn5  1  0.000000  0.249953  0.000000  1
  Ni  Ni6  1  0.657071  0.323967  0.000000  1
  Ni  Ni7  1  0.342929  0.666897  0.000000  1
  Ni  Ni8  1  0.000000  0.005742  0.500000  1
