# generated using pymatgen
data_La3Ir4Rh5
_symmetry_space_group_name_H-M   'P 1'
_cell_length_a   5.38690192
_cell_length_b   5.37680499
_cell_length_c   17.85578737
_cell_angle_alpha   90.00000080
_cell_angle_beta   90.06110825
_cell_angle_gamma   119.93802309
_symmetry_Int_Tables_number   1
_chemical_formula_structural   La3Ir4Rh5
_chemical_formula_sum   'La6 Ir8 Rh10'
_cell_volume   448.17079192
_cell_formula_units_Z   2
loop_
 _symmetry_equiv_pos_site_id
 _symmetry_equiv_pos_as_xyz
  1  'x, y, z'
loop_
 _atom_site_type_symbol
 _atom_site_label
 _atom_site_symmetry_multiplicity
 _atom_site_fract_x
 _atom_site_fract_y
 _atom_site_fract_z
 _atom_site_occupancy
  La  La0  1  0.333365  0.666683  0.541834  1
  La  La1  1  0.666272  0.333136  0.041468  1
  La  La2  1  0.666740  0.333369  0.456576  1
  La  La3  1  0.332743  0.666372  0.957592  1
  La  La4  1  0.333579  0.666790  0.749755  1
  La  La5  1  0.666797  0.333398  0.249205  1
  Ir  Ir6  1  0.167020  0.333511  0.128752  1
  Ir  Ir7  1  0.833186  0.665900  0.628160  1
  Ir  Ir8  1  0.666542  0.833271  0.128691  1
  Ir  Ir9  1  0.167020  0.833508  0.128752  1
  Ir  Ir10  1  0.833186  0.167285  0.628160  1
  Ir  Ir11  1  0.333096  0.166548  0.628635  1
  Ir  Ir12  1  0.835500  0.667546  0.871554  1
  Ir  Ir13  1  0.835500  0.167955  0.871554  1
  Rh  Rh14  1  0.335158  0.167579  0.872077  1
  Rh  Rh15  1  0.667323  0.833662  0.372163  1
  Rh  Rh16  1  0.166215  0.833280  0.372481  1
  Rh  Rh17  1  0.166215  0.332935  0.372481  1
  Rh  Rh18  1  0.000211  0.000106  0.250056  1
  Rh  Rh19  1  0.997871  0.998935  0.749908  1
  Rh  Rh20  1  0.333201  0.666601  0.250143  1
  Rh  Rh21  1  0.667233  0.333616  0.749885  1
  Rh  Rh22  1  0.995597  0.997798  0.999796  1
  Rh  Rh23  1  0.000432  0.000216  0.500321  1
