# generated using pymatgen
data_Li4P4Ir3Rh
_symmetry_space_group_name_H-M   'P 1'
_cell_length_a   3.87769400
_cell_length_b   6.58338495
_cell_length_c   6.67110827
_cell_angle_alpha   89.87894121
_cell_angle_beta   90.00000000
_cell_angle_gamma   90.00000000
_symmetry_Int_Tables_number   1
_chemical_formula_structural   Li4P4Ir3Rh
_chemical_formula_sum   'Li4 P4 Ir3 Rh1'
_cell_volume   170.30202226
_cell_formula_units_Z   1
loop_
 _symmetry_equiv_pos_site_id
 _symmetry_equiv_pos_as_xyz
  1  'x, y, z'
loop_
 _atom_site_type_symbol
 _atom_site_label
 _atom_site_symmetry_multiplicity
 _atom_site_fract_x
 _atom_site_fract_y
 _atom_site_fract_z
 _atom_site_occupancy
  Li  Li0  1  0.250000  0.020171  0.843139  1
  Li  Li1  1  0.250000  0.521373  0.659422  1
  Li  Li2  1  0.750000  0.981256  0.158267  1
  Li  Li3  1  0.750000  0.479789  0.339084  1
  P  P4  1  0.250000  0.787971  0.370140  1
  P  P5  1  0.250000  0.289405  0.131135  1
  P  P6  1  0.750000  0.210816  0.628340  1
  P  P7  1  0.750000  0.711478  0.870954  1
  Ir  Ir8  1  0.250000  0.145243  0.445942  1
  Ir  Ir9  1  0.250000  0.644714  0.054443  1
  Ir  Ir10  1  0.750000  0.853704  0.553350  1
  Rh  Rh11  1  0.750000  0.354080  0.945783  1
