# generated using pymatgen
data_Dy11Y9(Cd3Fe)2
_symmetry_space_group_name_H-M   'P 1'
_cell_length_a   9.58665678
_cell_length_b   9.59041560
_cell_length_c   9.79131614
_cell_angle_alpha   90.00000088
_cell_angle_beta   90.11128589
_cell_angle_gamma   120.01296605
_symmetry_Int_Tables_number   1
_chemical_formula_structural   Dy11Y9(Cd3Fe)2
_chemical_formula_sum   'Dy11 Y9 Cd6 Fe2'
_cell_volume   779.50420387
_cell_formula_units_Z   1
loop_
 _symmetry_equiv_pos_site_id
 _symmetry_equiv_pos_as_xyz
  1  'x, y, z'
loop_
 _atom_site_type_symbol
 _atom_site_label
 _atom_site_symmetry_multiplicity
 _atom_site_fract_x
 _atom_site_fract_y
 _atom_site_fract_z
 _atom_site_occupancy
  Dy  Dy0  1  0.212289  0.787713  0.435879  1
  Dy  Dy1  1  0.212289  0.424578  0.435879  1
  Dy  Dy2  1  0.574942  0.787472  0.435983  1
  Dy  Dy3  1  0.787662  0.212397  0.564235  1
  Dy  Dy4  1  0.787662  0.575263  0.564235  1
  Dy  Dy5  1  0.424789  0.212393  0.564130  1
  Dy  Dy6  1  0.787798  0.212624  0.935686  1
  Dy  Dy7  1  0.787798  0.575172  0.935686  1
  Dy  Dy8  1  0.424849  0.212424  0.935903  1
  Dy  Dy9  1  0.212245  0.787501  0.064325  1
  Dy  Dy10  1  0.212245  0.424746  0.064325  1
  Y  Y11  1  0.999937  0.999969  0.500066  1
  Y  Y12  1  0.000459  0.000229  0.999856  1
  Y  Y13  1  0.541496  0.458329  0.250175  1
  Y  Y14  1  0.541496  0.083168  0.250175  1
  Y  Y15  1  0.917197  0.458598  0.250052  1
  Y  Y16  1  0.458526  0.541324  0.749798  1
  Y  Y17  1  0.458526  0.917202  0.749798  1
  Y  Y18  1  0.082885  0.541442  0.749990  1
  Y  Y19  1  0.576275  0.788139  0.063311  1
  Cd  Cd20  1  0.885346  0.114636  0.249919  1
  Cd  Cd21  1  0.885346  0.770710  0.249919  1
  Cd  Cd22  1  0.229306  0.114653  0.250080  1
  Cd  Cd23  1  0.114600  0.885292  0.750019  1
  Cd  Cd24  1  0.114600  0.229308  0.750019  1
  Cd  Cd25  1  0.770611  0.885305  0.750099  1
  Fe  Fe26  1  0.332152  0.666077  0.250592  1
  Fe  Fe27  1  0.666673  0.333336  0.749863  1
