# generated using pymatgen
data_AcZnCuSn2
_symmetry_space_group_name_H-M   'P 1'
_cell_length_a   4.66147700
_cell_length_b   4.66551200
_cell_length_c   10.98975700
_cell_angle_alpha   90.00000000
_cell_angle_beta   90.00000000
_cell_angle_gamma   90.00000000
_symmetry_Int_Tables_number   1
_chemical_formula_structural   AcZnCuSn2
_chemical_formula_sum   'Ac2 Zn2 Cu2 Sn4'
_cell_volume   239.00717912
_cell_formula_units_Z   2
loop_
 _symmetry_equiv_pos_site_id
 _symmetry_equiv_pos_as_xyz
  1  'x, y, z'
loop_
 _atom_site_type_symbol
 _atom_site_label
 _atom_site_symmetry_multiplicity
 _atom_site_fract_x
 _atom_site_fract_y
 _atom_site_fract_z
 _atom_site_occupancy
  Ac  Ac0  1  0.000000  0.500000  0.236559  1
  Ac  Ac1  1  0.500000  0.000000  0.762732  1
  Zn  Zn2  1  0.000000  0.000000  0.001195  1
  Zn  Zn3  1  0.000000  0.500000  0.637128  1
  Cu  Cu4  1  0.500000  0.500000  0.000462  1
  Cu  Cu5  1  0.500000  0.000000  0.366512  1
  Sn  Sn6  1  0.000000  0.000000  0.494638  1
  Sn  Sn7  1  0.500000  0.500000  0.494583  1
  Sn  Sn8  1  0.000000  0.500000  0.877015  1
  Sn  Sn9  1  0.500000  0.000000  0.129177  1
