# generated using pymatgen
data_Dy6OsRu
_symmetry_space_group_name_H-M   'P 1'
_cell_length_a   6.32750100
_cell_length_b   7.35060000
_cell_length_c   9.14461500
_cell_angle_alpha   90.00000000
_cell_angle_beta   90.00000000
_cell_angle_gamma   90.00000000
_symmetry_Int_Tables_number   1
_chemical_formula_structural   Dy6OsRu
_chemical_formula_sum   'Dy12 Os2 Ru2'
_cell_volume   425.32453763
_cell_formula_units_Z   2
loop_
 _symmetry_equiv_pos_site_id
 _symmetry_equiv_pos_as_xyz
  1  'x, y, z'
loop_
 _atom_site_type_symbol
 _atom_site_label
 _atom_site_symmetry_multiplicity
 _atom_site_fract_x
 _atom_site_fract_y
 _atom_site_fract_z
 _atom_site_occupancy
  Dy  Dy0  1  0.331658  0.675453  0.063022  1
  Dy  Dy1  1  0.168342  0.175453  0.436978  1
  Dy  Dy2  1  0.670879  0.323949  0.564421  1
  Dy  Dy3  1  0.829121  0.823949  0.935579  1
  Dy  Dy4  1  0.670879  0.323949  0.935579  1
  Dy  Dy5  1  0.829121  0.823949  0.564421  1
  Dy  Dy6  1  0.331658  0.675453  0.436978  1
  Dy  Dy7  1  0.168342  0.175453  0.063022  1
  Dy  Dy8  1  0.867359  0.539890  0.250000  1
  Dy  Dy9  1  0.632641  0.039890  0.250000  1
  Dy  Dy10  1  0.131838  0.461773  0.750000  1
  Dy  Dy11  1  0.368162  0.961773  0.750000  1
  Os  Os12  1  0.959953  0.115727  0.750000  1
  Os  Os13  1  0.540047  0.615727  0.750000  1
  Ru  Ru14  1  0.038272  0.883805  0.250000  1
  Ru  Ru15  1  0.461728  0.383805  0.250000  1
