# generated using pymatgen
data_Sr8TiTc3O16
_symmetry_space_group_name_H-M   'P 1'
_cell_length_a   5.58569850
_cell_length_b   8.93500988
_cell_length_c   8.93486570
_cell_angle_alpha   88.67429750
_cell_angle_beta   71.78604260
_cell_angle_gamma   108.21603233
_symmetry_Int_Tables_number   1
_chemical_formula_structural   Sr8TiTc3O16
_chemical_formula_sum   'Sr8 Ti1 Tc3 O16'
_cell_volume   398.72827812
_cell_formula_units_Z   1
loop_
 _symmetry_equiv_pos_site_id
 _symmetry_equiv_pos_as_xyz
  1  'x, y, z'
loop_
 _atom_site_type_symbol
 _atom_site_label
 _atom_site_symmetry_multiplicity
 _atom_site_fract_x
 _atom_site_fract_y
 _atom_site_fract_z
 _atom_site_occupancy
  Sr  Sr0  1  0.250880  0.397753  0.894365  1
  Sr  Sr1  1  0.999942  0.645151  0.645114  1
  Sr  Sr2  1  0.748972  0.894181  0.397909  1
  Sr  Sr3  1  0.500091  0.148077  0.147906  1
  Sr  Sr4  1  0.000091  0.354867  0.354865  1
  Sr  Sr5  1  0.749100  0.602252  0.105678  1
  Sr  Sr6  1  0.499928  0.851900  0.852119  1
  Sr  Sr7  1  0.250945  0.105734  0.602126  1
  Ti  Ti8  1  0.499955  0.499949  0.500030  1
  Tc  Tc9  1  0.251994  0.751333  0.248717  1
  Tc  Tc10  1  0.000020  0.000018  0.999996  1
  Tc  Tc11  1  0.747984  0.248654  0.751296  1
  O  O12  1  0.249530  0.587420  0.088181  1
  O  O13  1  0.999763  0.836514  0.836931  1
  O  O14  1  0.750992  0.088583  0.586977  1
  O  O15  1  0.499615  0.341201  0.341565  1
  O  O16  1  0.000319  0.163585  0.162989  1
  O  O17  1  0.750470  0.412626  0.911784  1
  O  O18  1  0.500347  0.658778  0.658442  1
  O  O19  1  0.249030  0.911397  0.413031  1
  O  O20  1  0.878644  0.125711  0.874050  1
  O  O21  1  0.617707  0.374612  0.625501  1
  O  O22  1  0.382269  0.625352  0.374489  1
  O  O23  1  0.121372  0.874338  0.125943  1
  O  O24  1  0.374458  0.123698  0.875989  1
  O  O25  1  0.126725  0.378418  0.621892  1
  O  O26  1  0.873258  0.621565  0.378115  1
  O  O27  1  0.625597  0.876335  0.123998  1
