# generated using pymatgen
data_Y7Er11Sc2(Cd3Os)2
_symmetry_space_group_name_H-M   'P 1'
_cell_length_a   9.49395357
_cell_length_b   9.49491335
_cell_length_c   9.75561911
_cell_angle_alpha   89.99999944
_cell_angle_beta   90.06360238
_cell_angle_gamma   120.00334755
_symmetry_Int_Tables_number   1
_chemical_formula_structural   Y7Er11Sc2(Cd3Os)2
_chemical_formula_sum   'Y7 Er11 Sc2 Cd6 Os2'
_cell_volume   761.56779307
_cell_formula_units_Z   1
loop_
 _symmetry_equiv_pos_site_id
 _symmetry_equiv_pos_as_xyz
  1  'x, y, z'
loop_
 _atom_site_type_symbol
 _atom_site_label
 _atom_site_symmetry_multiplicity
 _atom_site_fract_x
 _atom_site_fract_y
 _atom_site_fract_z
 _atom_site_occupancy
  Y  Y0  1  0.583612  0.791806  0.058354  1
  Y  Y1  1  0.539195  0.460151  0.250706  1
  Y  Y2  1  0.539195  0.079045  0.250706  1
  Y  Y3  1  0.922186  0.461093  0.250246  1
  Y  Y4  1  0.460762  0.538584  0.749121  1
  Y  Y5  1  0.460762  0.922177  0.749121  1
  Y  Y6  1  0.078554  0.539276  0.749759  1
  Er  Er7  1  0.208595  0.791346  0.441689  1
  Er  Er8  1  0.208595  0.417249  0.441689  1
  Er  Er9  1  0.582052  0.791026  0.441890  1
  Er  Er10  1  0.791338  0.208929  0.558372  1
  Er  Er11  1  0.791338  0.582410  0.558372  1
  Er  Er12  1  0.417370  0.208685  0.558306  1
  Er  Er13  1  0.791870  0.209367  0.941249  1
  Er  Er14  1  0.791870  0.582503  0.941249  1
  Er  Er15  1  0.417695  0.208847  0.941472  1
  Er  Er16  1  0.208058  0.791310  0.058794  1
  Er  Er17  1  0.208058  0.416748  0.058794  1
  Sc  Sc18  1  0.000077  0.000039  0.499949  1
  Sc  Sc19  1  0.001066  0.000533  0.999727  1
  Cd  Cd20  1  0.889449  0.110707  0.249695  1
  Cd  Cd21  1  0.889449  0.778744  0.249695  1
  Cd  Cd22  1  0.221202  0.110602  0.249757  1
  Cd  Cd23  1  0.110517  0.889354  0.750256  1
  Cd  Cd24  1  0.110517  0.221162  0.750256  1
  Cd  Cd25  1  0.778956  0.889477  0.750143  1
  Os  Os26  1  0.331313  0.665657  0.250725  1
  Os  Os27  1  0.666347  0.333174  0.749909  1
