# generated using pymatgen
data_Nd8Tm9Lu3Si16
_symmetry_space_group_name_H-M   'P 1'
_cell_length_a   7.70102604
_cell_length_b   7.70102604
_cell_length_c   14.15724215
_cell_angle_alpha   90.01180477
_cell_angle_beta   89.98819523
_cell_angle_gamma   90.00215821
_symmetry_Int_Tables_number   1
_chemical_formula_structural   Nd8Tm9Lu3Si16
_chemical_formula_sum   'Nd8 Tm9 Lu3 Si16'
_cell_volume   839.60656505
_cell_formula_units_Z   1
loop_
 _symmetry_equiv_pos_site_id
 _symmetry_equiv_pos_as_xyz
  1  'x, y, z'
loop_
 _atom_site_type_symbol
 _atom_site_label
 _atom_site_symmetry_multiplicity
 _atom_site_fract_x
 _atom_site_fract_y
 _atom_site_fract_z
 _atom_site_occupancy
  Nd  Nd0  1  0.642879  0.992875  0.459278  1
  Nd  Nd1  1  0.357141  0.007159  0.959286  1
  Nd  Nd2  1  0.992875  0.642879  0.540722  1
  Nd  Nd3  1  0.492713  0.857182  0.209383  1
  Nd  Nd4  1  0.507135  0.142815  0.709241  1
  Nd  Nd5  1  0.857182  0.492713  0.790617  1
  Nd  Nd6  1  0.142815  0.507135  0.290759  1
  Nd  Nd7  1  0.007159  0.357141  0.040714  1
  Tm  Tm8  1  0.493293  0.359790  0.124286  1
  Tm  Tm9  1  0.993359  0.140074  0.625807  1
  Tm  Tm10  1  0.859919  0.006695  0.874113  1
  Tm  Tm11  1  0.140074  0.993359  0.374193  1
  Tm  Tm12  1  0.506539  0.640166  0.624156  1
  Tm  Tm13  1  0.359790  0.493293  0.875714  1
  Tm  Tm14  1  0.640166  0.506539  0.375844  1
  Tm  Tm15  1  0.006695  0.859919  0.125887  1
  Tm  Tm16  1  0.681825  0.681825  0.000000  1
  Lu  Lu17  1  0.318157  0.318157  0.500000  1
  Lu  Lu18  1  0.181994  0.818173  0.749966  1
  Lu  Lu19  1  0.818173  0.181994  0.250034  1
  Si  Si20  1  0.289198  0.937977  0.562079  1
  Si  Si21  1  0.710870  0.062363  0.062089  1
  Si  Si22  1  0.937977  0.289198  0.437921  1
  Si  Si23  1  0.437973  0.210776  0.312144  1
  Si  Si24  1  0.561884  0.789412  0.811725  1
  Si  Si25  1  0.210776  0.437973  0.687856  1
  Si  Si26  1  0.789412  0.561884  0.188275  1
  Si  Si27  1  0.062363  0.710870  0.937911  1
  Si  Si28  1  0.795881  0.849180  0.687656  1
  Si  Si29  1  0.203995  0.150913  0.187745  1
  Si  Si30  1  0.849180  0.795881  0.312344  1
  Si  Si31  1  0.349085  0.703931  0.437724  1
  Si  Si32  1  0.650847  0.295829  0.937687  1
  Si  Si33  1  0.703931  0.349085  0.562276  1
  Si  Si34  1  0.295829  0.650847  0.062313  1
  Si  Si35  1  0.150913  0.203995  0.812255  1
