# generated using pymatgen
data_LaPr6Nd5(Si7Br3)2
_symmetry_space_group_name_H-M   'P 1'
_cell_length_a   4.10098200
_cell_length_b   11.82708052
_cell_length_c   16.63089691
_cell_angle_alpha   90.23454830
_cell_angle_beta   90.00000000
_cell_angle_gamma   90.00000000
_symmetry_Int_Tables_number   1
_chemical_formula_structural   LaPr6Nd5(Si7Br3)2
_chemical_formula_sum   'La1 Pr6 Nd5 Si14 Br6'
_cell_volume   806.63571904
_cell_formula_units_Z   1
loop_
 _symmetry_equiv_pos_site_id
 _symmetry_equiv_pos_as_xyz
  1  'x, y, z'
loop_
 _atom_site_type_symbol
 _atom_site_label
 _atom_site_symmetry_multiplicity
 _atom_site_fract_x
 _atom_site_fract_y
 _atom_site_fract_z
 _atom_site_occupancy
  La  La0  1  0.000000  0.935818  0.379666  1
  Pr  Pr1  1  0.500000  0.342374  0.499821  1
  Pr  Pr2  1  0.000000  0.658551  0.000468  1
  Pr  Pr3  1  0.500000  0.358421  0.756323  1
  Pr  Pr4  1  0.500000  0.359506  0.242914  1
  Pr  Pr5  1  0.500000  0.065229  0.879814  1
  Pr  Pr6  1  0.500000  0.065520  0.118965  1
  Nd  Nd7  1  0.000000  0.640557  0.743449  1
  Nd  Nd8  1  0.000000  0.640184  0.257469  1
  Nd  Nd9  1  0.000000  0.932813  0.620131  1
  Nd  Nd10  1  0.500000  0.356504  0.999848  1
  Nd  Nd11  1  0.000000  0.643658  0.500718  1
  Si  Si12  1  0.000000  0.152451  0.999676  1
  Si  Si13  1  0.500000  0.847091  0.500892  1
  Si  Si14  1  0.500000  0.567055  0.876200  1
  Si  Si15  1  0.000000  0.434038  0.623716  1
  Si  Si16  1  0.500000  0.567641  0.123936  1
  Si  Si17  1  0.000000  0.433636  0.376428  1
  Si  Si18  1  0.000000  0.254174  0.874425  1
  Si  Si19  1  0.500000  0.746275  0.626961  1
  Si  Si20  1  0.000000  0.254266  0.125193  1
  Si  Si21  1  0.500000  0.745388  0.374801  1
  Si  Si22  1  0.000000  0.458167  0.877114  1
  Si  Si23  1  0.500000  0.542789  0.623402  1
  Si  Si24  1  0.500000  0.542365  0.377408  1
  Si  Si25  1  0.000000  0.458572  0.122556  1
  Br  Br26  1  0.500000  0.107160  0.692369  1
  Br  Br27  1  0.000000  0.889680  0.806112  1
  Br  Br28  1  0.000000  0.138895  0.501999  1
  Br  Br29  1  0.500000  0.861171  0.999144  1
  Br  Br30  1  0.500000  0.111573  0.306357  1
  Br  Br31  1  0.000000  0.888477  0.191727  1
