# generated using pymatgen
data_Hf6Ti4Al12Fe6Pd
_symmetry_space_group_name_H-M   'P 1'
_cell_length_a   8.60433998
_cell_length_b   8.59929484
_cell_length_c   8.59929589
_cell_angle_alpha   60.01996888
_cell_angle_beta   59.98059259
_cell_angle_gamma   59.98059078
_symmetry_Int_Tables_number   1
_chemical_formula_structural   Hf6Ti4Al12Fe6Pd
_chemical_formula_sum   'Hf6 Ti4 Al12 Fe6 Pd1'
_cell_volume   449.84851517
_cell_formula_units_Z   1
loop_
 _symmetry_equiv_pos_site_id
 _symmetry_equiv_pos_as_xyz
  1  'x, y, z'
loop_
 _atom_site_type_symbol
 _atom_site_label
 _atom_site_symmetry_multiplicity
 _atom_site_fract_x
 _atom_site_fract_y
 _atom_site_fract_z
 _atom_site_occupancy
  Hf  Hf0  1  0.704168  0.695938  0.304142  1
  Hf  Hf1  1  0.295752  0.695938  0.304142  1
  Hf  Hf2  1  0.697650  0.302350  0.302350  1
  Hf  Hf3  1  0.295752  0.304142  0.695938  1
  Hf  Hf4  1  0.704168  0.304142  0.695938  1
  Hf  Hf5  1  0.304749  0.695251  0.695251  1
  Ti  Ti6  1  0.881971  0.881083  0.354975  1
  Ti  Ti7  1  0.881971  0.354975  0.881083  1
  Ti  Ti8  1  0.352755  0.877081  0.877081  1
  Ti  Ti9  1  0.893083  0.877081  0.877081  1
  Al  Al10  1  0.117857  0.119859  0.644427  1
  Al  Al11  1  0.117857  0.644427  0.119859  1
  Al  Al12  1  0.646559  0.121233  0.121233  1
  Al  Al13  1  0.110975  0.121233  0.121233  1
  Al  Al14  1  0.667940  0.659151  0.004971  1
  Al  Al15  1  0.667940  0.004971  0.659151  1
  Al  Al16  1  0.001611  0.666026  0.666026  1
  Al  Al17  1  0.666339  0.666026  0.666026  1
  Al  Al18  1  0.330076  0.342095  0.997751  1
  Al  Al19  1  0.330076  0.997751  0.342095  1
  Al  Al20  1  0.000737  0.332575  0.332575  1
  Al  Al21  1  0.334112  0.332575  0.332575  1
  Fe  Fe22  1  0.000687  0.999313  0.999313  1
  Fe  Fe23  1  0.998587  0.997395  0.503625  1
  Fe  Fe24  1  0.500393  0.997395  0.503625  1
  Fe  Fe25  1  0.998128  0.501872  0.501872  1
  Fe  Fe26  1  0.500393  0.503625  0.997395  1
  Fe  Fe27  1  0.998587  0.503625  0.997395  1
  Pd  Pd28  1  0.499127  0.000873  0.000873  1
