# generated using pymatgen
data_La4As3(PIr2)4
_symmetry_space_group_name_H-M   'P 1'
_cell_length_a   4.08075500
_cell_length_b   13.15055805
_cell_length_c   13.47231022
_cell_angle_alpha   81.33157929
_cell_angle_beta   90.00000000
_cell_angle_gamma   90.00000000
_symmetry_Int_Tables_number   1
_chemical_formula_structural   La4As3(PIr2)4
_chemical_formula_sum   'La8 As6 P8 Ir16'
_cell_volume   714.72229105
_cell_formula_units_Z   2
loop_
 _symmetry_equiv_pos_site_id
 _symmetry_equiv_pos_as_xyz
  1  'x, y, z'
loop_
 _atom_site_type_symbol
 _atom_site_label
 _atom_site_symmetry_multiplicity
 _atom_site_fract_x
 _atom_site_fract_y
 _atom_site_fract_z
 _atom_site_occupancy
  La  La0  1  0.750000  0.788599  0.561820  1
  La  La1  1  0.250000  0.211401  0.438180  1
  La  La2  1  0.750000  0.485893  0.704424  1
  La  La3  1  0.250000  0.514107  0.295576  1
  La  La4  1  0.750000  0.722067  0.894297  1
  La  La5  1  0.250000  0.104817  0.790064  1
  La  La6  1  0.750000  0.895183  0.209936  1
  La  La7  1  0.250000  0.277933  0.105703  1
  As  As8  1  0.250000  0.905273  0.408541  1
  As  As9  1  0.750000  0.468910  0.130061  1
  As  As10  1  0.250000  0.531090  0.869939  1
  As  As11  1  0.750000  0.094727  0.591459  1
  As  As12  1  0.250000  0.746516  0.082624  1
  As  As13  1  0.750000  0.253484  0.917376  1
  P  P14  1  0.750000  0.152083  0.282471  1
  P  P15  1  0.250000  0.847917  0.717529  1
  P  P16  1  0.250000  0.053659  0.098103  1
  P  P17  1  0.750000  0.946341  0.901897  1
  P  P18  1  0.250000  0.315919  0.686678  1
  P  P19  1  0.750000  0.684081  0.313322  1
  P  P20  1  0.250000  0.606526  0.558744  1
  P  P21  1  0.750000  0.393474  0.441256  1
  Ir  Ir22  1  0.250000  0.984179  0.578199  1
  Ir  Ir23  1  0.750000  0.015821  0.421801  1
  Ir  Ir24  1  0.250000  0.671001  0.721561  1
  Ir  Ir25  1  0.750000  0.328999  0.278439  1
  Ir  Ir26  1  0.250000  0.555209  0.047941  1
  Ir  Ir27  1  0.750000  0.444791  0.952059  1
  Ir  Ir28  1  0.250000  0.063595  0.270030  1
  Ir  Ir29  1  0.750000  0.936405  0.729970  1
  Ir  Ir30  1  0.250000  0.425817  0.527978  1
  Ir  Ir31  1  0.750000  0.574183  0.472022  1
  Ir  Ir32  1  0.250000  0.925097  0.991874  1
  Ir  Ir33  1  0.750000  0.074903  0.008126  1
  Ir  Ir34  1  0.250000  0.717593  0.395655  1
  Ir  Ir35  1  0.750000  0.282407  0.604345  1
  Ir  Ir36  1  0.250000  0.343232  0.853525  1
  Ir  Ir37  1  0.750000  0.656768  0.146475  1
