# generated using pymatgen
data_Pr12Ir(RuCl4)3
_symmetry_space_group_name_H-M   'P 1'
_cell_length_a   10.28285775
_cell_length_b   10.30239138
_cell_length_c   10.30239131
_cell_angle_alpha   109.50959637
_cell_angle_beta   109.43282355
_cell_angle_gamma   109.43281298
_symmetry_Int_Tables_number   1
_chemical_formula_structural   Pr12Ir(RuCl4)3
_chemical_formula_sum   'Pr12 Ir1 Ru3 Cl12'
_cell_volume   840.56950178
_cell_formula_units_Z   1
loop_
 _symmetry_equiv_pos_site_id
 _symmetry_equiv_pos_as_xyz
  1  'x, y, z'
loop_
 _atom_site_type_symbol
 _atom_site_label
 _atom_site_symmetry_multiplicity
 _atom_site_fract_x
 _atom_site_fract_y
 _atom_site_fract_z
 _atom_site_occupancy
  Pr  Pr0  1  0.475746  0.486208  0.239269  1
  Pr  Pr1  1  0.750000  0.237478  0.262522  1
  Pr  Pr2  1  0.750000  0.012106  0.487894  1
  Pr  Pr3  1  0.237894  0.475788  0.487894  1
  Pr  Pr4  1  0.263523  0.753061  0.239269  1
  Pr  Pr5  1  0.024254  0.260731  0.013792  1
  Pr  Pr6  1  0.012522  0.025043  0.262522  1
  Pr  Pr7  1  0.489538  0.753061  0.013792  1
  Pr  Pr8  1  0.487478  0.237478  0.474957  1
  Pr  Pr9  1  0.010462  0.486208  0.746939  1
  Pr  Pr10  1  0.262106  0.012106  0.024212  1
  Pr  Pr11  1  0.236477  0.260731  0.746939  1
  Ir  Ir12  1  0.250000  0.500000  0.000000  1
  Ru  Ru13  1  0.250000  0.250239  0.249761  1
  Ru  Ru14  1  0.499761  0.999522  0.249761  1
  Ru  Ru15  1  0.000239  0.250239  0.500478  1
  Cl  Cl16  1  0.250000  0.750933  0.749067  1
  Cl  Cl17  1  0.501877  0.500959  0.750799  1
  Cl  Cl18  1  0.998123  0.749201  0.999041  1
  Cl  Cl19  1  0.748922  0.249840  0.750799  1
  Cl  Cl20  1  0.999067  0.998132  0.749067  1
  Cl  Cl21  1  0.250000  0.998889  0.501111  1
  Cl  Cl22  1  0.751111  0.502222  0.501111  1
  Cl  Cl23  1  0.500917  0.249840  0.999041  1
  Cl  Cl24  1  0.751078  0.749201  0.250160  1
  Cl  Cl25  1  0.748889  0.998889  0.997778  1
  Cl  Cl26  1  0.999083  0.500959  0.250160  1
  Cl  Cl27  1  0.500933  0.750933  0.501868  1
