# generated using pymatgen
data_Sc12AlNi4Ru
_symmetry_space_group_name_H-M   'P 1'
_cell_length_a   7.70621820
_cell_length_b   7.70621941
_cell_length_c   7.70621761
_cell_angle_alpha   111.32198091
_cell_angle_beta   110.74912043
_cell_angle_gamma   106.38645366
_symmetry_Int_Tables_number   1
_chemical_formula_structural   Sc12AlNi4Ru
_chemical_formula_sum   'Sc12 Al1 Ni4 Ru1'
_cell_volume   351.52147324
_cell_formula_units_Z   1
loop_
 _symmetry_equiv_pos_site_id
 _symmetry_equiv_pos_as_xyz
  1  'x, y, z'
loop_
 _atom_site_type_symbol
 _atom_site_label
 _atom_site_symmetry_multiplicity
 _atom_site_fract_x
 _atom_site_fract_y
 _atom_site_fract_z
 _atom_site_occupancy
  Sc  Sc0  1  0.420933  0.229117  0.191817  1
  Sc  Sc1  1  0.579067  0.770883  0.808183  1
  Sc  Sc2  1  0.037300  0.229117  0.808183  1
  Sc  Sc3  1  0.962700  0.770883  0.191817  1
  Sc  Sc4  1  0.182912  0.279425  0.462336  1
  Sc  Sc5  1  0.817088  0.720575  0.537664  1
  Sc  Sc6  1  0.182912  0.720575  0.903487  1
  Sc  Sc7  1  0.817088  0.279425  0.096513  1
  Sc  Sc8  1  0.323597  0.622298  0.298701  1
  Sc  Sc9  1  0.676403  0.377702  0.701299  1
  Sc  Sc10  1  0.323597  0.024896  0.701299  1
  Sc  Sc11  1  0.676403  0.975104  0.298701  1
  Al  Al12  1  0.500000  0.500000  0.000000  1
  Ni  Ni13  1  0.352034  0.000000  0.352034  1
  Ni  Ni14  1  0.647966  0.000000  0.647966  1
  Ni  Ni15  1  0.126059  0.626059  0.500000  1
  Ni  Ni16  1  0.873941  0.373941  0.500000  1
  Ru  Ru17  1  0.000000  0.000000  0.000000  1
