# generated using pymatgen
data_Ce12Al6Ir5Ru
_symmetry_space_group_name_H-M   'P 1'
_cell_length_a   7.79804970
_cell_length_b   7.79805071
_cell_length_c   9.87536453
_cell_angle_alpha   90.32804117
_cell_angle_beta   90.32803681
_cell_angle_gamma   120.27126442
_symmetry_Int_Tables_number   1
_chemical_formula_structural   Ce12Al6Ir5Ru
_chemical_formula_sum   'Ce12 Al6 Ir5 Ru1'
_cell_volume   518.60117076
_cell_formula_units_Z   1
loop_
 _symmetry_equiv_pos_site_id
 _symmetry_equiv_pos_as_xyz
  1  'x, y, z'
loop_
 _atom_site_type_symbol
 _atom_site_label
 _atom_site_symmetry_multiplicity
 _atom_site_fract_x
 _atom_site_fract_y
 _atom_site_fract_z
 _atom_site_occupancy
  Ce  Ce0  1  0.001235  0.605912  0.508364  1
  Ce  Ce1  1  0.605912  0.001235  0.508364  1
  Ce  Ce2  1  0.397770  0.397770  0.507607  1
  Ce  Ce3  1  0.999173  0.396396  0.008558  1
  Ce  Ce4  1  0.396396  0.999173  0.008558  1
  Ce  Ce5  1  0.589412  0.589412  0.002333  1
  Ce  Ce6  1  0.999473  0.727148  0.165807  1
  Ce  Ce7  1  0.727148  0.999473  0.165807  1
  Ce  Ce8  1  0.267429  0.267429  0.168699  1
  Ce  Ce9  1  0.005952  0.269466  0.669750  1
  Ce  Ce10  1  0.269466  0.005952  0.669750  1
  Ce  Ce11  1  0.729071  0.729071  0.666248  1
  Al  Al12  1  0.666230  0.333112  0.282208  1
  Al  Al13  1  0.333112  0.666230  0.282208  1
  Al  Al14  1  0.333320  0.671345  0.779263  1
  Al  Al15  1  0.671345  0.333320  0.779263  1
  Al  Al16  1  0.999024  0.999024  0.413359  1
  Al  Al17  1  0.998420  0.998420  0.915954  1
  Ir  Ir18  1  0.000175  0.333693  0.338651  1
  Ir  Ir19  1  0.333693  0.000175  0.338651  1
  Ir  Ir20  1  0.666062  0.666062  0.335420  1
  Ir  Ir21  1  0.001005  0.667267  0.837673  1
  Ir  Ir22  1  0.667267  0.001005  0.837673  1
  Ru  Ru23  1  0.341908  0.341908  0.839085  1
