# generated using pymatgen
data_Ca12Al8Si11Sn
_symmetry_space_group_name_H-M   'P 1'
_cell_length_a   4.34583700
_cell_length_b   11.31069865
_cell_length_c   14.78366805
_cell_angle_alpha   89.97599058
_cell_angle_beta   90.00000000
_cell_angle_gamma   90.00000000
_symmetry_Int_Tables_number   1
_chemical_formula_structural   Ca12Al8Si11Sn
_chemical_formula_sum   'Ca12 Al8 Si11 Sn1'
_cell_volume   726.68304794
_cell_formula_units_Z   1
loop_
 _symmetry_equiv_pos_site_id
 _symmetry_equiv_pos_as_xyz
  1  'x, y, z'
loop_
 _atom_site_type_symbol
 _atom_site_label
 _atom_site_symmetry_multiplicity
 _atom_site_fract_x
 _atom_site_fract_y
 _atom_site_fract_z
 _atom_site_occupancy
  Ca  Ca0  1  0.250000  0.893706  0.566632  1
  Ca  Ca1  1  0.750000  0.104003  0.432464  1
  Ca  Ca2  1  0.250000  0.401600  0.932566  1
  Ca  Ca3  1  0.750000  0.605299  0.068396  1
  Ca  Ca4  1  0.250000  0.607324  0.437545  1
  Ca  Ca5  1  0.750000  0.394704  0.560312  1
  Ca  Ca6  1  0.250000  0.097544  0.073513  1
  Ca  Ca7  1  0.750000  0.889260  0.936686  1
  Ca  Ca8  1  0.750000  0.379299  0.299912  1
  Ca  Ca9  1  0.250000  0.621847  0.701605  1
  Ca  Ca10  1  0.750000  0.877029  0.204307  1
  Ca  Ca11  1  0.250000  0.116503  0.785202  1
  Al  Al12  1  0.750000  0.860938  0.708900  1
  Al  Al13  1  0.250000  0.140152  0.293938  1
  Al  Al14  1  0.750000  0.372618  0.783351  1
  Al  Al15  1  0.250000  0.639384  0.211062  1
  Al  Al16  1  0.250000  0.684084  0.910411  1
  Al  Al17  1  0.750000  0.319215  0.096915  1
  Al  Al18  1  0.250000  0.183989  0.585075  1
  Al  Al19  1  0.750000  0.817327  0.411478  1
  Si  Si20  1  0.250000  0.928138  0.363709  1
  Si  Si21  1  0.750000  0.071834  0.633749  1
  Si  Si22  1  0.250000  0.430036  0.137724  1
  Si  Si23  1  0.750000  0.573785  0.865625  1
  Si  Si24  1  0.250000  0.856915  0.795763  1
  Si  Si25  1  0.750000  0.142036  0.207717  1
  Si  Si26  1  0.250000  0.359391  0.698553  1
  Si  Si27  1  0.750000  0.642149  0.298577  1
  Si  Si28  1  0.250000  0.298235  0.433724  1
  Si  Si29  1  0.750000  0.702610  0.565291  1
  Si  Si30  1  0.250000  0.797632  0.066749  1
  Sn  Sn31  1  0.750000  0.191416  0.932546  1
