# generated using pymatgen
data_TbTm4Lu7Co5Bi
_symmetry_space_group_name_H-M   'P 1'
_cell_length_a   8.16440879
_cell_length_b   8.16958988
_cell_length_c   8.16959016
_cell_angle_alpha   111.05102109
_cell_angle_beta   111.00518769
_cell_angle_gamma   106.42470620
_symmetry_Int_Tables_number   1
_chemical_formula_structural   TbTm4Lu7Co5Bi
_chemical_formula_sum   'Tb1 Tm4 Lu7 Co5 Bi1'
_cell_volume   418.45609463
_cell_formula_units_Z   1
loop_
 _symmetry_equiv_pos_site_id
 _symmetry_equiv_pos_as_xyz
  1  'x, y, z'
loop_
 _atom_site_type_symbol
 _atom_site_label
 _atom_site_symmetry_multiplicity
 _atom_site_fract_x
 _atom_site_fract_y
 _atom_site_fract_z
 _atom_site_occupancy
  Tb  Tb0  1  0.015573  0.209592  0.805981  1
  Tm  Tm1  1  0.814438  0.711360  0.527642  1
  Tm  Tm2  1  0.183732  0.284794  0.466996  1
  Tm  Tm3  1  0.183732  0.716736  0.898939  1
  Tm  Tm4  1  0.814438  0.286796  0.103077  1
  Lu  Lu5  1  0.687766  0.380085  0.690098  1
  Lu  Lu6  1  0.313180  0.622396  0.311494  1
  Lu  Lu7  1  0.687766  0.997666  0.307680  1
  Lu  Lu8  1  0.313180  0.001685  0.690784  1
  Lu  Lu9  1  0.594571  0.789390  0.805182  1
  Lu  Lu10  1  0.408098  0.211081  0.197016  1
  Lu  Lu11  1  0.985403  0.789402  0.196001  1
  Co  Co12  1  0.622947  0.998991  0.623955  1
  Co  Co13  1  0.374272  0.001023  0.373250  1
  Co  Co14  1  0.114298  0.612876  0.501420  1
  Co  Co15  1  0.884047  0.387876  0.496171  1
  Co  Co16  1  0.000982  0.997272  0.003710  1
  Bi  Bi17  1  0.501580  0.500979  0.000602  1
