# generated using pymatgen
data_Pr8Y9Er3In16
_symmetry_space_group_name_H-M   'P 1'
_cell_length_a   8.08586300
_cell_length_b   8.39848016
_cell_length_c   15.98500000
_cell_angle_alpha   90.00000000
_cell_angle_beta   90.00000000
_cell_angle_gamma   90.01102461
_symmetry_Int_Tables_number   1
_chemical_formula_structural   Pr8Y9Er3In16
_chemical_formula_sum   'Pr8 Y9 Er3 In16'
_cell_volume   1085.52470463
_cell_formula_units_Z   1
loop_
 _symmetry_equiv_pos_site_id
 _symmetry_equiv_pos_as_xyz
  1  'x, y, z'
loop_
 _atom_site_type_symbol
 _atom_site_label
 _atom_site_symmetry_multiplicity
 _atom_site_fract_x
 _atom_site_fract_y
 _atom_site_fract_z
 _atom_site_occupancy
  Pr  Pr0  1  0.013415  0.181374  0.407354  1
  Pr  Pr1  1  0.513355  0.318707  0.407351  1
  Pr  Pr2  1  0.486819  0.681588  0.907898  1
  Pr  Pr3  1  0.486819  0.681588  0.592102  1
  Pr  Pr4  1  0.986371  0.819060  0.592243  1
  Pr  Pr5  1  0.986371  0.819060  0.907757  1
  Pr  Pr6  1  0.513355  0.318707  0.092649  1
  Pr  Pr7  1  0.013415  0.181374  0.092646  1
  Y  Y8  1  0.325462  0.167907  0.624308  1
  Y  Y9  1  0.674889  0.831693  0.375326  1
  Y  Y10  1  0.174667  0.668320  0.375219  1
  Y  Y11  1  0.824952  0.331409  0.875749  1
  Y  Y12  1  0.824952  0.331409  0.624251  1
  Y  Y13  1  0.325462  0.167907  0.875692  1
  Y  Y14  1  0.174667  0.668320  0.124781  1
  Y  Y15  1  0.674889  0.831693  0.124674  1
  Y  Y16  1  0.153724  0.504092  0.750000  1
  Er  Er17  1  0.653483  0.996490  0.750000  1
  Er  Er18  1  0.846413  0.496177  0.250000  1
  Er  Er19  1  0.346545  0.003908  0.250000  1
  In  In20  1  0.282100  0.865780  0.750000  1
  In  In21  1  0.479294  0.612305  0.250000  1
  In  In22  1  0.020829  0.111982  0.750000  1
  In  In23  1  0.521648  0.386208  0.750000  1
  In  In24  1  0.165072  0.467661  0.541879  1
  In  In25  1  0.979201  0.888003  0.250000  1
  In  In26  1  0.718220  0.135105  0.250000  1
  In  In27  1  0.835209  0.532136  0.042595  1
  In  In28  1  0.335080  0.967740  0.042627  1
  In  In29  1  0.165072  0.467661  0.958121  1
  In  In30  1  0.664854  0.032274  0.542071  1
  In  In31  1  0.335080  0.967740  0.457373  1
  In  In32  1  0.835209  0.532136  0.457405  1
  In  In33  1  0.779800  0.635147  0.750000  1
  In  In34  1  0.218455  0.365070  0.250000  1
  In  In35  1  0.664854  0.032274  0.957929  1
