# generated using pymatgen
data_Tm2BeB3Ru5
_symmetry_space_group_name_H-M   'P 1'
_cell_length_a   3.08618400
_cell_length_b   8.72555222
_cell_length_c   10.27748139
_cell_angle_alpha   90.07724338
_cell_angle_beta   90.00000000
_cell_angle_gamma   90.00000000
_symmetry_Int_Tables_number   1
_chemical_formula_structural   Tm2BeB3Ru5
_chemical_formula_sum   'Tm4 Be2 B6 Ru10'
_cell_volume   276.75854683
_cell_formula_units_Z   2
loop_
 _symmetry_equiv_pos_site_id
 _symmetry_equiv_pos_as_xyz
  1  'x, y, z'
loop_
 _atom_site_type_symbol
 _atom_site_label
 _atom_site_symmetry_multiplicity
 _atom_site_fract_x
 _atom_site_fract_y
 _atom_site_fract_z
 _atom_site_occupancy
  Tm  Tm0  1  0.500000  0.841764  0.183068  1
  Tm  Tm1  1  0.500000  0.158236  0.816932  1
  Tm  Tm2  1  0.500000  0.657269  0.680755  1
  Tm  Tm3  1  0.500000  0.342731  0.319245  1
  Be  Be4  1  0.500000  0.962806  0.593258  1
  Be  Be5  1  0.500000  0.037194  0.406742  1
  B  B6  1  0.500000  0.852672  0.898711  1
  B  B7  1  0.500000  0.147328  0.101289  1
  B  B8  1  0.500000  0.653528  0.403157  1
  B  B9  1  0.500000  0.346472  0.596843  1
  B  B10  1  0.500000  0.466134  0.910680  1
  B  B11  1  0.500000  0.533866  0.089320  1
  Ru  Ru12  1  0.000000  0.656339  0.956756  1
  Ru  Ru13  1  0.000000  0.343661  0.043244  1
  Ru  Ru14  1  0.000000  0.831868  0.449382  1
  Ru  Ru15  1  0.000000  0.168132  0.550618  1
  Ru  Ru16  1  0.000000  0.000000  0.000000  1
  Ru  Ru17  1  0.000000  0.407307  0.761591  1
  Ru  Ru18  1  0.000000  0.592693  0.238409  1
  Ru  Ru19  1  0.000000  0.500000  0.500000  1
  Ru  Ru20  1  0.000000  0.898339  0.748932  1
  Ru  Ru21  1  0.000000  0.101661  0.251068  1
