# generated using pymatgen
data_Nd4Al18RePt4Rh
_symmetry_space_group_name_H-M   'P 1'
_cell_length_a   7.65915692
_cell_length_b   7.65915747
_cell_length_c   9.61162211
_cell_angle_alpha   89.89415315
_cell_angle_beta   89.89415297
_cell_angle_gamma   119.34389422
_symmetry_Int_Tables_number   1
_chemical_formula_structural   Nd4Al18RePt4Rh
_chemical_formula_sum   'Nd4 Al18 Re1 Pt4 Rh1'
_cell_volume   491.49584899
_cell_formula_units_Z   1
loop_
 _symmetry_equiv_pos_site_id
 _symmetry_equiv_pos_as_xyz
  1  'x, y, z'
loop_
 _atom_site_type_symbol
 _atom_site_label
 _atom_site_symmetry_multiplicity
 _atom_site_fract_x
 _atom_site_fract_y
 _atom_site_fract_z
 _atom_site_occupancy
  Nd  Nd0  1  0.994245  0.670838  0.748898  1
  Nd  Nd1  1  0.005755  0.329162  0.251102  1
  Nd  Nd2  1  0.670838  0.994245  0.748898  1
  Nd  Nd3  1  0.329162  0.005755  0.251102  1
  Al  Al4  1  0.128172  0.128172  0.750040  1
  Al  Al5  1  0.871828  0.871828  0.249960  1
  Al  Al6  1  0.001901  0.330428  0.573243  1
  Al  Al7  1  0.998099  0.669572  0.426757  1
  Al  Al8  1  0.997976  0.667787  0.074916  1
  Al  Al9  1  0.332213  0.002024  0.925084  1
  Al  Al10  1  0.002024  0.332213  0.925084  1
  Al  Al11  1  0.667787  0.997976  0.074916  1
  Al  Al12  1  0.669572  0.998099  0.426757  1
  Al  Al13  1  0.330428  0.001901  0.573243  1
  Al  Al14  1  0.330705  0.330705  0.051016  1
  Al  Al15  1  0.669295  0.669295  0.948984  1
  Al  Al16  1  0.669580  0.669580  0.548914  1
  Al  Al17  1  0.330420  0.330420  0.451086  1
  Al  Al18  1  0.341393  0.544482  0.750227  1
  Al  Al19  1  0.658607  0.455518  0.249773  1
  Al  Al20  1  0.544482  0.341393  0.750227  1
  Al  Al21  1  0.455518  0.658607  0.249773  1
  Re  Re22  1  0.000000  0.000000  0.500000  1
  Pt  Pt23  1  0.671019  0.328981  0.500000  1
  Pt  Pt24  1  0.328981  0.671019  0.500000  1
  Pt  Pt25  1  0.328668  0.671332  0.000000  1
  Pt  Pt26  1  0.671332  0.328668  0.000000  1
  Rh  Rh27  1  0.000000  0.000000  0.000000  1
