# generated using pymatgen
data_Pr8Zn3Si12Rh
_symmetry_space_group_name_H-M   'P 1'
_cell_length_a   8.24224000
_cell_length_b   8.24224031
_cell_length_c   8.65413000
_cell_angle_alpha   90.00000000
_cell_angle_beta   90.00000000
_cell_angle_gamma   120.00000680
_symmetry_Int_Tables_number   1
_chemical_formula_structural   Pr8Zn3Si12Rh
_chemical_formula_sum   'Pr8 Zn3 Si12 Rh1'
_cell_volume   509.14859001
_cell_formula_units_Z   1
loop_
 _symmetry_equiv_pos_site_id
 _symmetry_equiv_pos_as_xyz
  1  'x, y, z'
loop_
 _atom_site_type_symbol
 _atom_site_label
 _atom_site_symmetry_multiplicity
 _atom_site_fract_x
 _atom_site_fract_y
 _atom_site_fract_z
 _atom_site_occupancy
  Pr  Pr0  1  0.500405  0.499595  0.749339  1
  Pr  Pr1  1  0.500943  0.499057  0.250703  1
  Pr  Pr2  1  0.999191  0.499595  0.749339  1
  Pr  Pr3  1  0.998113  0.499057  0.250703  1
  Pr  Pr4  1  0.500405  0.000809  0.749339  1
  Pr  Pr5  1  0.500943  0.001887  0.250703  1
  Pr  Pr6  1  0.000000  0.000000  0.749188  1
  Pr  Pr7  1  0.000000  0.000000  0.250947  1
  Zn  Zn8  1  0.666667  0.333333  0.997180  1
  Zn  Zn9  1  0.333333  0.666667  0.002081  1
  Zn  Zn10  1  0.333333  0.666667  0.499042  1
  Si  Si11  1  0.833525  0.166475  0.000847  1
  Si  Si12  1  0.166037  0.833963  0.999391  1
  Si  Si13  1  0.332949  0.166475  0.000847  1
  Si  Si14  1  0.162756  0.837244  0.499609  1
  Si  Si15  1  0.667926  0.833963  0.999391  1
  Si  Si16  1  0.829534  0.170466  0.500615  1
  Si  Si17  1  0.833525  0.667051  0.000847  1
  Si  Si18  1  0.674490  0.837244  0.499609  1
  Si  Si19  1  0.166037  0.332074  0.999391  1
  Si  Si20  1  0.340931  0.170466  0.500615  1
  Si  Si21  1  0.162756  0.325510  0.499609  1
  Si  Si22  1  0.829534  0.659069  0.500615  1
  Rh  Rh23  1  0.666667  0.333333  0.500056  1
