# generated using pymatgen
data_Th5P12Ru14Rh5
_symmetry_space_group_name_H-M   'P 1'
_cell_length_a   12.70788235
_cell_length_b   12.74215123
_cell_length_c   4.00331500
_cell_angle_alpha   90.00000000
_cell_angle_beta   90.00000000
_cell_angle_gamma   119.90270874
_symmetry_Int_Tables_number   1
_chemical_formula_structural   Th5P12Ru14Rh5
_chemical_formula_sum   'Th5 P12 Ru14 Rh5'
_cell_volume   561.94171393
_cell_formula_units_Z   1
loop_
 _symmetry_equiv_pos_site_id
 _symmetry_equiv_pos_as_xyz
  1  'x, y, z'
loop_
 _atom_site_type_symbol
 _atom_site_label
 _atom_site_symmetry_multiplicity
 _atom_site_fract_x
 _atom_site_fract_y
 _atom_site_fract_z
 _atom_site_occupancy
  Th  Th0  1  0.186243  0.184739  0.500000  1
  Th  Th1  1  0.814170  0.999927  0.500000  1
  Th  Th2  1  0.000949  0.813117  0.500000  1
  Th  Th3  1  0.332392  0.667216  0.000000  1
  Th  Th4  1  0.667112  0.333785  0.000000  1
  P  P5  1  0.816420  0.813490  0.000000  1
  P  P6  1  0.186850  0.999872  0.000000  1
  P  P7  1  0.998171  0.183895  0.000000  1
  P  P8  1  0.171035  0.479821  0.500000  1
  P  P9  1  0.519362  0.691088  0.500000  1
  P  P10  1  0.304149  0.826783  0.500000  1
  P  P11  1  0.696726  0.522625  0.500000  1
  P  P12  1  0.826132  0.303681  0.500000  1
  P  P13  1  0.478149  0.174802  0.500000  1
  P  P14  1  0.374254  0.370058  0.000000  1
  P  P15  1  0.629495  0.004386  0.000000  1
  P  P16  1  0.999327  0.628651  0.000000  1
  Ru  Ru17  1  0.712031  0.713539  0.500000  1
  Ru  Ru18  1  0.287977  0.000394  0.500000  1
  Ru  Ru19  1  0.001596  0.287840  0.500000  1
  Ru  Ru20  1  0.194454  0.816803  0.000000  1
  Ru  Ru21  1  0.803749  0.621798  0.000000  1
  Ru  Ru22  1  0.818286  0.195817  0.000000  1
  Ru  Ru23  1  0.378575  0.183131  0.000000  1
  Ru  Ru24  1  0.362812  0.489685  0.500000  1
  Ru  Ru25  1  0.508687  0.873190  0.500000  1
  Ru  Ru26  1  0.124831  0.634194  0.500000  1
  Ru  Ru27  1  0.875069  0.507372  0.500000  1
  Ru  Ru28  1  0.632462  0.123921  0.500000  1
  Ru  Ru29  1  0.492472  0.368660  0.500000  1
  Ru  Ru30  1  0.000083  0.000081  0.000000  1
  Rh  Rh31  1  0.549870  0.554908  0.000000  1
  Rh  Rh32  1  0.446282  0.998225  0.000000  1
  Rh  Rh33  1  0.002136  0.448558  0.000000  1
  Rh  Rh34  1  0.183945  0.375894  0.000000  1
  Rh  Rh35  1  0.623747  0.808051  0.000000  1
