# generated using pymatgen
data_Dy4Mg(SiB4)2
_symmetry_space_group_name_H-M   'P 1'
_cell_length_a   7.16984800
_cell_length_b   7.16984800
_cell_length_c   7.86744000
_cell_angle_alpha   90.00000000
_cell_angle_beta   90.00000000
_cell_angle_gamma   90.00000000
_symmetry_Int_Tables_number   1
_chemical_formula_structural   Dy4Mg(SiB4)2
_chemical_formula_sum   'Dy8 Mg2 Si4 B16'
_cell_volume   404.43928790
_cell_formula_units_Z   2
loop_
 _symmetry_equiv_pos_site_id
 _symmetry_equiv_pos_as_xyz
  1  'x, y, z'
loop_
 _atom_site_type_symbol
 _atom_site_label
 _atom_site_symmetry_multiplicity
 _atom_site_fract_x
 _atom_site_fract_y
 _atom_site_fract_z
 _atom_site_occupancy
  Dy  Dy0  1  0.682613  0.182613  0.232905  1
  Dy  Dy1  1  0.317387  0.817387  0.767095  1
  Dy  Dy2  1  0.317387  0.817387  0.232905  1
  Dy  Dy3  1  0.817387  0.682613  0.232905  1
  Dy  Dy4  1  0.817387  0.682613  0.767095  1
  Dy  Dy5  1  0.682613  0.182613  0.767095  1
  Dy  Dy6  1  0.182613  0.317387  0.767095  1
  Dy  Dy7  1  0.182613  0.317387  0.232905  1
  Mg  Mg8  1  0.000000  0.000000  0.500000  1
  Mg  Mg9  1  0.500000  0.500000  0.500000  1
  Si  Si10  1  0.115454  0.615454  0.500000  1
  Si  Si11  1  0.884546  0.384546  0.500000  1
  Si  Si12  1  0.384546  0.115454  0.500000  1
  Si  Si13  1  0.615454  0.884546  0.500000  1
  B  B14  1  0.173618  0.040027  0.000000  1
  B  B15  1  0.826382  0.959973  0.000000  1
  B  B16  1  0.959973  0.173618  0.000000  1
  B  B17  1  0.326382  0.540027  0.000000  1
  B  B18  1  0.040027  0.826382  0.000000  1
  B  B19  1  0.673618  0.459973  0.000000  1
  B  B20  1  0.540027  0.673618  0.000000  1
  B  B21  1  0.459973  0.326382  0.000000  1
  B  B22  1  0.089445  0.589445  0.000000  1
  B  B23  1  0.910555  0.410555  0.000000  1
  B  B24  1  0.410555  0.089445  0.000000  1
  B  B25  1  0.589445  0.910555  0.000000  1
  B  B26  1  0.000000  0.000000  0.161729  1
  B  B27  1  0.000000  0.000000  0.838271  1
  B  B28  1  0.500000  0.500000  0.838271  1
  B  B29  1  0.500000  0.500000  0.161729  1
