# generated using pymatgen
data_PrNdDy5FeI12
_symmetry_space_group_name_H-M   'P 1'
_cell_length_a   9.85537912
_cell_length_b   9.83263583
_cell_length_c   9.88365718
_cell_angle_alpha   106.85827182
_cell_angle_beta   106.66802848
_cell_angle_gamma   107.45428032
_symmetry_Int_Tables_number   1
_chemical_formula_structural   PrNdDy5FeI12
_chemical_formula_sum   'Pr1 Nd1 Dy5 Fe1 I12'
_cell_volume   797.74864602
_cell_formula_units_Z   1
loop_
 _symmetry_equiv_pos_site_id
 _symmetry_equiv_pos_as_xyz
  1  'x, y, z'
loop_
 _atom_site_type_symbol
 _atom_site_label
 _atom_site_symmetry_multiplicity
 _atom_site_fract_x
 _atom_site_fract_y
 _atom_site_fract_z
 _atom_site_occupancy
  Pr  Pr0  1  0.407946  0.213122  0.478279  1
  Nd  Nd1  1  0.591478  0.785502  0.521565  1
  Dy  Dy2  1  0.792539  0.525194  0.593391  1
  Dy  Dy3  1  0.522126  0.593621  0.790942  1
  Dy  Dy4  1  0.207673  0.475346  0.406646  1
  Dy  Dy5  1  0.478069  0.407016  0.209153  1
  Dy  Dy6  1  0.999981  0.000028  0.999972  1
  Fe  Fe7  1  0.500113  0.500379  0.500059  1
  I  I8  1  0.737064  0.190870  0.578802  1
  I  I9  1  0.969926  0.886780  0.667027  1
  I  I10  1  0.570496  0.719330  0.173203  1
  I  I11  1  0.115120  0.338549  0.039921  1
  I  I12  1  0.663374  0.962032  0.891398  1
  I  I13  1  0.884882  0.661468  0.960085  1
  I  I14  1  0.029229  0.113109  0.332627  1
  I  I15  1  0.818659  0.428355  0.277445  1
  I  I16  1  0.336509  0.037737  0.107852  1
  I  I17  1  0.263859  0.808909  0.421440  1
  I  I18  1  0.181348  0.571649  0.722550  1
  I  I19  1  0.429608  0.281004  0.827643  1
