# generated using pymatgen
data_Sr2As4P2Pd21
_symmetry_space_group_name_H-M   'P 1'
_cell_length_a   8.80819314
_cell_length_b   8.80819275
_cell_length_c   8.77110800
_cell_angle_alpha   60.13916922
_cell_angle_beta   60.13917067
_cell_angle_gamma   59.70101349
_symmetry_Int_Tables_number   1
_chemical_formula_structural   Sr2As4P2Pd21
_chemical_formula_sum   'Sr2 As4 P2 Pd21'
_cell_volume   481.09233712
_cell_formula_units_Z   1
loop_
 _symmetry_equiv_pos_site_id
 _symmetry_equiv_pos_as_xyz
  1  'x, y, z'
loop_
 _atom_site_type_symbol
 _atom_site_label
 _atom_site_symmetry_multiplicity
 _atom_site_fract_x
 _atom_site_fract_y
 _atom_site_fract_z
 _atom_site_occupancy
  Sr  Sr0  1  0.750168  0.750168  0.747859  1
  Sr  Sr1  1  0.249832  0.249832  0.248196  1
  As  As2  1  0.738514  0.738514  0.259613  1
  As  As3  1  0.261853  0.738147  0.260339  1
  As  As4  1  0.738147  0.261853  0.260339  1
  As  As5  1  0.261486  0.261486  0.736640  1
  P  P6  1  0.737467  0.262533  0.736405  1
  P  P7  1  0.262533  0.737467  0.736405  1
  Pd  Pd8  1  0.000000  0.000000  0.002413  1
  Pd  Pd9  1  0.614456  0.614456  0.158006  1
  Pd  Pd10  1  0.616893  0.160180  0.618052  1
  Pd  Pd11  1  0.160180  0.616893  0.618052  1
  Pd  Pd12  1  0.609771  0.609771  0.619383  1
  Pd  Pd13  1  0.390229  0.390229  0.838924  1
  Pd  Pd14  1  0.383107  0.839820  0.395124  1
  Pd  Pd15  1  0.839820  0.383107  0.395124  1
  Pd  Pd16  1  0.385544  0.385544  0.386917  1
  Pd  Pd17  1  0.000000  0.000000  0.349650  1
  Pd  Pd18  1  0.650902  0.001253  0.347319  1
  Pd  Pd19  1  0.001253  0.650902  0.347319  1
  Pd  Pd20  1  0.655729  0.344271  0.992139  1
  Pd  Pd21  1  0.998747  0.349098  0.999475  1
  Pd  Pd22  1  0.991899  0.342059  0.656599  1
  Pd  Pd23  1  0.344271  0.655729  0.992139  1
  Pd  Pd24  1  0.342059  0.991899  0.656599  1
  Pd  Pd25  1  0.349098  0.998747  0.999475  1
  Pd  Pd26  1  0.000000  0.000000  0.660379  1
  Pd  Pd27  1  0.008101  0.657941  0.990557  1
  Pd  Pd28  1  0.657941  0.008101  0.990557  1
