# generated using pymatgen
data_Nb12Al8FeNi3N4
_symmetry_space_group_name_H-M   'P 1'
_cell_length_a   8.20274427
_cell_length_b   8.23125334
_cell_length_c   8.20274600
_cell_angle_alpha   60.11450727
_cell_angle_beta   60.00000110
_cell_angle_gamma   60.11450922
_symmetry_Int_Tables_number   1
_chemical_formula_structural   Nb12Al8FeNi3N4
_chemical_formula_sum   'Nb12 Al8 Fe1 Ni3 N4'
_cell_volume   392.30055211
_cell_formula_units_Z   1
loop_
 _symmetry_equiv_pos_site_id
 _symmetry_equiv_pos_as_xyz
  1  'x, y, z'
loop_
 _atom_site_type_symbol
 _atom_site_label
 _atom_site_symmetry_multiplicity
 _atom_site_fract_x
 _atom_site_fract_y
 _atom_site_fract_z
 _atom_site_occupancy
  Nb  Nb0  1  0.562786  0.936382  0.562786  1
  Nb  Nb1  1  0.310451  0.686944  0.692154  1
  Nb  Nb2  1  0.687214  0.313618  0.311954  1
  Nb  Nb3  1  0.310451  0.686944  0.310451  1
  Nb  Nb4  1  0.692154  0.686944  0.310451  1
  Nb  Nb5  1  0.311954  0.313618  0.687214  1
  Nb  Nb6  1  0.557846  0.563056  0.939549  1
  Nb  Nb7  1  0.939549  0.563056  0.557846  1
  Nb  Nb8  1  0.562786  0.936382  0.938046  1
  Nb  Nb9  1  0.938046  0.936382  0.562786  1
  Nb  Nb10  1  0.687214  0.313618  0.687214  1
  Nb  Nb11  1  0.939549  0.563056  0.939549  1
  Al  Al12  1  0.917365  0.918933  0.917365  1
  Al  Al13  1  0.003662  0.331067  0.332635  1
  Al  Al14  1  0.333623  0.999127  0.333623  1
  Al  Al15  1  0.332635  0.331067  0.003662  1
  Al  Al16  1  0.916377  0.250873  0.916377  1
  Al  Al17  1  0.917365  0.918933  0.246338  1
  Al  Al18  1  0.246338  0.918933  0.917365  1
  Al  Al19  1  0.332635  0.331067  0.332635  1
  Fe  Fe20  1  0.125000  0.625000  0.125000  1
  Ni  Ni21  1  0.125000  0.125000  0.125000  1
  Ni  Ni22  1  0.625000  0.125000  0.125000  1
  Ni  Ni23  1  0.125000  0.125000  0.625000  1
  N  N24  1  0.625000  0.625000  0.625000  1
  N  N25  1  0.125000  0.625000  0.625000  1
  N  N26  1  0.625000  0.125000  0.625000  1
  N  N27  1  0.625000  0.625000  0.125000  1
