# generated using pymatgen
data_Dy3Th(Zn5Sn)2
_symmetry_space_group_name_H-M   'P 1'
_cell_length_a   8.43171732
_cell_length_b   8.43171812
_cell_length_c   9.04017456
_cell_angle_alpha   89.31146858
_cell_angle_beta   90.68853249
_cell_angle_gamma   149.90284628
_symmetry_Int_Tables_number   1
_chemical_formula_structural   Dy3Th(Zn5Sn)2
_chemical_formula_sum   'Dy3 Th1 Zn10 Sn2'
_cell_volume   322.26884531
_cell_formula_units_Z   1
loop_
 _symmetry_equiv_pos_site_id
 _symmetry_equiv_pos_as_xyz
  1  'x, y, z'
loop_
 _atom_site_type_symbol
 _atom_site_label
 _atom_site_symmetry_multiplicity
 _atom_site_fract_x
 _atom_site_fract_y
 _atom_site_fract_z
 _atom_site_occupancy
  Dy  Dy0  1  0.202060  0.797940  0.246559  1
  Dy  Dy1  1  0.797940  0.202060  0.753441  1
  Dy  Dy2  1  0.000000  0.000000  0.000000  1
  Th  Th3  1  0.000000  0.000000  0.500000  1
  Zn  Zn4  1  0.810977  0.189023  0.393099  1
  Zn  Zn5  1  0.189023  0.810977  0.606901  1
  Zn  Zn6  1  0.814809  0.185191  0.111406  1
  Zn  Zn7  1  0.185191  0.814809  0.888594  1
  Zn  Zn8  1  0.657170  0.342830  0.477173  1
  Zn  Zn9  1  0.342830  0.657170  0.522827  1
  Zn  Zn10  1  0.657926  0.342074  0.015928  1
  Zn  Zn11  1  0.342074  0.657926  0.984072  1
  Zn  Zn12  1  0.391679  0.608321  0.255167  1
  Zn  Zn13  1  0.608321  0.391679  0.744833  1
  Sn  Sn14  1  0.553458  0.446542  0.243331  1
  Sn  Sn15  1  0.446542  0.553458  0.756669  1
