# generated using pymatgen
data_SmLu2Be2Co9B4
_symmetry_space_group_name_H-M   'P 1'
_cell_length_a   5.01209220
_cell_length_b   5.01251779
_cell_length_c   9.37845600
_cell_angle_alpha   90.00024238
_cell_angle_beta   89.99985511
_cell_angle_gamma   120.02994068
_symmetry_Int_Tables_number   1
_chemical_formula_structural   SmLu2Be2Co9B4
_chemical_formula_sum   'Sm1 Lu2 Be2 Co9 B4'
_cell_volume   203.98857721
_cell_formula_units_Z   1
loop_
 _symmetry_equiv_pos_site_id
 _symmetry_equiv_pos_as_xyz
  1  'x, y, z'
loop_
 _atom_site_type_symbol
 _atom_site_label
 _atom_site_symmetry_multiplicity
 _atom_site_fract_x
 _atom_site_fract_y
 _atom_site_fract_z
 _atom_site_occupancy
  Sm  Sm0  1  0.999995  0.999998  0.999992  1
  Lu  Lu1  1  0.999993  0.000003  0.339281  1
  Lu  Lu2  1  0.000005  0.999999  0.660707  1
  Be  Be3  1  0.333122  0.666457  0.000013  1
  Be  Be4  1  0.666867  0.333543  0.000014  1
  Co  Co5  1  0.499997  0.000001  0.499991  1
  Co  Co6  1  0.499996  0.500003  0.499967  1
  Co  Co7  1  0.999992  0.499999  0.500019  1
  Co  Co8  1  0.499992  0.000000  0.193395  1
  Co  Co9  1  0.499990  0.499999  0.193375  1
  Co  Co10  1  0.999992  0.499999  0.193320  1
  Co  Co11  1  0.499998  0.000001  0.806605  1
  Co  Co12  1  0.499996  0.500001  0.806678  1
  Co  Co13  1  0.999994  0.499998  0.806657  1
  B  B14  1  0.333107  0.666599  0.343535  1
  B  B15  1  0.666878  0.333401  0.343535  1
  B  B16  1  0.666717  0.333403  0.656458  1
  B  B17  1  0.333267  0.666595  0.656457  1
