# generated using pymatgen
data_Y4Ho4Si8Pd3Pt5
_symmetry_space_group_name_H-M   'P 1'
_cell_length_a   4.27607600
_cell_length_b   7.51220403
_cell_length_c   14.03305407
_cell_angle_alpha   89.98877698
_cell_angle_beta   90.00000000
_cell_angle_gamma   90.00000000
_symmetry_Int_Tables_number   1
_chemical_formula_structural   Y4Ho4Si8Pd3Pt5
_chemical_formula_sum   'Y4 Ho4 Si8 Pd3 Pt5'
_cell_volume   450.78035447
_cell_formula_units_Z   1
loop_
 _symmetry_equiv_pos_site_id
 _symmetry_equiv_pos_as_xyz
  1  'x, y, z'
loop_
 _atom_site_type_symbol
 _atom_site_label
 _atom_site_symmetry_multiplicity
 _atom_site_fract_x
 _atom_site_fract_y
 _atom_site_fract_z
 _atom_site_occupancy
  Y  Y0  1  0.500000  0.706766  0.000001  1
  Y  Y1  1  0.000000  0.293098  0.499516  1
  Y  Y2  1  0.500000  0.700441  0.500162  1
  Y  Y3  1  0.000000  0.299596  0.000125  1
  Ho  Ho4  1  0.500000  0.795736  0.750520  1
  Ho  Ho5  1  0.000000  0.204384  0.749881  1
  Ho  Ho6  1  0.500000  0.795429  0.249853  1
  Ho  Ho7  1  0.000000  0.203341  0.249788  1
  Si  Si8  1  0.500000  0.404062  0.643655  1
  Si  Si9  1  0.000000  0.595841  0.856968  1
  Si  Si10  1  0.500000  0.403999  0.352731  1
  Si  Si11  1  0.000000  0.593031  0.144897  1
  Si  Si12  1  0.500000  0.093954  0.093391  1
  Si  Si13  1  0.000000  0.908177  0.407845  1
  Si  Si14  1  0.500000  0.092136  0.907763  1
  Si  Si15  1  0.000000  0.908025  0.592521  1
  Pd  Pd16  1  0.000000  0.580587  0.342831  1
  Pd  Pd17  1  0.500000  0.421130  0.840197  1
  Pd  Pd18  1  0.000000  0.579217  0.658792  1
  Pt  Pt19  1  0.500000  0.074699  0.609808  1
  Pt  Pt20  1  0.000000  0.925476  0.890382  1
  Pt  Pt21  1  0.500000  0.074646  0.390645  1
  Pt  Pt22  1  0.000000  0.924122  0.109901  1
  Pt  Pt23  1  0.500000  0.422107  0.157827  1
