# generated using pymatgen
data_V3(RhSe4)2
_symmetry_space_group_name_H-M   'P 1'
_cell_length_a   6.88452217
_cell_length_b   6.88452012
_cell_length_c   8.34127983
_cell_angle_alpha   54.04907516
_cell_angle_beta   54.04908893
_cell_angle_gamma   63.04105307
_symmetry_Int_Tables_number   1
_chemical_formula_structural   V3(RhSe4)2
_chemical_formula_sum   'V3 Rh2 Se8'
_cell_volume   255.49367655
_cell_formula_units_Z   1
loop_
 _symmetry_equiv_pos_site_id
 _symmetry_equiv_pos_as_xyz
  1  'x, y, z'
loop_
 _atom_site_type_symbol
 _atom_site_label
 _atom_site_symmetry_multiplicity
 _atom_site_fract_x
 _atom_site_fract_y
 _atom_site_fract_z
 _atom_site_occupancy
  V  V0  1  0.280504  0.280504  0.950488  1
  V  V1  1  0.713805  0.297738  0.490520  1
  V  V2  1  0.297738  0.713805  0.490520  1
  Rh  Rh3  1  0.008921  0.008921  0.002954  1
  Rh  Rh4  1  0.707623  0.707623  0.051011  1
  Se  Se5  1  0.548359  0.039965  0.164601  1
  Se  Se6  1  0.466646  0.955443  0.828179  1
  Se  Se7  1  0.955443  0.466646  0.828179  1
  Se  Se8  1  0.039965  0.548359  0.164601  1
  Se  Se9  1  0.991670  0.991670  0.321306  1
  Se  Se10  1  0.003901  0.003901  0.689817  1
  Se  Se11  1  0.417861  0.417861  0.364039  1
  Se  Se12  1  0.567564  0.567564  0.653784  1
