# generated using pymatgen
data_Nd16Hg4OsPd3
_symmetry_space_group_name_H-M   'P 1'
_cell_length_a   10.02754987
_cell_length_b   10.02755085
_cell_length_c   10.02737515
_cell_angle_alpha   59.52510673
_cell_angle_beta   59.52509994
_cell_angle_gamma   59.52678390
_symmetry_Int_Tables_number   1
_chemical_formula_structural   Nd16Hg4OsPd3
_chemical_formula_sum   'Nd16 Hg4 Os1 Pd3'
_cell_volume   705.26482114
_cell_formula_units_Z   1
loop_
 _symmetry_equiv_pos_site_id
 _symmetry_equiv_pos_as_xyz
  1  'x, y, z'
loop_
 _atom_site_type_symbol
 _atom_site_label
 _atom_site_symmetry_multiplicity
 _atom_site_fract_x
 _atom_site_fract_y
 _atom_site_fract_z
 _atom_site_occupancy
  Nd  Nd0  1  0.354530  0.354530  0.354498  1
  Nd  Nd1  1  0.350030  0.350030  0.945650  1
  Nd  Nd2  1  0.350020  0.945654  0.350029  1
  Nd  Nd3  1  0.945654  0.350020  0.350029  1
  Nd  Nd4  1  0.817739  0.188536  0.188543  1
  Nd  Nd5  1  0.188281  0.807299  0.807302  1
  Nd  Nd6  1  0.188536  0.817739  0.188543  1
  Nd  Nd7  1  0.807299  0.188281  0.807302  1
  Nd  Nd8  1  0.188546  0.188546  0.817733  1
  Nd  Nd9  1  0.807294  0.807294  0.188299  1
  Nd  Nd10  1  0.936684  0.564541  0.564550  1
  Nd  Nd11  1  0.555636  0.938180  0.938196  1
  Nd  Nd12  1  0.564541  0.936684  0.564550  1
  Nd  Nd13  1  0.938180  0.555636  0.938196  1
  Nd  Nd14  1  0.564552  0.564552  0.936674  1
  Nd  Nd15  1  0.938171  0.938171  0.555651  1
  Hg  Hg16  1  0.583849  0.583849  0.583840  1
  Hg  Hg17  1  0.584856  0.584856  0.245221  1
  Hg  Hg18  1  0.584855  0.245225  0.584866  1
  Hg  Hg19  1  0.245225  0.584855  0.584866  1
  Os  Os20  1  0.143657  0.143657  0.143638  1
  Pd  Pd21  1  0.145812  0.145812  0.570240  1
  Pd  Pd22  1  0.145809  0.570246  0.145795  1
  Pd  Pd23  1  0.570246  0.145809  0.145795  1
