# generated using pymatgen
data_Ac6CoSn6Ir5
_symmetry_space_group_name_H-M   'P 1'
_cell_length_a   7.70566600
_cell_length_b   7.70566593
_cell_length_c   8.66641900
_cell_angle_alpha   90.00000000
_cell_angle_beta   90.00000000
_cell_angle_gamma   119.99999174
_symmetry_Int_Tables_number   1
_chemical_formula_structural   Ac6CoSn6Ir5
_chemical_formula_sum   'Ac6 Co1 Sn6 Ir5'
_cell_volume   445.64671273
_cell_formula_units_Z   1
loop_
 _symmetry_equiv_pos_site_id
 _symmetry_equiv_pos_as_xyz
  1  'x, y, z'
loop_
 _atom_site_type_symbol
 _atom_site_label
 _atom_site_symmetry_multiplicity
 _atom_site_fract_x
 _atom_site_fract_y
 _atom_site_fract_z
 _atom_site_occupancy
  Ac  Ac0  1  0.999405  0.416675  0.750000  1
  Ac  Ac1  1  0.583325  0.582731  0.750000  1
  Ac  Ac2  1  0.417269  0.000595  0.750000  1
  Ac  Ac3  1  0.000082  0.413979  0.250000  1
  Ac  Ac4  1  0.586021  0.586102  0.250000  1
  Ac  Ac5  1  0.413898  0.999918  0.250000  1
  Co  Co6  1  0.000000  0.000000  0.250000  1
  Sn  Sn7  1  0.240435  0.240845  0.496633  1
  Sn  Sn8  1  0.000411  0.759565  0.496633  1
  Sn  Sn9  1  0.000411  0.759565  0.003367  1
  Sn  Sn10  1  0.759155  0.999589  0.496633  1
  Sn  Sn11  1  0.759155  0.999589  0.003367  1
  Sn  Sn12  1  0.240435  0.240845  0.003367  1
  Ir  Ir13  1  0.333333  0.666667  0.500357  1
  Ir  Ir14  1  0.666667  0.333333  0.499730  1
  Ir  Ir15  1  0.333333  0.666667  0.999643  1
  Ir  Ir16  1  0.000000  0.000000  0.750000  1
  Ir  Ir17  1  0.666667  0.333333  0.000270  1
