# generated using pymatgen
data_Ta4CoSiH2
_symmetry_space_group_name_H-M   'P 1'
_cell_length_a   5.10446610
_cell_length_b   5.10446748
_cell_length_c   5.10446795
_cell_angle_alpha   104.56361713
_cell_angle_beta   104.56362318
_cell_angle_gamma   119.80768560
_symmetry_Int_Tables_number   1
_chemical_formula_structural   Ta4CoSiH2
_chemical_formula_sum   'Ta4 Co1 Si1 H2'
_cell_volume   99.84566613
_cell_formula_units_Z   1
loop_
 _symmetry_equiv_pos_site_id
 _symmetry_equiv_pos_as_xyz
  1  'x, y, z'
loop_
 _atom_site_type_symbol
 _atom_site_label
 _atom_site_symmetry_multiplicity
 _atom_site_fract_x
 _atom_site_fract_y
 _atom_site_fract_z
 _atom_site_occupancy
  Ta  Ta0  1  0.166822  0.666822  0.833646  1
  Ta  Ta1  1  0.833178  0.333178  0.166354  1
  Ta  Ta2  1  0.333178  0.166822  0.500000  1
  Ta  Ta3  1  0.666822  0.833178  0.500000  1
  Co  Co4  1  0.250000  0.250000  0.000000  1
  Si  Si5  1  0.750000  0.750000  0.000000  1
  H  H6  1  0.750000  0.250000  0.500000  1
  H  H7  1  0.250000  0.750000  0.500000  1
