# generated using pymatgen
data_Ba8AlV2NiO16
_symmetry_space_group_name_H-M   'P 1'
_cell_length_a   7.70160767
_cell_length_b   6.14212698
_cell_length_c   11.95506522
_cell_angle_alpha   62.18255352
_cell_angle_beta   90.03995600
_cell_angle_gamma   90.06406079
_symmetry_Int_Tables_number   1
_chemical_formula_structural   Ba8AlV2NiO16
_chemical_formula_sum   'Ba8 Al1 V2 Ni1 O16'
_cell_volume   500.17237003
_cell_formula_units_Z   1
loop_
 _symmetry_equiv_pos_site_id
 _symmetry_equiv_pos_as_xyz
  1  'x, y, z'
loop_
 _atom_site_type_symbol
 _atom_site_label
 _atom_site_symmetry_multiplicity
 _atom_site_fract_x
 _atom_site_fract_y
 _atom_site_fract_z
 _atom_site_occupancy
  Ba  Ba0  1  0.502162  0.040690  0.192980  1
  Ba  Ba1  1  0.000548  0.961746  0.305042  1
  Ba  Ba2  1  0.504494  0.974893  0.805881  1
  Ba  Ba3  1  0.999346  0.021362  0.697558  1
  Ba  Ba4  1  0.168288  0.340316  0.891965  1
  Ba  Ba5  1  0.653123  0.663930  0.605132  1
  Ba  Ba6  1  0.841605  0.691220  0.056048  1
  Ba  Ba7  1  0.339500  0.306388  0.446508  1
  Al  Al8  1  0.724686  0.328717  0.923942  1
  V  V9  1  0.276493  0.654303  0.086469  1
  V  V10  1  0.776123  0.345919  0.413709  1
  Ni  Ni11  1  0.216601  0.671141  0.575547  1
  O  O12  1  0.768700  0.652730  0.830865  1
  O  O13  1  0.269674  0.334519  0.672092  1
  O  O14  1  0.226484  0.347289  0.185488  1
  O  O15  1  0.728172  0.652424  0.312430  1
  O  O16  1  0.828225  0.152588  0.857265  1
  O  O17  1  0.328416  0.849107  0.647582  1
  O  O18  1  0.179133  0.845751  0.138652  1
  O  O19  1  0.678688  0.153441  0.361855  1
  O  O20  1  0.814559  0.236229  0.078499  1
  O  O21  1  0.321294  0.768262  0.417461  1
  O  O22  1  0.190520  0.746143  0.934152  1
  O  O23  1  0.688193  0.256091  0.565526  1
  O  O24  1  0.998192  0.306216  0.421427  1
  O  O25  1  0.498792  0.693072  0.079617  1
  O  O26  1  0.981764  0.736928  0.563992  1
  O  O27  1  0.496226  0.268588  0.932316  1
