# generated using pymatgen
data_Tb6P5S
_symmetry_space_group_name_H-M   'P 1'
_cell_length_a   4.01202390
_cell_length_b   9.87230978
_cell_length_c   8.02273165
_cell_angle_alpha   90.05309902
_cell_angle_beta   60.00263135
_cell_angle_gamma   89.97688643
_symmetry_Int_Tables_number   1
_chemical_formula_structural   Tb6P5S
_chemical_formula_sum   'Tb6 P5 S1'
_cell_volume   275.19864698
_cell_formula_units_Z   1
loop_
 _symmetry_equiv_pos_site_id
 _symmetry_equiv_pos_as_xyz
  1  'x, y, z'
loop_
 _atom_site_type_symbol
 _atom_site_label
 _atom_site_symmetry_multiplicity
 _atom_site_fract_x
 _atom_site_fract_y
 _atom_site_fract_z
 _atom_site_occupancy
  Tb  Tb0  1  0.937929  0.895659  0.654199  1
  Tb  Tb1  1  0.271865  0.234220  0.324336  1
  Tb  Tb2  1  0.606586  0.564947  0.988680  1
  Tb  Tb3  1  0.278520  0.237681  0.817555  1
  Tb  Tb4  1  0.606318  0.564997  0.488660  1
  Tb  Tb5  1  0.930922  0.892366  0.160956  1
  P  P6  1  0.270645  0.732071  0.322511  1
  P  P7  1  0.940421  0.397923  0.655382  1
  P  P8  1  0.604648  0.064942  0.489396  1
  P  P9  1  0.941742  0.396347  0.154179  1
  P  P10  1  0.269580  0.733598  0.823870  1
  S  S11  1  0.604336  0.064981  0.989372  1
