# generated using pymatgen
data_La5Y11MgCo4Hg3
_symmetry_space_group_name_H-M   'P 1'
_cell_length_a   9.63841627
_cell_length_b   9.68888777
_cell_length_c   9.68888911
_cell_angle_alpha   59.74804988
_cell_angle_beta   60.17881988
_cell_angle_gamma   60.17882346
_symmetry_Int_Tables_number   1
_chemical_formula_structural   La5Y11MgCo4Hg3
_chemical_formula_sum   'La5 Y11 Mg1 Co4 Hg3'
_cell_volume   640.27858826
_cell_formula_units_Z   1
loop_
 _symmetry_equiv_pos_site_id
 _symmetry_equiv_pos_as_xyz
  1  'x, y, z'
loop_
 _atom_site_type_symbol
 _atom_site_label
 _atom_site_symmetry_multiplicity
 _atom_site_fract_x
 _atom_site_fract_y
 _atom_site_fract_z
 _atom_site_occupancy
  La  La0  1  0.343896  0.347475  0.347475  1
  La  La1  1  0.347614  0.346742  0.960516  1
  La  La2  1  0.347614  0.960516  0.346742  1
  La  La3  1  0.948130  0.353110  0.353110  1
  La  La4  1  0.814664  0.185808  0.185808  1
  Y  Y5  1  0.182945  0.815474  0.815474  1
  Y  Y6  1  0.188785  0.809919  0.185246  1
  Y  Y7  1  0.811395  0.185583  0.808950  1
  Y  Y8  1  0.188785  0.185246  0.809919  1
  Y  Y9  1  0.811395  0.808950  0.185583  1
  Y  Y10  1  0.933712  0.566037  0.566037  1
  Y  Y11  1  0.565284  0.933785  0.933785  1
  Y  Y12  1  0.562312  0.935074  0.564803  1
  Y  Y13  1  0.938073  0.563719  0.934918  1
  Y  Y14  1  0.562312  0.564803  0.935074  1
  Y  Y15  1  0.938073  0.934918  0.563719  1
  Mg  Mg16  1  0.286091  0.571053  0.571053  1
  Co  Co17  1  0.127836  0.144627  0.144627  1
  Co  Co18  1  0.139865  0.143401  0.576939  1
  Co  Co19  1  0.139865  0.576939  0.143401  1
  Co  Co20  1  0.578827  0.145151  0.145151  1
  Hg  Hg21  1  0.582216  0.587929  0.587929  1
  Hg  Hg22  1  0.580155  0.591524  0.242218  1
  Hg  Hg23  1  0.580155  0.242218  0.591524  1
