# generated using pymatgen
data_EuY2Tm(Ni7P4)2
_symmetry_space_group_name_H-M   'P 1'
_cell_length_a   3.69179900
_cell_length_b   9.15855686
_cell_length_c   10.30106228
_cell_angle_alpha   89.59087730
_cell_angle_beta   90.00000000
_cell_angle_gamma   90.00000000
_symmetry_Int_Tables_number   1
_chemical_formula_structural   EuY2Tm(Ni7P4)2
_chemical_formula_sum   'Eu1 Y2 Tm1 Ni14 P8'
_cell_volume   348.28601397
_cell_formula_units_Z   1
loop_
 _symmetry_equiv_pos_site_id
 _symmetry_equiv_pos_as_xyz
  1  'x, y, z'
loop_
 _atom_site_type_symbol
 _atom_site_label
 _atom_site_symmetry_multiplicity
 _atom_site_fract_x
 _atom_site_fract_y
 _atom_site_fract_z
 _atom_site_occupancy
  Eu  Eu0  1  0.500000  0.938765  0.236270  1
  Y  Y1  1  0.000000  0.441538  0.519940  1
  Y  Y2  1  0.000000  0.064760  0.736867  1
  Tm  Tm3  1  0.500000  0.558709  0.017799  1
  Ni  Ni4  1  0.000000  0.768510  0.406420  1
  Ni  Ni5  1  0.500000  0.226943  0.904978  1
  Ni  Ni6  1  0.000000  0.753902  0.642050  1
  Ni  Ni7  1  0.500000  0.251608  0.139909  1
  Ni  Ni8  1  0.000000  0.811219  0.999373  1
  Ni  Ni9  1  0.500000  0.185176  0.504928  1
  Ni  Ni10  1  0.000000  0.443796  0.212630  1
  Ni  Ni11  1  0.500000  0.556090  0.714750  1
  Ni  Ni12  1  0.000000  0.403710  0.821120  1
  Ni  Ni13  1  0.500000  0.594013  0.319870  1
  Ni  Ni14  1  0.000000  0.198406  0.317634  1
  Ni  Ni15  1  0.500000  0.805376  0.810295  1
  Ni  Ni16  1  0.000000  0.084720  0.036039  1
  Ni  Ni17  1  0.500000  0.917374  0.550292  1
  P  P18  1  0.000000  0.688281  0.198549  1
  P  P19  1  0.500000  0.309659  0.700741  1
  P  P20  1  0.000000  0.019379  0.457143  1
  P  P21  1  0.500000  0.978715  0.951076  1
  P  P22  1  0.000000  0.321685  0.024072  1
  P  P23  1  0.500000  0.681040  0.524142  1
  P  P24  1  0.000000  0.652977  0.831230  1
  P  P25  1  0.500000  0.343648  0.331481  1
