# generated using pymatgen
data_Ti10Sn9Mo2Au
_symmetry_space_group_name_H-M   'P 1'
_cell_length_a   9.26847896
_cell_length_b   9.26848069
_cell_length_c   5.63424037
_cell_angle_alpha   89.70440752
_cell_angle_beta   90.29559001
_cell_angle_gamma   119.86403526
_symmetry_Int_Tables_number   1
_chemical_formula_structural   Ti10Sn9Mo2Au
_chemical_formula_sum   'Ti10 Sn9 Mo2 Au1'
_cell_volume   419.72872266
_cell_formula_units_Z   1
loop_
 _symmetry_equiv_pos_site_id
 _symmetry_equiv_pos_as_xyz
  1  'x, y, z'
loop_
 _atom_site_type_symbol
 _atom_site_label
 _atom_site_symmetry_multiplicity
 _atom_site_fract_x
 _atom_site_fract_y
 _atom_site_fract_z
 _atom_site_occupancy
  Ti  Ti0  1  0.845392  0.686345  0.756259  1
  Ti  Ti1  1  0.157538  0.842462  0.243150  1
  Ti  Ti2  1  0.686345  0.845392  0.243741  1
  Ti  Ti3  1  0.313655  0.154608  0.756259  1
  Ti  Ti4  1  0.842462  0.157538  0.756850  1
  Ti  Ti5  1  0.154608  0.313655  0.243741  1
  Ti  Ti6  1  0.500000  0.000000  0.500000  1
  Ti  Ti7  1  0.500000  0.500000  0.000000  1
  Ti  Ti8  1  0.000000  0.500000  0.500000  1
  Ti  Ti9  1  0.500000  0.500000  0.500000  1
  Sn  Sn10  1  0.201980  0.403399  0.746077  1
  Sn  Sn11  1  0.797876  0.202124  0.254198  1
  Sn  Sn12  1  0.403399  0.201980  0.253923  1
  Sn  Sn13  1  0.596601  0.798020  0.746077  1
  Sn  Sn14  1  0.202124  0.797876  0.745802  1
  Sn  Sn15  1  0.798020  0.596601  0.253923  1
  Sn  Sn16  1  0.666836  0.333164  0.761249  1
  Sn  Sn17  1  0.333164  0.666836  0.238751  1
  Sn  Sn18  1  0.000000  0.000000  0.000000  1
  Mo  Mo19  1  0.000000  0.500000  0.000000  1
  Mo  Mo20  1  0.500000  0.000000  0.000000  1
  Au  Au21  1  0.000000  0.000000  0.500000  1
