# generated using pymatgen
data_CaYb9P8
_symmetry_space_group_name_H-M   'P 1'
_cell_length_a   7.49818978
_cell_length_b   7.46417064
_cell_length_c   8.26012298
_cell_angle_alpha   63.45183900
_cell_angle_beta   90.02242826
_cell_angle_gamma   90.03063514
_symmetry_Int_Tables_number   1
_chemical_formula_structural   CaYb9P8
_chemical_formula_sum   'Ca1 Yb9 P8'
_cell_volume   413.55513266
_cell_formula_units_Z   1
loop_
 _symmetry_equiv_pos_site_id
 _symmetry_equiv_pos_as_xyz
  1  'x, y, z'
loop_
 _atom_site_type_symbol
 _atom_site_label
 _atom_site_symmetry_multiplicity
 _atom_site_fract_x
 _atom_site_fract_y
 _atom_site_fract_z
 _atom_site_occupancy
  Ca  Ca0  1  0.500000  0.500000  0.000000  1
  Yb  Yb1  1  0.334454  0.023231  0.294432  1
  Yb  Yb2  1  0.164856  0.523749  0.294453  1
  Yb  Yb3  1  0.835144  0.476251  0.705547  1
  Yb  Yb4  1  0.336660  0.312470  0.706595  1
  Yb  Yb5  1  0.000000  0.000000  0.000000  1
  Yb  Yb6  1  0.665546  0.976769  0.705568  1
  Yb  Yb7  1  0.836885  0.187104  0.293225  1
  Yb  Yb8  1  0.163115  0.812896  0.706775  1
  Yb  Yb9  1  0.663340  0.687530  0.293405  1
  P  P10  1  0.893839  0.610092  0.000032  1
  P  P11  1  0.997686  0.804023  0.394812  1
  P  P12  1  0.106161  0.389908  0.999968  1
  P  P13  1  0.502173  0.304019  0.394567  1
  P  P14  1  0.391607  0.891975  0.000061  1
  P  P15  1  0.497827  0.695981  0.605433  1
  P  P16  1  0.002314  0.195977  0.605188  1
  P  P17  1  0.608393  0.108025  0.999939  1
