# generated using pymatgen
data_Pa3TiCo6
_symmetry_space_group_name_H-M   'P 1'
_cell_length_a   5.28413500
_cell_length_b   7.16275700
_cell_length_c   8.27743500
_cell_angle_alpha   90.00000000
_cell_angle_beta   90.00000000
_cell_angle_gamma   90.00000000
_symmetry_Int_Tables_number   1
_chemical_formula_structural   Pa3TiCo6
_chemical_formula_sum   'Pa6 Ti2 Co12'
_cell_volume   313.29243005
_cell_formula_units_Z   2
loop_
 _symmetry_equiv_pos_site_id
 _symmetry_equiv_pos_as_xyz
  1  'x, y, z'
loop_
 _atom_site_type_symbol
 _atom_site_label
 _atom_site_symmetry_multiplicity
 _atom_site_fract_x
 _atom_site_fract_y
 _atom_site_fract_z
 _atom_site_occupancy
  Pa  Pa0  1  0.750000  0.892978  0.851853  1
  Pa  Pa1  1  0.750000  0.392978  0.648147  1
  Pa  Pa2  1  0.250000  0.102596  0.145221  1
  Pa  Pa3  1  0.250000  0.602596  0.354779  1
  Pa  Pa4  1  0.750000  0.949848  0.420978  1
  Pa  Pa5  1  0.750000  0.449848  0.079022  1
  Ti  Ti6  1  0.250000  0.064406  0.613001  1
  Ti  Ti7  1  0.250000  0.564406  0.886999  1
  Co  Co8  1  0.750000  0.589329  0.367869  1
  Co  Co9  1  0.750000  0.089329  0.132131  1
  Co  Co10  1  0.250000  0.402846  0.630785  1
  Co  Co11  1  0.250000  0.902846  0.869215  1
  Co  Co12  1  0.996906  0.261035  0.381112  1
  Co  Co13  1  0.503094  0.761035  0.118888  1
  Co  Co14  1  0.486846  0.737964  0.622169  1
  Co  Co15  1  0.013154  0.237964  0.877831  1
  Co  Co16  1  0.013154  0.737964  0.622169  1
  Co  Co17  1  0.486846  0.237964  0.877831  1
  Co  Co18  1  0.503094  0.261035  0.381112  1
  Co  Co19  1  0.996906  0.761035  0.118888  1
