# generated using pymatgen
data_La3SmHo2(AlC3)2
_symmetry_space_group_name_H-M   'P 1'
_cell_length_a   3.70876400
_cell_length_b   7.46320030
_cell_length_c   10.13778272
_cell_angle_alpha   88.55210233
_cell_angle_beta   90.00000000
_cell_angle_gamma   90.00000000
_symmetry_Int_Tables_number   1
_chemical_formula_structural   La3SmHo2(AlC3)2
_chemical_formula_sum   'La3 Sm1 Ho2 Al2 C6'
_cell_volume   280.51661490
_cell_formula_units_Z   1
loop_
 _symmetry_equiv_pos_site_id
 _symmetry_equiv_pos_as_xyz
  1  'x, y, z'
loop_
 _atom_site_type_symbol
 _atom_site_label
 _atom_site_symmetry_multiplicity
 _atom_site_fract_x
 _atom_site_fract_y
 _atom_site_fract_z
 _atom_site_occupancy
  La  La0  1  0.500000  0.514594  0.187649  1
  La  La1  1  0.500000  0.482590  0.811874  1
  La  La2  1  0.000000  0.752334  0.466264  1
  Sm  Sm3  1  0.000000  0.248342  0.541019  1
  Ho  Ho4  1  0.500000  0.987669  0.202450  1
  Ho  Ho5  1  0.500000  0.013897  0.795762  1
  Al  Al6  1  0.000000  0.793526  0.007520  1
  Al  Al7  1  0.000000  0.206110  0.991020  1
  C  C8  1  0.500000  0.496611  0.564686  1
  C  C9  1  0.500000  0.484907  0.434893  1
  C  C10  1  0.500000  0.001960  0.563999  1
  C  C11  1  0.500000  0.017588  0.433734  1
  C  C12  1  0.000000  0.766677  0.207039  1
  C  C13  1  0.000000  0.233197  0.792093  1
