# generated using pymatgen
data_Sc12InIrRuBr16
_symmetry_space_group_name_H-M   'P 1'
_cell_length_a   9.17327481
_cell_length_b   11.21745436
_cell_length_c   11.84377799
_cell_angle_alpha   117.04551772
_cell_angle_beta   101.95675980
_cell_angle_gamma   101.51038392
_symmetry_Int_Tables_number   1
_chemical_formula_structural   Sc12InIrRuBr16
_chemical_formula_sum   'Sc12 In1 Ir1 Ru1 Br16'
_cell_volume   999.74489454
_cell_formula_units_Z   1
loop_
 _symmetry_equiv_pos_site_id
 _symmetry_equiv_pos_as_xyz
  1  'x, y, z'
loop_
 _atom_site_type_symbol
 _atom_site_label
 _atom_site_symmetry_multiplicity
 _atom_site_fract_x
 _atom_site_fract_y
 _atom_site_fract_z
 _atom_site_occupancy
  Sc  Sc0  1  0.096036  0.248537  0.345073  1
  Sc  Sc1  1  0.904530  0.751966  0.655206  1
  Sc  Sc2  1  0.759286  0.539057  0.313654  1
  Sc  Sc3  1  0.241006  0.461040  0.686086  1
  Sc  Sc4  1  0.303247  0.752511  0.654964  1
  Sc  Sc5  1  0.697037  0.247125  0.344854  1
  Sc  Sc6  1  0.157714  0.537961  0.314615  1
  Sc  Sc7  1  0.842910  0.461942  0.685660  1
  Sc  Sc8  1  0.401022  0.354032  0.267236  1
  Sc  Sc9  1  0.595091  0.645944  0.732666  1
  Sc  Sc10  1  0.454860  0.302023  0.520822  1
  Sc  Sc11  1  0.541200  0.697884  0.479040  1
  In  In12  1  0.002908  0.500215  0.500127  1
  Ir  Ir13  1  0.658683  0.500100  0.500901  1
  Ru  Ru14  1  0.341716  0.499901  0.499092  1
  Br  Br15  1  0.401376  0.743883  0.887738  1
  Br  Br16  1  0.599207  0.256901  0.113528  1
  Br  Br17  1  0.187695  0.960971  0.781687  1
  Br  Br18  1  0.811601  0.039027  0.218364  1
  Br  Br19  1  0.339165  0.089576  0.247494  1
  Br  Br20  1  0.663071  0.910450  0.752516  1
  Br  Br21  1  0.554845  0.437532  0.802442  1
  Br  Br22  1  0.447327  0.562396  0.197539  1
  Br  Br23  1  0.312730  0.829661  0.462041  1
  Br  Br24  1  0.687531  0.171461  0.537871  1
  Br  Br25  1  0.168317  0.167738  0.532287  1
  Br  Br26  1  0.831316  0.831075  0.467745  1
  Br  Br27  1  0.926607  0.573970  0.163558  1
  Br  Br28  1  0.072559  0.426026  0.836561  1
  Br  Br29  1  0.921336  0.741934  0.887230  1
  Br  Br30  1  0.078074  0.257161  0.111403  1
