# generated using pymatgen
data_BaAc3(FeO3)4
_symmetry_space_group_name_H-M   'P 1'
_cell_length_a   8.04415100
_cell_length_b   5.67369609
_cell_length_c   5.66123800
_cell_angle_alpha   90.01046204
_cell_angle_beta   90.00000000
_cell_angle_gamma   90.00000000
_symmetry_Int_Tables_number   1
_chemical_formula_structural   BaAc3(FeO3)4
_chemical_formula_sum   'Ba1 Ac3 Fe4 O12'
_cell_volume   258.37928362
_cell_formula_units_Z   1
loop_
 _symmetry_equiv_pos_site_id
 _symmetry_equiv_pos_as_xyz
  1  'x, y, z'
loop_
 _atom_site_type_symbol
 _atom_site_label
 _atom_site_symmetry_multiplicity
 _atom_site_fract_x
 _atom_site_fract_y
 _atom_site_fract_z
 _atom_site_occupancy
  Ba  Ba0  1  0.500000  0.497296  0.505377  1
  Ac  Ac1  1  0.500000  0.002704  0.011251  1
  Ac  Ac2  1  0.000000  0.502194  0.488027  1
  Ac  Ac3  1  0.000000  0.003178  0.992795  1
  Fe  Fe4  1  0.250522  0.000201  0.500901  1
  Fe  Fe5  1  0.749618  0.500449  0.998525  1
  Fe  Fe6  1  0.749478  0.000201  0.500901  1
  Fe  Fe7  1  0.250382  0.500449  0.998525  1
  O  O8  1  0.264959  0.225858  0.774034  1
  O  O9  1  0.741598  0.256331  0.256761  1
  O  O10  1  0.774964  0.764758  0.234669  1
  O  O11  1  0.221708  0.736349  0.736399  1
  O  O12  1  0.225036  0.764758  0.234669  1
  O  O13  1  0.778292  0.736349  0.736399  1
  O  O14  1  0.735041  0.225858  0.774034  1
  O  O15  1  0.258402  0.256331  0.256761  1
  O  O16  1  0.500000  0.544861  0.000426  1
  O  O17  1  0.500000  0.975637  0.493480  1
  O  O18  1  0.000000  0.463418  0.001468  1
  O  O19  1  0.000000  0.042826  0.504594  1
