# generated using pymatgen
data_Dy11Th5Mg3ZnRu4
_symmetry_space_group_name_H-M   'P 1'
_cell_length_a   9.67696843
_cell_length_b   9.74116516
_cell_length_c   9.74116501
_cell_angle_alpha   59.90969745
_cell_angle_beta   60.30683204
_cell_angle_gamma   60.30684180
_symmetry_Int_Tables_number   1
_chemical_formula_structural   Dy11Th5Mg3ZnRu4
_chemical_formula_sum   'Dy11 Th5 Mg3 Zn1 Ru4'
_cell_volume   651.84576981
_cell_formula_units_Z   1
loop_
 _symmetry_equiv_pos_site_id
 _symmetry_equiv_pos_as_xyz
  1  'x, y, z'
loop_
 _atom_site_type_symbol
 _atom_site_label
 _atom_site_symmetry_multiplicity
 _atom_site_fract_x
 _atom_site_fract_y
 _atom_site_fract_z
 _atom_site_occupancy
  Dy  Dy0  1  0.188042  0.811753  0.811753  1
  Dy  Dy1  1  0.191352  0.809455  0.185468  1
  Dy  Dy2  1  0.812087  0.186811  0.808341  1
  Dy  Dy3  1  0.191352  0.185468  0.809455  1
  Dy  Dy4  1  0.812087  0.808341  0.186811  1
  Dy  Dy5  1  0.927447  0.567344  0.567344  1
  Dy  Dy6  1  0.564426  0.934911  0.934911  1
  Dy  Dy7  1  0.563151  0.931097  0.564039  1
  Dy  Dy8  1  0.936493  0.563501  0.936213  1
  Dy  Dy9  1  0.563151  0.564039  0.931097  1
  Dy  Dy10  1  0.936493  0.936213  0.563501  1
  Th  Th11  1  0.342000  0.348714  0.348714  1
  Th  Th12  1  0.348017  0.348668  0.957005  1
  Th  Th13  1  0.348017  0.957005  0.348668  1
  Th  Th14  1  0.956969  0.350694  0.350694  1
  Th  Th15  1  0.816309  0.184207  0.184207  1
  Mg  Mg16  1  0.579391  0.582195  0.262913  1
  Mg  Mg17  1  0.579391  0.262913  0.582195  1
  Mg  Mg18  1  0.264659  0.579461  0.579461  1
  Zn  Zn19  1  0.584859  0.582451  0.582451  1
  Ru  Ru20  1  0.128049  0.147810  0.147810  1
  Ru  Ru21  1  0.144910  0.141728  0.567686  1
  Ru  Ru22  1  0.144910  0.567686  0.141728  1
  Ru  Ru23  1  0.576441  0.147533  0.147533  1
