# generated using pymatgen
data_HoAl2SiNi
_symmetry_space_group_name_H-M   'P 1'
_cell_length_a   4.00855376
_cell_length_b   4.00886740
_cell_length_c   5.94643871
_cell_angle_alpha   70.30083569
_cell_angle_beta   70.30244345
_cell_angle_gamma   90.00001067
_symmetry_Int_Tables_number   1
_chemical_formula_structural   HoAl2SiNi
_chemical_formula_sum   'Ho1 Al2 Si1 Ni1'
_cell_volume   84.00235030
_cell_formula_units_Z   1
loop_
 _symmetry_equiv_pos_site_id
 _symmetry_equiv_pos_as_xyz
  1  'x, y, z'
loop_
 _atom_site_type_symbol
 _atom_site_label
 _atom_site_symmetry_multiplicity
 _atom_site_fract_x
 _atom_site_fract_y
 _atom_site_fract_z
 _atom_site_occupancy
  Ho  Ho0  1  0.987599  0.987599  0.024802  1
  Al  Al1  1  0.741500  0.241500  0.517000  1
  Al  Al2  1  0.241501  0.741501  0.516996  1
  Si  Si3  1  0.408021  0.408021  0.183957  1
  Ni  Ni4  1  0.621378  0.621378  0.757244  1
