# generated using pymatgen
data_Li5CoF8
_symmetry_space_group_name_H-M   'P 1'
_cell_length_a   5.89320937
_cell_length_b   5.89320920
_cell_length_c   5.89320931
_cell_angle_alpha   58.46125836
_cell_angle_beta   58.46125605
_cell_angle_gamma   58.46125920
_symmetry_Int_Tables_number   1
_chemical_formula_structural   Li5CoF8
_chemical_formula_sum   'Li5 Co1 F8'
_cell_volume   139.62861498
_cell_formula_units_Z   1
loop_
 _symmetry_equiv_pos_site_id
 _symmetry_equiv_pos_as_xyz
  1  'x, y, z'
loop_
 _atom_site_type_symbol
 _atom_site_label
 _atom_site_symmetry_multiplicity
 _atom_site_fract_x
 _atom_site_fract_y
 _atom_site_fract_z
 _atom_site_occupancy
  Li  Li0  1  0.858113  0.858113  0.858113  1
  Li  Li1  1  0.500000  0.500000  0.000000  1
  Li  Li2  1  0.500000  0.000000  0.500000  1
  Li  Li3  1  0.141887  0.141887  0.141887  1
  Li  Li4  1  0.000000  0.500000  0.500000  1
  Co  Co5  1  0.500000  0.500000  0.500000  1
  F  F6  1  0.270487  0.727812  0.727812  1
  F  F7  1  0.733519  0.733519  0.733519  1
  F  F8  1  0.727812  0.270487  0.727812  1
  F  F9  1  0.272188  0.272188  0.729513  1
  F  F10  1  0.727812  0.727812  0.270487  1
  F  F11  1  0.272188  0.729513  0.272188  1
  F  F12  1  0.266481  0.266481  0.266481  1
  F  F13  1  0.729513  0.272188  0.272188  1
