# generated using pymatgen
data_Er4TmReRuO12
_symmetry_space_group_name_H-M   'P 1'
_cell_length_a   6.79035001
_cell_length_b   6.79035109
_cell_length_c   7.43737811
_cell_angle_alpha   73.80922835
_cell_angle_beta   73.80922198
_cell_angle_gamma   49.09634766
_symmetry_Int_Tables_number   1
_chemical_formula_structural   Er4TmReRuO12
_chemical_formula_sum   'Er4 Tm1 Re1 Ru1 O12'
_cell_volume   246.71145043
_cell_formula_units_Z   1
loop_
 _symmetry_equiv_pos_site_id
 _symmetry_equiv_pos_as_xyz
  1  'x, y, z'
loop_
 _atom_site_type_symbol
 _atom_site_label
 _atom_site_symmetry_multiplicity
 _atom_site_fract_x
 _atom_site_fract_y
 _atom_site_fract_z
 _atom_site_occupancy
  Er  Er0  1  0.817740  0.786605  0.358240  1
  Er  Er1  1  0.213395  0.182260  0.641760  1
  Er  Er2  1  0.190763  0.179946  0.175401  1
  Er  Er3  1  0.820054  0.809237  0.824599  1
  Tm  Tm4  1  0.511025  0.488975  0.500000  1
  Re  Re5  1  0.701594  0.298406  0.000000  1
  Ru  Ru6  1  0.267018  0.732982  0.000000  1
  O  O7  1  0.413292  0.936936  0.913408  1
  O  O8  1  0.063064  0.586708  0.086592  1
  O  O9  1  0.588727  0.092447  0.087032  1
  O  O10  1  0.907553  0.411273  0.912968  1
  O  O11  1  0.609582  0.091221  0.566994  1
  O  O12  1  0.908779  0.390418  0.433006  1
  O  O13  1  0.412370  0.896921  0.424346  1
  O  O14  1  0.985825  0.015082  0.821990  1
  O  O15  1  0.984918  0.014175  0.178010  1
  O  O16  1  0.497448  0.496225  0.795658  1
  O  O17  1  0.503775  0.502552  0.204342  1
  O  O18  1  0.103079  0.587630  0.575654  1
