# generated using pymatgen
data_Pr3GaHg2Pd3
_symmetry_space_group_name_H-M   'P 1'
_cell_length_a   7.89860560
_cell_length_b   7.89860535
_cell_length_c   3.90754100
_cell_angle_alpha   90.00000000
_cell_angle_beta   90.00000000
_cell_angle_gamma   121.13523695
_symmetry_Int_Tables_number   1
_chemical_formula_structural   Pr3GaHg2Pd3
_chemical_formula_sum   'Pr3 Ga1 Hg2 Pd3'
_cell_volume   208.66634320
_cell_formula_units_Z   1
loop_
 _symmetry_equiv_pos_site_id
 _symmetry_equiv_pos_as_xyz
  1  'x, y, z'
loop_
 _atom_site_type_symbol
 _atom_site_label
 _atom_site_symmetry_multiplicity
 _atom_site_fract_x
 _atom_site_fract_y
 _atom_site_fract_z
 _atom_site_occupancy
  Pr  Pr0  1  0.409835  0.409835  0.500000  1
  Pr  Pr1  1  0.598429  0.998046  0.500000  1
  Pr  Pr2  1  0.998046  0.598429  0.500000  1
  Ga  Ga3  1  0.741791  0.741791  0.000000  1
  Hg  Hg4  1  0.262666  0.002005  0.000000  1
  Hg  Hg5  1  0.002005  0.262666  0.000000  1
  Pd  Pd6  1  0.670761  0.351190  0.000000  1
  Pd  Pd7  1  0.351190  0.670761  0.000000  1
  Pd  Pd8  1  0.965278  0.965278  0.500000  1
