# generated using pymatgen
data_Dy10Y6Cd4Ir3Ru
_symmetry_space_group_name_H-M   'P 1'
_cell_length_a   9.67200451
_cell_length_b   9.67200383
_cell_length_c   9.67200415
_cell_angle_alpha   59.74057726
_cell_angle_beta   59.74058036
_cell_angle_gamma   59.74058293
_symmetry_Int_Tables_number   1
_chemical_formula_structural   Dy10Y6Cd4Ir3Ru
_chemical_formula_sum   'Dy10 Y6 Cd4 Ir3 Ru1'
_cell_volume   636.01643293
_cell_formula_units_Z   1
loop_
 _symmetry_equiv_pos_site_id
 _symmetry_equiv_pos_as_xyz
  1  'x, y, z'
loop_
 _atom_site_type_symbol
 _atom_site_label
 _atom_site_symmetry_multiplicity
 _atom_site_fract_x
 _atom_site_fract_y
 _atom_site_fract_z
 _atom_site_occupancy
  Dy  Dy0  1  0.348463  0.348463  0.348463  1
  Dy  Dy1  1  0.348132  0.348132  0.957023  1
  Dy  Dy2  1  0.348132  0.957023  0.348132  1
  Dy  Dy3  1  0.957023  0.348132  0.348132  1
  Dy  Dy4  1  0.811625  0.189055  0.189055  1
  Dy  Dy5  1  0.188349  0.809687  0.809687  1
  Dy  Dy6  1  0.189055  0.811625  0.189055  1
  Dy  Dy7  1  0.809687  0.188349  0.809687  1
  Dy  Dy8  1  0.189055  0.189055  0.811625  1
  Dy  Dy9  1  0.809687  0.809687  0.188349  1
  Y  Y10  1  0.939767  0.561153  0.561153  1
  Y  Y11  1  0.559646  0.938741  0.938741  1
  Y  Y12  1  0.561153  0.939767  0.561153  1
  Y  Y13  1  0.938741  0.559646  0.938741  1
  Y  Y14  1  0.561153  0.561153  0.939767  1
  Y  Y15  1  0.938741  0.938741  0.559646  1
  Cd  Cd16  1  0.579928  0.579928  0.579928  1
  Cd  Cd17  1  0.580705  0.580705  0.256898  1
  Cd  Cd18  1  0.580705  0.256898  0.580705  1
  Cd  Cd19  1  0.256898  0.580705  0.580705  1
  Ir  Ir20  1  0.143049  0.143049  0.576570  1
  Ir  Ir21  1  0.143049  0.576570  0.143049  1
  Ir  Ir22  1  0.576570  0.143049  0.143049  1
  Ru  Ru23  1  0.140685  0.140685  0.140685  1
