# generated using pymatgen
data_SrGaNi2(PO4)3
_symmetry_space_group_name_H-M   'P 1'
_cell_length_a   9.04560627
_cell_length_b   9.04560710
_cell_length_c   9.04560609
_cell_angle_alpha   137.31011426
_cell_angle_beta   110.27487454
_cell_angle_gamma   85.32183765
_symmetry_Int_Tables_number   1
_chemical_formula_structural   SrGaNi2(PO4)3
_chemical_formula_sum   'Sr2 Ga2 Ni4 P6 O24'
_cell_volume   452.96291540
_cell_formula_units_Z   2
loop_
 _symmetry_equiv_pos_site_id
 _symmetry_equiv_pos_as_xyz
  1  'x, y, z'
loop_
 _atom_site_type_symbol
 _atom_site_label
 _atom_site_symmetry_multiplicity
 _atom_site_fract_x
 _atom_site_fract_y
 _atom_site_fract_z
 _atom_site_occupancy
  Sr  Sr0  1  0.250000  0.343780  0.093780  1
  Sr  Sr1  1  0.750000  0.656220  0.906220  1
  Ga  Ga2  1  0.000000  0.500000  0.500000  1
  Ga  Ga3  1  0.500000  0.000000  0.500000  1
  Ni  Ni4  1  0.116758  0.116758  0.500000  1
  Ni  Ni5  1  0.383242  0.883242  0.000000  1
  Ni  Ni6  1  0.616758  0.116758  0.000000  1
  Ni  Ni7  1  0.883242  0.883242  0.500000  1
  P  P8  1  0.250000  0.837552  0.587552  1
  P  P9  1  0.750000  0.162448  0.412448  1
  P  P10  1  0.321778  0.321778  0.500000  1
  P  P11  1  0.178222  0.678222  0.000000  1
  P  P12  1  0.821778  0.321778  0.000000  1
  P  P13  1  0.678222  0.678222  0.500000  1
  O  O14  1  0.344190  0.795501  0.451313  1
  O  O15  1  0.655810  0.204499  0.548687  1
  O  O16  1  0.844190  0.392877  0.548687  1
  O  O17  1  0.155810  0.607123  0.451313  1
  O  O18  1  0.130966  0.983613  0.614578  1
  O  O19  1  0.630966  0.016387  0.147353  1
  O  O20  1  0.869034  0.016387  0.385422  1
  O  O21  1  0.369034  0.983613  0.852647  1
  O  O22  1  0.345307  0.202378  0.276711  1
  O  O23  1  0.074333  0.797622  0.142929  1
  O  O24  1  0.845307  0.568596  0.142929  1
  O  O25  1  0.574333  0.431404  0.276711  1
  O  O26  1  0.654693  0.797622  0.723289  1
  O  O27  1  0.925667  0.202378  0.857071  1
  O  O28  1  0.154693  0.431404  0.857071  1
  O  O29  1  0.425667  0.568596  0.723289  1
  O  O30  1  0.130408  0.288863  0.432045  1
  O  O31  1  0.143183  0.711137  0.841546  1
  O  O32  1  0.630408  0.198362  0.841546  1
  O  O33  1  0.643183  0.801638  0.432045  1
  O  O34  1  0.869592  0.711137  0.567955  1
  O  O35  1  0.856817  0.288863  0.158454  1
  O  O36  1  0.369592  0.801638  0.158454  1
  O  O37  1  0.356817  0.198362  0.567955  1
