# generated using pymatgen
data_Dy8In2CoNi
_symmetry_space_group_name_H-M   'P 1'
_cell_length_a   9.53402848
_cell_length_b   9.56195886
_cell_length_c   9.56195952
_cell_angle_alpha   60.18422526
_cell_angle_beta   60.09658107
_cell_angle_gamma   60.09657816
_symmetry_Int_Tables_number   1
_chemical_formula_structural   Dy8In2CoNi
_chemical_formula_sum   'Dy16 In4 Co2 Ni2'
_cell_volume   618.14511530
_cell_formula_units_Z   2
loop_
 _symmetry_equiv_pos_site_id
 _symmetry_equiv_pos_as_xyz
  1  'x, y, z'
loop_
 _atom_site_type_symbol
 _atom_site_label
 _atom_site_symmetry_multiplicity
 _atom_site_fract_x
 _atom_site_fract_y
 _atom_site_fract_z
 _atom_site_occupancy
  Dy  Dy0  1  0.151729  0.542104  0.154437  1
  Dy  Dy1  1  0.692223  0.311315  0.685360  1
  Dy  Dy2  1  0.688499  0.311501  0.311501  1
  Dy  Dy3  1  0.938564  0.561436  0.561436  1
  Dy  Dy4  1  0.542030  0.153939  0.153939  1
  Dy  Dy5  1  0.151729  0.154437  0.542104  1
  Dy  Dy6  1  0.936671  0.939241  0.562343  1
  Dy  Dy7  1  0.311100  0.685360  0.311315  1
  Dy  Dy8  1  0.562633  0.937367  0.937367  1
  Dy  Dy9  1  0.561744  0.939241  0.562343  1
  Dy  Dy10  1  0.692223  0.685360  0.311315  1
  Dy  Dy11  1  0.561744  0.562343  0.939241  1
  Dy  Dy12  1  0.936671  0.562343  0.939241  1
  Dy  Dy13  1  0.310865  0.689135  0.689135  1
  Dy  Dy14  1  0.150091  0.153939  0.153939  1
  Dy  Dy15  1  0.311100  0.311315  0.685360  1
  In  In16  1  0.917545  0.247233  0.917679  1
  In  In17  1  0.917373  0.917969  0.917969  1
  In  In18  1  0.917545  0.917679  0.247233  1
  In  In19  1  0.246688  0.917969  0.917969  1
  Co  Co20  1  0.924803  0.358026  0.358026  1
  Co  Co21  1  0.359146  0.358026  0.358026  1
  Ni  Ni22  1  0.358643  0.358332  0.924384  1
  Ni  Ni23  1  0.358643  0.924384  0.358332  1
