# generated using pymatgen
data_TbEr15In4OsRh3
_symmetry_space_group_name_H-M   'P 1'
_cell_length_a   9.57419219
_cell_length_b   9.61319687
_cell_length_c   9.59603200
_cell_angle_alpha   60.05905494
_cell_angle_beta   59.92451959
_cell_angle_gamma   60.09196126
_symmetry_Int_Tables_number   1
_chemical_formula_structural   TbEr15In4OsRh3
_chemical_formula_sum   'Tb1 Er15 In4 Os1 Rh3'
_cell_volume   624.87392183
_cell_formula_units_Z   1
loop_
 _symmetry_equiv_pos_site_id
 _symmetry_equiv_pos_as_xyz
  1  'x, y, z'
loop_
 _atom_site_type_symbol
 _atom_site_label
 _atom_site_symmetry_multiplicity
 _atom_site_fract_x
 _atom_site_fract_y
 _atom_site_fract_z
 _atom_site_occupancy
  Tb  Tb0  1  0.189080  0.192735  0.809093  1
  Er  Er1  1  0.439005  0.060551  0.062619  1
  Er  Er2  1  0.439005  0.060551  0.437826  1
  Er  Er3  1  0.058296  0.437845  0.059155  1
  Er  Er4  1  0.649926  0.048733  0.650670  1
  Er  Er5  1  0.191838  0.808465  0.808710  1
  Er  Er6  1  0.061952  0.060881  0.438583  1
  Er  Er7  1  0.808730  0.193336  0.189687  1
  Er  Er8  1  0.809974  0.808939  0.190543  1
  Er  Er9  1  0.650508  0.650175  0.047264  1
  Er  Er10  1  0.650508  0.650175  0.652052  1
  Er  Er11  1  0.058296  0.437845  0.444704  1
  Er  Er12  1  0.047507  0.650187  0.651152  1
  Er  Er13  1  0.808730  0.193336  0.808247  1
  Er  Er14  1  0.445482  0.436977  0.058771  1
  Er  Er15  1  0.191838  0.808465  0.190987  1
  In  In16  1  0.417596  0.748530  0.416937  1
  In  In17  1  0.416807  0.416402  0.750103  1
  In  In18  1  0.750059  0.416652  0.416645  1
  In  In19  1  0.416807  0.416402  0.416688  1
  Os  Os20  1  0.856203  0.425587  0.859106  1
  Rh  Rh21  1  0.858419  0.859831  0.423683  1
  Rh  Rh22  1  0.425014  0.857569  0.858708  1
  Rh  Rh23  1  0.858419  0.859831  0.858066  1
