# generated using pymatgen
data_K3LuBr6
_symmetry_space_group_name_H-M   'P 1'
_cell_length_a   7.89196803
_cell_length_b   8.34586600
_cell_length_c   11.39133625
_cell_angle_alpha   90.00000000
_cell_angle_beta   90.61031936
_cell_angle_gamma   90.00000000
_symmetry_Int_Tables_number   1
_chemical_formula_structural   K3LuBr6
_chemical_formula_sum   'K6 Lu2 Br12'
_cell_volume   750.25130051
_cell_formula_units_Z   2
loop_
 _symmetry_equiv_pos_site_id
 _symmetry_equiv_pos_as_xyz
  1  'x, y, z'
loop_
 _atom_site_type_symbol
 _atom_site_label
 _atom_site_symmetry_multiplicity
 _atom_site_fract_x
 _atom_site_fract_y
 _atom_site_fract_z
 _atom_site_occupancy
  K  K0  1  0.000000  0.000000  0.500000  1
  K  K1  1  0.500000  0.500000  0.000000  1
  K  K2  1  0.979217  0.569707  0.256796  1
  K  K3  1  0.020783  0.430293  0.743204  1
  K  K4  1  0.520783  0.069707  0.243204  1
  K  K5  1  0.479217  0.930293  0.756796  1
  Lu  Lu6  1  0.000000  0.000000  0.000000  1
  Lu  Lu7  1  0.500000  0.500000  0.500000  1
  Br  Br8  1  0.840026  0.278871  0.072446  1
  Br  Br9  1  0.159974  0.721129  0.927554  1
  Br  Br10  1  0.659974  0.778871  0.427554  1
  Br  Br11  1  0.340026  0.221129  0.572446  1
  Br  Br12  1  0.121470  0.943194  0.224975  1
  Br  Br13  1  0.878530  0.056806  0.775025  1
  Br  Br14  1  0.378530  0.443194  0.275025  1
  Br  Br15  1  0.621470  0.556806  0.724975  1
  Br  Br16  1  0.712833  0.826872  0.053099  1
  Br  Br17  1  0.287167  0.173128  0.946901  1
  Br  Br18  1  0.787167  0.326872  0.446901  1
  Br  Br19  1  0.212833  0.673128  0.553099  1
