# generated using pymatgen
data_YEr3Al15(GaIr2)3
_symmetry_space_group_name_H-M   'P 1'
_cell_length_a   7.53022719
_cell_length_b   7.52895895
_cell_length_c   9.51603400
_cell_angle_alpha   90.00000000
_cell_angle_beta   90.00000000
_cell_angle_gamma   119.47744078
_symmetry_Int_Tables_number   1
_chemical_formula_structural   YEr3Al15(GaIr2)3
_chemical_formula_sum   'Y1 Er3 Al15 Ga3 Ir6'
_cell_volume   469.66962054
_cell_formula_units_Z   1
loop_
 _symmetry_equiv_pos_site_id
 _symmetry_equiv_pos_as_xyz
  1  'x, y, z'
loop_
 _atom_site_type_symbol
 _atom_site_label
 _atom_site_symmetry_multiplicity
 _atom_site_fract_x
 _atom_site_fract_y
 _atom_site_fract_z
 _atom_site_occupancy
  Y  Y0  1  0.670283  0.990965  0.250000  1
  Er  Er1  1  0.997987  0.675451  0.250000  1
  Er  Er2  1  0.005883  0.325619  0.750000  1
  Er  Er3  1  0.324772  0.004044  0.750000  1
  Al  Al4  1  0.001531  0.335835  0.072903  1
  Al  Al5  1  0.999043  0.664142  0.925724  1
  Al  Al6  1  0.999043  0.664142  0.574276  1
  Al  Al7  1  0.335573  0.002792  0.426877  1
  Al  Al8  1  0.001531  0.335835  0.427097  1
  Al  Al9  1  0.664106  0.999476  0.574752  1
  Al  Al10  1  0.664106  0.999476  0.925248  1
  Al  Al11  1  0.335573  0.002792  0.073123  1
  Al  Al12  1  0.333747  0.333788  0.558217  1
  Al  Al13  1  0.666601  0.665680  0.447617  1
  Al  Al14  1  0.666601  0.665680  0.052383  1
  Al  Al15  1  0.333747  0.333788  0.941783  1
  Al  Al16  1  0.662427  0.449724  0.750000  1
  Al  Al17  1  0.551343  0.340504  0.250000  1
  Al  Al18  1  0.450121  0.662453  0.750000  1
  Ga  Ga19  1  0.131962  0.132442  0.250000  1
  Ga  Ga20  1  0.864824  0.864510  0.750000  1
  Ga  Ga21  1  0.338987  0.546043  0.250000  1
  Ir  Ir22  1  0.671409  0.329135  0.999926  1
  Ir  Ir23  1  0.328131  0.672546  0.997706  1
  Ir  Ir24  1  0.328131  0.672546  0.502294  1
  Ir  Ir25  1  0.671409  0.329135  0.500074  1
  Ir  Ir26  1  0.000565  0.000729  0.999437  1
  Ir  Ir27  1  0.000565  0.000729  0.500563  1
