# generated using pymatgen
data_Dy4Sn6Ir4Rh3
_symmetry_space_group_name_H-M   'P 1'
_cell_length_a   7.60969203
_cell_length_b   7.61344597
_cell_length_c   7.60969240
_cell_angle_alpha   109.41576595
_cell_angle_beta   109.56225416
_cell_angle_gamma   109.41575862
_symmetry_Int_Tables_number   1
_chemical_formula_structural   Dy4Sn6Ir4Rh3
_chemical_formula_sum   'Dy4 Sn6 Ir4 Rh3'
_cell_volume   339.46841726
_cell_formula_units_Z   1
loop_
 _symmetry_equiv_pos_site_id
 _symmetry_equiv_pos_as_xyz
  1  'x, y, z'
loop_
 _atom_site_type_symbol
 _atom_site_label
 _atom_site_symmetry_multiplicity
 _atom_site_fract_x
 _atom_site_fract_y
 _atom_site_fract_z
 _atom_site_occupancy
  Dy  Dy0  1  0.001018  0.002036  0.501018  1
  Dy  Dy1  1  0.996680  0.497895  0.996680  1
  Dy  Dy2  1  0.501018  0.002036  0.001018  1
  Dy  Dy3  1  0.501215  0.497895  0.501215  1
  Sn  Sn4  1  0.686074  0.687048  0.000974  1
  Sn  Sn5  1  0.313937  0.997910  0.313937  1
  Sn  Sn6  1  0.001148  0.315135  0.313987  1
  Sn  Sn7  1  0.313987  0.315135  0.001148  1
  Sn  Sn8  1  0.683973  0.997910  0.683973  1
  Sn  Sn9  1  0.000974  0.687048  0.686074  1
  Ir  Ir10  1  0.750072  0.250250  0.500178  1
  Ir  Ir11  1  0.749891  0.499781  0.249891  1
  Ir  Ir12  1  0.500178  0.250250  0.750072  1
  Ir  Ir13  1  0.249891  0.499781  0.749891  1
  Rh  Rh14  1  0.249837  0.750404  0.500567  1
  Rh  Rh15  1  0.500567  0.750404  0.249837  1
  Rh  Rh16  1  0.999541  0.999082  0.999541  1
