# generated using pymatgen
data_Dy3(TmSb4)5
_symmetry_space_group_name_H-M   'P 1'
_cell_length_a   4.20390000
_cell_length_b   13.18111337
_cell_length_c   14.58215820
_cell_angle_alpha   78.44447007
_cell_angle_beta   90.00000000
_cell_angle_gamma   90.00000000
_symmetry_Int_Tables_number   1
_chemical_formula_structural   Dy3(TmSb4)5
_chemical_formula_sum   'Dy3 Tm5 Sb20'
_cell_volume   791.64985569
_cell_formula_units_Z   1
loop_
 _symmetry_equiv_pos_site_id
 _symmetry_equiv_pos_as_xyz
  1  'x, y, z'
loop_
 _atom_site_type_symbol
 _atom_site_label
 _atom_site_symmetry_multiplicity
 _atom_site_fract_x
 _atom_site_fract_y
 _atom_site_fract_z
 _atom_site_occupancy
  Dy  Dy0  1  0.750000  0.331665  0.423812  1
  Dy  Dy1  1  0.250000  0.953037  0.359073  1
  Dy  Dy2  1  0.750000  0.046367  0.640932  1
  Tm  Tm3  1  0.250000  0.395285  0.771109  1
  Tm  Tm4  1  0.750000  0.605091  0.229196  1
  Tm  Tm5  1  0.250000  0.661515  0.855998  1
  Tm  Tm6  1  0.750000  0.338476  0.143531  1
  Tm  Tm7  1  0.250000  0.668710  0.576594  1
  Sb  Sb8  1  0.250000  0.144837  0.778353  1
  Sb  Sb9  1  0.750000  0.855085  0.221550  1
  Sb  Sb10  1  0.250000  0.143536  0.482587  1
  Sb  Sb11  1  0.750000  0.854404  0.517662  1
  Sb  Sb12  1  0.250000  0.153989  0.170526  1
  Sb  Sb13  1  0.750000  0.845988  0.829359  1
  Sb  Sb14  1  0.250000  0.420874  0.975263  1
  Sb  Sb15  1  0.750000  0.579165  0.024676  1
  Sb  Sb16  1  0.750000  0.028561  0.909736  1
  Sb  Sb17  1  0.250000  0.971390  0.090373  1
  Sb  Sb18  1  0.750000  0.139933  0.321672  1
  Sb  Sb19  1  0.250000  0.859224  0.677995  1
  Sb  Sb20  1  0.750000  0.279304  0.937008  1
  Sb  Sb21  1  0.250000  0.720631  0.063024  1
  Sb  Sb22  1  0.750000  0.286017  0.653532  1
  Sb  Sb23  1  0.250000  0.714303  0.347106  1
  Sb  Sb24  1  0.750000  0.576244  0.734561  1
  Sb  Sb25  1  0.250000  0.425041  0.263540  1
  Sb  Sb26  1  0.750000  0.572462  0.447427  1
  Sb  Sb27  1  0.250000  0.428864  0.553806  1
