# generated using pymatgen
data_CaGdGaO4
_symmetry_space_group_name_H-M   'P 1'
_cell_length_a   11.55890700
_cell_length_b   5.34741900
_cell_length_c   6.71223000
_cell_angle_alpha   89.99862284
_cell_angle_beta   89.99947266
_cell_angle_gamma   89.99895546
_symmetry_Int_Tables_number   1
_chemical_formula_structural   CaGdGaO4
_chemical_formula_sum   'Ca4 Gd4 Ga4 O16'
_cell_volume   414.88507680
_cell_formula_units_Z   4
loop_
 _symmetry_equiv_pos_site_id
 _symmetry_equiv_pos_as_xyz
  1  'x, y, z'
loop_
 _atom_site_type_symbol
 _atom_site_label
 _atom_site_symmetry_multiplicity
 _atom_site_fract_x
 _atom_site_fract_y
 _atom_site_fract_z
 _atom_site_occupancy
  Ca  Ca0  1  0.499974  0.499981  0.487182  1
  Ca  Ca1  1  0.500027  0.500018  0.987182  1
  Ca  Ca2  1  0.000025  0.999984  0.987179  1
  Ca  Ca3  1  0.999974  0.000018  0.487180  1
  Gd  Gd4  1  0.222130  0.507024  0.237117  1
  Gd  Gd5  1  0.777873  0.492977  0.737116  1
  Gd  Gd6  1  0.277870  0.007020  0.737116  1
  Gd  Gd7  1  0.722128  0.992979  0.237119  1
  Ga  Ga8  1  0.405393  0.062339  0.237108  1
  Ga  Ga9  1  0.594608  0.937658  0.737111  1
  Ga  Ga10  1  0.094610  0.562338  0.737109  1
  Ga  Ga11  1  0.905389  0.437666  0.237106  1
  O  O12  1  0.402762  0.720482  0.237175  1
  O  O13  1  0.597239  0.279517  0.737177  1
  O  O14  1  0.097239  0.220482  0.737173  1
  O  O15  1  0.902760  0.779524  0.237174  1
  O  O16  1  0.167981  0.731478  0.520813  1
  O  O17  1  0.832017  0.268522  0.020813  1
  O  O18  1  0.332019  0.231478  0.020815  1
  O  O19  1  0.667981  0.768521  0.520816  1
  O  O20  1  0.331984  0.231430  0.453411  1
  O  O21  1  0.668019  0.768564  0.953419  1
  O  O22  1  0.168016  0.731432  0.953411  1
  O  O23  1  0.831983  0.268567  0.453413  1
  O  O24  1  0.553639  0.213460  0.237195  1
  O  O25  1  0.446362  0.786538  0.737194  1
  O  O26  1  0.946361  0.713459  0.737191  1
  O  O27  1  0.053640  0.286542  0.237192  1
