# generated using pymatgen
data_ErTm3(Si3Rh)2
_symmetry_space_group_name_H-M   'P 1'
_cell_length_a   8.14143400
_cell_length_b   8.14143429
_cell_length_c   7.78509800
_cell_angle_alpha   90.00000000
_cell_angle_beta   90.00000000
_cell_angle_gamma   119.99999883
_symmetry_Int_Tables_number   1
_chemical_formula_structural   ErTm3(Si3Rh)2
_chemical_formula_sum   'Er2 Tm6 Si12 Rh4'
_cell_volume   446.88579403
_cell_formula_units_Z   2
loop_
 _symmetry_equiv_pos_site_id
 _symmetry_equiv_pos_as_xyz
  1  'x, y, z'
loop_
 _atom_site_type_symbol
 _atom_site_label
 _atom_site_symmetry_multiplicity
 _atom_site_fract_x
 _atom_site_fract_y
 _atom_site_fract_z
 _atom_site_occupancy
  Er  Er0  1  0.000000  0.000000  0.750000  1
  Er  Er1  1  0.000000  0.000000  0.250000  1
  Tm  Tm2  1  0.981936  0.490969  0.250000  1
  Tm  Tm3  1  0.509031  0.490969  0.250000  1
  Tm  Tm4  1  0.490969  0.981936  0.750000  1
  Tm  Tm5  1  0.018064  0.509031  0.750000  1
  Tm  Tm6  1  0.490969  0.509031  0.750000  1
  Tm  Tm7  1  0.509031  0.018064  0.250000  1
  Si  Si8  1  0.166907  0.833093  0.499744  1
  Si  Si9  1  0.166907  0.333812  0.499744  1
  Si  Si10  1  0.666188  0.833093  0.499744  1
  Si  Si11  1  0.333812  0.166907  0.999744  1
  Si  Si12  1  0.833093  0.666188  0.500256  1
  Si  Si13  1  0.833093  0.166907  0.999744  1
  Si  Si14  1  0.833093  0.666188  0.999744  1
  Si  Si15  1  0.166907  0.333812  0.000256  1
  Si  Si16  1  0.666188  0.833093  0.000256  1
  Si  Si17  1  0.333812  0.166907  0.500256  1
  Si  Si18  1  0.833093  0.166907  0.500256  1
  Si  Si19  1  0.166907  0.833093  0.000256  1
  Rh  Rh20  1  0.333333  0.666667  0.033697  1
  Rh  Rh21  1  0.666667  0.333333  0.966303  1
  Rh  Rh22  1  0.666667  0.333333  0.533697  1
  Rh  Rh23  1  0.333333  0.666667  0.466303  1
