# generated using pymatgen
data_Zr4B14PIr12
_symmetry_space_group_name_H-M   'P 1'
_cell_length_a   3.52471473
_cell_length_b   7.69404392
_cell_length_c   13.31087447
_cell_angle_alpha   89.97184721
_cell_angle_beta   90.02691317
_cell_angle_gamma   90.01693783
_symmetry_Int_Tables_number   1
_chemical_formula_structural   Zr4B14PIr12
_chemical_formula_sum   'Zr4 B14 P1 Ir12'
_cell_volume   360.98163069
_cell_formula_units_Z   1
loop_
 _symmetry_equiv_pos_site_id
 _symmetry_equiv_pos_as_xyz
  1  'x, y, z'
loop_
 _atom_site_type_symbol
 _atom_site_label
 _atom_site_symmetry_multiplicity
 _atom_site_fract_x
 _atom_site_fract_y
 _atom_site_fract_z
 _atom_site_occupancy
  Zr  Zr0  1  0.251645  0.499467  0.833141  1
  Zr  Zr1  1  0.253250  0.000257  0.333098  1
  Zr  Zr2  1  0.746750  0.999743  0.666902  1
  Zr  Zr3  1  0.748355  0.500533  0.166859  1
  B  B4  1  0.500000  0.000000  0.000000  1
  B  B5  1  0.000000  0.000000  0.000000  1
  B  B6  1  0.761324  0.326498  0.724937  1
  B  B7  1  0.754266  0.828452  0.221976  1
  B  B8  1  0.751996  0.752168  0.803025  1
  B  B9  1  0.759780  0.249266  0.301114  1
  B  B10  1  0.749954  0.422857  0.974600  1
  B  B11  1  0.764886  0.921598  0.474050  1
  B  B12  1  0.245734  0.171548  0.778024  1
  B  B13  1  0.238676  0.673502  0.275063  1
  B  B14  1  0.240220  0.750734  0.698886  1
  B  B15  1  0.248004  0.247832  0.196975  1
  B  B16  1  0.235114  0.078402  0.525950  1
  B  B17  1  0.250046  0.577143  0.025400  1
  P  P18  1  0.500000  0.500000  0.500000  1
  Ir  Ir19  1  0.741952  0.593161  0.668178  1
  Ir  Ir20  1  0.749570  0.092997  0.164891  1
  Ir  Ir21  1  0.751015  0.705267  0.963862  1
  Ir  Ir22  1  0.738339  0.202978  0.462541  1
  Ir  Ir23  1  0.748021  0.202753  0.872341  1
  Ir  Ir24  1  0.740678  0.705530  0.369613  1
  Ir  Ir25  1  0.250430  0.907003  0.835109  1
  Ir  Ir26  1  0.258048  0.406839  0.331822  1
  Ir  Ir27  1  0.261661  0.797022  0.537459  1
  Ir  Ir28  1  0.248985  0.294733  0.036138  1
  Ir  Ir29  1  0.259322  0.294470  0.630387  1
  Ir  Ir30  1  0.251979  0.797247  0.127659  1
