# generated using pymatgen
data_Tm3Lu7(InSb)3
_symmetry_space_group_name_H-M   'P 1'
_cell_length_a   6.38996201
_cell_length_b   8.79867443
_cell_length_c   8.79817301
_cell_angle_alpha   120.02360922
_cell_angle_beta   89.99759575
_cell_angle_gamma   90.00182516
_symmetry_Int_Tables_number   1
_chemical_formula_structural   Tm3Lu7(InSb)3
_chemical_formula_sum   'Tm3 Lu7 In3 Sb3'
_cell_volume   428.28738703
_cell_formula_units_Z   1
loop_
 _symmetry_equiv_pos_site_id
 _symmetry_equiv_pos_as_xyz
  1  'x, y, z'
loop_
 _atom_site_type_symbol
 _atom_site_label
 _atom_site_symmetry_multiplicity
 _atom_site_fract_x
 _atom_site_fract_y
 _atom_site_fract_z
 _atom_site_occupancy
  Tm  Tm0  1  0.750136  0.237452  0.000178  1
  Tm  Tm1  1  0.750025  0.762999  0.762966  1
  Tm  Tm2  1  0.750174  0.000240  0.237533  1
  Lu  Lu3  1  0.496899  0.333596  0.666835  1
  Lu  Lu4  1  0.496917  0.666576  0.333194  1
  Lu  Lu5  1  0.003062  0.666783  0.333239  1
  Lu  Lu6  1  0.003076  0.333337  0.666661  1
  Lu  Lu7  1  0.250021  0.762959  0.999843  1
  Lu  Lu8  1  0.249979  0.236603  0.236738  1
  Lu  Lu9  1  0.250020  0.999756  0.763130  1
  In  In10  1  0.249833  0.393569  0.999953  1
  In  In11  1  0.249766  0.605892  0.605608  1
  In  In12  1  0.250172  0.999963  0.393903  1
  Sb  Sb13  1  0.750040  0.603376  0.999951  1
  Sb  Sb14  1  0.749942  0.396925  0.396903  1
  Sb  Sb15  1  0.749939  0.999976  0.603366  1
