# generated using pymatgen
data_Ho6Co14Mo(P4Rh)3
_symmetry_space_group_name_H-M   'P 1'
_cell_length_a   3.70756900
_cell_length_b   10.64960700
_cell_length_c   12.33986400
_cell_angle_alpha   90.00000000
_cell_angle_beta   90.00000000
_cell_angle_gamma   90.00000000
_symmetry_Int_Tables_number   1
_chemical_formula_structural   Ho6Co14Mo(P4Rh)3
_chemical_formula_sum   'Ho6 Co14 Mo1 P12 Rh3'
_cell_volume   487.22907540
_cell_formula_units_Z   1
loop_
 _symmetry_equiv_pos_site_id
 _symmetry_equiv_pos_as_xyz
  1  'x, y, z'
loop_
 _atom_site_type_symbol
 _atom_site_label
 _atom_site_symmetry_multiplicity
 _atom_site_fract_x
 _atom_site_fract_y
 _atom_site_fract_z
 _atom_site_occupancy
  Ho  Ho0  1  0.000000  0.500000  0.520494  1
  Ho  Ho1  1  0.500000  0.000000  0.479729  1
  Ho  Ho2  1  0.500000  0.814796  0.205577  1
  Ho  Ho3  1  0.500000  0.185204  0.205577  1
  Ho  Ho4  1  0.000000  0.685057  0.796182  1
  Ho  Ho5  1  0.000000  0.314943  0.796182  1
  Co  Co6  1  0.000000  0.500000  0.988356  1
  Co  Co7  1  0.500000  0.000000  0.011823  1
  Co  Co8  1  0.500000  0.298594  0.430874  1
  Co  Co9  1  0.500000  0.701406  0.430874  1
  Co  Co10  1  0.000000  0.200857  0.569310  1
  Co  Co11  1  0.000000  0.799143  0.569310  1
  Co  Co12  1  0.500000  0.879567  0.709136  1
  Co  Co13  1  0.500000  0.120433  0.709136  1
  Co  Co14  1  0.000000  0.620373  0.291455  1
  Co  Co15  1  0.000000  0.379627  0.291455  1
  Co  Co16  1  0.500000  0.332244  0.992628  1
  Co  Co17  1  0.500000  0.667756  0.992628  1
  Co  Co18  1  0.000000  0.168581  0.007574  1
  Co  Co19  1  0.000000  0.831419  0.007574  1
  Mo  Mo20  1  0.500000  0.500000  0.156850  1
  P  P21  1  0.500000  0.302859  0.614016  1
  P  P22  1  0.500000  0.697141  0.614016  1
  P  P23  1  0.000000  0.196924  0.386312  1
  P  P24  1  0.000000  0.803076  0.386312  1
  P  P25  1  0.500000  0.500000  0.888527  1
  P  P26  1  0.000000  0.000000  0.109841  1
  P  P27  1  0.500000  0.845024  0.893874  1
  P  P28  1  0.500000  0.154976  0.893874  1
  P  P29  1  0.000000  0.656016  0.106726  1
  P  P30  1  0.000000  0.343984  0.106726  1
  P  P31  1  0.500000  0.500000  0.348990  1
  P  P32  1  0.000000  0.000000  0.649895  1
  Rh  Rh33  1  0.000000  0.000000  0.839767  1
  Rh  Rh34  1  0.500000  0.500000  0.701749  1
  Rh  Rh35  1  0.000000  0.000000  0.296655  1
