# generated using pymatgen
data_Ac2Zn7Ge
_symmetry_space_group_name_H-M   'P 1'
_cell_length_a   6.17477863
_cell_length_b   6.17477735
_cell_length_c   6.16250200
_cell_angle_alpha   90.00000000
_cell_angle_beta   90.00000000
_cell_angle_gamma   116.83968686
_symmetry_Int_Tables_number   1
_chemical_formula_structural   Ac2Zn7Ge
_chemical_formula_sum   'Ac2 Zn7 Ge1'
_cell_volume   209.65135026
_cell_formula_units_Z   1
loop_
 _symmetry_equiv_pos_site_id
 _symmetry_equiv_pos_as_xyz
  1  'x, y, z'
loop_
 _atom_site_type_symbol
 _atom_site_label
 _atom_site_symmetry_multiplicity
 _atom_site_fract_x
 _atom_site_fract_y
 _atom_site_fract_z
 _atom_site_occupancy
  Ac  Ac0  1  0.266082  0.733918  0.750000  1
  Ac  Ac1  1  0.732688  0.267312  0.250000  1
  Zn  Zn2  1  0.147497  0.852503  0.250000  1
  Zn  Zn3  1  0.603809  0.396191  0.750000  1
  Zn  Zn4  1  0.389154  0.610846  0.250000  1
  Zn  Zn5  1  0.782909  0.777718  0.002845  1
  Zn  Zn6  1  0.782909  0.777718  0.497155  1
  Zn  Zn7  1  0.222282  0.217091  0.002845  1
  Zn  Zn8  1  0.222282  0.217091  0.497155  1
  Ge  Ge9  1  0.850389  0.149611  0.750000  1
