# generated using pymatgen
data_Tb7Lu(AgPd)2
_symmetry_space_group_name_H-M   'P 1'
_cell_length_a   9.54456457
_cell_length_b   9.53987864
_cell_length_c   9.53987900
_cell_angle_alpha   60.02239987
_cell_angle_beta   60.01733649
_cell_angle_gamma   60.01733908
_symmetry_Int_Tables_number   1
_chemical_formula_structural   Tb7Lu(AgPd)2
_chemical_formula_sum   'Tb14 Lu2 Ag4 Pd4'
_cell_volume   614.48898939
_cell_formula_units_Z   2
loop_
 _symmetry_equiv_pos_site_id
 _symmetry_equiv_pos_as_xyz
  1  'x, y, z'
loop_
 _atom_site_type_symbol
 _atom_site_label
 _atom_site_symmetry_multiplicity
 _atom_site_fract_x
 _atom_site_fract_y
 _atom_site_fract_z
 _atom_site_occupancy
  Tb  Tb0  1  0.187621  0.188242  0.812040  1
  Tb  Tb1  1  0.641400  0.077563  0.639972  1
  Tb  Tb2  1  0.065522  0.066612  0.435610  1
  Tb  Tb3  1  0.435630  0.433563  0.064701  1
  Tb  Tb4  1  0.644318  0.641715  0.641715  1
  Tb  Tb5  1  0.812193  0.186983  0.186983  1
  Tb  Tb6  1  0.185185  0.812742  0.812742  1
  Tb  Tb7  1  0.074863  0.641199  0.641199  1
  Tb  Tb8  1  0.436325  0.065964  0.065964  1
  Tb  Tb9  1  0.435630  0.064701  0.433563  1
  Tb  Tb10  1  0.065522  0.435610  0.066612  1
  Tb  Tb11  1  0.641400  0.639972  0.077563  1
  Tb  Tb12  1  0.187621  0.812040  0.188242  1
  Tb  Tb13  1  0.064475  0.433937  0.433937  1
  Lu  Lu14  1  0.811720  0.813295  0.185833  1
  Lu  Lu15  1  0.811720  0.185833  0.813295  1
  Ag  Ag16  1  0.416525  0.416724  0.416724  1
  Ag  Ag17  1  0.417202  0.416437  0.750054  1
  Ag  Ag18  1  0.417202  0.750054  0.416437  1
  Ag  Ag19  1  0.750408  0.417039  0.417039  1
  Pd  Pd20  1  0.853621  0.435302  0.853683  1
  Pd  Pd21  1  0.851957  0.856570  0.856570  1
  Pd  Pd22  1  0.853621  0.853683  0.435302  1
  Pd  Pd23  1  0.438316  0.854219  0.854219  1
