# generated using pymatgen
data_Zr15In(CoIr)4
_symmetry_space_group_name_H-M   'P 1'
_cell_length_a   8.67304003
_cell_length_b   8.66712941
_cell_length_c   8.66712900
_cell_angle_alpha   59.61712183
_cell_angle_beta   59.97744103
_cell_angle_gamma   59.97744154
_symmetry_Int_Tables_number   1
_chemical_formula_structural   Zr15In(CoIr)4
_chemical_formula_sum   'Zr15 In1 Co4 Ir4'
_cell_volume   459.18440207
_cell_formula_units_Z   1
loop_
 _symmetry_equiv_pos_site_id
 _symmetry_equiv_pos_as_xyz
  1  'x, y, z'
loop_
 _atom_site_type_symbol
 _atom_site_label
 _atom_site_symmetry_multiplicity
 _atom_site_fract_x
 _atom_site_fract_y
 _atom_site_fract_z
 _atom_site_occupancy
  Zr  Zr0  1  0.061592  0.646426  0.646426  1
  Zr  Zr1  1  0.644889  0.063071  0.647151  1
  Zr  Zr2  1  0.644889  0.647151  0.063071  1
  Zr  Zr3  1  0.645556  0.646426  0.646426  1
  Zr  Zr4  1  0.798809  0.805890  0.196509  1
  Zr  Zr5  1  0.198790  0.196509  0.805890  1
  Zr  Zr6  1  0.798809  0.196509  0.805890  1
  Zr  Zr7  1  0.198790  0.805890  0.196509  1
  Zr  Zr8  1  0.194314  0.805686  0.805686  1
  Zr  Zr9  1  0.800738  0.199262  0.199262  1
  Zr  Zr10  1  0.434987  0.433264  0.064268  1
  Zr  Zr11  1  0.067480  0.064268  0.433264  1
  Zr  Zr12  1  0.434987  0.064268  0.433264  1
  Zr  Zr13  1  0.067480  0.433264  0.064268  1
  Zr  Zr14  1  0.060448  0.439552  0.439552  1
  In  In15  1  0.438374  0.061626  0.061626  1
  Co  Co16  1  0.425768  0.855311  0.855311  1
  Co  Co17  1  0.859964  0.423787  0.856286  1
  Co  Co18  1  0.859964  0.856286  0.423787  1
  Co  Co19  1  0.863609  0.855311  0.855311  1
  Ir  Ir20  1  0.751951  0.416189  0.416189  1
  Ir  Ir21  1  0.416070  0.743190  0.424668  1
  Ir  Ir22  1  0.416070  0.424668  0.743190  1
  Ir  Ir23  1  0.415669  0.416189  0.416189  1
