# generated using pymatgen
data_SrDy3(Ga2Ag)4
_symmetry_space_group_name_H-M   'P 1'
_cell_length_a   4.40221600
_cell_length_b   7.03799291
_cell_length_c   10.36790065
_cell_angle_alpha   89.06885008
_cell_angle_beta   90.00000000
_cell_angle_gamma   90.00000000
_symmetry_Int_Tables_number   1
_chemical_formula_structural   SrDy3(Ga2Ag)4
_chemical_formula_sum   'Sr1 Dy3 Ga8 Ag4'
_cell_volume   321.18380966
_cell_formula_units_Z   1
loop_
 _symmetry_equiv_pos_site_id
 _symmetry_equiv_pos_as_xyz
  1  'x, y, z'
loop_
 _atom_site_type_symbol
 _atom_site_label
 _atom_site_symmetry_multiplicity
 _atom_site_fract_x
 _atom_site_fract_y
 _atom_site_fract_z
 _atom_site_occupancy
  Sr  Sr0  1  0.250000  0.777128  0.826015  1
  Dy  Dy1  1  0.750000  0.220366  0.172172  1
  Dy  Dy2  1  0.750000  0.721148  0.329046  1
  Dy  Dy3  1  0.250000  0.280531  0.670018  1
  Ga  Ga4  1  0.250000  0.928953  0.158014  1
  Ga  Ga5  1  0.750000  0.082534  0.850506  1
  Ga  Ga6  1  0.750000  0.566537  0.645172  1
  Ga  Ga7  1  0.250000  0.424155  0.344502  1
  Ga  Ga8  1  0.250000  0.696940  0.529850  1
  Ga  Ga9  1  0.750000  0.292919  0.460670  1
  Ga  Ga10  1  0.750000  0.798789  0.042164  1
  Ga  Ga11  1  0.250000  0.210159  0.965536  1
  Ag  Ag12  1  0.250000  0.543047  0.102021  1
  Ag  Ag13  1  0.750000  0.455081  0.905000  1
  Ag  Ag14  1  0.750000  0.958479  0.595686  1
  Ag  Ag15  1  0.250000  0.043234  0.403628  1
