# generated using pymatgen
data_Tl2Cd(SeO3)2
_symmetry_space_group_name_H-M   'P 1'
_cell_length_a   7.16206900
_cell_length_b   9.16233165
_cell_length_c   11.42857800
_cell_angle_alpha   90.00000000
_cell_angle_beta   89.99999200
_cell_angle_gamma   73.49572012
_symmetry_Int_Tables_number   1
_chemical_formula_structural   Tl2Cd(SeO3)2
_chemical_formula_sum   'Tl8 Cd4 Se8 O24'
_cell_volume   719.05822618
_cell_formula_units_Z   4
loop_
 _symmetry_equiv_pos_site_id
 _symmetry_equiv_pos_as_xyz
  1  'x, y, z'
loop_
 _atom_site_type_symbol
 _atom_site_label
 _atom_site_symmetry_multiplicity
 _atom_site_fract_x
 _atom_site_fract_y
 _atom_site_fract_z
 _atom_site_occupancy
  Tl  Tl0  1  0.390735  0.195272  0.500000  1
  Tl  Tl1  1  0.890735  0.695272  0.750000  1
  Tl  Tl2  1  0.390735  0.195272  0.000000  1
  Tl  Tl3  1  0.890735  0.695272  0.250000  1
  Tl  Tl4  1  0.609265  0.804728  0.500000  1
  Tl  Tl5  1  0.109265  0.304728  0.750000  1
  Tl  Tl6  1  0.609265  0.804728  0.000000  1
  Tl  Tl7  1  0.109265  0.304728  0.250000  1
  Cd  Cd8  1  0.000000  0.000000  0.500000  1
  Cd  Cd9  1  0.500000  0.500000  0.750000  1
  Cd  Cd10  1  0.000000  0.000000  0.000000  1
  Cd  Cd11  1  0.500000  0.500000  0.250000  1
  Se  Se12  1  0.253179  0.626512  0.500000  1
  Se  Se13  1  0.753179  0.126512  0.750000  1
  Se  Se14  1  0.253179  0.626512  0.000000  1
  Se  Se15  1  0.753179  0.126512  0.250000  1
  Se  Se16  1  0.746821  0.373488  0.500000  1
  Se  Se17  1  0.246821  0.873488  0.750000  1
  Se  Se18  1  0.746821  0.373488  0.000000  1
  Se  Se19  1  0.246821  0.873488  0.250000  1
  O  O20  1  0.746356  0.490824  0.617619  1
  O  O21  1  0.246356  0.990824  0.867619  1
  O  O22  1  0.746356  0.490824  0.117619  1
  O  O23  1  0.246356  0.990824  0.367619  1
  O  O24  1  0.746356  0.490824  0.382381  1
  O  O25  1  0.246356  0.990824  0.632381  1
  O  O26  1  0.746356  0.490824  0.882381  1
  O  O27  1  0.246356  0.990824  0.132381  1
  O  O28  1  0.981480  0.255563  0.500000  1
  O  O29  1  0.481480  0.755563  0.750000  1
  O  O30  1  0.981480  0.255563  0.000000  1
  O  O31  1  0.481480  0.755563  0.250000  1
  O  O32  1  0.018520  0.744437  0.500000  1
  O  O33  1  0.518520  0.244437  0.750000  1
  O  O34  1  0.018520  0.744437  0.000000  1
  O  O35  1  0.518520  0.244437  0.250000  1
  O  O36  1  0.253644  0.509176  0.382381  1
  O  O37  1  0.753644  0.009176  0.632381  1
  O  O38  1  0.253644  0.509176  0.882381  1
  O  O39  1  0.753644  0.009176  0.132381  1
  O  O40  1  0.253644  0.509176  0.617619  1
  O  O41  1  0.753644  0.009176  0.867619  1
  O  O42  1  0.253644  0.509176  0.117619  1
  O  O43  1  0.753644  0.009176  0.367619  1
