# generated using pymatgen
data_Th8Nb12Si15Sn
_symmetry_space_group_name_H-M   'P 1'
_cell_length_a   7.22511907
_cell_length_b   7.24896258
_cell_length_c   13.47009018
_cell_angle_alpha   89.83716203
_cell_angle_beta   89.84325591
_cell_angle_gamma   89.93138254
_symmetry_Int_Tables_number   1
_chemical_formula_structural   Th8Nb12Si15Sn
_chemical_formula_sum   'Th8 Nb12 Si15 Sn1'
_cell_volume   705.48483693
_cell_formula_units_Z   1
loop_
 _symmetry_equiv_pos_site_id
 _symmetry_equiv_pos_as_xyz
  1  'x, y, z'
loop_
 _atom_site_type_symbol
 _atom_site_label
 _atom_site_symmetry_multiplicity
 _atom_site_fract_x
 _atom_site_fract_y
 _atom_site_fract_z
 _atom_site_occupancy
  Th  Th0  1  0.994845  0.345587  0.219136  1
  Th  Th1  1  0.000515  0.662096  0.717851  1
  Th  Th2  1  0.161889  0.499846  0.469213  1
  Th  Th3  1  0.508839  0.829171  0.026105  1
  Th  Th4  1  0.838018  0.499722  0.966059  1
  Th  Th5  1  0.499144  0.161120  0.533050  1
  Th  Th6  1  0.337776  0.999853  0.781571  1
  Th  Th7  1  0.669683  0.001530  0.284573  1
  Nb  Nb8  1  0.164168  0.172542  0.993397  1
  Nb  Nb9  1  0.832907  0.832162  0.500497  1
  Nb  Nb10  1  0.333255  0.658946  0.251666  1
  Nb  Nb11  1  0.668292  0.331732  0.749291  1
  Nb  Nb12  1  0.156168  0.995115  0.382635  1
  Nb  Nb13  1  0.840179  0.003407  0.873548  1
  Nb  Nb14  1  0.505044  0.659422  0.624838  1
  Nb  Nb15  1  0.339828  0.494365  0.874985  1
  Nb  Nb16  1  0.501828  0.350409  0.123610  1
  Nb  Nb17  1  0.661642  0.505699  0.377105  1
  Nb  Nb18  1  0.995294  0.160570  0.626414  1
  Nb  Nb19  1  0.987717  0.828918  0.120436  1
  Si  Si20  1  0.712753  0.959303  0.686539  1
  Si  Si21  1  0.459995  0.788211  0.436838  1
  Si  Si22  1  0.211856  0.539465  0.063169  1
  Si  Si23  1  0.540191  0.211772  0.936448  1
  Si  Si24  1  0.787811  0.459605  0.564219  1
  Si  Si25  1  0.038989  0.287872  0.811791  1
  Si  Si26  1  0.962495  0.713550  0.314318  1
  Si  Si27  1  0.379082  0.304462  0.317644  1
  Si  Si28  1  0.624418  0.700980  0.812475  1
  Si  Si29  1  0.202508  0.875373  0.565970  1
  Si  Si30  1  0.124521  0.799055  0.935762  1
  Si  Si31  1  0.798673  0.125253  0.063760  1
  Si  Si32  1  0.875442  0.204154  0.438259  1
  Si  Si33  1  0.299257  0.375647  0.686170  1
  Si  Si34  1  0.699537  0.627746  0.187063  1
  Sn  Sn35  1  0.285444  0.035341  0.183594  1
