# generated using pymatgen
data_Ca2Ho2(CuNi)7
_symmetry_space_group_name_H-M   'P 1'
_cell_length_a   4.98312433
_cell_length_b   4.98312615
_cell_length_c   12.44298607
_cell_angle_alpha   78.44910150
_cell_angle_beta   78.44910883
_cell_angle_gamma   60.00000219
_symmetry_Int_Tables_number   1
_chemical_formula_structural   Ca2Ho2(CuNi)7
_chemical_formula_sum   'Ca2 Ho2 Cu7 Ni7'
_cell_volume   260.33240493
_cell_formula_units_Z   1
loop_
 _symmetry_equiv_pos_site_id
 _symmetry_equiv_pos_as_xyz
  1  'x, y, z'
loop_
 _atom_site_type_symbol
 _atom_site_label
 _atom_site_symmetry_multiplicity
 _atom_site_fract_x
 _atom_site_fract_y
 _atom_site_fract_z
 _atom_site_occupancy
  Ca  Ca0  1  0.945122  0.945122  0.164634  1
  Ca  Ca1  1  0.054878  0.054878  0.835366  1
  Ho  Ho2  1  0.852096  0.852096  0.443713  1
  Ho  Ho3  1  0.147904  0.147904  0.556287  1
  Cu  Cu4  1  0.723302  0.723302  0.830094  1
  Cu  Cu5  1  0.276698  0.276698  0.169906  1
  Cu  Cu6  1  0.610038  0.610038  0.169888  1
  Cu  Cu7  1  0.389962  0.389962  0.830112  1
  Cu  Cu8  1  0.000000  0.500000  0.000000  1
  Cu  Cu9  1  0.500000  0.000000  0.000000  1
  Cu  Cu10  1  0.500000  0.500000  0.000000  1
  Ni  Ni11  1  0.500000  0.500000  0.500000  1
  Ni  Ni12  1  0.387029  0.387029  0.335889  1
  Ni  Ni13  1  0.890056  0.387029  0.335889  1
  Ni  Ni14  1  0.387029  0.890056  0.335889  1
  Ni  Ni15  1  0.612971  0.612971  0.664111  1
  Ni  Ni16  1  0.109944  0.612971  0.664111  1
  Ni  Ni17  1  0.612971  0.109944  0.664111  1
