# generated using pymatgen
data_TbDy2B7W
_symmetry_space_group_name_H-M   'P 1'
_cell_length_a   8.17923770
_cell_length_b   8.17923751
_cell_length_c   9.50981800
_cell_angle_alpha   90.00000000
_cell_angle_beta   90.00000000
_cell_angle_gamma   155.55293422
_symmetry_Int_Tables_number   1
_chemical_formula_structural   TbDy2B7W
_chemical_formula_sum   'Tb2 Dy4 B14 W2'
_cell_volume   263.29542015
_cell_formula_units_Z   2
loop_
 _symmetry_equiv_pos_site_id
 _symmetry_equiv_pos_as_xyz
  1  'x, y, z'
loop_
 _atom_site_type_symbol
 _atom_site_label
 _atom_site_symmetry_multiplicity
 _atom_site_fract_x
 _atom_site_fract_y
 _atom_site_fract_z
 _atom_site_occupancy
  Tb  Tb0  1  0.245005  0.754995  0.250000  1
  Tb  Tb1  1  0.754995  0.245005  0.750000  1
  Dy  Dy2  1  0.892823  0.107177  0.439931  1
  Dy  Dy3  1  0.107177  0.892823  0.560069  1
  Dy  Dy4  1  0.892823  0.107177  0.060069  1
  Dy  Dy5  1  0.107177  0.892823  0.939931  1
  B  B6  1  0.727374  0.272626  0.467656  1
  B  B7  1  0.272626  0.727374  0.532344  1
  B  B8  1  0.727374  0.272626  0.032344  1
  B  B9  1  0.272626  0.727374  0.967656  1
  B  B10  1  0.634691  0.365309  0.147169  1
  B  B11  1  0.365309  0.634691  0.852831  1
  B  B12  1  0.634691  0.365309  0.352831  1
  B  B13  1  0.365309  0.634691  0.647169  1
  B  B14  1  0.519692  0.480308  0.091838  1
  B  B15  1  0.480308  0.519692  0.908162  1
  B  B16  1  0.519692  0.480308  0.408162  1
  B  B17  1  0.480308  0.519692  0.591838  1
  B  B18  1  0.455568  0.544432  0.250000  1
  B  B19  1  0.544432  0.455568  0.750000  1
  W  W20  1  0.052957  0.947043  0.250000  1
  W  W21  1  0.947043  0.052957  0.750000  1
