# generated using pymatgen
data_Y3Er2Tm3(CdIr)2
_symmetry_space_group_name_H-M   'P 1'
_cell_length_a   9.58279360
_cell_length_b   9.58279396
_cell_length_c   9.58279300
_cell_angle_alpha   59.99999296
_cell_angle_beta   59.99999170
_cell_angle_gamma   59.99999573
_symmetry_Int_Tables_number   1
_chemical_formula_structural   Y3Er2Tm3(CdIr)2
_chemical_formula_sum   'Y6 Er4 Tm6 Cd4 Ir4'
_cell_volume   622.24487642
_cell_formula_units_Z   2
loop_
 _symmetry_equiv_pos_site_id
 _symmetry_equiv_pos_as_xyz
  1  'x, y, z'
loop_
 _atom_site_type_symbol
 _atom_site_label
 _atom_site_symmetry_multiplicity
 _atom_site_fract_x
 _atom_site_fract_y
 _atom_site_fract_z
 _atom_site_occupancy
  Y  Y0  1  0.189062  0.810938  0.810938  1
  Y  Y1  1  0.810938  0.189062  0.189062  1
  Y  Y2  1  0.810938  0.189062  0.810938  1
  Y  Y3  1  0.189062  0.810938  0.189062  1
  Y  Y4  1  0.810938  0.810938  0.189062  1
  Y  Y5  1  0.189062  0.189062  0.810938  1
  Er  Er6  1  0.598758  0.598758  0.598758  1
  Er  Er7  1  0.598758  0.598758  0.203727  1
  Er  Er8  1  0.598758  0.203727  0.598758  1
  Er  Er9  1  0.203727  0.598758  0.598758  1
  Tm  Tm10  1  0.061709  0.438291  0.438291  1
  Tm  Tm11  1  0.438291  0.061709  0.061709  1
  Tm  Tm12  1  0.438291  0.061709  0.438291  1
  Tm  Tm13  1  0.061709  0.438291  0.061709  1
  Tm  Tm14  1  0.438291  0.438291  0.061709  1
  Tm  Tm15  1  0.061709  0.061709  0.438291  1
  Cd  Cd16  1  0.830507  0.830507  0.830507  1
  Cd  Cd17  1  0.830507  0.830507  0.508481  1
  Cd  Cd18  1  0.830507  0.508481  0.830507  1
  Cd  Cd19  1  0.508481  0.830507  0.830507  1
  Ir  Ir20  1  0.391517  0.391517  0.391517  1
  Ir  Ir21  1  0.391517  0.391517  0.825448  1
  Ir  Ir22  1  0.391517  0.825448  0.391517  1
  Ir  Ir23  1  0.825448  0.391517  0.391517  1
