# generated using pymatgen
data_TbTm5Si24OsRu7
_symmetry_space_group_name_H-M   'P 1'
_cell_length_a   10.10219599
_cell_length_b   10.10174043
_cell_length_c   8.11711873
_cell_angle_alpha   89.95188529
_cell_angle_beta   90.04032345
_cell_angle_gamma   132.61189644
_symmetry_Int_Tables_number   1
_chemical_formula_structural   TbTm5Si24OsRu7
_chemical_formula_sum   'Tb1 Tm5 Si24 Os1 Ru7'
_cell_volume   609.62939045
_cell_formula_units_Z   1
loop_
 _symmetry_equiv_pos_site_id
 _symmetry_equiv_pos_as_xyz
  1  'x, y, z'
loop_
 _atom_site_type_symbol
 _atom_site_label
 _atom_site_symmetry_multiplicity
 _atom_site_fract_x
 _atom_site_fract_y
 _atom_site_fract_z
 _atom_site_occupancy
  Tb  Tb0  1  0.002608  0.502392  0.750423  1
  Tm  Tm1  1  0.500090  0.499894  0.499898  1
  Tm  Tm2  1  0.000050  0.999962  0.000108  1
  Tm  Tm3  1  0.502350  0.002482  0.750190  1
  Tm  Tm4  1  0.997646  0.497756  0.249826  1
  Tm  Tm5  1  0.498160  0.997896  0.249699  1
  Si  Si6  1  0.795420  0.203848  0.499360  1
  Si  Si7  1  0.295633  0.705579  0.000799  1
  Si  Si8  1  0.205475  0.795667  0.499167  1
  Si  Si9  1  0.704573  0.294545  0.000687  1
  Si  Si10  1  0.331987  0.332313  0.833293  1
  Si  Si11  1  0.667713  0.668032  0.166542  1
  Si  Si12  1  0.167312  0.166939  0.332541  1
  Si  Si13  1  0.833008  0.832641  0.667583  1
  Si  Si14  1  0.122079  0.887868  0.729448  1
  Si  Si15  1  0.111748  0.878055  0.271443  1
  Si  Si16  1  0.613181  0.379656  0.226785  1
  Si  Si17  1  0.620674  0.386583  0.772588  1
  Si  Si18  1  0.878493  0.111826  0.270880  1
  Si  Si19  1  0.888024  0.121880  0.729649  1
  Si  Si20  1  0.387548  0.622274  0.771232  1
  Si  Si21  1  0.377808  0.611994  0.227866  1
  Si  Si22  1  0.343348  0.110665  0.504806  1
  Si  Si23  1  0.888601  0.654792  0.494350  1
  Si  Si24  1  0.388085  0.155116  0.003844  1
  Si  Si25  1  0.846314  0.612727  0.996869  1
  Si  Si26  1  0.654765  0.887849  0.494250  1
  Si  Si27  1  0.112803  0.346557  0.504978  1
  Si  Si28  1  0.611859  0.844848  0.995625  1
  Si  Si29  1  0.153529  0.387524  0.005243  1
  Os  Os30  1  0.667616  0.328042  0.498870  1
  Ru  Ru31  1  0.171810  0.832423  0.001517  1
  Ru  Ru32  1  0.332290  0.671958  0.498402  1
  Ru  Ru33  1  0.828102  0.167609  0.001181  1
  Ru  Ru34  1  0.127026  0.127435  0.627268  1
  Ru  Ru35  1  0.872444  0.872555  0.373150  1
  Ru  Ru36  1  0.373800  0.373945  0.127678  1
  Ru  Ru37  1  0.626031  0.625873  0.871964  1
