# generated using pymatgen
data_Rb3Na(SnPb)2
_symmetry_space_group_name_H-M   'P 1'
_cell_length_a   9.21845888
_cell_length_b   9.21845989
_cell_length_c   11.19157500
_cell_angle_alpha   90.00000000
_cell_angle_beta   90.00000000
_cell_angle_gamma   135.26534762
_symmetry_Int_Tables_number   1
_chemical_formula_structural   Rb3Na(SnPb)2
_chemical_formula_sum   'Rb6 Na2 Sn4 Pb4'
_cell_volume   669.37927411
_cell_formula_units_Z   2
loop_
 _symmetry_equiv_pos_site_id
 _symmetry_equiv_pos_as_xyz
  1  'x, y, z'
loop_
 _atom_site_type_symbol
 _atom_site_label
 _atom_site_symmetry_multiplicity
 _atom_site_fract_x
 _atom_site_fract_y
 _atom_site_fract_z
 _atom_site_occupancy
  Rb  Rb0  1  0.228272  0.771728  0.250000  1
  Rb  Rb1  1  0.771728  0.228272  0.750000  1
  Rb  Rb2  1  0.617615  0.382385  0.048974  1
  Rb  Rb3  1  0.382385  0.617615  0.951026  1
  Rb  Rb4  1  0.382385  0.617615  0.548974  1
  Rb  Rb5  1  0.617615  0.382385  0.451026  1
  Na  Na6  1  0.000000  0.000000  0.000000  1
  Na  Na7  1  0.000000  0.000000  0.500000  1
  Sn  Sn8  1  0.830194  0.169806  0.118656  1
  Sn  Sn9  1  0.169806  0.830194  0.881344  1
  Sn  Sn10  1  0.169806  0.830194  0.618656  1
  Sn  Sn11  1  0.830194  0.169806  0.381344  1
  Pb  Pb12  1  0.197109  0.288445  0.250000  1
  Pb  Pb13  1  0.802891  0.711555  0.750000  1
  Pb  Pb14  1  0.711555  0.802891  0.250000  1
  Pb  Pb15  1  0.288445  0.197109  0.750000  1
