# generated using pymatgen
data_Nd4Ga9Cu6Si
_symmetry_space_group_name_H-M   'P 1'
_cell_length_a   5.95711160
_cell_length_b   8.41597793
_cell_length_c   8.41524259
_cell_angle_alpha   74.72421748
_cell_angle_beta   69.44088535
_cell_angle_gamma   69.41437932
_symmetry_Int_Tables_number   1
_chemical_formula_structural   Nd4Ga9Cu6Si
_chemical_formula_sum   'Nd4 Ga9 Cu6 Si1'
_cell_volume   365.05682627
_cell_formula_units_Z   1
loop_
 _symmetry_equiv_pos_site_id
 _symmetry_equiv_pos_as_xyz
  1  'x, y, z'
loop_
 _atom_site_type_symbol
 _atom_site_label
 _atom_site_symmetry_multiplicity
 _atom_site_fract_x
 _atom_site_fract_y
 _atom_site_fract_z
 _atom_site_occupancy
  Nd  Nd0  1  0.627333  0.107397  0.635570  1
  Nd  Nd1  1  0.370537  0.892908  0.363922  1
  Nd  Nd2  1  0.129624  0.636143  0.106978  1
  Nd  Nd3  1  0.872725  0.364549  0.892461  1
  Ga  Ga4  1  0.485145  0.264400  0.265511  1
  Ga  Ga5  1  0.519693  0.731005  0.730105  1
  Ga  Ga6  1  0.014883  0.734530  0.735779  1
  Ga  Ga7  1  0.980507  0.269706  0.268809  1
  Ga  Ga8  1  0.892237  0.761087  0.457384  1
  Ga  Ga9  1  0.109711  0.238115  0.542928  1
  Ga  Ga10  1  0.390162  0.457156  0.761531  1
  Ga  Ga11  1  0.608275  0.542711  0.238695  1
  Ga  Ga12  1  0.749965  0.001558  0.998478  1
  Cu  Cu13  1  0.878636  0.017129  0.240253  1
  Cu  Cu14  1  0.138493  0.982394  0.759577  1
  Cu  Cu15  1  0.361713  0.241046  0.017496  1
  Cu  Cu16  1  0.621145  0.759958  0.982472  1
  Cu  Cu17  1  0.749284  0.499126  0.501370  1
  Cu  Cu18  1  0.250114  0.499638  0.499601  1
  Si  Si19  1  0.249818  0.999446  0.001080  1
