# generated using pymatgen
data_Yb2LuAl3AgGe2
_symmetry_space_group_name_H-M   'P 1'
_cell_length_a   7.02688758
_cell_length_b   7.02688761
_cell_length_c   4.33420700
_cell_angle_alpha   90.00000000
_cell_angle_beta   90.00000000
_cell_angle_gamma   120.61123832
_symmetry_Int_Tables_number   1
_chemical_formula_structural   Yb2LuAl3AgGe2
_chemical_formula_sum   'Yb2 Lu1 Al3 Ag1 Ge2'
_cell_volume   184.18670599
_cell_formula_units_Z   1
loop_
 _symmetry_equiv_pos_site_id
 _symmetry_equiv_pos_as_xyz
  1  'x, y, z'
loop_
 _atom_site_type_symbol
 _atom_site_label
 _atom_site_symmetry_multiplicity
 _atom_site_fract_x
 _atom_site_fract_y
 _atom_site_fract_z
 _atom_site_occupancy
  Yb  Yb0  1  0.423249  0.999715  0.000000  1
  Yb  Yb1  1  0.999715  0.423250  0.000000  1
  Lu  Lu2  1  0.579248  0.579249  0.000000  1
  Al  Al3  1  0.757572  0.987471  0.500000  1
  Al  Al4  1  0.245821  0.245821  0.500000  1
  Al  Al5  1  0.987471  0.757572  0.500000  1
  Ag  Ag6  1  0.002689  0.002689  0.000000  1
  Ge  Ge7  1  0.664943  0.339288  0.500000  1
  Ge  Ge8  1  0.339288  0.664943  0.500000  1
