# generated using pymatgen
data_Hg2(P2Pd7)3
_symmetry_space_group_name_H-M   'P 1'
_cell_length_a   8.60079032
_cell_length_b   8.60078971
_cell_length_c   8.60079000
_cell_angle_alpha   59.99999890
_cell_angle_beta   60.00000122
_cell_angle_gamma   59.99999405
_symmetry_Int_Tables_number   1
_chemical_formula_structural   Hg2(P2Pd7)3
_chemical_formula_sum   'Hg2 P6 Pd21'
_cell_volume   449.88344949
_cell_formula_units_Z   1
loop_
 _symmetry_equiv_pos_site_id
 _symmetry_equiv_pos_as_xyz
  1  'x, y, z'
loop_
 _atom_site_type_symbol
 _atom_site_label
 _atom_site_symmetry_multiplicity
 _atom_site_fract_x
 _atom_site_fract_y
 _atom_site_fract_z
 _atom_site_occupancy
  Hg  Hg0  1  0.250000  0.250000  0.250000  1
  Hg  Hg1  1  0.750000  0.750000  0.750000  1
  P  P2  1  0.734501  0.734501  0.265499  1
  P  P3  1  0.265499  0.265499  0.734501  1
  P  P4  1  0.265499  0.734501  0.734501  1
  P  P5  1  0.734501  0.265499  0.734501  1
  P  P6  1  0.265499  0.734501  0.265499  1
  P  P7  1  0.734501  0.265499  0.265499  1
  Pd  Pd8  1  0.000000  0.000000  0.000000  1
  Pd  Pd9  1  0.616202  0.616202  0.616202  1
  Pd  Pd10  1  0.383798  0.848603  0.383798  1
  Pd  Pd11  1  0.658561  0.341439  0.000000  1
  Pd  Pd12  1  0.000000  0.341439  0.658561  1
  Pd  Pd13  1  0.658561  0.000000  0.000000  1
  Pd  Pd14  1  0.616202  0.616202  0.151397  1
  Pd  Pd15  1  0.000000  0.000000  0.658561  1
  Pd  Pd16  1  0.000000  0.341439  0.000000  1
  Pd  Pd17  1  0.658561  0.000000  0.341439  1
  Pd  Pd18  1  0.341439  0.000000  0.000000  1
  Pd  Pd19  1  0.000000  0.658561  0.000000  1
  Pd  Pd20  1  0.341439  0.000000  0.658561  1
  Pd  Pd21  1  0.000000  0.658561  0.341439  1
  Pd  Pd22  1  0.341439  0.658561  0.000000  1
  Pd  Pd23  1  0.151397  0.616202  0.616202  1
  Pd  Pd24  1  0.383798  0.383798  0.383798  1
  Pd  Pd25  1  0.848603  0.383798  0.383798  1
  Pd  Pd26  1  0.383798  0.383798  0.848603  1
  Pd  Pd27  1  0.616202  0.151397  0.616202  1
  Pd  Pd28  1  0.000000  0.000000  0.341439  1
