# generated using pymatgen
data_Y3In3Ag2Au
_symmetry_space_group_name_H-M   'P 1'
_cell_length_a   7.83130867
_cell_length_b   7.83251548
_cell_length_c   3.99274700
_cell_angle_alpha   90.00000000
_cell_angle_beta   90.00000000
_cell_angle_gamma   120.10587680
_symmetry_Int_Tables_number   1
_chemical_formula_structural   Y3In3Ag2Au
_chemical_formula_sum   'Y3 In3 Ag2 Au1'
_cell_volume   211.87206353
_cell_formula_units_Z   1
loop_
 _symmetry_equiv_pos_site_id
 _symmetry_equiv_pos_as_xyz
  1  'x, y, z'
loop_
 _atom_site_type_symbol
 _atom_site_label
 _atom_site_symmetry_multiplicity
 _atom_site_fract_x
 _atom_site_fract_y
 _atom_site_fract_z
 _atom_site_occupancy
  Y  Y0  1  0.005217  0.596638  0.500000  1
  Y  Y1  1  0.591011  0.994081  0.500000  1
  Y  Y2  1  0.403691  0.409248  0.500000  1
  In  In3  1  0.996252  0.257817  0.000000  1
  In  In4  1  0.261231  0.003182  0.000000  1
  In  In5  1  0.742184  0.738652  0.000000  1
  Ag  Ag6  1  0.000161  0.000179  0.500000  1
  Ag  Ag7  1  0.666773  0.333394  0.000000  1
  Au  Au8  1  0.333479  0.666809  0.000000  1
