# generated using pymatgen
data_Pr4Ga10CoPt5
_symmetry_space_group_name_H-M   'P 1'
_cell_length_a   8.66505193
_cell_length_b   8.66505132
_cell_length_c   8.66505000
_cell_angle_alpha   139.49951418
_cell_angle_beta   106.46361379
_cell_angle_gamma   87.48924266
_symmetry_Int_Tables_number   1
_chemical_formula_structural   Pr4Ga10CoPt5
_chemical_formula_sum   'Pr4 Ga10 Co1 Pt5'
_cell_volume   389.50939138
_cell_formula_units_Z   1
loop_
 _symmetry_equiv_pos_site_id
 _symmetry_equiv_pos_as_xyz
  1  'x, y, z'
loop_
 _atom_site_type_symbol
 _atom_site_label
 _atom_site_symmetry_multiplicity
 _atom_site_fract_x
 _atom_site_fract_y
 _atom_site_fract_z
 _atom_site_occupancy
  Pr  Pr0  1  0.863519  0.628260  0.221745  1
  Pr  Pr1  1  0.136481  0.358227  0.764742  1
  Pr  Pr2  1  0.406515  0.141773  0.278255  1
  Pr  Pr3  1  0.593485  0.871740  0.735258  1
  Ga  Ga4  1  0.500000  0.750000  0.250000  1
  Ga  Ga5  1  0.500000  0.250000  0.750000  1
  Ga  Ga6  1  0.214067  0.964067  0.750000  1
  Ga  Ga7  1  0.785933  0.535933  0.750000  1
  Ga  Ga8  1  0.784018  0.034018  0.250000  1
  Ga  Ga9  1  0.215982  0.465982  0.250000  1
  Ga  Ga10  1  0.059934  0.888582  0.138307  1
  Ga  Ga11  1  0.940066  0.078374  0.828648  1
  Ga  Ga12  1  0.750274  0.421626  0.361693  1
  Ga  Ga13  1  0.249726  0.611418  0.671352  1
  Co  Co14  1  0.000000  0.750000  0.750000  1
  Pt  Pt15  1  0.000000  0.250000  0.250000  1
  Pt  Pt16  1  0.249775  0.857245  0.392069  1
  Pt  Pt17  1  0.750225  0.142292  0.607468  1
  Pt  Pt18  1  0.465176  0.357708  0.107931  1
  Pt  Pt19  1  0.534824  0.642755  0.892532  1
