# generated using pymatgen
data_La2Dy10Lu8Si15Os
_symmetry_space_group_name_H-M   'P 1'
_cell_length_a   7.34823032
_cell_length_b   7.73508748
_cell_length_c   14.50462908
_cell_angle_alpha   89.76061955
_cell_angle_beta   90.02978498
_cell_angle_gamma   89.98083060
_symmetry_Int_Tables_number   1
_chemical_formula_structural   La2Dy10Lu8Si15Os
_chemical_formula_sum   'La2 Dy10 Lu8 Si15 Os1'
_cell_volume   824.42422323
_cell_formula_units_Z   1
loop_
 _symmetry_equiv_pos_site_id
 _symmetry_equiv_pos_as_xyz
  1  'x, y, z'
loop_
 _atom_site_type_symbol
 _atom_site_label
 _atom_site_symmetry_multiplicity
 _atom_site_fract_x
 _atom_site_fract_y
 _atom_site_fract_z
 _atom_site_occupancy
  La  La0  1  0.516614  0.571118  0.342530  1
  La  La1  1  0.018447  0.425217  0.658642  1
  Dy  Dy2  1  0.650080  0.242858  0.999795  1
  Dy  Dy3  1  0.164470  0.759507  0.000259  1
  Dy  Dy4  1  0.343216  0.262202  0.499815  1
  Dy  Dy5  1  0.843097  0.735058  0.499600  1
  Dy  Dy6  1  0.484965  0.923218  0.847542  1
  Dy  Dy7  1  0.981551  0.070433  0.152507  1
  Dy  Dy8  1  0.483412  0.923367  0.152138  1
  Dy  Dy9  1  0.980154  0.070977  0.848417  1
  Dy  Dy10  1  0.521001  0.566559  0.653394  1
  Dy  Dy11  1  0.017419  0.428831  0.344711  1
  Lu  Lu12  1  0.808947  0.578048  0.877772  1
  Lu  Lu13  1  0.331595  0.433529  0.122632  1
  Lu  Lu14  1  0.178610  0.926687  0.373563  1
  Lu  Lu15  1  0.678096  0.069373  0.626318  1
  Lu  Lu16  1  0.177989  0.926002  0.627524  1
  Lu  Lu17  1  0.676535  0.069648  0.372565  1
  Lu  Lu18  1  0.811916  0.575726  0.122520  1
  Lu  Lu19  1  0.334317  0.437537  0.876564  1
  Si  Si20  1  0.025753  0.356944  0.999569  1
  Si  Si21  1  0.469945  0.865723  0.501521  1
  Si  Si22  1  0.971818  0.131960  0.498789  1
  Si  Si23  1  0.656299  0.275931  0.788326  1
  Si  Si24  1  0.149657  0.719757  0.210870  1
  Si  Si25  1  0.345263  0.212313  0.285259  1
  Si  Si26  1  0.845961  0.786567  0.713607  1
  Si  Si27  1  0.356188  0.214858  0.713705  1
  Si  Si28  1  0.853758  0.783747  0.287120  1
  Si  Si29  1  0.656299  0.270756  0.210025  1
  Si  Si30  1  0.147721  0.726042  0.790965  1
  Si  Si31  1  0.774384  0.882262  0.000110  1
  Si  Si32  1  0.264897  0.128398  0.999988  1
  Si  Si33  1  0.225863  0.627783  0.502328  1
  Si  Si34  1  0.727242  0.370610  0.498885  1
  Os  Os35  1  0.526520  0.650451  0.000121  1
