# generated using pymatgen
data_Dy3Y17(Cd3Ir)2
_symmetry_space_group_name_H-M   'P 1'
_cell_length_a   9.68235100
_cell_length_b   9.68233882
_cell_length_c   9.85584000
_cell_angle_alpha   89.99990402
_cell_angle_beta   90.00017596
_cell_angle_gamma   120.00006371
_symmetry_Int_Tables_number   1
_chemical_formula_structural   Dy3Y17(Cd3Ir)2
_chemical_formula_sum   'Dy3 Y17 Cd6 Ir2'
_cell_volume   800.17521606
_cell_formula_units_Z   1
loop_
 _symmetry_equiv_pos_site_id
 _symmetry_equiv_pos_as_xyz
  1  'x, y, z'
loop_
 _atom_site_type_symbol
 _atom_site_label
 _atom_site_symmetry_multiplicity
 _atom_site_fract_x
 _atom_site_fract_y
 _atom_site_fract_z
 _atom_site_occupancy
  Dy  Dy0  1  0.209908  0.790092  0.439903  1
  Dy  Dy1  1  0.209907  0.419816  0.439902  1
  Dy  Dy2  1  0.580183  0.790092  0.439903  1
  Y  Y3  1  0.000000  0.000000  0.499565  1
  Y  Y4  1  0.000000  0.000000  0.000259  1
  Y  Y5  1  0.541391  0.458609  0.250454  1
  Y  Y6  1  0.541393  0.082785  0.250456  1
  Y  Y7  1  0.917218  0.458609  0.250454  1
  Y  Y8  1  0.458397  0.541604  0.749519  1
  Y  Y9  1  0.458395  0.916791  0.749519  1
  Y  Y10  1  0.083207  0.541603  0.749519  1
  Y  Y11  1  0.790656  0.209345  0.559845  1
  Y  Y12  1  0.790657  0.581312  0.559845  1
  Y  Y13  1  0.418688  0.209345  0.559847  1
  Y  Y14  1  0.790494  0.209507  0.939991  1
  Y  Y15  1  0.790493  0.580987  0.939991  1
  Y  Y16  1  0.419013  0.209506  0.939992  1
  Y  Y17  1  0.209459  0.790540  0.059954  1
  Y  Y18  1  0.209460  0.418919  0.059955  1
  Y  Y19  1  0.581080  0.790540  0.059954  1
  Cd  Cd20  1  0.884680  0.115321  0.249854  1
  Cd  Cd21  1  0.884679  0.769359  0.249854  1
  Cd  Cd22  1  0.230641  0.115321  0.249854  1
  Cd  Cd23  1  0.115293  0.884707  0.750184  1
  Cd  Cd24  1  0.115293  0.230586  0.750183  1
  Cd  Cd25  1  0.769414  0.884707  0.750184  1
  Ir  Ir26  1  0.333334  0.666666  0.251410  1
  Ir  Ir27  1  0.666667  0.333333  0.749652  1
