# generated using pymatgen
data_Nd4Al13Ga5Ir5Pt
_symmetry_space_group_name_H-M   'P 1'
_cell_length_a   7.60671921
_cell_length_b   7.60555946
_cell_length_c   9.68340101
_cell_angle_alpha   90.00446404
_cell_angle_beta   90.00135564
_cell_angle_gamma   119.56783104
_symmetry_Int_Tables_number   1
_chemical_formula_structural   Nd4Al13Ga5Ir5Pt
_chemical_formula_sum   'Nd4 Al13 Ga5 Ir5 Pt1'
_cell_volume   487.26133194
_cell_formula_units_Z   1
loop_
 _symmetry_equiv_pos_site_id
 _symmetry_equiv_pos_as_xyz
  1  'x, y, z'
loop_
 _atom_site_type_symbol
 _atom_site_label
 _atom_site_symmetry_multiplicity
 _atom_site_fract_x
 _atom_site_fract_y
 _atom_site_fract_z
 _atom_site_occupancy
  Nd  Nd0  1  0.994579  0.668824  0.250268  1
  Nd  Nd1  1  0.000477  0.327311  0.749917  1
  Nd  Nd2  1  0.669165  0.996345  0.250134  1
  Nd  Nd3  1  0.331339  0.006768  0.749780  1
  Al  Al4  1  0.006683  0.334850  0.073361  1
  Al  Al5  1  0.001991  0.668972  0.926488  1
  Al  Al6  1  0.999304  0.665448  0.571697  1
  Al  Al7  1  0.334770  0.002381  0.429104  1
  Al  Al8  1  0.002960  0.334443  0.428489  1
  Al  Al9  1  0.664893  0.997171  0.572157  1
  Al  Al10  1  0.664754  0.993470  0.926002  1
  Al  Al11  1  0.331287  0.999787  0.072723  1
  Al  Al12  1  0.333983  0.334652  0.552878  1
  Al  Al13  1  0.665980  0.665851  0.451791  1
  Al  Al14  1  0.665226  0.667714  0.050707  1
  Al  Al15  1  0.331978  0.335182  0.944582  1
  Al  Al16  1  0.451160  0.659831  0.749673  1
  Ga  Ga17  1  0.129243  0.128802  0.250313  1
  Ga  Ga18  1  0.869734  0.868323  0.749729  1
  Ga  Ga19  1  0.340050  0.546797  0.250271  1
  Ga  Ga20  1  0.660392  0.457563  0.747131  1
  Ga  Ga21  1  0.544000  0.340507  0.252753  1
  Ir  Ir22  1  0.330672  0.670648  0.997994  1
  Ir  Ir23  1  0.330721  0.670680  0.502021  1
  Ir  Ir24  1  0.671790  0.328910  0.499722  1
  Ir  Ir25  1  0.000352  0.000170  0.000137  1
  Ir  Ir26  1  0.000551  0.000038  0.499911  1
  Pt  Pt27  1  0.671968  0.328560  0.000265  1
