# generated using pymatgen
data_Ho3Er5Cd2IrPt
_symmetry_space_group_name_H-M   'P 1'
_cell_length_a   9.58541743
_cell_length_b   9.58541842
_cell_length_c   9.56880900
_cell_angle_alpha   60.05730680
_cell_angle_beta   60.05730341
_cell_angle_gamma   60.17973890
_symmetry_Int_Tables_number   1
_chemical_formula_structural   Ho3Er5Cd2IrPt
_chemical_formula_sum   'Ho6 Er10 Cd4 Ir2 Pt2'
_cell_volume   623.05747458
_cell_formula_units_Z   2
loop_
 _symmetry_equiv_pos_site_id
 _symmetry_equiv_pos_as_xyz
  1  'x, y, z'
loop_
 _atom_site_type_symbol
 _atom_site_label
 _atom_site_symmetry_multiplicity
 _atom_site_fract_x
 _atom_site_fract_y
 _atom_site_fract_z
 _atom_site_occupancy
  Ho  Ho0  1  0.187244  0.814921  0.811872  1
  Ho  Ho1  1  0.814921  0.187244  0.185963  1
  Ho  Ho2  1  0.814921  0.187244  0.811872  1
  Ho  Ho3  1  0.187244  0.814921  0.185963  1
  Ho  Ho4  1  0.813872  0.813872  0.186128  1
  Ho  Ho5  1  0.186890  0.186890  0.813110  1
  Er  Er6  1  0.600562  0.600562  0.596078  1
  Er  Er7  1  0.600562  0.600562  0.202798  1
  Er  Er8  1  0.605910  0.194397  0.599847  1
  Er  Er9  1  0.194397  0.605910  0.599847  1
  Er  Er10  1  0.057139  0.439769  0.440299  1
  Er  Er11  1  0.439769  0.057139  0.062793  1
  Er  Er12  1  0.439769  0.057139  0.440299  1
  Er  Er13  1  0.057139  0.439769  0.062793  1
  Er  Er14  1  0.440814  0.440814  0.059186  1
  Er  Er15  1  0.061450  0.061450  0.438550  1
  Cd  Cd16  1  0.831259  0.831259  0.831909  1
  Cd  Cd17  1  0.831259  0.831259  0.505573  1
  Cd  Cd18  1  0.830604  0.505822  0.831787  1
  Cd  Cd19  1  0.505822  0.830604  0.831787  1
  Ir  Ir20  1  0.390777  0.823744  0.392740  1
  Ir  Ir21  1  0.823744  0.390777  0.392740  1
  Pt  Pt22  1  0.391967  0.391967  0.394659  1
  Pt  Pt23  1  0.391967  0.391967  0.821407  1
