# generated using pymatgen
data_Y8In2PdRu
_symmetry_space_group_name_H-M   'P 1'
_cell_length_a   9.69826754
_cell_length_b   9.72366736
_cell_length_c   9.72374947
_cell_angle_alpha   60.29511261
_cell_angle_beta   60.08660562
_cell_angle_gamma   60.08631270
_symmetry_Int_Tables_number   1
_chemical_formula_structural   Y8In2PdRu
_chemical_formula_sum   'Y16 In4 Pd2 Ru2'
_cell_volume   650.68549985
_cell_formula_units_Z   2
loop_
 _symmetry_equiv_pos_site_id
 _symmetry_equiv_pos_as_xyz
  1  'x, y, z'
loop_
 _atom_site_type_symbol
 _atom_site_label
 _atom_site_symmetry_multiplicity
 _atom_site_fract_x
 _atom_site_fract_y
 _atom_site_fract_z
 _atom_site_occupancy
  Y  Y0  1  0.444206  0.434324  0.059276  1
  Y  Y1  1  0.650161  0.640615  0.059062  1
  Y  Y2  1  0.183589  0.808393  0.197012  1
  Y  Y3  1  0.062194  0.434324  0.059276  1
  Y  Y4  1  0.191500  0.808498  0.808502  1
  Y  Y5  1  0.063204  0.436792  0.436804  1
  Y  Y6  1  0.810727  0.189233  0.189312  1
  Y  Y7  1  0.657035  0.648196  0.648125  1
  Y  Y8  1  0.811002  0.196978  0.808379  1
  Y  Y9  1  0.183641  0.196978  0.808381  1
  Y  Y10  1  0.046647  0.648196  0.648125  1
  Y  Y11  1  0.438005  0.061998  0.061995  1
  Y  Y12  1  0.062198  0.059280  0.434330  1
  Y  Y13  1  0.650197  0.059022  0.640585  1
  Y  Y14  1  0.811005  0.808393  0.197011  1
  Y  Y15  1  0.444196  0.059279  0.434328  1
  In  In16  1  0.415171  0.417332  0.417339  1
  In  In17  1  0.416258  0.418644  0.748840  1
  In  In18  1  0.416254  0.748839  0.418651  1
  In  In19  1  0.750155  0.417332  0.417340  1
  Pd  Pd20  1  0.429115  0.858997  0.858995  1
  Pd  Pd21  1  0.852892  0.858997  0.858996  1
  Ru  Ru22  1  0.855333  0.426590  0.862746  1
  Ru  Ru23  1  0.855317  0.862771  0.426594  1
