# generated using pymatgen
data_Ca2TmNi7B2
_symmetry_space_group_name_H-M   'P 1'
_cell_length_a   7.76413030
_cell_length_b   7.76413038
_cell_length_c   7.76412924
_cell_angle_alpha   38.13279374
_cell_angle_beta   38.13279209
_cell_angle_gamma   38.13279361
_symmetry_Int_Tables_number   1
_chemical_formula_structural   Ca2TmNi7B2
_chemical_formula_sum   'Ca2 Tm1 Ni7 B2'
_cell_volume   160.22993892
_cell_formula_units_Z   1
loop_
 _symmetry_equiv_pos_site_id
 _symmetry_equiv_pos_as_xyz
  1  'x, y, z'
loop_
 _atom_site_type_symbol
 _atom_site_label
 _atom_site_symmetry_multiplicity
 _atom_site_fract_x
 _atom_site_fract_y
 _atom_site_fract_z
 _atom_site_occupancy
  Ca  Ca0  1  0.645948  0.645948  0.645948  1
  Ca  Ca1  1  0.354052  0.354052  0.354052  1
  Tm  Tm2  1  0.500000  0.500000  0.500000  1
  Ni  Ni3  1  0.571356  0.061937  0.061937  1
  Ni  Ni4  1  0.061937  0.061937  0.571356  1
  Ni  Ni5  1  0.061937  0.571356  0.061937  1
  Ni  Ni6  1  0.938063  0.428644  0.938063  1
  Ni  Ni7  1  0.938063  0.938063  0.428644  1
  Ni  Ni8  1  0.428644  0.938063  0.938063  1
  Ni  Ni9  1  0.000000  0.000000  0.000000  1
  B  B10  1  0.831044  0.831044  0.831044  1
  B  B11  1  0.168956  0.168956  0.168956  1
