# generated using pymatgen
data_CaLa(GaNi4)2
_symmetry_space_group_name_H-M   'P 1'
_cell_length_a   4.01534000
_cell_length_b   5.08057300
_cell_length_c   8.58661300
_cell_angle_alpha   90.00000000
_cell_angle_beta   90.00000000
_cell_angle_gamma   90.00000000
_symmetry_Int_Tables_number   1
_chemical_formula_structural   CaLa(GaNi4)2
_chemical_formula_sum   'Ca1 La1 Ga2 Ni8'
_cell_volume   175.16886286
_cell_formula_units_Z   1
loop_
 _symmetry_equiv_pos_site_id
 _symmetry_equiv_pos_as_xyz
  1  'x, y, z'
loop_
 _atom_site_type_symbol
 _atom_site_label
 _atom_site_symmetry_multiplicity
 _atom_site_fract_x
 _atom_site_fract_y
 _atom_site_fract_z
 _atom_site_occupancy
  Ca  Ca0  1  0.000000  0.500000  0.500000  1
  La  La1  1  0.000000  0.000000  0.000000  1
  Ga  Ga2  1  0.500000  0.500000  0.000000  1
  Ga  Ga3  1  0.500000  0.000000  0.500000  1
  Ni  Ni4  1  0.000000  0.000000  0.330391  1
  Ni  Ni5  1  0.000000  0.500000  0.827731  1
  Ni  Ni6  1  0.000000  0.500000  0.172269  1
  Ni  Ni7  1  0.000000  0.000000  0.669609  1
  Ni  Ni8  1  0.500000  0.250996  0.250558  1
  Ni  Ni9  1  0.500000  0.749004  0.749442  1
  Ni  Ni10  1  0.500000  0.749004  0.250558  1
  Ni  Ni11  1  0.500000  0.250996  0.749442  1
