# generated using pymatgen
data_Cs2Zr3(CuSe4)2
_symmetry_space_group_name_H-M   'P 1'
_cell_length_a   3.91018813
_cell_length_b   8.46320749
_cell_length_c   13.51517458
_cell_angle_alpha   93.15640153
_cell_angle_beta   98.47730000
_cell_angle_gamma   103.32301981
_symmetry_Int_Tables_number   1
_chemical_formula_structural   Cs2Zr3(CuSe4)2
_chemical_formula_sum   'Cs2 Zr3 Cu2 Se8'
_cell_volume   428.61604777
_cell_formula_units_Z   1
loop_
 _symmetry_equiv_pos_site_id
 _symmetry_equiv_pos_as_xyz
  1  'x, y, z'
loop_
 _atom_site_type_symbol
 _atom_site_label
 _atom_site_symmetry_multiplicity
 _atom_site_fract_x
 _atom_site_fract_y
 _atom_site_fract_z
 _atom_site_occupancy
  Cs  Cs0  1  0.869239  0.539422  0.199174  1
  Cs  Cs1  1  0.130761  0.460578  0.800825  1
  Zr  Zr2  1  0.500000  0.000000  0.000000  1
  Zr  Zr3  1  0.713502  0.059919  0.378398  1
  Zr  Zr4  1  0.286497  0.940081  0.621601  1
  Cu  Cu5  1  0.147268  0.092570  0.196354  1
  Cu  Cu6  1  0.852731  0.907431  0.803645  1
  Se  Se7  1  0.138093  0.228186  0.042637  1
  Se  Se8  1  0.554322  0.906626  0.190424  1
  Se  Se9  1  0.310785  0.278333  0.348440  1
  Se  Se10  1  0.127342  0.842516  0.422140  1
  Se  Se11  1  0.872658  0.157485  0.577859  1
  Se  Se12  1  0.689216  0.721668  0.651561  1
  Se  Se13  1  0.445678  0.093374  0.809576  1
  Se  Se14  1  0.861906  0.771813  0.957362  1
