# generated using pymatgen
data_Cs3AuSe13
_symmetry_space_group_name_H-M   'P 1'
_cell_length_a   5.77945400
_cell_length_b   14.13111621
_cell_length_c   15.90324982
_cell_angle_alpha   86.52162760
_cell_angle_beta   90.00000000
_cell_angle_gamma   90.00000000
_symmetry_Int_Tables_number   1
_chemical_formula_structural   Cs3AuSe13
_chemical_formula_sum   'Cs6 Au2 Se26'
_cell_volume   1296.42785222
_cell_formula_units_Z   2
loop_
 _symmetry_equiv_pos_site_id
 _symmetry_equiv_pos_as_xyz
  1  'x, y, z'
loop_
 _atom_site_type_symbol
 _atom_site_label
 _atom_site_symmetry_multiplicity
 _atom_site_fract_x
 _atom_site_fract_y
 _atom_site_fract_z
 _atom_site_occupancy
  Cs  Cs0  1  0.229277  0.159200  0.713406  1
  Cs  Cs1  1  0.229277  0.340800  0.286594  1
  Cs  Cs2  1  0.178682  0.250000  0.000000  1
  Cs  Cs3  1  0.821318  0.750000  0.000000  1
  Cs  Cs4  1  0.770723  0.840800  0.286594  1
  Cs  Cs5  1  0.770723  0.659200  0.713406  1
  Au  Au6  1  0.000000  0.500000  0.500000  1
  Au  Au7  1  0.000000  0.000000  0.500000  1
  Se  Se8  1  0.277092  0.548183  0.613053  1
  Se  Se9  1  0.662283  0.571531  0.278227  1
  Se  Se10  1  0.337717  0.071531  0.278227  1
  Se  Se11  1  0.337717  0.428469  0.721773  1
  Se  Se12  1  0.900707  0.531604  0.161085  1
  Se  Se13  1  0.900707  0.968396  0.838915  1
  Se  Se14  1  0.099293  0.468396  0.838915  1
  Se  Se15  1  0.099293  0.031604  0.161085  1
  Se  Se16  1  0.689713  0.418623  0.085105  1
  Se  Se17  1  0.662283  0.928469  0.721773  1
  Se  Se18  1  0.310287  0.581377  0.914895  1
  Se  Se19  1  0.310287  0.918623  0.085105  1
  Se  Se20  1  0.711837  0.266437  0.153142  1
  Se  Se21  1  0.711837  0.233563  0.846858  1
  Se  Se22  1  0.288163  0.733563  0.846858  1
  Se  Se23  1  0.288163  0.766437  0.153142  1
  Se  Se24  1  0.083342  0.654609  0.418028  1
  Se  Se25  1  0.083342  0.845391  0.581972  1
  Se  Se26  1  0.916658  0.345391  0.581972  1
  Se  Se27  1  0.916658  0.154609  0.418028  1
  Se  Se28  1  0.676216  0.250000  0.500000  1
  Se  Se29  1  0.323784  0.750000  0.500000  1
  Se  Se30  1  0.722908  0.451817  0.386947  1
  Se  Se31  1  0.722908  0.048183  0.613053  1
  Se  Se32  1  0.689713  0.081377  0.914895  1
  Se  Se33  1  0.277092  0.951817  0.386947  1
