# generated using pymatgen
data_Rb2TmBr5
_symmetry_space_group_name_H-M   'P 1'
_cell_length_a   7.81693200
_cell_length_b   10.16222000
_cell_length_c   15.61164300
_cell_angle_alpha   90.00000000
_cell_angle_beta   90.00000000
_cell_angle_gamma   90.00000000
_symmetry_Int_Tables_number   1
_chemical_formula_structural   Rb2TmBr5
_chemical_formula_sum   'Rb8 Tm4 Br20'
_cell_volume   1240.14805971
_cell_formula_units_Z   4
loop_
 _symmetry_equiv_pos_site_id
 _symmetry_equiv_pos_as_xyz
  1  'x, y, z'
loop_
 _atom_site_type_symbol
 _atom_site_label
 _atom_site_symmetry_multiplicity
 _atom_site_fract_x
 _atom_site_fract_y
 _atom_site_fract_z
 _atom_site_occupancy
  Rb  Rb0  1  0.250000  0.662411  0.918087  1
  Rb  Rb1  1  0.750000  0.337589  0.081913  1
  Rb  Rb2  1  0.750000  0.837589  0.418087  1
  Rb  Rb3  1  0.250000  0.162411  0.581913  1
  Rb  Rb4  1  0.250000  0.974423  0.207068  1
  Rb  Rb5  1  0.750000  0.025577  0.792932  1
  Rb  Rb6  1  0.750000  0.525577  0.707068  1
  Rb  Rb7  1  0.250000  0.474423  0.292932  1
  Tm  Tm8  1  0.250000  0.683318  0.564264  1
  Tm  Tm9  1  0.750000  0.316682  0.435736  1
  Tm  Tm10  1  0.750000  0.816682  0.064264  1
  Tm  Tm11  1  0.250000  0.183318  0.935736  1
  Br  Br12  1  0.250000  0.530602  0.707021  1
  Br  Br13  1  0.750000  0.469398  0.292979  1
  Br  Br14  1  0.750000  0.969398  0.207021  1
  Br  Br15  1  0.250000  0.030602  0.792979  1
  Br  Br16  1  0.506751  0.840554  0.615579  1
  Br  Br17  1  0.493249  0.159446  0.384421  1
  Br  Br18  1  0.493249  0.659446  0.115579  1
  Br  Br19  1  0.006751  0.159446  0.384421  1
  Br  Br20  1  0.506751  0.340554  0.884421  1
  Br  Br21  1  0.993249  0.840554  0.615579  1
  Br  Br22  1  0.993249  0.340554  0.884421  1
  Br  Br23  1  0.006751  0.659446  0.115579  1
  Br  Br24  1  0.250000  0.785281  0.398551  1
  Br  Br25  1  0.750000  0.214719  0.601449  1
  Br  Br26  1  0.750000  0.714719  0.898551  1
  Br  Br27  1  0.250000  0.285281  0.101449  1
  Br  Br28  1  0.000000  0.500000  0.500000  1
  Br  Br29  1  0.000000  0.000000  0.000000  1
  Br  Br30  1  0.500000  0.500000  0.500000  1
  Br  Br31  1  0.500000  0.000000  0.000000  1
