# generated using pymatgen
data_Er2V2C3
_symmetry_space_group_name_H-M   'P 1'
_cell_length_a   5.73074889
_cell_length_b   5.73074854
_cell_length_c   5.52193770
_cell_angle_alpha   73.63473479
_cell_angle_beta   73.63473428
_cell_angle_gamma   34.22143203
_symmetry_Int_Tables_number   1
_chemical_formula_structural   Er2V2C3
_chemical_formula_sum   'Er2 V2 C3'
_cell_volume   97.45636386
_cell_formula_units_Z   1
loop_
 _symmetry_equiv_pos_site_id
 _symmetry_equiv_pos_as_xyz
  1  'x, y, z'
loop_
 _atom_site_type_symbol
 _atom_site_label
 _atom_site_symmetry_multiplicity
 _atom_site_fract_x
 _atom_site_fract_y
 _atom_site_fract_z
 _atom_site_occupancy
  Er  Er0  1  0.389427  0.389427  0.813157  1
  Er  Er1  1  0.610573  0.610573  0.186843  1
  V  V2  1  0.151632  0.151632  0.626106  1
  V  V3  1  0.848368  0.848368  0.373894  1
  C  C4  1  0.000000  0.000000  0.500000  1
  C  C5  1  0.724392  0.724392  0.730441  1
  C  C6  1  0.275608  0.275608  0.269559  1
