# generated using pymatgen
data_Sc4TiGa(B2Ir5)2
_symmetry_space_group_name_H-M   'P 1'
_cell_length_a   9.40495700
_cell_length_b   9.40495700
_cell_length_c   3.11031000
_cell_angle_alpha   90.00000000
_cell_angle_beta   90.00000000
_cell_angle_gamma   90.00000000
_symmetry_Int_Tables_number   1
_chemical_formula_structural   Sc4TiGa(B2Ir5)2
_chemical_formula_sum   'Sc4 Ti1 Ga1 B4 Ir10'
_cell_volume   275.11692279
_cell_formula_units_Z   1
loop_
 _symmetry_equiv_pos_site_id
 _symmetry_equiv_pos_as_xyz
  1  'x, y, z'
loop_
 _atom_site_type_symbol
 _atom_site_label
 _atom_site_symmetry_multiplicity
 _atom_site_fract_x
 _atom_site_fract_y
 _atom_site_fract_z
 _atom_site_occupancy
  Sc  Sc0  1  0.674504  0.176829  0.000000  1
  Sc  Sc1  1  0.325496  0.823171  0.000000  1
  Sc  Sc2  1  0.176829  0.325496  0.000000  1
  Sc  Sc3  1  0.823171  0.674504  0.000000  1
  Ti  Ti4  1  0.000000  0.000000  0.000000  1
  Ga  Ga5  1  0.500000  0.500000  0.000000  1
  B  B6  1  0.126327  0.619241  0.000000  1
  B  B7  1  0.873673  0.380759  0.000000  1
  B  B8  1  0.619241  0.873673  0.000000  1
  B  B9  1  0.380759  0.126327  0.000000  1
  Ir  Ir10  1  0.217098  0.070301  0.500000  1
  Ir  Ir11  1  0.782902  0.929699  0.500000  1
  Ir  Ir12  1  0.070301  0.782902  0.500000  1
  Ir  Ir13  1  0.716751  0.428773  0.500000  1
  Ir  Ir14  1  0.929699  0.217098  0.500000  1
  Ir  Ir15  1  0.283249  0.571227  0.500000  1
  Ir  Ir16  1  0.571227  0.716751  0.500000  1
  Ir  Ir17  1  0.428773  0.283249  0.500000  1
  Ir  Ir18  1  0.500000  0.000000  0.500000  1
  Ir  Ir19  1  0.000000  0.500000  0.500000  1
