# generated using pymatgen
data_La4Te7Pt
_symmetry_space_group_name_H-M   'P 1'
_cell_length_a   4.34336603
_cell_length_b   8.99148680
_cell_length_c   9.50842192
_cell_angle_alpha   90.02099161
_cell_angle_beta   90.00020778
_cell_angle_gamma   90.00164424
_symmetry_Int_Tables_number   1
_chemical_formula_structural   La4Te7Pt
_chemical_formula_sum   'La4 Te7 Pt1'
_cell_volume   371.33540314
_cell_formula_units_Z   1
loop_
 _symmetry_equiv_pos_site_id
 _symmetry_equiv_pos_as_xyz
  1  'x, y, z'
loop_
 _atom_site_type_symbol
 _atom_site_label
 _atom_site_symmetry_multiplicity
 _atom_site_fract_x
 _atom_site_fract_y
 _atom_site_fract_z
 _atom_site_occupancy
  La  La0  1  0.250425  0.125366  0.707065  1
  La  La1  1  0.250484  0.625593  0.744599  1
  La  La2  1  0.749890  0.871973  0.270003  1
  La  La3  1  0.749708  0.377427  0.270720  1
  Te  Te4  1  0.249489  0.315451  0.999339  1
  Te  Te5  1  0.750162  0.624473  0.003914  1
  Te  Te6  1  0.750388  0.870862  0.630430  1
  Te  Te7  1  0.249915  0.625010  0.373915  1
  Te  Te8  1  0.249587  0.934541  0.998859  1
  Te  Te9  1  0.750356  0.379696  0.630851  1
  Te  Te10  1  0.249911  0.124660  0.365048  1
  Pt  Pt11  1  0.749684  0.124947  0.005257  1
