# generated using pymatgen
data_Eu4Mg4CuIr3
_symmetry_space_group_name_H-M   'P 1'
_cell_length_a   4.26253000
_cell_length_b   7.32949402
_cell_length_c   8.52268125
_cell_angle_alpha   89.80196553
_cell_angle_beta   90.00000000
_cell_angle_gamma   90.00000000
_symmetry_Int_Tables_number   1
_chemical_formula_structural   Eu4Mg4CuIr3
_chemical_formula_sum   'Eu4 Mg4 Cu1 Ir3'
_cell_volume   266.26562059
_cell_formula_units_Z   1
loop_
 _symmetry_equiv_pos_site_id
 _symmetry_equiv_pos_as_xyz
  1  'x, y, z'
loop_
 _atom_site_type_symbol
 _atom_site_label
 _atom_site_symmetry_multiplicity
 _atom_site_fract_x
 _atom_site_fract_y
 _atom_site_fract_z
 _atom_site_occupancy
  Eu  Eu0  1  0.250000  0.532301  0.174580  1
  Eu  Eu1  1  0.750000  0.475642  0.833132  1
  Eu  Eu2  1  0.750000  0.955384  0.679230  1
  Eu  Eu3  1  0.250000  0.025205  0.318587  1
  Mg  Mg4  1  0.250000  0.643678  0.557945  1
  Mg  Mg5  1  0.750000  0.367468  0.432207  1
  Mg  Mg6  1  0.750000  0.863564  0.060513  1
  Mg  Mg7  1  0.250000  0.134171  0.945918  1
  Cu  Cu8  1  0.250000  0.269864  0.625754  1
  Ir  Ir9  1  0.250000  0.765650  0.870755  1
  Ir  Ir10  1  0.750000  0.233755  0.127936  1
  Ir  Ir11  1  0.750000  0.733318  0.373445  1
