# generated using pymatgen
data_MnSO4F
_symmetry_space_group_name_H-M   'P 1'
_cell_length_a   5.10874498
_cell_length_b   5.37807739
_cell_length_c   7.55271584
_cell_angle_alpha   111.44388912
_cell_angle_beta   110.36319070
_cell_angle_gamma   88.84053665
_symmetry_Int_Tables_number   1
_chemical_formula_structural   MnSO4F
_chemical_formula_sum   'Mn2 S2 O8 F2'
_cell_volume   179.71115617
_cell_formula_units_Z   2
loop_
 _symmetry_equiv_pos_site_id
 _symmetry_equiv_pos_as_xyz
  1  'x, y, z'
loop_
 _atom_site_type_symbol
 _atom_site_label
 _atom_site_symmetry_multiplicity
 _atom_site_fract_x
 _atom_site_fract_y
 _atom_site_fract_z
 _atom_site_occupancy
  Mn  Mn0  1  0.000130  0.000276  0.000017  1
  Mn  Mn1  1  0.999779  0.499777  0.499791  1
  S  S2  1  0.618323  0.922013  0.253007  1
  S  S3  1  0.381639  0.077811  0.746974  1
  O  O4  1  0.729341  0.844902  0.083857  1
  O  O5  1  0.303418  0.850664  0.160140  1
  O  O6  1  0.672898  0.218991  0.373328  1
  O  O7  1  0.727211  0.771463  0.383186  1
  O  O8  1  0.272661  0.228292  0.616741  1
  O  O9  1  0.327092  0.780814  0.626961  1
  O  O10  1  0.696527  0.149488  0.839897  1
  O  O11  1  0.270836  0.155478  0.916300  1
  F  F12  1  0.075553  0.356860  0.258372  1
  F  F13  1  0.924598  0.643174  0.741433  1
