# generated using pymatgen
data_Ga2AgCl8
_symmetry_space_group_name_H-M   'P 1'
_cell_length_a   7.97667000
_cell_length_b   7.16956193
_cell_length_c   13.21280270
_cell_angle_alpha   85.29389023
_cell_angle_beta   90.00000000
_cell_angle_gamma   90.00000000
_symmetry_Int_Tables_number   1
_chemical_formula_structural   Ga2AgCl8
_chemical_formula_sum   'Ga4 Ag2 Cl16'
_cell_volume   753.08250815
_cell_formula_units_Z   2
loop_
 _symmetry_equiv_pos_site_id
 _symmetry_equiv_pos_as_xyz
  1  'x, y, z'
loop_
 _atom_site_type_symbol
 _atom_site_label
 _atom_site_symmetry_multiplicity
 _atom_site_fract_x
 _atom_site_fract_y
 _atom_site_fract_z
 _atom_site_occupancy
  Ga  Ga0  1  0.736450  0.808966  0.181770  1
  Ga  Ga1  1  0.763550  0.808966  0.681770  1
  Ga  Ga2  1  0.263550  0.191034  0.818230  1
  Ga  Ga3  1  0.236450  0.191034  0.318230  1
  Ag  Ag4  1  0.500000  0.000000  0.500000  1
  Ag  Ag5  1  0.000000  0.000000  0.000000  1
  Cl  Cl6  1  0.750241  0.098535  0.594865  1
  Cl  Cl7  1  0.250241  0.901465  0.905135  1
  Cl  Cl8  1  0.979084  0.704069  0.112250  1
  Cl  Cl9  1  0.479084  0.295931  0.387750  1
  Cl  Cl10  1  0.020916  0.295931  0.887750  1
  Cl  Cl11  1  0.520916  0.704069  0.612250  1
  Cl  Cl12  1  0.272493  0.165445  0.157919  1
  Cl  Cl13  1  0.772493  0.834555  0.342081  1
  Cl  Cl14  1  0.727507  0.834555  0.842081  1
  Cl  Cl15  1  0.227507  0.165445  0.657919  1
  Cl  Cl16  1  0.525458  0.651829  0.137404  1
  Cl  Cl17  1  0.025458  0.348171  0.362596  1
  Cl  Cl18  1  0.474542  0.348171  0.862596  1
  Cl  Cl19  1  0.974542  0.651829  0.637404  1
  Cl  Cl20  1  0.749759  0.098535  0.094865  1
  Cl  Cl21  1  0.249759  0.901465  0.405135  1
