# generated using pymatgen
data_Nd4Dy12MgAg3Rh4
_symmetry_space_group_name_H-M   'P 1'
_cell_length_a   9.63654120
_cell_length_b   9.64728428
_cell_length_c   9.64728360
_cell_angle_alpha   60.18733032
_cell_angle_beta   60.11976843
_cell_angle_gamma   60.11977125
_symmetry_Int_Tables_number   1
_chemical_formula_structural   Nd4Dy12MgAg3Rh4
_chemical_formula_sum   'Nd4 Dy12 Mg1 Ag3 Rh4'
_cell_volume   636.22899440
_cell_formula_units_Z   1
loop_
 _symmetry_equiv_pos_site_id
 _symmetry_equiv_pos_as_xyz
  1  'x, y, z'
loop_
 _atom_site_type_symbol
 _atom_site_label
 _atom_site_symmetry_multiplicity
 _atom_site_fract_x
 _atom_site_fract_y
 _atom_site_fract_z
 _atom_site_occupancy
  Nd  Nd0  1  0.813368  0.186262  0.814614  1
  Nd  Nd1  1  0.187163  0.813655  0.183987  1
  Nd  Nd2  1  0.813368  0.814614  0.186262  1
  Nd  Nd3  1  0.187163  0.183987  0.813655  1
  Dy  Dy4  1  0.599652  0.598528  0.598528  1
  Dy  Dy5  1  0.600094  0.598954  0.203851  1
  Dy  Dy6  1  0.600094  0.203851  0.598954  1
  Dy  Dy7  1  0.191149  0.602908  0.602908  1
  Dy  Dy8  1  0.062078  0.436538  0.436538  1
  Dy  Dy9  1  0.433358  0.065408  0.065408  1
  Dy  Dy10  1  0.435028  0.063757  0.435754  1
  Dy  Dy11  1  0.060456  0.437605  0.062381  1
  Dy  Dy12  1  0.435028  0.435754  0.063757  1
  Dy  Dy13  1  0.060456  0.062381  0.437605  1
  Dy  Dy14  1  0.186601  0.809107  0.809107  1
  Dy  Dy15  1  0.808821  0.190678  0.190678  1
  Mg  Mg16  1  0.539256  0.820186  0.820186  1
  Ag  Ag17  1  0.834726  0.831374  0.831374  1
  Ag  Ag18  1  0.829844  0.837111  0.503101  1
  Ag  Ag19  1  0.829844  0.503101  0.837111  1
  Rh  Rh20  1  0.393497  0.391652  0.391652  1
  Rh  Rh21  1  0.388589  0.398453  0.821940  1
  Rh  Rh22  1  0.388589  0.821940  0.398453  1
  Rh  Rh23  1  0.821773  0.392197  0.392197  1
