# generated using pymatgen
data_Li17Si4
_symmetry_space_group_name_H-M   'P 1'
_cell_length_a   13.04752019
_cell_length_b   13.04752055
_cell_length_c   13.04752000
_cell_angle_alpha   60.00000140
_cell_angle_beta   60.00000049
_cell_angle_gamma   59.99999977
_symmetry_Int_Tables_number   1
_chemical_formula_structural   Li17Si4
_chemical_formula_sum   'Li85 Si20'
_cell_volume   1570.61212593
_cell_formula_units_Z   5
loop_
 _symmetry_equiv_pos_site_id
 _symmetry_equiv_pos_as_xyz
  1  'x, y, z'
loop_
 _atom_site_type_symbol
 _atom_site_label
 _atom_site_symmetry_multiplicity
 _atom_site_fract_x
 _atom_site_fract_y
 _atom_site_fract_z
 _atom_site_occupancy
  Li  Li0  1  0.434575  0.434575  0.696275  1
  Li  Li1  1  0.260769  0.579744  0.579744  1
  Li  Li2  1  0.807647  0.168117  0.512118  1
  Li  Li3  1  0.538803  0.270177  0.920842  1
  Li  Li4  1  0.014110  0.014110  0.669551  1
  Li  Li5  1  0.270177  0.920842  0.538803  1
  Li  Li6  1  0.579744  0.579744  0.260769  1
  Li  Li7  1  0.418143  0.071661  0.755098  1
  Li  Li8  1  0.842808  0.052398  0.052398  1
  Li  Li9  1  0.755098  0.418143  0.071661  1
  Li  Li10  1  0.052398  0.052398  0.842808  1
  Li  Li11  1  0.512118  0.807647  0.512118  1
  Li  Li12  1  0.434575  0.434575  0.434575  1
  Li  Li13  1  0.824445  0.824445  0.824445  1
  Li  Li14  1  0.755098  0.071661  0.755098  1
  Li  Li15  1  0.579649  0.579649  0.920351  1
  Li  Li16  1  0.755098  0.071661  0.418143  1
  Li  Li17  1  0.512118  0.168117  0.807647  1
  Li  Li18  1  0.920842  0.270177  0.538803  1
  Li  Li19  1  0.014110  0.669551  0.302228  1
  Li  Li20  1  0.920351  0.579649  0.920351  1
  Li  Li21  1  0.174702  0.825298  0.825298  1
  Li  Li22  1  0.824445  0.526665  0.824445  1
  Li  Li23  1  0.174702  0.825298  0.174702  1
  Li  Li24  1  0.669551  0.302228  0.014110  1
  Li  Li25  1  0.579744  0.579744  0.579744  1
  Li  Li26  1  0.052398  0.842808  0.052398  1
  Li  Li27  1  0.512118  0.512118  0.807647  1
  Li  Li28  1  0.052398  0.052398  0.052398  1
  Li  Li29  1  0.755098  0.418143  0.755098  1
  Li  Li30  1  0.168026  0.168026  0.168026  1
  Li  Li31  1  0.174702  0.174702  0.825298  1
  Li  Li32  1  0.014110  0.302228  0.014110  1
  Li  Li33  1  0.526665  0.824445  0.824445  1
  Li  Li34  1  0.755098  0.755098  0.071661  1
  Li  Li35  1  0.302228  0.014110  0.014110  1
  Li  Li36  1  0.168026  0.168026  0.495920  1
  Li  Li37  1  0.807647  0.512118  0.512118  1
  Li  Li38  1  0.434575  0.696275  0.434575  1
  Li  Li39  1  0.270177  0.920842  0.270177  1
  Li  Li40  1  0.824445  0.824445  0.526665  1
  Li  Li41  1  0.270177  0.270177  0.920842  1
  Li  Li42  1  0.495920  0.168026  0.168026  1
  Li  Li43  1  0.669551  0.014110  0.302228  1
  Li  Li44  1  0.512118  0.168117  0.512118  1
  Li  Li45  1  0.071661  0.755098  0.418143  1
  Li  Li46  1  0.014110  0.014110  0.302228  1
  Li  Li47  1  0.270177  0.270177  0.538803  1
  Li  Li48  1  0.418143  0.755098  0.071661  1
  Li  Li49  1  0.014110  0.669551  0.014110  1
  Li  Li50  1  0.306514  0.306514  0.306514  1
  Li  Li51  1  0.168117  0.512118  0.807647  1
  Li  Li52  1  0.920842  0.538803  0.270177  1
  Li  Li53  1  0.669551  0.014110  0.014110  1
  Li  Li54  1  0.579649  0.920351  0.579649  1
  Li  Li55  1  0.168117  0.512118  0.512118  1
  Li  Li56  1  0.071661  0.755098  0.755098  1
  Li  Li57  1  0.579744  0.260769  0.579744  1
  Li  Li58  1  0.168026  0.495920  0.168026  1
  Li  Li59  1  0.696275  0.434575  0.434575  1
  Li  Li60  1  0.168117  0.807647  0.512118  1
  Li  Li61  1  0.920351  0.920351  0.579649  1
  Li  Li62  1  0.014110  0.302228  0.669551  1
  Li  Li63  1  0.080460  0.306514  0.306514  1
  Li  Li64  1  0.755098  0.755098  0.418143  1
  Li  Li65  1  0.807647  0.512118  0.168117  1
  Li  Li66  1  0.302228  0.669551  0.014110  1
  Li  Li67  1  0.920351  0.579649  0.579649  1
  Li  Li68  1  0.306514  0.080460  0.306514  1
  Li  Li69  1  0.270177  0.538803  0.270177  1
  Li  Li70  1  0.302228  0.014110  0.669551  1
  Li  Li71  1  0.512118  0.807647  0.168117  1
  Li  Li72  1  0.750000  0.750000  0.750000  1
  Li  Li73  1  0.825298  0.174702  0.825298  1
  Li  Li74  1  0.825298  0.174702  0.174702  1
  Li  Li75  1  0.071661  0.418143  0.755098  1
  Li  Li76  1  0.825298  0.825298  0.174702  1
  Li  Li77  1  0.579649  0.920351  0.920351  1
  Li  Li78  1  0.418143  0.755098  0.755098  1
  Li  Li79  1  0.538803  0.920842  0.270177  1
  Li  Li80  1  0.270177  0.538803  0.920842  1
  Li  Li81  1  0.306514  0.306514  0.080460  1
  Li  Li82  1  0.538803  0.270177  0.270177  1
  Li  Li83  1  0.512118  0.512118  0.168117  1
  Li  Li84  1  0.920842  0.270177  0.270177  1
  Si  Si85  1  0.666385  0.000844  0.666385  1
  Si  Si86  1  0.320545  0.679455  0.320545  1
  Si  Si87  1  0.666385  0.666385  0.666385  1
  Si  Si88  1  0.679455  0.320545  0.320545  1
  Si  Si89  1  0.000844  0.666385  0.666385  1
  Si  Si90  1  0.269151  0.910283  0.910283  1
  Si  Si91  1  0.320545  0.320545  0.679455  1
  Si  Si92  1  0.666385  0.666385  0.000844  1
  Si  Si93  1  0.679455  0.679455  0.320545  1
  Si  Si94  1  0.428786  0.071214  0.428786  1
  Si  Si95  1  0.071214  0.071214  0.428786  1
  Si  Si96  1  0.679455  0.320545  0.679455  1
  Si  Si97  1  0.428786  0.428786  0.071214  1
  Si  Si98  1  0.320545  0.679455  0.679455  1
  Si  Si99  1  0.910283  0.910283  0.910283  1
  Si  Si100  1  0.910283  0.269151  0.910283  1
  Si  Si101  1  0.428786  0.071214  0.071214  1
  Si  Si102  1  0.910283  0.910283  0.269151  1
  Si  Si103  1  0.071214  0.428786  0.071214  1
  Si  Si104  1  0.071214  0.428786  0.428786  1
