# generated using pymatgen
data_YbTi3Pd11Pt
_symmetry_space_group_name_H-M   'P 1'
_cell_length_a   5.61809700
_cell_length_b   5.61870582
_cell_length_c   9.11480000
_cell_angle_alpha   90.00000000
_cell_angle_beta   90.00000000
_cell_angle_gamma   119.99640981
_symmetry_Int_Tables_number   1
_chemical_formula_structural   YbTi3Pd11Pt
_chemical_formula_sum   'Yb1 Ti3 Pd11 Pt1'
_cell_volume   249.18334591
_cell_formula_units_Z   1
loop_
 _symmetry_equiv_pos_site_id
 _symmetry_equiv_pos_as_xyz
  1  'x, y, z'
loop_
 _atom_site_type_symbol
 _atom_site_label
 _atom_site_symmetry_multiplicity
 _atom_site_fract_x
 _atom_site_fract_y
 _atom_site_fract_z
 _atom_site_occupancy
  Yb  Yb0  1  0.666637  0.333272  0.750000  1
  Ti  Ti1  1  0.998395  0.996791  0.500183  1
  Ti  Ti2  1  0.998395  0.996791  0.999817  1
  Ti  Ti3  1  0.334528  0.669058  0.250000  1
  Pd  Pd4  1  0.496290  0.502563  0.493380  1
  Pd  Pd5  1  0.496701  0.993401  0.493895  1
  Pd  Pd6  1  0.006272  0.502563  0.493380  1
  Pd  Pd7  1  0.496290  0.502563  0.006620  1
  Pd  Pd8  1  0.496701  0.993401  0.006105  1
  Pd  Pd9  1  0.006272  0.502563  0.006620  1
  Pd  Pd10  1  0.332461  0.166995  0.250000  1
  Pd  Pd11  1  0.834533  0.166995  0.250000  1
  Pd  Pd12  1  0.167901  0.335803  0.750000  1
  Pd  Pd13  1  0.666614  0.833287  0.750000  1
  Pd  Pd14  1  0.166673  0.833287  0.750000  1
  Pt  Pt15  1  0.835334  0.670668  0.250000  1
