# generated using pymatgen
data_YEr3Co12(P3Rh2)4
_symmetry_space_group_name_H-M   'P 1'
_cell_length_a   3.73206200
_cell_length_b   10.47141330
_cell_length_c   12.08231335
_cell_angle_alpha   90.02758810
_cell_angle_beta   90.00000000
_cell_angle_gamma   90.00000000
_symmetry_Int_Tables_number   1
_chemical_formula_structural   YEr3Co12(P3Rh2)4
_chemical_formula_sum   'Y1 Er3 Co12 P12 Rh8'
_cell_volume   472.17631211
_cell_formula_units_Z   1
loop_
 _symmetry_equiv_pos_site_id
 _symmetry_equiv_pos_as_xyz
  1  'x, y, z'
loop_
 _atom_site_type_symbol
 _atom_site_label
 _atom_site_symmetry_multiplicity
 _atom_site_fract_x
 _atom_site_fract_y
 _atom_site_fract_z
 _atom_site_occupancy
  Y  Y0  1  0.250000  0.584356  0.711018  1
  Er  Er1  1  0.250000  0.915778  0.210897  1
  Er  Er2  1  0.750000  0.084146  0.789200  1
  Er  Er3  1  0.750000  0.415781  0.289098  1
  Co  Co4  1  0.250000  0.278534  0.678503  1
  Co  Co5  1  0.750000  0.721259  0.321353  1
  Co  Co6  1  0.750000  0.779452  0.821759  1
  Co  Co7  1  0.250000  0.221220  0.178567  1
  Co  Co8  1  0.250000  0.617486  0.197372  1
  Co  Co9  1  0.750000  0.381794  0.802996  1
  Co  Co10  1  0.750000  0.117490  0.302664  1
  Co  Co11  1  0.250000  0.882911  0.697315  1
  Co  Co12  1  0.250000  0.036915  0.431095  1
  Co  Co13  1  0.750000  0.963314  0.568810  1
  Co  Co14  1  0.750000  0.536910  0.069109  1
  Co  Co15  1  0.250000  0.462785  0.931689  1
  P  P16  1  0.250000  0.078101  0.611325  1
  P  P17  1  0.750000  0.921929  0.388635  1
  P  P18  1  0.750000  0.578045  0.889620  1
  P  P19  1  0.250000  0.421873  0.111450  1
  P  P20  1  0.250000  0.226103  0.361782  1
  P  P21  1  0.750000  0.774684  0.637825  1
  P  P22  1  0.750000  0.726175  0.138223  1
  P  P23  1  0.250000  0.273826  0.861802  1
  P  P24  1  0.250000  0.896499  0.878948  1
  P  P25  1  0.750000  0.103466  0.121036  1
  P  P26  1  0.750000  0.395826  0.620674  1
  P  P27  1  0.250000  0.603501  0.379016  1
  Rh  Rh28  1  0.250000  0.788206  0.486214  1
  Rh  Rh29  1  0.750000  0.211814  0.513772  1
  Rh  Rh30  1  0.750000  0.288107  0.013832  1
  Rh  Rh31  1  0.250000  0.711841  0.986220  1
  Rh  Rh32  1  0.250000  0.093348  0.978409  1
  Rh  Rh33  1  0.750000  0.906647  0.021589  1
  Rh  Rh34  1  0.750000  0.593373  0.519806  1
  Rh  Rh35  1  0.250000  0.406505  0.478379  1
