# generated using pymatgen
data_NaTb4S5
_symmetry_space_group_name_H-M   'P 1'
_cell_length_a   10.46875391
_cell_length_b   10.46875343
_cell_length_c   10.46875406
_cell_angle_alpha   158.36839988
_cell_angle_beta   149.04735548
_cell_angle_gamma   38.07854837
_symmetry_Int_Tables_number   1
_chemical_formula_structural   NaTb4S5
_chemical_formula_sum   'Na1 Tb4 S5'
_cell_volume   217.22868176
_cell_formula_units_Z   1
loop_
 _symmetry_equiv_pos_site_id
 _symmetry_equiv_pos_as_xyz
  1  'x, y, z'
loop_
 _atom_site_type_symbol
 _atom_site_label
 _atom_site_symmetry_multiplicity
 _atom_site_fract_x
 _atom_site_fract_y
 _atom_site_fract_z
 _atom_site_occupancy
  Na  Na0  1  0.000000  0.000000  0.000000  1
  Tb  Tb1  1  0.601119  0.601119  0.000000  1
  Tb  Tb2  1  0.203076  0.203076  0.000000  1
  Tb  Tb3  1  0.796924  0.796924  0.000000  1
  Tb  Tb4  1  0.398881  0.398881  0.000000  1
  S  S5  1  0.896556  0.396556  0.500000  1
  S  S6  1  0.698423  0.198423  0.500000  1
  S  S7  1  0.301577  0.801577  0.500000  1
  S  S8  1  0.500000  0.000000  0.500000  1
  S  S9  1  0.103444  0.603444  0.500000  1
