# generated using pymatgen
data_CsAsS6
_symmetry_space_group_name_H-M   'P 1'
_cell_length_a   15.39268600
_cell_length_b   6.13527473
_cell_length_c   11.33409604
_cell_angle_alpha   72.14586647
_cell_angle_beta   90.00000000
_cell_angle_gamma   90.00000000
_symmetry_Int_Tables_number   1
_chemical_formula_structural   CsAsS6
_chemical_formula_sum   'Cs4 As4 S24'
_cell_volume   1018.82438482
_cell_formula_units_Z   4
loop_
 _symmetry_equiv_pos_site_id
 _symmetry_equiv_pos_as_xyz
  1  'x, y, z'
loop_
 _atom_site_type_symbol
 _atom_site_label
 _atom_site_symmetry_multiplicity
 _atom_site_fract_x
 _atom_site_fract_y
 _atom_site_fract_z
 _atom_site_occupancy
  Cs  Cs0  1  0.085545  0.693115  0.696570  1
  Cs  Cs1  1  0.585545  0.306885  0.803430  1
  Cs  Cs2  1  0.914455  0.306885  0.303430  1
  Cs  Cs3  1  0.414455  0.693115  0.196570  1
  As  As4  1  0.420860  0.911274  0.620180  1
  As  As5  1  0.920860  0.088726  0.879820  1
  As  As6  1  0.579140  0.088726  0.379820  1
  As  As7  1  0.079140  0.911274  0.120180  1
  S  S8  1  0.386168  0.294821  0.614621  1
  S  S9  1  0.886168  0.705179  0.885379  1
  S  S10  1  0.613832  0.705179  0.385379  1
  S  S11  1  0.113832  0.294821  0.114621  1
  S  S12  1  0.284152  0.252077  0.735287  1
  S  S13  1  0.784152  0.747923  0.764713  1
  S  S14  1  0.715848  0.747923  0.264713  1
  S  S15  1  0.215848  0.252077  0.235287  1
  S  S16  1  0.064690  0.091567  0.875239  1
  S  S17  1  0.564690  0.908433  0.624761  1
  S  S18  1  0.935310  0.908433  0.124761  1
  S  S19  1  0.435310  0.091567  0.375239  1
  S  S20  1  0.067692  0.753755  0.353862  1
  S  S21  1  0.567692  0.246245  0.146138  1
  S  S22  1  0.932308  0.246245  0.646138  1
  S  S23  1  0.432308  0.753755  0.853862  1
  S  S24  1  0.184959  0.594453  0.410189  1
  S  S25  1  0.684959  0.405547  0.089811  1
  S  S26  1  0.815041  0.405547  0.589811  1
  S  S27  1  0.315041  0.594453  0.910189  1
  S  S28  1  0.173281  0.258572  0.408819  1
  S  S29  1  0.673281  0.741428  0.091181  1
  S  S30  1  0.826719  0.741428  0.591181  1
  S  S31  1  0.326719  0.258572  0.908819  1
