# generated using pymatgen
data_CeCo4Ir
_symmetry_space_group_name_H-M   'P 1'
_cell_length_a   4.03101200
_cell_length_b   5.10817584
_cell_length_c   5.11351795
_cell_angle_alpha   55.95583061
_cell_angle_beta   90.00000000
_cell_angle_gamma   90.00000000
_symmetry_Int_Tables_number   1
_chemical_formula_structural   CeCo4Ir
_chemical_formula_sum   'Ce1 Co4 Ir1'
_cell_volume   87.24648035
_cell_formula_units_Z   1
loop_
 _symmetry_equiv_pos_site_id
 _symmetry_equiv_pos_as_xyz
  1  'x, y, z'
loop_
 _atom_site_type_symbol
 _atom_site_label
 _atom_site_symmetry_multiplicity
 _atom_site_fract_x
 _atom_site_fract_y
 _atom_site_fract_z
 _atom_site_occupancy
  Ce  Ce0  1  0.000000  0.999985  0.000012  1
  Co  Co1  1  0.000000  0.310035  0.309900  1
  Co  Co2  1  0.000000  0.689921  0.690118  1
  Co  Co3  1  0.500000  0.499998  0.000019  1
  Co  Co4  1  0.500000  0.999981  0.500033  1
  Ir  Ir5  1  0.500000  0.499982  0.500017  1
