# generated using pymatgen
data_Y6Mn2Co16Si11P
_symmetry_space_group_name_H-M   'P 1'
_cell_length_a   3.78563900
_cell_length_b   10.77990528
_cell_length_c   12.38505431
_cell_angle_alpha   89.97420517
_cell_angle_beta   90.00000000
_cell_angle_gamma   90.00000000
_symmetry_Int_Tables_number   1
_chemical_formula_structural   Y6Mn2Co16Si11P
_chemical_formula_sum   'Y6 Mn2 Co16 Si11 P1'
_cell_volume   505.41952256
_cell_formula_units_Z   1
loop_
 _symmetry_equiv_pos_site_id
 _symmetry_equiv_pos_as_xyz
  1  'x, y, z'
loop_
 _atom_site_type_symbol
 _atom_site_label
 _atom_site_symmetry_multiplicity
 _atom_site_fract_x
 _atom_site_fract_y
 _atom_site_fract_z
 _atom_site_occupancy
  Y  Y0  1  0.000000  0.499536  0.526185  1
  Y  Y1  1  0.500000  0.000228  0.473060  1
  Y  Y2  1  0.500000  0.819486  0.205318  1
  Y  Y3  1  0.500000  0.182912  0.203918  1
  Y  Y4  1  0.000000  0.680680  0.795565  1
  Y  Y5  1  0.000000  0.318919  0.793823  1
  Mn  Mn6  1  0.500000  0.499057  0.148403  1
  Mn  Mn7  1  0.000000  0.000985  0.852470  1
  Co  Co8  1  0.500000  0.499714  0.698346  1
  Co  Co9  1  0.000000  0.000463  0.302568  1
  Co  Co10  1  0.000000  0.495906  0.988443  1
  Co  Co11  1  0.500000  0.001233  0.015565  1
  Co  Co12  1  0.500000  0.331227  0.998871  1
  Co  Co13  1  0.500000  0.667492  0.996260  1
  Co  Co14  1  0.000000  0.170942  0.005886  1
  Co  Co15  1  0.000000  0.831931  0.004193  1
  Co  Co16  1  0.500000  0.302059  0.428752  1
  Co  Co17  1  0.500000  0.698019  0.430265  1
  Co  Co18  1  0.000000  0.198641  0.568989  1
  Co  Co19  1  0.000000  0.801657  0.570022  1
  Co  Co20  1  0.500000  0.883185  0.708978  1
  Co  Co21  1  0.500000  0.117320  0.708713  1
  Co  Co22  1  0.000000  0.616678  0.291117  1
  Co  Co23  1  0.000000  0.382455  0.285414  1
  Si  Si24  1  0.500000  0.499277  0.885958  1
  Si  Si25  1  0.000000  0.000237  0.115327  1
  Si  Si26  1  0.500000  0.499838  0.342015  1
  Si  Si27  1  0.000000  0.000232  0.658123  1
  Si  Si28  1  0.500000  0.302644  0.613662  1
  Si  Si29  1  0.500000  0.697374  0.614794  1
  Si  Si30  1  0.000000  0.198224  0.384334  1
  Si  Si31  1  0.000000  0.802415  0.385386  1
  Si  Si32  1  0.500000  0.848685  0.895236  1
  Si  Si33  1  0.500000  0.152326  0.894671  1
  Si  Si34  1  0.000000  0.652638  0.105203  1
  P  P35  1  0.000000  0.345385  0.104169  1
