# generated using pymatgen
data_Al4Ga4Bi3SbO18
_symmetry_space_group_name_H-M   'P 1'
_cell_length_a   7.94608514
_cell_length_b   8.26055149
_cell_length_c   5.84024500
_cell_angle_alpha   90.00000000
_cell_angle_beta   90.00000000
_cell_angle_gamma   89.86877254
_symmetry_Int_Tables_number   1
_chemical_formula_structural   Al4Ga4Bi3SbO18
_chemical_formula_sum   'Al4 Ga4 Bi3 Sb1 O18'
_cell_volume   383.34710150
_cell_formula_units_Z   1
loop_
 _symmetry_equiv_pos_site_id
 _symmetry_equiv_pos_as_xyz
  1  'x, y, z'
loop_
 _atom_site_type_symbol
 _atom_site_label
 _atom_site_symmetry_multiplicity
 _atom_site_fract_x
 _atom_site_fract_y
 _atom_site_fract_z
 _atom_site_occupancy
  Al  Al0  1  0.500285  0.999024  0.257843  1
  Al  Al1  1  0.999954  0.498614  0.258580  1
  Al  Al2  1  0.500285  0.999024  0.742156  1
  Al  Al3  1  0.999954  0.498614  0.741419  1
  Ga  Ga4  1  0.846372  0.163373  0.500000  1
  Ga  Ga5  1  0.346794  0.336914  0.500000  1
  Ga  Ga6  1  0.653680  0.664471  0.500000  1
  Ga  Ga7  1  0.150848  0.835622  0.500000  1
  Bi  Bi8  1  0.673416  0.336245  0.000000  1
  Bi  Bi9  1  0.330991  0.668002  0.000000  1
  Bi  Bi10  1  0.832196  0.836888  0.000000  1
  Sb  Sb11  1  0.185320  0.173982  0.000000  1
  O  O12  1  0.641135  0.070056  0.000000  1
  O  O13  1  0.145088  0.422749  0.000000  1
  O  O14  1  0.862409  0.568815  0.000000  1
  O  O15  1  0.358694  0.933064  0.000000  1
  O  O16  1  0.368979  0.202149  0.239954  1
  O  O17  1  0.870845  0.300778  0.246919  1
  O  O18  1  0.128284  0.698855  0.243709  1
  O  O19  1  0.626771  0.798603  0.243066  1
  O  O20  1  0.987577  0.990006  0.500000  1
  O  O21  1  0.624582  0.091022  0.500000  1
  O  O22  1  0.128180  0.410597  0.500000  1
  O  O23  1  0.500694  0.499223  0.500000  1
  O  O24  1  0.872483  0.589200  0.500000  1
  O  O25  1  0.369310  0.913723  0.500000  1
  O  O26  1  0.368979  0.202149  0.760045  1
  O  O27  1  0.870845  0.300778  0.753080  1
  O  O28  1  0.128284  0.698855  0.756290  1
  O  O29  1  0.626771  0.798603  0.756933  1
