# generated using pymatgen
data_SrV4ZnO12
_symmetry_space_group_name_H-M   'P 1'
_cell_length_a   8.19957614
_cell_length_b   8.19957557
_cell_length_c   10.11957635
_cell_angle_alpha   70.42900224
_cell_angle_beta   70.42900714
_cell_angle_gamma   71.87545692
_symmetry_Int_Tables_number   1
_chemical_formula_structural   SrV4ZnO12
_chemical_formula_sum   'Sr2 V8 Zn2 O24'
_cell_volume   588.67654392
_cell_formula_units_Z   2
loop_
 _symmetry_equiv_pos_site_id
 _symmetry_equiv_pos_as_xyz
  1  'x, y, z'
loop_
 _atom_site_type_symbol
 _atom_site_label
 _atom_site_symmetry_multiplicity
 _atom_site_fract_x
 _atom_site_fract_y
 _atom_site_fract_z
 _atom_site_occupancy
  Sr  Sr0  1  0.933430  0.066570  0.750000  1
  Sr  Sr1  1  0.066570  0.933430  0.250000  1
  V  V2  1  0.305840  0.304473  0.703925  1
  V  V3  1  0.695527  0.694160  0.796075  1
  V  V4  1  0.694160  0.695527  0.296075  1
  V  V5  1  0.304473  0.305840  0.203925  1
  V  V6  1  0.716796  0.289560  0.455501  1
  V  V7  1  0.710440  0.283204  0.044499  1
  V  V8  1  0.283204  0.710440  0.544499  1
  V  V9  1  0.289560  0.716796  0.955501  1
  Zn  Zn10  1  0.500000  0.000000  0.000000  1
  Zn  Zn11  1  0.000000  0.500000  0.500000  1
  O  O12  1  0.279488  0.530376  0.708695  1
  O  O13  1  0.469624  0.720512  0.791305  1
  O  O14  1  0.720512  0.469624  0.291305  1
  O  O15  1  0.530376  0.279488  0.208695  1
  O  O16  1  0.492122  0.266297  0.552941  1
  O  O17  1  0.733703  0.507878  0.947059  1
  O  O18  1  0.507878  0.733703  0.447059  1
  O  O19  1  0.266297  0.492122  0.052941  1
  O  O20  1  0.345528  0.158060  0.857537  1
  O  O21  1  0.841940  0.654472  0.642463  1
  O  O22  1  0.654472  0.841940  0.142463  1
  O  O23  1  0.158060  0.345528  0.357537  1
  O  O24  1  0.115729  0.298091  0.671304  1
  O  O25  1  0.701909  0.884271  0.828696  1
  O  O26  1  0.884271  0.701909  0.328696  1
  O  O27  1  0.298091  0.115729  0.171304  1
  O  O28  1  0.807726  0.341469  0.561816  1
  O  O29  1  0.658531  0.192274  0.938184  1
  O  O30  1  0.192274  0.658531  0.438184  1
  O  O31  1  0.341469  0.807726  0.061816  1
  O  O32  1  0.839520  0.098382  0.419218  1
  O  O33  1  0.901618  0.160480  0.080782  1
  O  O34  1  0.160480  0.901618  0.580782  1
  O  O35  1  0.098382  0.839520  0.919218  1
