# generated using pymatgen
data_Tb6Er10Cd4Co3Ir
_symmetry_space_group_name_H-M   'P 1'
_cell_length_a   9.51338757
_cell_length_b   9.47371160
_cell_length_c   9.47371200
_cell_angle_alpha   59.99999861
_cell_angle_beta   60.13786337
_cell_angle_gamma   60.13786460
_symmetry_Int_Tables_number   1
_chemical_formula_structural   Tb6Er10Cd4Co3Ir
_chemical_formula_sum   'Tb6 Er10 Cd4 Co3 Ir1'
_cell_volume   605.00975663
_cell_formula_units_Z   1
loop_
 _symmetry_equiv_pos_site_id
 _symmetry_equiv_pos_as_xyz
  1  'x, y, z'
loop_
 _atom_site_type_symbol
 _atom_site_label
 _atom_site_symmetry_multiplicity
 _atom_site_fract_x
 _atom_site_fract_y
 _atom_site_fract_z
 _atom_site_occupancy
  Tb  Tb0  1  0.187775  0.811954  0.811954  1
  Tb  Tb1  1  0.811718  0.188653  0.188653  1
  Tb  Tb2  1  0.811718  0.188653  0.810976  1
  Tb  Tb3  1  0.187775  0.811954  0.188317  1
  Tb  Tb4  1  0.811718  0.810976  0.188653  1
  Tb  Tb5  1  0.187775  0.188317  0.811954  1
  Er  Er6  1  0.593131  0.600087  0.600087  1
  Er  Er7  1  0.593131  0.600087  0.206696  1
  Er  Er8  1  0.593131  0.206696  0.600087  1
  Er  Er9  1  0.209717  0.596761  0.596761  1
  Er  Er10  1  0.067178  0.437261  0.437261  1
  Er  Er11  1  0.437109  0.063240  0.063240  1
  Er  Er12  1  0.437109  0.063240  0.436412  1
  Er  Er13  1  0.067178  0.437261  0.058300  1
  Er  Er14  1  0.437109  0.436412  0.063240  1
  Er  Er15  1  0.067178  0.058300  0.437261  1
  Cd  Cd16  1  0.830343  0.829930  0.829930  1
  Cd  Cd17  1  0.830343  0.829930  0.509798  1
  Cd  Cd18  1  0.830343  0.509798  0.829930  1
  Cd  Cd19  1  0.509530  0.830157  0.830157  1
  Co  Co20  1  0.391485  0.391609  0.391609  1
  Co  Co21  1  0.391485  0.391609  0.825298  1
  Co  Co22  1  0.391485  0.825298  0.391609  1
  Ir  Ir23  1  0.824540  0.391820  0.391820  1
