# generated using pymatgen
data_LiDy6CoBr12
_symmetry_space_group_name_H-M   'P 1'
_cell_length_a   9.16594536
_cell_length_b   9.16594558
_cell_length_c   9.16594764
_cell_angle_alpha   107.59710336
_cell_angle_beta   107.59710164
_cell_angle_gamma   107.59710768
_symmetry_Int_Tables_number   1
_chemical_formula_structural   LiDy6CoBr12
_chemical_formula_sum   'Li1 Dy6 Co1 Br12'
_cell_volume   630.58650561
_cell_formula_units_Z   1
loop_
 _symmetry_equiv_pos_site_id
 _symmetry_equiv_pos_as_xyz
  1  'x, y, z'
loop_
 _atom_site_type_symbol
 _atom_site_label
 _atom_site_symmetry_multiplicity
 _atom_site_fract_x
 _atom_site_fract_y
 _atom_site_fract_z
 _atom_site_occupancy
  Li  Li0  1  0.500000  0.500000  0.500000  1
  Dy  Dy1  1  0.313968  0.107543  0.032764  1
  Dy  Dy2  1  0.107543  0.032764  0.313968  1
  Dy  Dy3  1  0.032764  0.313968  0.107543  1
  Dy  Dy4  1  0.686032  0.892457  0.967236  1
  Dy  Dy5  1  0.892457  0.967236  0.686032  1
  Dy  Dy6  1  0.967236  0.686032  0.892457  1
  Co  Co7  1  0.000000  0.000000  0.000000  1
  Br  Br8  1  0.220481  0.070449  0.681718  1
  Br  Br9  1  0.070449  0.681718  0.220481  1
  Br  Br10  1  0.681718  0.220481  0.070449  1
  Br  Br11  1  0.779519  0.929551  0.318282  1
  Br  Br12  1  0.929551  0.318282  0.779519  1
  Br  Br13  1  0.318282  0.779519  0.929551  1
  Br  Br14  1  0.380664  0.458479  0.163978  1
  Br  Br15  1  0.458479  0.163978  0.380664  1
  Br  Br16  1  0.163978  0.380664  0.458479  1
  Br  Br17  1  0.619336  0.541521  0.836022  1
  Br  Br18  1  0.541521  0.836022  0.619336  1
  Br  Br19  1  0.836022  0.619336  0.541521  1
