# generated using pymatgen
data_Zr2MnB2Ru5
_symmetry_space_group_name_H-M   'P 1'
_cell_length_a   9.35996400
_cell_length_b   9.35996400
_cell_length_c   3.08728000
_cell_angle_alpha   90.00000000
_cell_angle_beta   90.00000000
_cell_angle_gamma   90.00000000
_symmetry_Int_Tables_number   1
_chemical_formula_structural   Zr2MnB2Ru5
_chemical_formula_sum   'Zr4 Mn2 B4 Ru10'
_cell_volume   270.47328531
_cell_formula_units_Z   2
loop_
 _symmetry_equiv_pos_site_id
 _symmetry_equiv_pos_as_xyz
  1  'x, y, z'
loop_
 _atom_site_type_symbol
 _atom_site_label
 _atom_site_symmetry_multiplicity
 _atom_site_fract_x
 _atom_site_fract_y
 _atom_site_fract_z
 _atom_site_occupancy
  Zr  Zr0  1  0.676376  0.176376  0.000000  1
  Zr  Zr1  1  0.323624  0.823624  0.000000  1
  Zr  Zr2  1  0.176376  0.323624  0.000000  1
  Zr  Zr3  1  0.823624  0.676376  0.000000  1
  Mn  Mn4  1  0.000000  0.000000  0.000000  1
  Mn  Mn5  1  0.500000  0.500000  0.000000  1
  B  B6  1  0.123984  0.623984  0.000000  1
  B  B7  1  0.876016  0.376016  0.000000  1
  B  B8  1  0.623984  0.876016  0.000000  1
  B  B9  1  0.376016  0.123984  0.000000  1
  Ru  Ru10  1  0.214149  0.070671  0.500000  1
  Ru  Ru11  1  0.785851  0.929329  0.500000  1
  Ru  Ru12  1  0.070671  0.785851  0.500000  1
  Ru  Ru13  1  0.714149  0.429329  0.500000  1
  Ru  Ru14  1  0.929329  0.214149  0.500000  1
  Ru  Ru15  1  0.285851  0.570671  0.500000  1
  Ru  Ru16  1  0.570671  0.714149  0.500000  1
  Ru  Ru17  1  0.429329  0.285851  0.500000  1
  Ru  Ru18  1  0.500000  0.000000  0.500000  1
  Ru  Ru19  1  0.000000  0.500000  0.500000  1
