# generated using pymatgen
data_LaThSb5
_symmetry_space_group_name_H-M   'P 1'
_cell_length_a   4.31844300
_cell_length_b   13.59268967
_cell_length_c   15.21561563
_cell_angle_alpha   78.84764306
_cell_angle_beta   90.00000000
_cell_angle_gamma   90.00000000
_symmetry_Int_Tables_number   1
_chemical_formula_structural   LaThSb5
_chemical_formula_sum   'La4 Th4 Sb20'
_cell_volume   876.27944685
_cell_formula_units_Z   4
loop_
 _symmetry_equiv_pos_site_id
 _symmetry_equiv_pos_as_xyz
  1  'x, y, z'
loop_
 _atom_site_type_symbol
 _atom_site_label
 _atom_site_symmetry_multiplicity
 _atom_site_fract_x
 _atom_site_fract_y
 _atom_site_fract_z
 _atom_site_occupancy
  La  La0  1  0.250000  0.949986  0.363090  1
  La  La1  1  0.750000  0.050014  0.636910  1
  La  La2  1  0.250000  0.665617  0.859427  1
  La  La3  1  0.750000  0.334383  0.140573  1
  Th  Th4  1  0.250000  0.668086  0.570982  1
  Th  Th5  1  0.750000  0.331914  0.429018  1
  Th  Th6  1  0.250000  0.389597  0.767503  1
  Th  Th7  1  0.750000  0.610403  0.232497  1
  Sb  Sb8  1  0.250000  0.429719  0.550762  1
  Sb  Sb9  1  0.750000  0.570281  0.449238  1
  Sb  Sb10  1  0.250000  0.717682  0.068823  1
  Sb  Sb11  1  0.750000  0.282318  0.931177  1
  Sb  Sb12  1  0.250000  0.422306  0.974409  1
  Sb  Sb13  1  0.750000  0.577694  0.025591  1
  Sb  Sb14  1  0.250000  0.858050  0.680986  1
  Sb  Sb15  1  0.750000  0.141950  0.319014  1
  Sb  Sb16  1  0.250000  0.143922  0.178708  1
  Sb  Sb17  1  0.750000  0.856078  0.821292  1
  Sb  Sb18  1  0.250000  0.713579  0.346422  1
  Sb  Sb19  1  0.750000  0.286421  0.653578  1
  Sb  Sb20  1  0.250000  0.141160  0.774811  1
  Sb  Sb21  1  0.750000  0.858840  0.225189  1
  Sb  Sb22  1  0.250000  0.425873  0.270985  1
  Sb  Sb23  1  0.750000  0.574127  0.729015  1
  Sb  Sb24  1  0.250000  0.150922  0.479186  1
  Sb  Sb25  1  0.750000  0.849078  0.520814  1
  Sb  Sb26  1  0.250000  0.963561  0.102064  1
  Sb  Sb27  1  0.750000  0.036439  0.897936  1
