# generated using pymatgen
data_BaMg5(SeO3)6
_symmetry_space_group_name_H-M   'P 1'
_cell_length_a   9.63801983
_cell_length_b   10.10532938
_cell_length_c   10.10532900
_cell_angle_alpha   59.98102298
_cell_angle_beta   91.21636686
_cell_angle_gamma   91.21636877
_symmetry_Int_Tables_number   1
_chemical_formula_structural   BaMg5(SeO3)6
_chemical_formula_sum   'Ba2 Mg10 Se12 O36'
_cell_volume   851.93373078
_cell_formula_units_Z   2
loop_
 _symmetry_equiv_pos_site_id
 _symmetry_equiv_pos_as_xyz
  1  'x, y, z'
loop_
 _atom_site_type_symbol
 _atom_site_label
 _atom_site_symmetry_multiplicity
 _atom_site_fract_x
 _atom_site_fract_y
 _atom_site_fract_z
 _atom_site_occupancy
  Ba  Ba0  1  0.749999  0.999160  0.000840  1
  Ba  Ba1  1  0.250000  0.000840  0.999160  1
  Mg  Mg2  1  0.251021  0.622995  0.001187  1
  Mg  Mg3  1  0.825525  0.333210  0.332195  1
  Mg  Mg4  1  0.325526  0.332195  0.333210  1
  Mg  Mg5  1  0.248979  0.998813  0.377005  1
  Mg  Mg6  1  0.749999  0.622532  0.377468  1
  Mg  Mg7  1  0.250000  0.377468  0.622532  1
  Mg  Mg8  1  0.751022  0.001187  0.622995  1
  Mg  Mg9  1  0.674475  0.667805  0.666790  1
  Mg  Mg10  1  0.174476  0.666790  0.667805  1
  Mg  Mg11  1  0.748979  0.377006  0.998814  1
  Se  Se12  1  0.078485  0.309484  0.076119  1
  Se  Se13  1  0.581886  0.610866  0.076330  1
  Se  Se14  1  0.578485  0.076119  0.309484  1
  Se  Se15  1  0.083297  0.612088  0.311315  1
  Se  Se16  1  0.416704  0.688685  0.387912  1
  Se  Se17  1  0.918113  0.923670  0.389135  1
  Se  Se18  1  0.081886  0.076330  0.610865  1
  Se  Se19  1  0.583297  0.311315  0.612088  1
  Se  Se20  1  0.916703  0.387912  0.688685  1
  Se  Se21  1  0.421514  0.923880  0.690516  1
  Se  Se22  1  0.418114  0.389135  0.923670  1
  Se  Se23  1  0.921516  0.690515  0.923880  1
  O  O24  1  0.637326  0.167602  0.120768  1
  O  O25  1  0.142228  0.707998  0.122718  1
  O  O26  1  0.686845  0.453266  0.147429  1
  O  O27  1  0.186239  0.396917  0.148033  1
  O  O28  1  0.920054  0.304614  0.158690  1
  O  O29  1  0.137327  0.120767  0.167602  1
  O  O30  1  0.422446  0.532694  0.159700  1
  O  O31  1  0.643267  0.708022  0.168548  1
  O  O32  1  0.357772  0.877282  0.292002  1
  O  O33  1  0.856732  0.831452  0.291979  1
  O  O34  1  0.420053  0.158690  0.304615  1
  O  O35  1  0.921417  0.534927  0.306912  1
  O  O36  1  0.686239  0.148033  0.396917  1
  O  O37  1  0.186646  0.453135  0.397317  1
  O  O38  1  0.686646  0.397318  0.453136  1
  O  O39  1  0.186845  0.147429  0.453266  1
  O  O40  1  0.077553  0.840300  0.467306  1
  O  O41  1  0.578584  0.693088  0.465073  1
  O  O42  1  0.421416  0.306912  0.534927  1
  O  O43  1  0.922447  0.159700  0.532694  1
  O  O44  1  0.813154  0.852571  0.546734  1
  O  O45  1  0.313354  0.602683  0.546865  1
  O  O46  1  0.813354  0.546865  0.602683  1
  O  O47  1  0.313760  0.851966  0.603083  1
  O  O48  1  0.078584  0.465073  0.693088  1
  O  O49  1  0.579947  0.841310  0.695385  1
  O  O50  1  0.143267  0.168548  0.708022  1
  O  O51  1  0.642228  0.122718  0.707998  1
  O  O52  1  0.356733  0.291978  0.831452  1
  O  O53  1  0.577553  0.467306  0.840300  1
  O  O54  1  0.862673  0.879233  0.832398  1
  O  O55  1  0.079946  0.695385  0.841310  1
  O  O56  1  0.813762  0.603083  0.851966  1
  O  O57  1  0.313154  0.546734  0.852571  1
  O  O58  1  0.857772  0.292001  0.877282  1
  O  O59  1  0.362674  0.832398  0.879233  1
