# generated using pymatgen
data_Ho5Er(Sc2Pb3)2
_symmetry_space_group_name_H-M   'P 1'
_cell_length_a   8.86882200
_cell_length_b   8.86734100
_cell_length_c   6.35094000
_cell_angle_alpha   90.00000000
_cell_angle_beta   90.00000000
_cell_angle_gamma   120.00552503
_symmetry_Int_Tables_number   1
_chemical_formula_structural   Ho5Er(Sc2Pb3)2
_chemical_formula_sum   'Ho5 Er1 Sc4 Pb6'
_cell_volume   432.51762408
_cell_formula_units_Z   1
loop_
 _symmetry_equiv_pos_site_id
 _symmetry_equiv_pos_as_xyz
  1  'x, y, z'
loop_
 _atom_site_type_symbol
 _atom_site_label
 _atom_site_symmetry_multiplicity
 _atom_site_fract_x
 _atom_site_fract_y
 _atom_site_fract_z
 _atom_site_occupancy
  Ho  Ho0  1  0.237833  0.000000  0.250000  1
  Ho  Ho1  1  0.237767  0.237797  0.750000  1
  Ho  Ho2  1  0.999970  0.762203  0.750000  1
  Ho  Ho3  1  0.999970  0.237777  0.250000  1
  Ho  Ho4  1  0.762193  0.762223  0.250000  1
  Er  Er5  1  0.762195  0.000000  0.750000  1
  Sc  Sc6  1  0.333344  0.666671  0.999993  1
  Sc  Sc7  1  0.666674  0.333329  0.500007  1
  Sc  Sc8  1  0.666674  0.333329  0.999993  1
  Sc  Sc9  1  0.333344  0.666671  0.500007  1
  Pb  Pb10  1  0.601205  0.000000  0.250000  1
  Pb  Pb11  1  0.601249  0.601313  0.750000  1
  Pb  Pb12  1  0.999936  0.398687  0.750000  1
  Pb  Pb13  1  0.000000  0.601210  0.250000  1
  Pb  Pb14  1  0.398790  0.398790  0.250000  1
  Pb  Pb15  1  0.398856  0.000000  0.750000  1
