# generated using pymatgen
data_Ce2B(IrRh)3
_symmetry_space_group_name_H-M   'P 1'
_cell_length_a   5.88265889
_cell_length_b   5.88265811
_cell_length_c   5.88514505
_cell_angle_alpha   60.01396772
_cell_angle_beta   60.01397424
_cell_angle_gamma   60.00000457
_symmetry_Int_Tables_number   1
_chemical_formula_structural   Ce2B(IrRh)3
_chemical_formula_sum   'Ce2 B1 Ir3 Rh3'
_cell_volume   144.03934641
_cell_formula_units_Z   1
loop_
 _symmetry_equiv_pos_site_id
 _symmetry_equiv_pos_as_xyz
  1  'x, y, z'
loop_
 _atom_site_type_symbol
 _atom_site_label
 _atom_site_symmetry_multiplicity
 _atom_site_fract_x
 _atom_site_fract_y
 _atom_site_fract_z
 _atom_site_occupancy
  Ce  Ce0  1  0.749956  0.749956  0.750132  1
  Ce  Ce1  1  0.249910  0.249910  0.250269  1
  B  B2  1  0.000088  0.000088  0.999736  1
  Ir  Ir3  1  0.257086  0.257086  0.743367  1
  Ir  Ir4  1  0.742460  0.257086  0.743367  1
  Ir  Ir5  1  0.257086  0.742460  0.743367  1
  Rh  Rh6  1  0.743658  0.743658  0.256587  1
  Rh  Rh7  1  0.256098  0.743658  0.256587  1
  Rh  Rh8  1  0.743658  0.256098  0.256587  1
