# generated using pymatgen
data_Hf2ScSn3Rh10
_symmetry_space_group_name_H-M   'P 1'
_cell_length_a   4.18647300
_cell_length_b   5.61628429
_cell_length_c   11.05442542
_cell_angle_alpha   91.00716333
_cell_angle_beta   90.00000000
_cell_angle_gamma   90.00000000
_symmetry_Int_Tables_number   1
_chemical_formula_structural   Hf2ScSn3Rh10
_chemical_formula_sum   'Hf2 Sc1 Sn3 Rh10'
_cell_volume   259.87616591
_cell_formula_units_Z   1
loop_
 _symmetry_equiv_pos_site_id
 _symmetry_equiv_pos_as_xyz
  1  'x, y, z'
loop_
 _atom_site_type_symbol
 _atom_site_label
 _atom_site_symmetry_multiplicity
 _atom_site_fract_x
 _atom_site_fract_y
 _atom_site_fract_z
 _atom_site_occupancy
  Hf  Hf0  1  0.500000  0.671176  0.859526  1
  Hf  Hf1  1  0.500000  0.322021  0.143490  1
  Sc  Sc2  1  0.500000  0.828473  0.357917  1
  Sn  Sn3  1  0.500000  0.168312  0.642195  1
  Sn  Sn4  1  0.000000  0.523395  0.493559  1
  Sn  Sn5  1  0.000000  0.000018  0.001864  1
  Rh  Rh6  1  0.500000  0.196289  0.888247  1
  Rh  Rh7  1  0.500000  0.798706  0.113094  1
  Rh  Rh8  1  0.500000  0.690209  0.615671  1
  Rh  Rh9  1  0.500000  0.308438  0.385518  1
  Rh  Rh10  1  0.000000  0.424356  0.741164  1
  Rh  Rh11  1  0.000000  0.565318  0.248339  1
  Rh  Rh12  1  0.000000  0.021480  0.503763  1
  Rh  Rh13  1  0.000000  0.499037  0.997489  1
  Rh  Rh14  1  0.000000  0.065776  0.249003  1
  Rh  Rh15  1  0.000000  0.916997  0.759160  1
