# generated using pymatgen
data_Ba20Ga5Tc7O44
_symmetry_space_group_name_H-M   'P 1'
_cell_length_a   5.89772500
_cell_length_b   11.26774549
_cell_length_c   19.09295500
_cell_angle_alpha   90.23340435
_cell_angle_beta   90.00000000
_cell_angle_gamma   90.00000000
_symmetry_Int_Tables_number   1
_chemical_formula_structural   Ba20Ga5Tc7O44
_chemical_formula_sum   'Ba20 Ga5 Tc7 O44'
_cell_volume   1268.79393123
_cell_formula_units_Z   1
loop_
 _symmetry_equiv_pos_site_id
 _symmetry_equiv_pos_as_xyz
  1  'x, y, z'
loop_
 _atom_site_type_symbol
 _atom_site_label
 _atom_site_symmetry_multiplicity
 _atom_site_fract_x
 _atom_site_fract_y
 _atom_site_fract_z
 _atom_site_occupancy
  Ba  Ba0  1  0.250000  0.130371  0.745615  1
  Ba  Ba1  1  0.250000  0.370078  0.248913  1
  Ba  Ba2  1  0.750000  0.868511  0.250955  1
  Ba  Ba3  1  0.750000  0.631391  0.750227  1
  Ba  Ba4  1  0.250000  0.453865  0.667172  1
  Ba  Ba5  1  0.250000  0.044117  0.169655  1
  Ba  Ba6  1  0.750000  0.546202  0.329406  1
  Ba  Ba7  1  0.750000  0.956090  0.830351  1
  Ba  Ba8  1  0.250000  0.892402  0.973721  1
  Ba  Ba9  1  0.250000  0.603984  0.473133  1
  Ba  Ba10  1  0.750000  0.106718  0.026873  1
  Ba  Ba11  1  0.750000  0.385378  0.526240  1
  Ba  Ba12  1  0.250000  0.816645  0.636908  1
  Ba  Ba13  1  0.250000  0.686786  0.137627  1
  Ba  Ba14  1  0.750000  0.185880  0.364089  1
  Ba  Ba15  1  0.750000  0.313254  0.862396  1
  Ba  Ba16  1  0.250000  0.528075  0.932530  1
  Ba  Ba17  1  0.250000  0.976532  0.439395  1
  Ba  Ba18  1  0.750000  0.472237  0.066820  1
  Ba  Ba19  1  0.750000  0.034567  0.566580  1
  Ga  Ga20  1  0.250000  0.762632  0.810541  1
  Ga  Ga21  1  0.250000  0.737589  0.311198  1
  Ga  Ga22  1  0.750000  0.236247  0.189472  1
  Ga  Ga23  1  0.750000  0.264694  0.689661  1
  Ga  Ga24  1  0.250000  0.198412  0.568525  1
  Tc  Tc25  1  0.250000  0.206974  0.936142  1
  Tc  Tc26  1  0.250000  0.294684  0.432390  1
  Tc  Tc27  1  0.750000  0.792229  0.064087  1
  Tc  Tc28  1  0.750000  0.706889  0.563717  1
  Tc  Tc29  1  0.250000  0.293320  0.059690  1
  Tc  Tc30  1  0.750000  0.793003  0.440334  1
  Tc  Tc31  1  0.750000  0.706704  0.940502  1
  O  O32  1  0.250000  0.035713  0.591259  1
  O  O33  1  0.250000  0.458547  0.089590  1
  O  O34  1  0.750000  0.958357  0.411905  1
  O  O35  1  0.750000  0.541298  0.911588  1
  O  O36  1  0.250000  0.308057  0.853603  1
  O  O37  1  0.250000  0.189084  0.353144  1
  O  O38  1  0.750000  0.690273  0.147167  1
  O  O39  1  0.750000  0.809739  0.645844  1
  O  O40  1  0.250000  0.910875  0.770766  1
  O  O41  1  0.250000  0.589534  0.269482  1
  O  O42  1  0.750000  0.088439  0.229915  1
  O  O43  1  0.750000  0.412390  0.732112  1
  O  O44  1  0.250000  0.638153  0.748975  1
  O  O45  1  0.250000  0.859652  0.248395  1
  O  O46  1  0.750000  0.360066  0.251449  1
  O  O47  1  0.750000  0.140949  0.752186  1
  O  O48  1  0.250000  0.377169  0.525801  1
  O  O49  1  0.250000  0.114861  0.030486  1
  O  O50  1  0.750000  0.614577  0.469653  1
  O  O51  1  0.750000  0.885203  0.970055  1
  O  O52  1  0.012664  0.322169  0.984604  1
  O  O53  1  0.478197  0.185599  0.482621  1
  O  O54  1  0.512137  0.678018  0.015601  1
  O  O55  1  0.987389  0.819906  0.515322  1
  O  O56  1  0.987863  0.678018  0.015601  1
  O  O57  1  0.512611  0.819906  0.515322  1
  O  O58  1  0.487336  0.322169  0.984604  1
  O  O59  1  0.021803  0.185599  0.482621  1
  O  O60  1  0.013420  0.106993  0.903276  1
  O  O61  1  0.482693  0.396342  0.399010  1
  O  O62  1  0.513867  0.892583  0.098102  1
  O  O63  1  0.985497  0.607488  0.597113  1
  O  O64  1  0.986133  0.892583  0.098102  1
  O  O65  1  0.514503  0.607488  0.597113  1
  O  O66  1  0.486580  0.106993  0.903276  1
  O  O67  1  0.017307  0.396342  0.399010  1
  O  O68  1  0.005826  0.252466  0.632509  1
  O  O69  1  0.492027  0.249803  0.132677  1
  O  O70  1  0.509148  0.748924  0.367234  1
  O  O71  1  0.992332  0.750014  0.867809  1
  O  O72  1  0.990852  0.748924  0.367234  1
  O  O73  1  0.507668  0.750014  0.867809  1
  O  O74  1  0.494174  0.252466  0.632509  1
  O  O75  1  0.007973  0.249803  0.132677  1
