# generated using pymatgen
data_La20FeBi8Ru3
_symmetry_space_group_name_H-M   'P 1'
_cell_length_a   8.54921548
_cell_length_b   9.26055300
_cell_length_c   13.07928817
_cell_angle_alpha   90.00000000
_cell_angle_beta   89.73765765
_cell_angle_gamma   90.00000000
_symmetry_Int_Tables_number   1
_chemical_formula_structural   La20FeBi8Ru3
_chemical_formula_sum   'La20 Fe1 Bi8 Ru3'
_cell_volume   1035.48244643
_cell_formula_units_Z   1
loop_
 _symmetry_equiv_pos_site_id
 _symmetry_equiv_pos_as_xyz
  1  'x, y, z'
loop_
 _atom_site_type_symbol
 _atom_site_label
 _atom_site_symmetry_multiplicity
 _atom_site_fract_x
 _atom_site_fract_y
 _atom_site_fract_z
 _atom_site_occupancy
  La  La0  1  0.353767  0.750000  0.694523  1
  La  La1  1  0.646652  0.250000  0.301216  1
  La  La2  1  0.852458  0.250000  0.799984  1
  La  La3  1  0.147002  0.750000  0.199125  1
  La  La4  1  0.877436  0.750000  0.806804  1
  La  La5  1  0.122181  0.250000  0.194022  1
  La  La6  1  0.378554  0.250000  0.691845  1
  La  La7  1  0.620567  0.750000  0.309916  1
  La  La8  1  0.680315  0.536715  0.564183  1
  La  La9  1  0.321572  0.472948  0.436842  1
  La  La10  1  0.179814  0.465661  0.934102  1
  La  La11  1  0.321572  0.027052  0.436842  1
  La  La12  1  0.819396  0.533434  0.065708  1
  La  La13  1  0.680315  0.963285  0.564183  1
  La  La14  1  0.819396  0.966566  0.065708  1
  La  La15  1  0.179814  0.034339  0.934102  1
  La  La16  1  0.058805  0.750000  0.495222  1
  La  La17  1  0.943873  0.250000  0.504605  1
  La  La18  1  0.552939  0.250000  0.003898  1
  La  La19  1  0.445389  0.750000  0.994914  1
  Fe  Fe20  1  0.421457  0.750000  0.490001  1
  Bi  Bi21  1  0.574092  0.505844  0.826538  1
  Bi  Bi22  1  0.425547  0.494651  0.173426  1
  Bi  Bi23  1  0.075200  0.494192  0.672146  1
  Bi  Bi24  1  0.425547  0.005349  0.173426  1
  Bi  Bi25  1  0.925161  0.506213  0.327664  1
  Bi  Bi26  1  0.574092  0.994156  0.826538  1
  Bi  Bi27  1  0.925161  0.993787  0.327664  1
  Bi  Bi28  1  0.075200  0.005808  0.672146  1
  Ru  Ru29  1  0.076920  0.750000  0.987949  1
  Ru  Ru30  1  0.921972  0.250000  0.012678  1
  Ru  Ru31  1  0.577834  0.250000  0.512079  1
