# generated using pymatgen
data_Tb4TaPd15
_symmetry_space_group_name_H-M   'P 1'
_cell_length_a   4.09837100
_cell_length_b   4.09837100
_cell_length_c   20.50276800
_cell_angle_alpha   90.00000000
_cell_angle_beta   90.00000000
_cell_angle_gamma   90.00000000
_symmetry_Int_Tables_number   1
_chemical_formula_structural   Tb4TaPd15
_chemical_formula_sum   'Tb4 Ta1 Pd15'
_cell_volume   344.37771261
_cell_formula_units_Z   1
loop_
 _symmetry_equiv_pos_site_id
 _symmetry_equiv_pos_as_xyz
  1  'x, y, z'
loop_
 _atom_site_type_symbol
 _atom_site_label
 _atom_site_symmetry_multiplicity
 _atom_site_fract_x
 _atom_site_fract_y
 _atom_site_fract_z
 _atom_site_occupancy
  Tb  Tb0  1  0.000000  0.000000  0.198966  1
  Tb  Tb1  1  0.000000  0.000000  0.398579  1
  Tb  Tb2  1  0.000000  0.000000  0.601421  1
  Tb  Tb3  1  0.000000  0.000000  0.801034  1
  Ta  Ta4  1  0.000000  0.000000  0.000000  1
  Pd  Pd5  1  0.500000  0.500000  0.000000  1
  Pd  Pd6  1  0.500000  0.500000  0.193727  1
  Pd  Pd7  1  0.500000  0.500000  0.398093  1
  Pd  Pd8  1  0.500000  0.500000  0.601907  1
  Pd  Pd9  1  0.500000  0.500000  0.806273  1
  Pd  Pd10  1  0.500000  0.000000  0.090735  1
  Pd  Pd11  1  0.500000  0.000000  0.296552  1
  Pd  Pd12  1  0.500000  0.000000  0.500000  1
  Pd  Pd13  1  0.500000  0.000000  0.703448  1
  Pd  Pd14  1  0.500000  0.000000  0.909265  1
  Pd  Pd15  1  0.000000  0.500000  0.090735  1
  Pd  Pd16  1  0.000000  0.500000  0.296552  1
  Pd  Pd17  1  0.000000  0.500000  0.500000  1
  Pd  Pd18  1  0.000000  0.500000  0.703448  1
  Pd  Pd19  1  0.000000  0.500000  0.909265  1
