# generated using pymatgen
data_Tm7CoSn23Ir5
_symmetry_space_group_name_H-M   'P 1'
_cell_length_a   9.80177275
_cell_length_b   9.82524861
_cell_length_c   10.04440704
_cell_angle_alpha   89.99999832
_cell_angle_beta   89.93365011
_cell_angle_gamma   120.07925488
_symmetry_Int_Tables_number   1
_chemical_formula_structural   Tm7CoSn23Ir5
_chemical_formula_sum   'Tm7 Co1 Sn23 Ir5'
_cell_volume   837.05757674
_cell_formula_units_Z   1
loop_
 _symmetry_equiv_pos_site_id
 _symmetry_equiv_pos_as_xyz
  1  'x, y, z'
loop_
 _atom_site_type_symbol
 _atom_site_label
 _atom_site_symmetry_multiplicity
 _atom_site_fract_x
 _atom_site_fract_y
 _atom_site_fract_z
 _atom_site_occupancy
  Tm  Tm0  1  0.007514  0.003757  0.005460  1
  Tm  Tm1  1  0.481761  0.518973  0.308352  1
  Tm  Tm2  1  0.517893  0.480183  0.690393  1
  Tm  Tm3  1  0.481761  0.962788  0.308352  1
  Tm  Tm4  1  0.517893  0.037710  0.690393  1
  Tm  Tm5  1  0.036579  0.518289  0.307427  1
  Tm  Tm6  1  0.961903  0.480952  0.692178  1
  Co  Co7  1  0.660160  0.830080  0.800501  1
  Sn  Sn8  1  0.355934  0.000225  0.998789  1
  Sn  Sn9  1  0.649353  0.993614  0.994454  1
  Sn  Sn10  1  0.999785  0.352693  0.999770  1
  Sn  Sn11  1  0.999785  0.647092  0.999770  1
  Sn  Sn12  1  0.649353  0.655739  0.994454  1
  Sn  Sn13  1  0.355934  0.355709  0.998789  1
  Sn  Sn14  1  0.338889  0.669445  0.825084  1
  Sn  Sn15  1  0.665796  0.332897  0.171628  1
  Sn  Sn16  1  0.999596  0.999798  0.500724  1
  Sn  Sn17  1  0.780159  0.221150  0.459449  1
  Sn  Sn18  1  0.220693  0.777948  0.540597  1
  Sn  Sn19  1  0.780159  0.559009  0.459449  1
  Sn  Sn20  1  0.220693  0.442746  0.540597  1
  Sn  Sn21  1  0.443977  0.221988  0.458787  1
  Sn  Sn22  1  0.561983  0.780992  0.547284  1
  Sn  Sn23  1  0.334880  0.667440  0.121667  1
  Sn  Sn24  1  0.664275  0.332137  0.876505  1
  Sn  Sn25  1  0.117971  0.879236  0.284867  1
  Sn  Sn26  1  0.875153  0.110882  0.722450  1
  Sn  Sn27  1  0.117971  0.238735  0.284867  1
  Sn  Sn28  1  0.875153  0.764271  0.722450  1
  Sn  Sn29  1  0.759356  0.879678  0.285087  1
  Sn  Sn30  1  0.238188  0.119094  0.715110  1
  Ir  Ir31  1  0.828150  0.167415  0.198282  1
  Ir  Ir32  1  0.168173  0.829834  0.799458  1
  Ir  Ir33  1  0.828150  0.660734  0.198282  1
  Ir  Ir34  1  0.168173  0.338340  0.799458  1
  Ir  Ir35  1  0.336860  0.168429  0.198837  1
