# generated using pymatgen
data_Ho20CoIr3Pt8
_symmetry_space_group_name_H-M   'P 1'
_cell_length_a   10.98960800
_cell_length_b   10.98960800
_cell_length_c   6.29194900
_cell_angle_alpha   90.00000000
_cell_angle_beta   90.00000000
_cell_angle_gamma   90.00000000
_symmetry_Int_Tables_number   1
_chemical_formula_structural   Ho20CoIr3Pt8
_chemical_formula_sum   'Ho20 Co1 Ir3 Pt8'
_cell_volume   759.88801794
_cell_formula_units_Z   1
loop_
 _symmetry_equiv_pos_site_id
 _symmetry_equiv_pos_as_xyz
  1  'x, y, z'
loop_
 _atom_site_type_symbol
 _atom_site_label
 _atom_site_symmetry_multiplicity
 _atom_site_fract_x
 _atom_site_fract_y
 _atom_site_fract_z
 _atom_site_occupancy
  Ho  Ho0  1  0.296422  0.086619  0.371561  1
  Ho  Ho1  1  0.296863  0.913319  0.876163  1
  Ho  Ho2  1  0.703137  0.086681  0.876163  1
  Ho  Ho3  1  0.703578  0.913381  0.371561  1
  Ho  Ho4  1  0.586681  0.796863  0.876163  1
  Ho  Ho5  1  0.586619  0.203578  0.371561  1
  Ho  Ho6  1  0.413381  0.796422  0.371561  1
  Ho  Ho7  1  0.413319  0.203137  0.876163  1
  Ho  Ho8  1  0.205625  0.412110  0.626680  1
  Ho  Ho9  1  0.205592  0.587789  0.126568  1
  Ho  Ho10  1  0.794408  0.412211  0.126568  1
  Ho  Ho11  1  0.794375  0.587890  0.626680  1
  Ho  Ho12  1  0.912211  0.705592  0.126568  1
  Ho  Ho13  1  0.912110  0.294375  0.626680  1
  Ho  Ho14  1  0.087890  0.705625  0.626680  1
  Ho  Ho15  1  0.087789  0.294408  0.126568  1
  Ho  Ho16  1  0.000000  0.000000  0.499726  1
  Ho  Ho17  1  0.000000  0.000000  0.999890  1
  Ho  Ho18  1  0.500000  0.500000  0.999890  1
  Ho  Ho19  1  0.500000  0.500000  0.499726  1
  Co  Co20  1  0.500000  0.000000  0.120587  1
  Ir  Ir21  1  0.500000  0.000000  0.620323  1
  Ir  Ir22  1  0.000000  0.500000  0.879758  1
  Ir  Ir23  1  0.000000  0.500000  0.380019  1
  Pt  Pt24  1  0.845615  0.153427  0.249581  1
  Pt  Pt25  1  0.845866  0.846455  0.749467  1
  Pt  Pt26  1  0.154134  0.153545  0.749467  1
  Pt  Pt27  1  0.154385  0.846573  0.249581  1
  Pt  Pt28  1  0.653545  0.345866  0.749467  1
  Pt  Pt29  1  0.653427  0.654385  0.249581  1
  Pt  Pt30  1  0.346573  0.345615  0.249581  1
  Pt  Pt31  1  0.346455  0.654134  0.749467  1
