# generated using pymatgen
data_Er6Tm10Cd4TcPt3
_symmetry_space_group_name_H-M   'P 1'
_cell_length_a   9.61101034
_cell_length_b   9.61101167
_cell_length_c   9.61101042
_cell_angle_alpha   59.42102690
_cell_angle_beta   59.42102394
_cell_angle_gamma   59.42102311
_symmetry_Int_Tables_number   1
_chemical_formula_structural   Er6Tm10Cd4TcPt3
_chemical_formula_sum   'Er6 Tm10 Cd4 Tc1 Pt3'
_cell_volume   619.48799557
_cell_formula_units_Z   1
loop_
 _symmetry_equiv_pos_site_id
 _symmetry_equiv_pos_as_xyz
  1  'x, y, z'
loop_
 _atom_site_type_symbol
 _atom_site_label
 _atom_site_symmetry_multiplicity
 _atom_site_fract_x
 _atom_site_fract_y
 _atom_site_fract_z
 _atom_site_occupancy
  Er  Er0  1  0.935552  0.565343  0.565343  1
  Er  Er1  1  0.556197  0.938369  0.938369  1
  Er  Er2  1  0.565343  0.935552  0.565343  1
  Er  Er3  1  0.938369  0.556197  0.938369  1
  Er  Er4  1  0.565343  0.565343  0.935552  1
  Er  Er5  1  0.938369  0.938369  0.556197  1
  Tm  Tm6  1  0.351449  0.351449  0.351449  1
  Tm  Tm7  1  0.351471  0.351471  0.946650  1
  Tm  Tm8  1  0.351471  0.946650  0.351471  1
  Tm  Tm9  1  0.946650  0.351471  0.351471  1
  Tm  Tm10  1  0.815626  0.187701  0.187701  1
  Tm  Tm11  1  0.189044  0.810100  0.810100  1
  Tm  Tm12  1  0.187701  0.815626  0.187701  1
  Tm  Tm13  1  0.810100  0.189044  0.810100  1
  Tm  Tm14  1  0.187701  0.187701  0.815626  1
  Tm  Tm15  1  0.810100  0.810100  0.189044  1
  Cd  Cd16  1  0.579833  0.579833  0.579833  1
  Cd  Cd17  1  0.580741  0.580741  0.254212  1
  Cd  Cd18  1  0.580741  0.254212  0.580741  1
  Cd  Cd19  1  0.254212  0.580741  0.580741  1
  Tc  Tc20  1  0.144337  0.144337  0.144337  1
  Pt  Pt21  1  0.143688  0.143688  0.572277  1
  Pt  Pt22  1  0.143688  0.572277  0.143688  1
  Pt  Pt23  1  0.572277  0.143688  0.143688  1
