# generated using pymatgen
data_Tb3HoAlRh
_symmetry_space_group_name_H-M   'P 1'
_cell_length_a   9.55370143
_cell_length_b   9.54574013
_cell_length_c   9.54407701
_cell_angle_alpha   60.17189946
_cell_angle_beta   60.10697561
_cell_angle_gamma   60.09413811
_symmetry_Int_Tables_number   1
_chemical_formula_structural   Tb3HoAlRh
_chemical_formula_sum   'Tb12 Ho4 Al4 Rh4'
_cell_volume   617.19352948
_cell_formula_units_Z   4
loop_
 _symmetry_equiv_pos_site_id
 _symmetry_equiv_pos_as_xyz
  1  'x, y, z'
loop_
 _atom_site_type_symbol
 _atom_site_label
 _atom_site_symmetry_multiplicity
 _atom_site_fract_x
 _atom_site_fract_y
 _atom_site_fract_z
 _atom_site_occupancy
  Tb  Tb0  1  0.061393  0.062195  0.437075  1
  Tb  Tb1  1  0.436322  0.435467  0.062582  1
  Tb  Tb2  1  0.650466  0.649958  0.650178  1
  Tb  Tb3  1  0.808447  0.191475  0.191387  1
  Tb  Tb4  1  0.192467  0.808467  0.807544  1
  Tb  Tb5  1  0.060313  0.644778  0.645471  1
  Tb  Tb6  1  0.437500  0.061712  0.061006  1
  Tb  Tb7  1  0.436395  0.062446  0.436400  1
  Tb  Tb8  1  0.062195  0.435987  0.062264  1
  Tb  Tb9  1  0.645419  0.644945  0.060367  1
  Tb  Tb10  1  0.191414  0.808890  0.191247  1
  Tb  Tb11  1  0.062277  0.435605  0.436480  1
  Ho  Ho12  1  0.806815  0.807604  0.193367  1
  Ho  Ho13  1  0.807061  0.193511  0.806991  1
  Ho  Ho14  1  0.192226  0.192048  0.807563  1
  Ho  Ho15  1  0.644622  0.060909  0.644899  1
  Al  Al16  1  0.423013  0.421772  0.423413  1
  Al  Al17  1  0.424717  0.423711  0.730502  1
  Al  Al18  1  0.424609  0.730148  0.424771  1
  Al  Al19  1  0.730918  0.423704  0.424876  1
  Rh  Rh20  1  0.859803  0.427056  0.858271  1
  Rh  Rh21  1  0.854938  0.858176  0.856517  1
  Rh  Rh22  1  0.857920  0.858830  0.428901  1
  Rh  Rh23  1  0.428750  0.860608  0.857926  1
