# generated using pymatgen
data_Sm3Tm3Co2(P3Rh4)4
_symmetry_space_group_name_H-M   'P 1'
_cell_length_a   3.86495200
_cell_length_b   11.10692053
_cell_length_c   12.83912472
_cell_angle_alpha   90.05969950
_cell_angle_beta   90.00000000
_cell_angle_gamma   90.00000000
_symmetry_Int_Tables_number   1
_chemical_formula_structural   Sm3Tm3Co2(P3Rh4)4
_chemical_formula_sum   'Sm3 Tm3 Co2 P12 Rh16'
_cell_volume   551.15398384
_cell_formula_units_Z   1
loop_
 _symmetry_equiv_pos_site_id
 _symmetry_equiv_pos_as_xyz
  1  'x, y, z'
loop_
 _atom_site_type_symbol
 _atom_site_label
 _atom_site_symmetry_multiplicity
 _atom_site_fract_x
 _atom_site_fract_y
 _atom_site_fract_z
 _atom_site_occupancy
  Sm  Sm0  1  0.000000  0.500239  0.522353  1
  Sm  Sm1  1  0.500000  0.000104  0.478392  1
  Sm  Sm2  1  0.500000  0.814588  0.201512  1
  Tm  Tm3  1  0.500000  0.185168  0.201312  1
  Tm  Tm4  1  0.000000  0.684654  0.798510  1
  Tm  Tm5  1  0.000000  0.314783  0.797938  1
  Co  Co6  1  0.000000  0.499012  0.977728  1
  Co  Co7  1  0.500000  0.001266  0.019340  1
  P  P8  1  0.500000  0.499328  0.881177  1
  P  P9  1  0.000000  0.001440  0.117173  1
  P  P10  1  0.500000  0.500430  0.349469  1
  P  P11  1  0.000000  0.999811  0.650684  1
  P  P12  1  0.500000  0.315104  0.620867  1
  P  P13  1  0.500000  0.684651  0.622053  1
  P  P14  1  0.000000  0.185831  0.379251  1
  P  P15  1  0.000000  0.815479  0.381909  1
  P  P16  1  0.500000  0.851910  0.896156  1
  P  P17  1  0.500000  0.147679  0.895586  1
  P  P18  1  0.000000  0.644259  0.102874  1
  P  P19  1  0.000000  0.352616  0.103458  1
  Rh  Rh20  1  0.500000  0.500372  0.166684  1
  Rh  Rh21  1  0.000000  0.002361  0.832511  1
  Rh  Rh22  1  0.500000  0.499355  0.706021  1
  Rh  Rh23  1  0.000000  0.002069  0.294755  1
  Rh  Rh24  1  0.500000  0.336457  0.992960  1
  Rh  Rh25  1  0.500000  0.662590  0.992067  1
  Rh  Rh26  1  0.000000  0.164393  0.006465  1
  Rh  Rh27  1  0.000000  0.836902  0.004149  1
  Rh  Rh28  1  0.500000  0.292998  0.429366  1
  Rh  Rh29  1  0.500000  0.707022  0.431291  1
  Rh  Rh30  1  0.000000  0.207760  0.571155  1
  Rh  Rh31  1  0.000000  0.793115  0.572165  1
  Rh  Rh32  1  0.500000  0.872656  0.714724  1
  Rh  Rh33  1  0.500000  0.127445  0.713361  1
  Rh  Rh34  1  0.000000  0.624186  0.288998  1
  Rh  Rh35  1  0.000000  0.371967  0.285586  1
