# generated using pymatgen
data_Nd5Tl3
_symmetry_space_group_name_H-M   'P 1'
_cell_length_a   6.25812520
_cell_length_b   9.48419089
_cell_length_c   9.48419100
_cell_angle_alpha   96.24902020
_cell_angle_beta   70.73583441
_cell_angle_gamma   109.26416827
_symmetry_Int_Tables_number   1
_chemical_formula_structural   Nd5Tl3
_chemical_formula_sum   'Nd10 Tl6'
_cell_volume   501.64407794
_cell_formula_units_Z   2
loop_
 _symmetry_equiv_pos_site_id
 _symmetry_equiv_pos_as_xyz
  1  'x, y, z'
loop_
 _atom_site_type_symbol
 _atom_site_label
 _atom_site_symmetry_multiplicity
 _atom_site_fract_x
 _atom_site_fract_y
 _atom_site_fract_z
 _atom_site_occupancy
  Nd  Nd0  1  0.780743  0.695170  0.133682  1
  Nd  Nd1  1  0.585574  0.304830  0.133682  1
  Nd  Nd2  1  0.280743  0.866318  0.304830  1
  Nd  Nd3  1  0.914426  0.133682  0.304830  1
  Nd  Nd4  1  0.250000  0.500000  0.500000  1
  Nd  Nd5  1  0.749999  0.500000  0.500000  1
  Nd  Nd6  1  0.719257  0.133682  0.695170  1
  Nd  Nd7  1  0.085575  0.866318  0.695170  1
  Nd  Nd8  1  0.219256  0.304830  0.866318  1
  Nd  Nd9  1  0.414425  0.695170  0.866318  1
  Tl  Tl10  1  0.250000  0.000000  0.000000  1
  Tl  Tl11  1  0.749999  0.000000  0.000000  1
  Tl  Tl12  1  0.160745  0.500000  0.178508  1
  Tl  Tl13  1  0.339254  0.178508  0.500000  1
  Tl  Tl14  1  0.660745  0.821492  0.500000  1
  Tl  Tl15  1  0.839255  0.500000  0.821492  1
