# generated using pymatgen
data_Tm7Lu3(CoSb2)2
_symmetry_space_group_name_H-M   'P 1'
_cell_length_a   7.70384300
_cell_length_b   8.70743114
_cell_length_c   12.01011419
_cell_angle_alpha   90.02052296
_cell_angle_beta   90.00000000
_cell_angle_gamma   90.00000000
_symmetry_Int_Tables_number   1
_chemical_formula_structural   Tm7Lu3(CoSb2)2
_chemical_formula_sum   'Tm14 Lu6 Co4 Sb8'
_cell_volume   805.64660446
_cell_formula_units_Z   2
loop_
 _symmetry_equiv_pos_site_id
 _symmetry_equiv_pos_as_xyz
  1  'x, y, z'
loop_
 _atom_site_type_symbol
 _atom_site_label
 _atom_site_symmetry_multiplicity
 _atom_site_fract_x
 _atom_site_fract_y
 _atom_site_fract_z
 _atom_site_occupancy
  Tm  Tm0  1  0.154196  0.750195  0.204132  1
  Tm  Tm1  1  0.654196  0.249805  0.295868  1
  Tm  Tm2  1  0.846037  0.249971  0.795622  1
  Tm  Tm3  1  0.346037  0.750029  0.704378  1
  Tm  Tm4  1  0.449952  0.750267  0.997856  1
  Tm  Tm5  1  0.949952  0.249733  0.502144  1
  Tm  Tm6  1  0.549351  0.249660  0.002111  1
  Tm  Tm7  1  0.049351  0.750340  0.497889  1
  Tm  Tm8  1  0.622357  0.750033  0.308334  1
  Tm  Tm9  1  0.122357  0.249967  0.191666  1
  Tm  Tm10  1  0.378643  0.249675  0.691659  1
  Tm  Tm11  1  0.878643  0.750325  0.808341  1
  Tm  Tm12  1  0.823472  0.536431  0.065221  1
  Tm  Tm13  1  0.323472  0.463569  0.434779  1
  Lu  Lu14  1  0.824602  0.963183  0.065030  1
  Lu  Lu15  1  0.324602  0.036817  0.434970  1
  Lu  Lu16  1  0.175009  0.463061  0.934922  1
  Lu  Lu17  1  0.675009  0.536939  0.565078  1
  Lu  Lu18  1  0.174607  0.037271  0.934875  1
  Lu  Lu19  1  0.674607  0.962729  0.565125  1
  Co  Co20  1  0.435199  0.750618  0.492292  1
  Co  Co21  1  0.935199  0.249382  0.007708  1
  Co  Co22  1  0.567331  0.249472  0.508506  1
  Co  Co23  1  0.067331  0.750528  0.991494  1
  Sb  Sb24  1  0.930797  0.992131  0.327517  1
  Sb  Sb25  1  0.430797  0.007869  0.172483  1
  Sb  Sb26  1  0.069183  0.492244  0.672190  1
  Sb  Sb27  1  0.569183  0.507756  0.827810  1
  Sb  Sb28  1  0.069060  0.007812  0.672265  1
  Sb  Sb29  1  0.569060  0.992188  0.827735  1
  Sb  Sb30  1  0.930203  0.507938  0.327612  1
  Sb  Sb31  1  0.430203  0.492062  0.172388  1
