# generated using pymatgen
data_Lu16In6TcRu
_symmetry_space_group_name_H-M   'P 1'
_cell_length_a   10.20295300
_cell_length_b   10.20295282
_cell_length_c   6.90922300
_cell_angle_alpha   90.00000000
_cell_angle_beta   90.00000000
_cell_angle_gamma   120.00000381
_symmetry_Int_Tables_number   1
_chemical_formula_structural   Lu16In6TcRu
_chemical_formula_sum   'Lu16 In6 Tc1 Ru1'
_cell_volume   622.89033142
_cell_formula_units_Z   1
loop_
 _symmetry_equiv_pos_site_id
 _symmetry_equiv_pos_as_xyz
  1  'x, y, z'
loop_
 _atom_site_type_symbol
 _atom_site_label
 _atom_site_symmetry_multiplicity
 _atom_site_fract_x
 _atom_site_fract_y
 _atom_site_fract_z
 _atom_site_occupancy
  Lu  Lu0  1  0.531344  0.062689  0.525212  1
  Lu  Lu1  1  0.937311  0.468656  0.525212  1
  Lu  Lu2  1  0.531344  0.468656  0.525212  1
  Lu  Lu3  1  0.467484  0.934967  0.025275  1
  Lu  Lu4  1  0.065033  0.532516  0.025275  1
  Lu  Lu5  1  0.467484  0.532516  0.025275  1
  Lu  Lu6  1  0.177987  0.355974  0.728326  1
  Lu  Lu7  1  0.644026  0.822013  0.728326  1
  Lu  Lu8  1  0.177987  0.822013  0.728326  1
  Lu  Lu9  1  0.822934  0.645867  0.227748  1
  Lu  Lu10  1  0.354133  0.177066  0.227748  1
  Lu  Lu11  1  0.822934  0.177066  0.227748  1
  Lu  Lu12  1  0.666667  0.333333  0.901906  1
  Lu  Lu13  1  0.333333  0.666667  0.404737  1
  Lu  Lu14  1  0.000000  0.000000  0.505090  1
  Lu  Lu15  1  0.000000  0.000000  0.006941  1
  In  In16  1  0.836634  0.673269  0.767606  1
  In  In17  1  0.326731  0.163366  0.767606  1
  In  In18  1  0.836634  0.163366  0.767606  1
  In  In19  1  0.163600  0.327199  0.270764  1
  In  In20  1  0.672801  0.836400  0.270764  1
  In  In21  1  0.163600  0.836400  0.270764  1
  Tc  Tc22  1  0.666667  0.333333  0.300363  1
  Ru  Ru23  1  0.333333  0.666667  0.801848  1
