# generated using pymatgen
data_Ca3Tb(Al3Pd)6
_symmetry_space_group_name_H-M   'P 1'
_cell_length_a   7.67275858
_cell_length_b   7.66901978
_cell_length_c   9.54224100
_cell_angle_alpha   90.00000000
_cell_angle_beta   90.00000000
_cell_angle_gamma   119.57362456
_symmetry_Int_Tables_number   1
_chemical_formula_structural   Ca3Tb(Al3Pd)6
_chemical_formula_sum   'Ca3 Tb1 Al18 Pd6'
_cell_volume   488.34004314
_cell_formula_units_Z   1
loop_
 _symmetry_equiv_pos_site_id
 _symmetry_equiv_pos_as_xyz
  1  'x, y, z'
loop_
 _atom_site_type_symbol
 _atom_site_label
 _atom_site_symmetry_multiplicity
 _atom_site_fract_x
 _atom_site_fract_y
 _atom_site_fract_z
 _atom_site_occupancy
  Ca  Ca0  1  0.994670  0.669535  0.250000  1
  Ca  Ca1  1  0.004092  0.330207  0.750000  1
  Ca  Ca2  1  0.671260  0.996364  0.250000  1
  Tb  Tb3  1  0.330389  0.003302  0.750000  1
  Al  Al4  1  0.132244  0.132042  0.250000  1
  Al  Al5  1  0.871789  0.869307  0.750000  1
  Al  Al6  1  0.001329  0.334837  0.074545  1
  Al  Al7  1  0.999108  0.664827  0.922709  1
  Al  Al8  1  0.999108  0.664827  0.577291  1
  Al  Al9  1  0.334612  0.000495  0.425335  1
  Al  Al10  1  0.001329  0.334837  0.425455  1
  Al  Al11  1  0.665854  0.999762  0.576963  1
  Al  Al12  1  0.665854  0.999762  0.923037  1
  Al  Al13  1  0.334612  0.000495  0.074665  1
  Al  Al14  1  0.332827  0.332447  0.558086  1
  Al  Al15  1  0.666249  0.666280  0.446045  1
  Al  Al16  1  0.666249  0.666280  0.053955  1
  Al  Al17  1  0.332827  0.332447  0.941914  1
  Al  Al18  1  0.339636  0.546165  0.250000  1
  Al  Al19  1  0.656123  0.452348  0.750000  1
  Al  Al20  1  0.543917  0.339817  0.250000  1
  Al  Al21  1  0.456049  0.664216  0.750000  1
  Pd  Pd22  1  0.671022  0.328070  0.999523  1
  Pd  Pd23  1  0.328343  0.671461  0.999013  1
  Pd  Pd24  1  0.328343  0.671461  0.500987  1
  Pd  Pd25  1  0.671022  0.328070  0.500477  1
  Pd  Pd26  1  0.000573  0.000169  0.999336  1
  Pd  Pd27  1  0.000573  0.000169  0.500664  1
