# generated using pymatgen
data_CaEu2(Al3Pd2)3
_symmetry_space_group_name_H-M   'P 1'
_cell_length_a   4.28163900
_cell_length_b   9.47802212
_cell_length_c   9.48940356
_cell_angle_alpha   119.96035140
_cell_angle_beta   90.00000000
_cell_angle_gamma   90.00000000
_symmetry_Int_Tables_number   1
_chemical_formula_structural   CaEu2(Al3Pd2)3
_chemical_formula_sum   'Ca1 Eu2 Al9 Pd6'
_cell_volume   333.63429561
_cell_formula_units_Z   1
loop_
 _symmetry_equiv_pos_site_id
 _symmetry_equiv_pos_as_xyz
  1  'x, y, z'
loop_
 _atom_site_type_symbol
 _atom_site_label
 _atom_site_symmetry_multiplicity
 _atom_site_fract_x
 _atom_site_fract_y
 _atom_site_fract_z
 _atom_site_occupancy
  Ca  Ca0  1  0.000000  0.999278  0.000000  1
  Eu  Eu1  1  0.500000  0.333678  0.665997  1
  Eu  Eu2  1  0.500000  0.667682  0.334003  1
  Al  Al3  1  0.500000  0.302615  0.000000  1
  Al  Al4  1  0.500000  0.697225  0.697318  1
  Al  Al5  1  0.500000  0.999907  0.302682  1
  Al  Al6  1  0.500000  0.697470  0.000000  1
  Al  Al7  1  0.500000  0.302595  0.302860  1
  Al  Al8  1  0.500000  0.999735  0.697140  1
  Al  Al9  1  0.000000  0.500142  0.000000  1
  Al  Al10  1  0.000000  0.500075  0.500171  1
  Al  Al11  1  0.000000  0.999903  0.499829  1
  Pd  Pd12  1  0.000000  0.181233  0.363127  1
  Pd  Pd13  1  0.000000  0.181388  0.817851  1
  Pd  Pd14  1  0.000000  0.636829  0.818328  1
  Pd  Pd15  1  0.000000  0.818106  0.636873  1
  Pd  Pd16  1  0.000000  0.363537  0.182149  1
  Pd  Pd17  1  0.000000  0.818503  0.181672  1
