# generated using pymatgen
data_Dy2Ho3Lu3(P3Ir4)4
_symmetry_space_group_name_H-M   'P 1'
_cell_length_a   12.93428200
_cell_length_b   12.93428218
_cell_length_c   3.99016900
_cell_angle_alpha   90.00000000
_cell_angle_beta   90.00000000
_cell_angle_gamma   119.99999954
_symmetry_Int_Tables_number   1
_chemical_formula_structural   Dy2Ho3Lu3(P3Ir4)4
_chemical_formula_sum   'Dy2 Ho3 Lu3 P12 Ir16'
_cell_volume   578.10480735
_cell_formula_units_Z   1
loop_
 _symmetry_equiv_pos_site_id
 _symmetry_equiv_pos_as_xyz
  1  'x, y, z'
loop_
 _atom_site_type_symbol
 _atom_site_label
 _atom_site_symmetry_multiplicity
 _atom_site_fract_x
 _atom_site_fract_y
 _atom_site_fract_z
 _atom_site_occupancy
  Dy  Dy0  1  0.333333  0.666667  0.500000  1
  Dy  Dy1  1  0.666667  0.333333  0.500000  1
  Ho  Ho2  1  0.000000  0.814277  0.000000  1
  Ho  Ho3  1  0.185723  0.185723  0.000000  1
  Ho  Ho4  1  0.814277  0.000000  0.000000  1
  Lu  Lu5  1  0.000000  0.446592  0.500000  1
  Lu  Lu6  1  0.553408  0.553408  0.500000  1
  Lu  Lu7  1  0.446592  0.000000  0.500000  1
  P  P8  1  0.000000  0.651892  0.500000  1
  P  P9  1  0.348108  0.348108  0.500000  1
  P  P10  1  0.651892  0.000000  0.500000  1
  P  P11  1  0.516616  0.687695  0.000000  1
  P  P12  1  0.312305  0.828923  0.000000  1
  P  P13  1  0.171077  0.483384  0.000000  1
  P  P14  1  0.483384  0.171077  0.000000  1
  P  P15  1  0.687695  0.516616  0.000000  1
  P  P16  1  0.828923  0.312305  0.000000  1
  P  P17  1  0.000000  0.176612  0.500000  1
  P  P18  1  0.823388  0.823388  0.500000  1
  P  P19  1  0.176612  0.000000  0.500000  1
  Ir  Ir20  1  0.509544  0.866280  0.000000  1
  Ir  Ir21  1  0.133720  0.643265  0.000000  1
  Ir  Ir22  1  0.356735  0.490456  0.000000  1
  Ir  Ir23  1  0.490456  0.356735  0.000000  1
  Ir  Ir24  1  0.866280  0.509544  0.000000  1
  Ir  Ir25  1  0.643265  0.133720  0.000000  1
  Ir  Ir26  1  0.000000  0.276050  0.000000  1
  Ir  Ir27  1  0.723950  0.723950  0.000000  1
  Ir  Ir28  1  0.276050  0.000000  0.000000  1
  Ir  Ir29  1  0.629755  0.808342  0.500000  1
  Ir  Ir30  1  0.191658  0.821414  0.500000  1
  Ir  Ir31  1  0.178586  0.370245  0.500000  1
  Ir  Ir32  1  0.370245  0.178586  0.500000  1
  Ir  Ir33  1  0.808342  0.629755  0.500000  1
  Ir  Ir34  1  0.821414  0.191658  0.500000  1
  Ir  Ir35  1  0.000000  0.000000  0.500000  1
