# generated using pymatgen
data_Nd7PaSe12
_symmetry_space_group_name_H-M   'P 1'
_cell_length_a   4.17319000
_cell_length_b   7.88151482
_cell_length_c   16.34597174
_cell_angle_alpha   90.57647405
_cell_angle_beta   90.00000000
_cell_angle_gamma   90.00000000
_symmetry_Int_Tables_number   1
_chemical_formula_structural   Nd7PaSe12
_chemical_formula_sum   'Nd7 Pa1 Se12'
_cell_volume   537.60910559
_cell_formula_units_Z   1
loop_
 _symmetry_equiv_pos_site_id
 _symmetry_equiv_pos_as_xyz
  1  'x, y, z'
loop_
 _atom_site_type_symbol
 _atom_site_label
 _atom_site_symmetry_multiplicity
 _atom_site_fract_x
 _atom_site_fract_y
 _atom_site_fract_z
 _atom_site_occupancy
  Nd  Nd0  1  0.000000  0.125165  0.206152  1
  Nd  Nd1  1  0.000000  0.633892  0.296835  1
  Nd  Nd2  1  0.499999  0.234671  0.453982  1
  Nd  Nd3  1  0.000000  0.764523  0.544943  1
  Nd  Nd4  1  0.499999  0.360805  0.702354  1
  Nd  Nd5  1  0.499999  0.865863  0.794353  1
  Nd  Nd6  1  0.000000  0.264905  0.958415  1
  Pa  Pa7  1  0.499999  0.741344  0.040542  1
  Se  Se8  1  0.499999  0.122708  0.068764  1
  Se  Se9  1  0.000000  0.522903  0.104101  1
  Se  Se10  1  0.499999  0.841748  0.215257  1
  Se  Se11  1  0.499999  0.349376  0.278673  1
  Se  Se12  1  0.000000  0.003823  0.389221  1
  Se  Se13  1  0.499999  0.623120  0.432285  1
  Se  Se14  1  0.000000  0.375998  0.566994  1
  Se  Se15  1  0.499999  0.994606  0.609721  1
  Se  Se16  1  0.000000  0.646451  0.720927  1
  Se  Se17  1  0.000000  0.152824  0.783658  1
  Se  Se18  1  0.499999  0.501575  0.898913  1
  Se  Se19  1  0.000000  0.873684  0.933909  1
