# generated using pymatgen
data_Ca4Nd4Re3OsC8
_symmetry_space_group_name_H-M   'P 1'
_cell_length_a   5.26520100
_cell_length_b   6.58726249
_cell_length_c   10.51467335
_cell_angle_alpha   90.04416904
_cell_angle_beta   90.00000000
_cell_angle_gamma   90.00000000
_symmetry_Int_Tables_number   1
_chemical_formula_structural   Ca4Nd4Re3OsC8
_chemical_formula_sum   'Ca4 Nd4 Re3 Os1 C8'
_cell_volume   364.68305256
_cell_formula_units_Z   1
loop_
 _symmetry_equiv_pos_site_id
 _symmetry_equiv_pos_as_xyz
  1  'x, y, z'
loop_
 _atom_site_type_symbol
 _atom_site_label
 _atom_site_symmetry_multiplicity
 _atom_site_fract_x
 _atom_site_fract_y
 _atom_site_fract_z
 _atom_site_occupancy
  Ca  Ca0  1  0.250000  0.465062  0.774148  1
  Ca  Ca1  1  0.750000  0.035386  0.274833  1
  Ca  Ca2  1  0.250000  0.963143  0.724314  1
  Ca  Ca3  1  0.750000  0.534791  0.223948  1
  Nd  Nd4  1  0.250000  0.804989  0.051009  1
  Nd  Nd5  1  0.750000  0.696675  0.551147  1
  Nd  Nd6  1  0.250000  0.303081  0.449039  1
  Nd  Nd7  1  0.750000  0.196499  0.947467  1
  Re  Re8  1  0.750000  0.228881  0.645933  1
  Re  Re9  1  0.250000  0.770631  0.352144  1
  Re  Re10  1  0.750000  0.729154  0.854234  1
  Os  Os11  1  0.250000  0.270781  0.148679  1
  C  C12  1  0.250000  0.693869  0.525901  1
  C  C13  1  0.750000  0.808242  0.028199  1
  C  C14  1  0.250000  0.195155  0.975942  1
  C  C15  1  0.750000  0.306218  0.471898  1
  C  C16  1  0.250000  0.034416  0.258189  1
  C  C17  1  0.750000  0.465613  0.757597  1
  C  C18  1  0.250000  0.532100  0.242890  1
  C  C19  1  0.750000  0.965314  0.742486  1
