# generated using pymatgen
data_Ce2MnCo16
_symmetry_space_group_name_H-M   'P 1'
_cell_length_a   6.29535602
_cell_length_b   6.29535639
_cell_length_c   6.29535662
_cell_angle_alpha   83.10113929
_cell_angle_beta   96.89885089
_cell_angle_gamma   96.89885862
_symmetry_Int_Tables_number   1
_chemical_formula_structural   Ce2MnCo16
_chemical_formula_sum   'Ce2 Mn1 Co16'
_cell_volume   244.47682270
_cell_formula_units_Z   1
loop_
 _symmetry_equiv_pos_site_id
 _symmetry_equiv_pos_as_xyz
  1  'x, y, z'
loop_
 _atom_site_type_symbol
 _atom_site_label
 _atom_site_symmetry_multiplicity
 _atom_site_fract_x
 _atom_site_fract_y
 _atom_site_fract_z
 _atom_site_occupancy
  Ce  Ce0  1  0.652861  0.347140  0.347140  1
  Ce  Ce1  1  0.345377  0.654624  0.654624  1
  Mn  Mn2  1  0.902539  0.097462  0.097461  1
  Co  Co3  1  0.002365  0.504819  0.997635  1
  Co  Co4  1  0.495182  0.997635  0.997635  1
  Co  Co5  1  0.287459  0.287384  0.999058  1
  Co  Co6  1  0.712615  0.712540  0.999058  1
  Co  Co7  1  0.347006  0.652994  0.147825  1
  Co  Co8  1  0.000942  0.712540  0.287384  1
  Co  Co9  1  0.287460  0.999058  0.287385  1
  Co  Co10  1  0.147050  0.349099  0.349099  1
  Co  Co11  1  0.650902  0.852951  0.349099  1
  Co  Co12  1  0.002365  0.997635  0.504818  1
  Co  Co13  1  0.347006  0.147825  0.652994  1
  Co  Co14  1  0.852175  0.652994  0.652994  1
  Co  Co15  1  0.000942  0.287384  0.712540  1
  Co  Co16  1  0.712616  0.999058  0.712541  1
  Co  Co17  1  0.650902  0.349099  0.852951  1
  Co  Co18  1  0.102241  0.897760  0.897759  1
