# generated using pymatgen
data_Pr3Tm(IrO6)2
_symmetry_space_group_name_H-M   'P 1'
_cell_length_a   5.36498600
_cell_length_b   9.27130858
_cell_length_c   9.98596900
_cell_angle_alpha   90.18548391
_cell_angle_beta   90.00000000
_cell_angle_gamma   90.00000000
_symmetry_Int_Tables_number   1
_chemical_formula_structural   Pr3Tm(IrO6)2
_chemical_formula_sum   'Pr6 Tm2 Ir4 O24'
_cell_volume   496.70389656
_cell_formula_units_Z   2
loop_
 _symmetry_equiv_pos_site_id
 _symmetry_equiv_pos_as_xyz
  1  'x, y, z'
loop_
 _atom_site_type_symbol
 _atom_site_label
 _atom_site_symmetry_multiplicity
 _atom_site_fract_x
 _atom_site_fract_y
 _atom_site_fract_z
 _atom_site_occupancy
  Pr  Pr0  1  0.528884  0.100256  0.963626  1
  Pr  Pr1  1  0.028884  0.399744  0.036374  1
  Pr  Pr2  1  0.471112  0.604951  0.538671  1
  Pr  Pr3  1  0.971112  0.895049  0.461329  1
  Pr  Pr4  1  0.529959  0.217388  0.366408  1
  Pr  Pr5  1  0.029959  0.282612  0.633592  1
  Tm  Tm6  1  0.460038  0.719679  0.126901  1
  Tm  Tm7  1  0.960038  0.780321  0.873099  1
  Ir  Ir8  1  0.452993  0.992579  0.646945  1
  Ir  Ir9  1  0.952993  0.507421  0.353055  1
  Ir  Ir10  1  0.545540  0.504035  0.861256  1
  Ir  Ir11  1  0.045540  0.995965  0.138744  1
  O  O12  1  0.316255  0.129348  0.177479  1
  O  O13  1  0.816255  0.370652  0.822521  1
  O  O14  1  0.681934  0.638935  0.308270  1
  O  O15  1  0.181934  0.861065  0.691730  1
  O  O16  1  0.723347  0.109737  0.566117  1
  O  O17  1  0.223347  0.390263  0.433883  1
  O  O18  1  0.267656  0.620525  0.937771  1
  O  O19  1  0.767656  0.879475  0.062229  1
  O  O20  1  0.693222  0.646160  0.744510  1
  O  O21  1  0.193222  0.853840  0.255490  1
  O  O22  1  0.327386  0.142841  0.761729  1
  O  O23  1  0.827386  0.357159  0.238271  1
  O  O24  1  0.677153  0.935732  0.785799  1
  O  O25  1  0.177153  0.564268  0.214201  1
  O  O26  1  0.334301  0.447021  0.718485  1
  O  O27  1  0.834301  0.052979  0.281515  1
  O  O28  1  0.241998  0.087485  0.508079  1
  O  O29  1  0.741998  0.412515  0.491921  1
  O  O30  1  0.750831  0.600510  0.000888  1
  O  O31  1  0.250831  0.899490  0.999112  1
  O  O32  1  0.048734  0.648457  0.488430  1
  O  O33  1  0.548734  0.851543  0.511570  1
  O  O34  1  0.948656  0.143845  0.010289  1
  O  O35  1  0.448656  0.356155  0.989711  1
