# generated using pymatgen
data_Ho2Ti4Sn5
_symmetry_space_group_name_H-M   'P 1'
_cell_length_a   10.75394726
_cell_length_b   10.75394766
_cell_length_c   10.75394657
_cell_angle_alpha   148.83022973
_cell_angle_beta   131.57831739
_cell_angle_gamma   58.71598434
_symmetry_Int_Tables_number   1
_chemical_formula_structural   Ho2Ti4Sn5
_chemical_formula_sum   'Ho4 Ti8 Sn10'
_cell_volume   477.71083407
_cell_formula_units_Z   2
loop_
 _symmetry_equiv_pos_site_id
 _symmetry_equiv_pos_as_xyz
  1  'x, y, z'
loop_
 _atom_site_type_symbol
 _atom_site_label
 _atom_site_symmetry_multiplicity
 _atom_site_fract_x
 _atom_site_fract_y
 _atom_site_fract_z
 _atom_site_occupancy
  Ho  Ho0  1  0.255980  0.143454  0.112528  1
  Ho  Ho1  1  0.744020  0.856546  0.887472  1
  Ho  Ho2  1  0.030926  0.643454  0.387472  1
  Ho  Ho3  1  0.969074  0.356546  0.612528  1
  Ti  Ti4  1  0.310844  0.560844  0.250000  1
  Ti  Ti5  1  0.689156  0.439156  0.750000  1
  Ti  Ti6  1  0.689156  0.939156  0.250000  1
  Ti  Ti7  1  0.310844  0.060844  0.750000  1
  Ti  Ti8  1  0.675464  0.436139  0.239323  1
  Ti  Ti9  1  0.324536  0.563861  0.760677  1
  Ti  Ti10  1  0.196816  0.936139  0.260677  1
  Ti  Ti11  1  0.803184  0.063861  0.739323  1
  Sn  Sn12  1  0.585409  0.289333  0.296077  1
  Sn  Sn13  1  0.414591  0.710667  0.703923  1
  Sn  Sn14  1  0.993256  0.789333  0.203923  1
  Sn  Sn15  1  0.006744  0.210667  0.796077  1
  Sn  Sn16  1  0.000000  0.250000  0.250000  1
  Sn  Sn17  1  0.000000  0.750000  0.750000  1
  Sn  Sn18  1  0.472253  0.067038  0.405213  1
  Sn  Sn19  1  0.527747  0.932962  0.594787  1
  Sn  Sn20  1  0.661825  0.567038  0.094787  1
  Sn  Sn21  1  0.338175  0.432962  0.905213  1
