# generated using pymatgen
data_DyUSbN2
_symmetry_space_group_name_H-M   'P 1'
_cell_length_a   6.75664364
_cell_length_b   6.75664364
_cell_length_c   6.75664339
_cell_angle_alpha   146.37822581
_cell_angle_beta   146.37822119
_cell_angle_gamma   48.28531226
_symmetry_Int_Tables_number   1
_chemical_formula_structural   DyUSbN2
_chemical_formula_sum   'Dy1 U1 Sb1 N2'
_cell_volume   94.17549379
_cell_formula_units_Z   1
loop_
 _symmetry_equiv_pos_site_id
 _symmetry_equiv_pos_as_xyz
  1  'x, y, z'
loop_
 _atom_site_type_symbol
 _atom_site_label
 _atom_site_symmetry_multiplicity
 _atom_site_fract_x
 _atom_site_fract_y
 _atom_site_fract_z
 _atom_site_occupancy
  Dy  Dy0  1  0.341832  0.341832  0.000000  1
  U  U1  1  0.667262  0.667262  0.000000  1
  Sb  Sb2  1  0.008099  0.008099  0.000000  1
  N  N3  1  0.741403  0.241403  0.500000  1
  N  N4  1  0.241403  0.741403  0.500000  1
