# generated using pymatgen
data_RbTl3O5
_symmetry_space_group_name_H-M   'P 1'
_cell_length_a   3.53033600
_cell_length_b   10.20042800
_cell_length_c   17.69992200
_cell_angle_alpha   90.00000000
_cell_angle_beta   90.00000000
_cell_angle_gamma   90.00000000
_symmetry_Int_Tables_number   1
_chemical_formula_structural   RbTl3O5
_chemical_formula_sum   'Rb4 Tl12 O20'
_cell_volume   637.39079700
_cell_formula_units_Z   4
loop_
 _symmetry_equiv_pos_site_id
 _symmetry_equiv_pos_as_xyz
  1  'x, y, z'
loop_
 _atom_site_type_symbol
 _atom_site_label
 _atom_site_symmetry_multiplicity
 _atom_site_fract_x
 _atom_site_fract_y
 _atom_site_fract_z
 _atom_site_occupancy
  Rb  Rb0  1  0.000000  0.712984  0.363525  1
  Rb  Rb1  1  0.500000  0.287016  0.863525  1
  Rb  Rb2  1  0.000000  0.212703  0.136228  1
  Rb  Rb3  1  0.500000  0.787297  0.636228  1
  Tl  Tl4  1  0.000000  0.636843  0.839449  1
  Tl  Tl5  1  0.500000  0.596556  0.009990  1
  Tl  Tl6  1  0.000000  0.563088  0.177286  1
  Tl  Tl7  1  0.500000  0.436912  0.677286  1
  Tl  Tl8  1  0.000000  0.403444  0.509990  1
  Tl  Tl9  1  0.500000  0.363157  0.339449  1
  Tl  Tl10  1  0.000000  0.137077  0.660397  1
  Tl  Tl11  1  0.500000  0.095932  0.490017  1
  Tl  Tl12  1  0.000000  0.063275  0.322495  1
  Tl  Tl13  1  0.500000  0.936725  0.822495  1
  Tl  Tl14  1  0.000000  0.904068  0.990017  1
  Tl  Tl15  1  0.500000  0.862923  0.160397  1
  O  O16  1  0.000000  0.723372  0.073010  1
  O  O17  1  0.500000  0.683345  0.225841  1
  O  O18  1  0.500000  0.545013  0.786252  1
  O  O19  1  0.000000  0.511547  0.941706  1
  O  O20  1  0.000000  0.535208  0.611513  1
  O  O21  1  0.500000  0.464792  0.111513  1
  O  O22  1  0.500000  0.488453  0.441706  1
  O  O23  1  0.000000  0.454987  0.286252  1
  O  O24  1  0.000000  0.316655  0.725841  1
  O  O25  1  0.500000  0.276628  0.573010  1
  O  O26  1  0.000000  0.222719  0.427129  1
  O  O27  1  0.500000  0.183808  0.273777  1
  O  O28  1  0.500000  0.046282  0.714180  1
  O  O29  1  0.000000  0.010741  0.558505  1
  O  O30  1  0.000000  0.035156  0.888260  1
  O  O31  1  0.500000  0.964844  0.388260  1
  O  O32  1  0.500000  0.989259  0.058505  1
  O  O33  1  0.000000  0.953718  0.214180  1
  O  O34  1  0.000000  0.816192  0.773777  1
  O  O35  1  0.500000  0.777281  0.927129  1
