# generated using pymatgen
data_YTa2Nb7N12
_symmetry_space_group_name_H-M   'P 1'
_cell_length_a   5.30823200
_cell_length_b   5.30823134
_cell_length_c   10.53518800
_cell_angle_alpha   90.00000000
_cell_angle_beta   90.00000000
_cell_angle_gamma   120.00000411
_symmetry_Int_Tables_number   1
_chemical_formula_structural   YTa2Nb7N12
_chemical_formula_sum   'Y1 Ta2 Nb7 N12'
_cell_volume   257.08257501
_cell_formula_units_Z   1
loop_
 _symmetry_equiv_pos_site_id
 _symmetry_equiv_pos_as_xyz
  1  'x, y, z'
loop_
 _atom_site_type_symbol
 _atom_site_label
 _atom_site_symmetry_multiplicity
 _atom_site_fract_x
 _atom_site_fract_y
 _atom_site_fract_z
 _atom_site_occupancy
  Y  Y0  1  0.333333  0.666667  0.500000  1
  Ta  Ta1  1  0.666667  0.333333  0.000000  1
  Ta  Ta2  1  0.666667  0.333333  0.500000  1
  Nb  Nb3  1  0.333333  0.666667  0.000000  1
  Nb  Nb4  1  0.674381  0.997117  0.755086  1
  Nb  Nb5  1  0.674381  0.677264  0.244914  1
  Nb  Nb6  1  0.002883  0.325619  0.244914  1
  Nb  Nb7  1  0.002883  0.677264  0.755086  1
  Nb  Nb8  1  0.322736  0.325619  0.755086  1
  Nb  Nb9  1  0.322736  0.997117  0.244914  1
  N  N10  1  0.353053  0.332663  0.370414  1
  N  N11  1  0.667337  0.020389  0.370414  1
  N  N12  1  0.979611  0.646947  0.370414  1
  N  N13  1  0.996023  0.338935  0.882226  1
  N  N14  1  0.661065  0.003977  0.117774  1
  N  N15  1  0.661065  0.657089  0.882226  1
  N  N16  1  0.342911  0.003977  0.882226  1
  N  N17  1  0.667337  0.646947  0.629586  1
  N  N18  1  0.979611  0.332663  0.629586  1
  N  N19  1  0.996023  0.657089  0.117774  1
  N  N20  1  0.353053  0.020389  0.629586  1
  N  N21  1  0.342911  0.338935  0.117774  1
