# generated using pymatgen
data_Y10Cd2InNi
_symmetry_space_group_name_H-M   'P 1'
_cell_length_a   9.70360783
_cell_length_b   9.70361180
_cell_length_c   9.81257600
_cell_angle_alpha   90.00000000
_cell_angle_beta   90.00000000
_cell_angle_gamma   119.86406961
_symmetry_Int_Tables_number   1
_chemical_formula_structural   Y10Cd2InNi
_chemical_formula_sum   'Y20 Cd4 In2 Ni2'
_cell_volume   801.26016351
_cell_formula_units_Z   2
loop_
 _symmetry_equiv_pos_site_id
 _symmetry_equiv_pos_as_xyz
  1  'x, y, z'
loop_
 _atom_site_type_symbol
 _atom_site_label
 _atom_site_symmetry_multiplicity
 _atom_site_fract_x
 _atom_site_fract_y
 _atom_site_fract_z
 _atom_site_occupancy
  Y  Y0  1  0.001368  0.998632  0.496256  1
  Y  Y1  1  0.001368  0.998632  0.003744  1
  Y  Y2  1  0.543835  0.456165  0.250000  1
  Y  Y3  1  0.544162  0.087812  0.250000  1
  Y  Y4  1  0.912187  0.455838  0.250000  1
  Y  Y5  1  0.456156  0.543845  0.750000  1
  Y  Y6  1  0.453429  0.913439  0.750000  1
  Y  Y7  1  0.086561  0.546571  0.750000  1
  Y  Y8  1  0.210736  0.789264  0.435496  1
  Y  Y9  1  0.210704  0.421393  0.436665  1
  Y  Y10  1  0.578607  0.789297  0.436665  1
  Y  Y11  1  0.789642  0.210358  0.563023  1
  Y  Y12  1  0.789382  0.578696  0.562488  1
  Y  Y13  1  0.421303  0.210617  0.562488  1
  Y  Y14  1  0.789642  0.210358  0.936977  1
  Y  Y15  1  0.789382  0.578696  0.937512  1
  Y  Y16  1  0.421303  0.210617  0.937512  1
  Y  Y17  1  0.210736  0.789264  0.064504  1
  Y  Y18  1  0.210704  0.421393  0.063335  1
  Y  Y19  1  0.578607  0.789297  0.063335  1
  Cd  Cd20  1  0.884233  0.115767  0.250000  1
  Cd  Cd21  1  0.883585  0.767747  0.250000  1
  Cd  Cd22  1  0.232253  0.116415  0.250000  1
  Cd  Cd23  1  0.115332  0.884668  0.750000  1
  In  In24  1  0.115727  0.230967  0.750000  1
  In  In25  1  0.769035  0.884274  0.750000  1
  Ni  Ni26  1  0.333699  0.666302  0.250000  1
  Ni  Ni27  1  0.666323  0.333676  0.750000  1
