# generated using pymatgen
data_Er3Al10FeSi2Ru3
_symmetry_space_group_name_H-M   'P 1'
_cell_length_a   8.64017300
_cell_length_b   8.64017385
_cell_length_c   9.52879300
_cell_angle_alpha   90.00000000
_cell_angle_beta   90.00000000
_cell_angle_gamma   120.00000059
_symmetry_Int_Tables_number   1
_chemical_formula_structural   Er3Al10FeSi2Ru3
_chemical_formula_sum   'Er6 Al20 Fe2 Si4 Ru6'
_cell_volume   616.04642401
_cell_formula_units_Z   2
loop_
 _symmetry_equiv_pos_site_id
 _symmetry_equiv_pos_as_xyz
  1  'x, y, z'
loop_
 _atom_site_type_symbol
 _atom_site_label
 _atom_site_symmetry_multiplicity
 _atom_site_fract_x
 _atom_site_fract_y
 _atom_site_fract_z
 _atom_site_occupancy
  Er  Er0  1  0.196063  0.392125  0.250000  1
  Er  Er1  1  0.803937  0.607875  0.750000  1
  Er  Er2  1  0.607875  0.803937  0.250000  1
  Er  Er3  1  0.392125  0.196063  0.750000  1
  Er  Er4  1  0.196063  0.803937  0.250000  1
  Er  Er5  1  0.803937  0.196063  0.750000  1
  Al  Al6  1  0.161626  0.323252  0.576694  1
  Al  Al7  1  0.838374  0.676748  0.423306  1
  Al  Al8  1  0.676748  0.838374  0.576694  1
  Al  Al9  1  0.838374  0.676748  0.076694  1
  Al  Al10  1  0.323252  0.161626  0.423306  1
  Al  Al11  1  0.161626  0.323252  0.923306  1
  Al  Al12  1  0.161626  0.838374  0.576694  1
  Al  Al13  1  0.323252  0.161626  0.076694  1
  Al  Al14  1  0.838374  0.161626  0.423306  1
  Al  Al15  1  0.676748  0.838374  0.923306  1
  Al  Al16  1  0.838374  0.161626  0.076694  1
  Al  Al17  1  0.161626  0.838374  0.923306  1
  Al  Al18  1  0.563532  0.127064  0.250000  1
  Al  Al19  1  0.436468  0.872936  0.750000  1
  Al  Al20  1  0.872936  0.436468  0.250000  1
  Al  Al21  1  0.127064  0.563532  0.750000  1
  Al  Al22  1  0.563532  0.436468  0.250000  1
  Al  Al23  1  0.436468  0.563532  0.750000  1
  Al  Al24  1  0.000000  0.000000  0.250000  1
  Al  Al25  1  0.000000  0.000000  0.750000  1
  Fe  Fe26  1  0.000000  0.000000  0.000000  1
  Fe  Fe27  1  0.000000  0.000000  0.500000  1
  Si  Si28  1  0.333333  0.666667  0.036376  1
  Si  Si29  1  0.666667  0.333333  0.963624  1
  Si  Si30  1  0.666667  0.333333  0.536376  1
  Si  Si31  1  0.333333  0.666667  0.463624  1
  Ru  Ru32  1  0.500000  0.000000  0.000000  1
  Ru  Ru33  1  0.000000  0.500000  0.000000  1
  Ru  Ru34  1  0.500000  0.000000  0.500000  1
  Ru  Ru35  1  0.500000  0.500000  0.000000  1
  Ru  Ru36  1  0.000000  0.500000  0.500000  1
  Ru  Ru37  1  0.500000  0.500000  0.500000  1
