# generated using pymatgen
data_Os5WCl30
_symmetry_space_group_name_H-M   'P 1'
_cell_length_a   13.08679369
_cell_length_b   13.08679235
_cell_length_c   6.69637600
_cell_angle_alpha   85.96009354
_cell_angle_beta   85.96009835
_cell_angle_gamma   89.06515351
_symmetry_Int_Tables_number   1
_chemical_formula_structural   Os5WCl30
_chemical_formula_sum   'Os5 W1 Cl30'
_cell_volume   1141.08264454
_cell_formula_units_Z   1
loop_
 _symmetry_equiv_pos_site_id
 _symmetry_equiv_pos_as_xyz
  1  'x, y, z'
loop_
 _atom_site_type_symbol
 _atom_site_label
 _atom_site_symmetry_multiplicity
 _atom_site_fract_x
 _atom_site_fract_y
 _atom_site_fract_z
 _atom_site_occupancy
  Os  Os0  1  0.769638  0.564627  0.432790  1
  Os  Os1  1  0.435373  0.230362  0.567210  1
  Os  Os2  1  0.230988  0.434006  0.567514  1
  Os  Os3  1  0.565994  0.769012  0.432486  1
  Os  Os4  1  0.102987  0.897013  0.000000  1
  W  W5  1  0.892608  0.107392  0.000000  1
  Cl  Cl6  1  0.686732  0.490707  0.190531  1
  Cl  Cl7  1  0.509293  0.313268  0.809469  1
  Cl  Cl8  1  0.313251  0.507842  0.809939  1
  Cl  Cl9  1  0.492158  0.686749  0.190061  1
  Cl  Cl10  1  0.780683  0.412833  0.612745  1
  Cl  Cl11  1  0.587167  0.219317  0.387255  1
  Cl  Cl12  1  0.929782  0.932584  0.880189  1
  Cl  Cl13  1  0.067416  0.070218  0.119811  1
  Cl  Cl14  1  0.738297  0.111835  0.869360  1
  Cl  Cl15  1  0.888165  0.261703  0.130640  1
  Cl  Cl16  1  0.257304  0.890528  0.128344  1
  Cl  Cl17  1  0.109472  0.742696  0.871656  1
  Cl  Cl18  1  0.832446  0.023720  0.293072  1
  Cl  Cl19  1  0.976280  0.167554  0.706928  1
  Cl  Cl20  1  0.168015  0.976555  0.704010  1
  Cl  Cl21  1  0.023445  0.831985  0.295990  1
  Cl  Cl22  1  0.734156  0.732448  0.262308  1
  Cl  Cl23  1  0.267552  0.265844  0.737692  1
  Cl  Cl24  1  0.556310  0.920796  0.251909  1
  Cl  Cl25  1  0.079204  0.443690  0.748091  1
  Cl  Cl26  1  0.446502  0.078919  0.747061  1
  Cl  Cl27  1  0.921081  0.553498  0.252939  1
  Cl  Cl28  1  0.650048  0.842333  0.674457  1
  Cl  Cl29  1  0.157667  0.349952  0.325543  1
  Cl  Cl30  1  0.352622  0.156960  0.324773  1
  Cl  Cl31  1  0.843040  0.647378  0.675227  1
  Cl  Cl32  1  0.601220  0.600784  0.601837  1
  Cl  Cl33  1  0.399216  0.398780  0.398163  1
  Cl  Cl34  1  0.415022  0.781136  0.612393  1
  Cl  Cl35  1  0.218864  0.584978  0.387607  1
