# generated using pymatgen
data_BaSrTa2F14
_symmetry_space_group_name_H-M   'P 1'
_cell_length_a   7.47828900
_cell_length_b   5.06303028
_cell_length_c   6.97338112
_cell_angle_alpha   85.67875282
_cell_angle_beta   90.00000000
_cell_angle_gamma   90.00000000
_symmetry_Int_Tables_number   1
_chemical_formula_structural   BaSrTa2F14
_chemical_formula_sum   'Ba1 Sr1 Ta2 F14'
_cell_volume   263.28118657
_cell_formula_units_Z   1
loop_
 _symmetry_equiv_pos_site_id
 _symmetry_equiv_pos_as_xyz
  1  'x, y, z'
loop_
 _atom_site_type_symbol
 _atom_site_label
 _atom_site_symmetry_multiplicity
 _atom_site_fract_x
 _atom_site_fract_y
 _atom_site_fract_z
 _atom_site_occupancy
  Ba  Ba0  1  0.250000  0.028646  0.684974  1
  Sr  Sr1  1  0.750000  0.980298  0.310753  1
  Ta  Ta2  1  0.250000  0.463142  0.221244  1
  Ta  Ta3  1  0.750000  0.535813  0.778694  1
  F  F4  1  0.250000  0.642505  0.960499  1
  F  F5  1  0.527687  0.341186  0.786358  1
  F  F6  1  0.750000  0.343393  0.040698  1
  F  F7  1  0.034661  0.679488  0.222063  1
  F  F8  1  0.250000  0.175150  0.051587  1
  F  F9  1  0.073477  0.199261  0.348654  1
  F  F10  1  0.426523  0.199261  0.348654  1
  F  F11  1  0.584905  0.803933  0.636848  1
  F  F12  1  0.972313  0.341186  0.786358  1
  F  F13  1  0.750000  0.818007  0.954168  1
  F  F14  1  0.465339  0.679488  0.222063  1
  F  F15  1  0.750000  0.400776  0.515772  1
  F  F16  1  0.915095  0.803933  0.636848  1
  F  F17  1  0.250000  0.564537  0.493766  1
