# generated using pymatgen
data_Tm16CdHg3Rh4
_symmetry_space_group_name_H-M   'P 1'
_cell_length_a   9.47570060
_cell_length_b   9.46701863
_cell_length_c   9.46701900
_cell_angle_alpha   60.00000221
_cell_angle_beta   60.03030639
_cell_angle_gamma   60.03030245
_symmetry_Int_Tables_number   1
_chemical_formula_structural   Tm16CdHg3Rh4
_chemical_formula_sum   'Tm16 Cd1 Hg3 Rh4'
_cell_volume   600.78848114
_cell_formula_units_Z   1
loop_
 _symmetry_equiv_pos_site_id
 _symmetry_equiv_pos_as_xyz
  1  'x, y, z'
loop_
 _atom_site_type_symbol
 _atom_site_label
 _atom_site_symmetry_multiplicity
 _atom_site_fract_x
 _atom_site_fract_y
 _atom_site_fract_z
 _atom_site_occupancy
  Tm  Tm0  1  0.601473  0.600357  0.600357  1
  Tm  Tm1  1  0.601473  0.600357  0.197814  1
  Tm  Tm2  1  0.601473  0.197814  0.600357  1
  Tm  Tm3  1  0.193682  0.602107  0.602107  1
  Tm  Tm4  1  0.061294  0.438740  0.438740  1
  Tm  Tm5  1  0.437380  0.062165  0.062165  1
  Tm  Tm6  1  0.437380  0.062165  0.438292  1
  Tm  Tm7  1  0.061294  0.438740  0.061227  1
  Tm  Tm8  1  0.437380  0.438292  0.062165  1
  Tm  Tm9  1  0.061294  0.061227  0.438740  1
  Tm  Tm10  1  0.185428  0.813680  0.813680  1
  Tm  Tm11  1  0.813115  0.186544  0.186544  1
  Tm  Tm12  1  0.813115  0.186544  0.813797  1
  Tm  Tm13  1  0.185428  0.813680  0.187212  1
  Tm  Tm14  1  0.813115  0.813797  0.186544  1
  Tm  Tm15  1  0.185428  0.187212  0.813680  1
  Cd  Cd16  1  0.510860  0.829713  0.829713  1
  Hg  Hg17  1  0.833484  0.835354  0.835354  1
  Hg  Hg18  1  0.833484  0.835354  0.495807  1
  Hg  Hg19  1  0.833484  0.495807  0.835354  1
  Rh  Rh20  1  0.392591  0.393596  0.393596  1
  Rh  Rh21  1  0.392591  0.393596  0.820215  1
  Rh  Rh22  1  0.392591  0.820215  0.393596  1
  Rh  Rh23  1  0.821161  0.392946  0.392946  1
