# generated using pymatgen
data_RbVSnS4
_symmetry_space_group_name_H-M   'P 1'
_cell_length_a   12.94250600
_cell_length_b   7.22552885
_cell_length_c   11.25840299
_cell_angle_alpha   54.66343779
_cell_angle_beta   90.00000000
_cell_angle_gamma   90.00000000
_symmetry_Int_Tables_number   1
_chemical_formula_structural   RbVSnS4
_chemical_formula_sum   'Rb4 V4 Sn4 S16'
_cell_volume   858.87869361
_cell_formula_units_Z   4
loop_
 _symmetry_equiv_pos_site_id
 _symmetry_equiv_pos_as_xyz
  1  'x, y, z'
loop_
 _atom_site_type_symbol
 _atom_site_label
 _atom_site_symmetry_multiplicity
 _atom_site_fract_x
 _atom_site_fract_y
 _atom_site_fract_z
 _atom_site_occupancy
  Rb  Rb0  1  0.405643  0.374737  0.867756  1
  Rb  Rb1  1  0.905643  0.625263  0.632244  1
  Rb  Rb2  1  0.594357  0.625263  0.132244  1
  Rb  Rb3  1  0.094357  0.374737  0.367756  1
  V  V4  1  0.342124  0.092257  0.637826  1
  V  V5  1  0.842124  0.907743  0.862174  1
  V  V6  1  0.657876  0.907743  0.362174  1
  V  V7  1  0.157876  0.092257  0.137826  1
  Sn  Sn8  1  0.113075  0.964134  0.888342  1
  Sn  Sn9  1  0.613075  0.035866  0.611658  1
  Sn  Sn10  1  0.886925  0.035866  0.111658  1
  Sn  Sn11  1  0.386925  0.964134  0.388342  1
  S  S12  1  0.457617  0.924669  0.809368  1
  S  S13  1  0.957617  0.075331  0.690632  1
  S  S14  1  0.542383  0.075331  0.190632  1
  S  S15  1  0.042383  0.924669  0.309368  1
  S  S16  1  0.065051  0.275225  0.934537  1
  S  S17  1  0.565051  0.724775  0.565463  1
  S  S18  1  0.934949  0.724775  0.065463  1
  S  S19  1  0.434949  0.275225  0.434537  1
  S  S20  1  0.243686  0.311233  0.657729  1
  S  S21  1  0.743686  0.688767  0.842271  1
  S  S22  1  0.756314  0.688767  0.342271  1
  S  S23  1  0.256314  0.311233  0.157729  1
  S  S24  1  0.252299  0.853691  0.628859  1
  S  S25  1  0.752299  0.146309  0.871141  1
  S  S26  1  0.747701  0.146309  0.371141  1
  S  S27  1  0.247701  0.853691  0.128859  1
