# generated using pymatgen
data_Rb2Sr(SiSe3)2
_symmetry_space_group_name_H-M   'P 1'
_cell_length_a   9.27965799
_cell_length_b   9.27965852
_cell_length_c   9.45925526
_cell_angle_alpha   90.38118813
_cell_angle_beta   90.38118905
_cell_angle_gamma   113.48740855
_symmetry_Int_Tables_number   1
_chemical_formula_structural   Rb2Sr(SiSe3)2
_chemical_formula_sum   'Rb4 Sr2 Si4 Se12'
_cell_volume   747.01310454
_cell_formula_units_Z   2
loop_
 _symmetry_equiv_pos_site_id
 _symmetry_equiv_pos_as_xyz
  1  'x, y, z'
loop_
 _atom_site_type_symbol
 _atom_site_label
 _atom_site_symmetry_multiplicity
 _atom_site_fract_x
 _atom_site_fract_y
 _atom_site_fract_z
 _atom_site_occupancy
  Rb  Rb0  1  0.260483  0.539066  0.524483  1
  Rb  Rb1  1  0.739517  0.460934  0.475517  1
  Rb  Rb2  1  0.460934  0.739517  0.975517  1
  Rb  Rb3  1  0.539066  0.260483  0.024483  1
  Sr  Sr4  1  0.998788  0.001212  0.250000  1
  Sr  Sr5  1  0.001212  0.998788  0.750000  1
  Si  Si6  1  0.978413  0.653332  0.044765  1
  Si  Si7  1  0.021587  0.346668  0.955235  1
  Si  Si8  1  0.346668  0.021587  0.455235  1
  Si  Si9  1  0.653332  0.978413  0.544765  1
  Se  Se10  1  0.658591  0.766133  0.655625  1
  Se  Se11  1  0.906288  0.497405  0.838670  1
  Se  Se12  1  0.233867  0.341409  0.844375  1
  Se  Se13  1  0.497405  0.906288  0.338670  1
  Se  Se14  1  0.341409  0.233867  0.344375  1
  Se  Se15  1  0.895378  0.163978  0.502586  1
  Se  Se16  1  0.836022  0.104622  0.997414  1
  Se  Se17  1  0.163978  0.895378  0.002586  1
  Se  Se18  1  0.093712  0.502595  0.161330  1
  Se  Se19  1  0.502595  0.093712  0.661330  1
  Se  Se20  1  0.104622  0.836022  0.497414  1
  Se  Se21  1  0.766133  0.658591  0.155625  1
