# generated using pymatgen
data_AcAl4Co9
_symmetry_space_group_name_H-M   'P 1'
_cell_length_a   8.15835307
_cell_length_b   8.21185162
_cell_length_c   8.18828600
_cell_angle_alpha   120.73780693
_cell_angle_beta   120.51976637
_cell_angle_gamma   88.89180005
_symmetry_Int_Tables_number   1
_chemical_formula_structural   AcAl4Co9
_chemical_formula_sum   'Ac2 Al8 Co18'
_cell_volume   384.21274626
_cell_formula_units_Z   2
loop_
 _symmetry_equiv_pos_site_id
 _symmetry_equiv_pos_as_xyz
  1  'x, y, z'
loop_
 _atom_site_type_symbol
 _atom_site_label
 _atom_site_symmetry_multiplicity
 _atom_site_fract_x
 _atom_site_fract_y
 _atom_site_fract_z
 _atom_site_occupancy
  Ac  Ac0  1  0.750237  0.749752  0.000183  1
  Ac  Ac1  1  0.250124  0.249945  0.999924  1
  Al  Al2  1  0.799863  0.299466  0.855910  1
  Al  Al3  1  0.444175  0.943678  0.144504  1
  Al  Al4  1  0.700100  0.555882  0.499941  1
  Al  Al5  1  0.056124  0.201606  0.499997  1
  Al  Al6  1  0.200276  0.700363  0.144157  1
  Al  Al7  1  0.556357  0.056532  0.855971  1
  Al  Al8  1  0.943592  0.798484  0.499732  1
  Al  Al9  1  0.299641  0.443862  0.499822  1
  Co  Co10  1  0.787858  0.061200  0.500105  1
  Co  Co11  1  0.200791  0.062084  0.262962  1
  Co  Co12  1  0.799283  0.938025  0.737270  1
  Co  Co13  1  0.299269  0.562491  0.861245  1
  Co  Co14  1  0.700671  0.437485  0.138655  1
  Co  Co15  1  0.437822  0.299119  0.737031  1
  Co  Co16  1  0.562030  0.700771  0.262781  1
  Co  Co17  1  0.938068  0.201297  0.138742  1
  Co  Co18  1  0.061934  0.798892  0.861405  1
  Co  Co19  1  0.499927  0.000109  0.500084  1
  Co  Co20  1  0.999941  0.500056  0.499925  1
  Co  Co21  1  0.287085  0.786848  0.725647  1
  Co  Co22  1  0.061391  0.560958  0.273956  1
  Co  Co23  1  0.212188  0.938973  0.499971  1
  Co  Co24  1  0.438341  0.713640  0.500067  1
  Co  Co25  1  0.712785  0.213065  0.274182  1
  Co  Co26  1  0.938523  0.438982  0.725813  1
  Co  Co27  1  0.561610  0.286436  0.500024  1
