# generated using pymatgen
data_Er9Tm10LuPt16
_symmetry_space_group_name_H-M   'P 1'
_cell_length_a   7.40693883
_cell_length_b   7.48820393
_cell_length_c   14.61440003
_cell_angle_alpha   90.05201167
_cell_angle_beta   90.02963518
_cell_angle_gamma   90.01511068
_symmetry_Int_Tables_number   1
_chemical_formula_structural   Er9Tm10LuPt16
_chemical_formula_sum   'Er9 Tm10 Lu1 Pt16'
_cell_volume   810.58238137
_cell_formula_units_Z   1
loop_
 _symmetry_equiv_pos_site_id
 _symmetry_equiv_pos_as_xyz
  1  'x, y, z'
loop_
 _atom_site_type_symbol
 _atom_site_label
 _atom_site_symmetry_multiplicity
 _atom_site_fract_x
 _atom_site_fract_y
 _atom_site_fract_z
 _atom_site_occupancy
  Er  Er0  1  0.154842  0.332475  0.622117  1
  Er  Er1  1  0.500552  0.679550  0.592762  1
  Er  Er2  1  0.000337  0.821064  0.907320  1
  Er  Er3  1  0.499835  0.321045  0.092834  1
  Er  Er4  1  0.999594  0.178927  0.406811  1
  Er  Er5  1  0.499725  0.320806  0.407369  1
  Er  Er6  1  0.999757  0.178881  0.092814  1
  Er  Er7  1  0.500336  0.678934  0.907175  1
  Er  Er8  1  0.000136  0.821082  0.592925  1
  Tm  Tm9  1  0.154750  0.332638  0.877759  1
  Tm  Tm10  1  0.345082  0.832809  0.122278  1
  Tm  Tm11  1  0.844977  0.667361  0.377528  1
  Tm  Tm12  1  0.345380  0.832877  0.377483  1
  Tm  Tm13  1  0.845235  0.667302  0.122301  1
  Tm  Tm14  1  0.655028  0.167196  0.877830  1
  Tm  Tm15  1  0.817574  0.510066  0.750168  1
  Tm  Tm16  1  0.318059  0.990004  0.750233  1
  Tm  Tm17  1  0.182176  0.490016  0.249927  1
  Tm  Tm18  1  0.682150  0.009948  0.249832  1
  Lu  Lu19  1  0.654891  0.167245  0.622477  1
  Pt  Pt20  1  0.685106  0.967705  0.458297  1
  Pt  Pt21  1  0.184925  0.532864  0.041753  1
  Pt  Pt22  1  0.314983  0.033384  0.958518  1
  Pt  Pt23  1  0.813808  0.466639  0.541497  1
  Pt  Pt24  1  0.316019  0.032007  0.541901  1
  Pt  Pt25  1  0.815125  0.467088  0.958312  1
  Pt  Pt26  1  0.685027  0.966813  0.041546  1
  Pt  Pt27  1  0.184751  0.533444  0.457864  1
  Pt  Pt28  1  0.452499  0.386473  0.750560  1
  Pt  Pt29  1  0.951351  0.112965  0.750059  1
  Pt  Pt30  1  0.547990  0.613325  0.249579  1
  Pt  Pt31  1  0.048122  0.886672  0.250023  1
  Pt  Pt32  1  0.678928  0.855553  0.750184  1
  Pt  Pt33  1  0.179156  0.644685  0.750471  1
  Pt  Pt34  1  0.320981  0.144660  0.249796  1
  Pt  Pt35  1  0.820815  0.355496  0.249699  1
