# generated using pymatgen
data_CaCd2(SiO3)3
_symmetry_space_group_name_H-M   'P 1'
_cell_length_a   7.09348542
_cell_length_b   7.37741303
_cell_length_c   7.94161695
_cell_angle_alpha   103.10916338
_cell_angle_beta   94.84932004
_cell_angle_gamma   89.38763332
_symmetry_Int_Tables_number   1
_chemical_formula_structural   CaCd2(SiO3)3
_chemical_formula_sum   'Ca2 Cd4 Si6 O18'
_cell_volume   403.30241263
_cell_formula_units_Z   2
loop_
 _symmetry_equiv_pos_site_id
 _symmetry_equiv_pos_as_xyz
  1  'x, y, z'
loop_
 _atom_site_type_symbol
 _atom_site_label
 _atom_site_symmetry_multiplicity
 _atom_site_fract_x
 _atom_site_fract_y
 _atom_site_fract_z
 _atom_site_occupancy
  Ca  Ca0  1  0.760960  0.416164  0.203711  1
  Ca  Ca1  1  0.239040  0.583836  0.796289  1
  Cd  Cd2  1  0.510831  0.749891  0.495151  1
  Cd  Cd3  1  0.489169  0.250109  0.504849  1
  Cd  Cd4  1  0.748699  0.920127  0.194342  1
  Cd  Cd5  1  0.251301  0.079873  0.805658  1
  Si  Si6  1  0.048481  0.730441  0.395274  1
  Si  Si7  1  0.951519  0.269559  0.604726  1
  Si  Si8  1  0.261086  0.964567  0.181984  1
  Si  Si9  1  0.738914  0.035433  0.818016  1
  Si  Si10  1  0.264557  0.389605  0.185045  1
  Si  Si11  1  0.735443  0.610395  0.814955  1
  O  O12  1  0.088181  0.518909  0.272728  1
  O  O13  1  0.911819  0.481091  0.727272  1
  O  O14  1  0.087302  0.873382  0.264689  1
  O  O15  1  0.912698  0.126618  0.735311  1
  O  O16  1  0.201081  0.183186  0.207504  1
  O  O17  1  0.798919  0.816814  0.792496  1
  O  O18  1  0.819292  0.731518  0.400152  1
  O  O19  1  0.180708  0.268482  0.599848  1
  O  O20  1  0.269970  0.873475  0.976909  1
  O  O21  1  0.730030  0.126525  0.023091  1
  O  O22  1  0.272958  0.383768  0.981951  1
  O  O23  1  0.727042  0.616232  0.018049  1
  O  O24  1  0.538447  0.546970  0.692596  1
  O  O25  1  0.461553  0.453030  0.307404  1
  O  O26  1  0.541857  0.048338  0.696337  1
  O  O27  1  0.458143  0.951662  0.303663  1
  O  O28  1  0.807646  0.228183  0.429983  1
  O  O29  1  0.192354  0.771817  0.570017  1
