# generated using pymatgen
data_Th(GaNi)2
_symmetry_space_group_name_H-M   'P 1'
_cell_length_a   4.21011100
_cell_length_b   4.21011100
_cell_length_c   9.59835800
_cell_angle_alpha   90.00000000
_cell_angle_beta   90.00000000
_cell_angle_gamma   90.00000000
_symmetry_Int_Tables_number   1
_chemical_formula_structural   Th(GaNi)2
_chemical_formula_sum   'Th2 Ga4 Ni4'
_cell_volume   170.13122796
_cell_formula_units_Z   2
loop_
 _symmetry_equiv_pos_site_id
 _symmetry_equiv_pos_as_xyz
  1  'x, y, z'
loop_
 _atom_site_type_symbol
 _atom_site_label
 _atom_site_symmetry_multiplicity
 _atom_site_fract_x
 _atom_site_fract_y
 _atom_site_fract_z
 _atom_site_occupancy
  Th  Th0  1  0.000000  0.500000  0.242287  1
  Th  Th1  1  0.500000  0.000000  0.757713  1
  Ga  Ga2  1  0.500000  0.000000  0.123271  1
  Ga  Ga3  1  0.000000  0.000000  0.500000  1
  Ga  Ga4  1  0.500000  0.500000  0.500000  1
  Ga  Ga5  1  0.000000  0.500000  0.876729  1
  Ni  Ni6  1  0.000000  0.000000  0.000000  1
  Ni  Ni7  1  0.500000  0.500000  0.000000  1
  Ni  Ni8  1  0.500000  0.000000  0.371029  1
  Ni  Ni9  1  0.000000  0.500000  0.628971  1
