# generated using pymatgen
data_Hf6Be10Al5Pd8
_symmetry_space_group_name_H-M   'P 1'
_cell_length_a   8.29502366
_cell_length_b   8.29502351
_cell_length_c   8.30729700
_cell_angle_alpha   59.95104646
_cell_angle_beta   59.95104705
_cell_angle_gamma   60.09790984
_symmetry_Int_Tables_number   1
_chemical_formula_structural   Hf6Be10Al5Pd8
_chemical_formula_sum   'Hf6 Be10 Al5 Pd8'
_cell_volume   404.18305039
_cell_formula_units_Z   1
loop_
 _symmetry_equiv_pos_site_id
 _symmetry_equiv_pos_as_xyz
  1  'x, y, z'
loop_
 _atom_site_type_symbol
 _atom_site_label
 _atom_site_symmetry_multiplicity
 _atom_site_fract_x
 _atom_site_fract_y
 _atom_site_fract_z
 _atom_site_occupancy
  Hf  Hf0  1  0.697874  0.302126  0.302126  1
  Hf  Hf1  1  0.302126  0.697874  0.697874  1
  Hf  Hf2  1  0.302126  0.697874  0.302126  1
  Hf  Hf3  1  0.697874  0.302126  0.697874  1
  Hf  Hf4  1  0.302845  0.302845  0.697155  1
  Hf  Hf5  1  0.697155  0.697155  0.302845  1
  Be  Be6  1  0.334594  0.334594  0.315796  1
  Be  Be7  1  0.665406  0.665406  0.684204  1
  Be  Be8  1  0.334594  0.334594  0.015017  1
  Be  Be9  1  0.315796  0.015017  0.334594  1
  Be  Be10  1  0.665406  0.665406  0.984983  1
  Be  Be11  1  0.684204  0.984983  0.665406  1
  Be  Be12  1  0.015017  0.315796  0.334594  1
  Be  Be13  1  0.984983  0.684204  0.665406  1
  Be  Be14  1  0.000000  0.000000  0.500000  1
  Be  Be15  1  0.500000  0.500000  0.000000  1
  Al  Al16  1  0.500000  0.000000  0.000000  1
  Al  Al17  1  0.000000  0.500000  0.500000  1
  Al  Al18  1  0.000000  0.500000  0.000000  1
  Al  Al19  1  0.500000  0.000000  0.500000  1
  Al  Al20  1  0.000000  0.000000  0.000000  1
  Pd  Pd21  1  0.123618  0.123618  0.132543  1
  Pd  Pd22  1  0.876382  0.876382  0.867457  1
  Pd  Pd23  1  0.123618  0.123618  0.620221  1
  Pd  Pd24  1  0.132543  0.620221  0.123618  1
  Pd  Pd25  1  0.876382  0.876382  0.379779  1
  Pd  Pd26  1  0.867457  0.379779  0.876382  1
  Pd  Pd27  1  0.620221  0.132543  0.123618  1
  Pd  Pd28  1  0.379779  0.867457  0.876382  1
