# generated using pymatgen
data_Tb2MoWC3
_symmetry_space_group_name_H-M   'P 1'
_cell_length_a   6.16545438
_cell_length_b   6.16545396
_cell_length_c   5.75970609
_cell_angle_alpha   67.93327075
_cell_angle_beta   67.93327430
_cell_angle_gamma   31.60024753
_symmetry_Int_Tables_number   1
_chemical_formula_structural   Tb2MoWC3
_chemical_formula_sum   'Tb2 Mo1 W1 C3'
_cell_volume   105.61799063
_cell_formula_units_Z   1
loop_
 _symmetry_equiv_pos_site_id
 _symmetry_equiv_pos_as_xyz
  1  'x, y, z'
loop_
 _atom_site_type_symbol
 _atom_site_label
 _atom_site_symmetry_multiplicity
 _atom_site_fract_x
 _atom_site_fract_y
 _atom_site_fract_z
 _atom_site_occupancy
  Tb  Tb0  1  0.609523  0.609523  0.176432  1
  Tb  Tb1  1  0.390553  0.390553  0.820195  1
  Mo  Mo2  1  0.156863  0.156863  0.675593  1
  W  W3  1  0.842088  0.842088  0.326817  1
  C  C4  1  0.751432  0.751432  0.732471  1
  C  C5  1  0.250289  0.250289  0.266107  1
  C  C6  1  0.999253  0.999253  0.002384  1
