# generated using pymatgen
data_La3Pr(AlPd2)4
_symmetry_space_group_name_H-M   'P 1'
_cell_length_a   6.02708032
_cell_length_b   6.98580000
_cell_length_c   7.68179043
_cell_angle_alpha   90.00000000
_cell_angle_beta   89.96201008
_cell_angle_gamma   90.00000000
_symmetry_Int_Tables_number   1
_chemical_formula_structural   La3Pr(AlPd2)4
_chemical_formula_sum   'La3 Pr1 Al4 Pd8'
_cell_volume   323.43386214
_cell_formula_units_Z   1
loop_
 _symmetry_equiv_pos_site_id
 _symmetry_equiv_pos_as_xyz
  1  'x, y, z'
loop_
 _atom_site_type_symbol
 _atom_site_label
 _atom_site_symmetry_multiplicity
 _atom_site_fract_x
 _atom_site_fract_y
 _atom_site_fract_z
 _atom_site_occupancy
  La  La0  1  0.343163  0.750000  0.033535  1
  La  La1  1  0.156075  0.750000  0.533298  1
  La  La2  1  0.657069  0.250000  0.966293  1
  Pr  Pr3  1  0.843842  0.250000  0.467215  1
  Al  Al4  1  0.657411  0.750000  0.380688  1
  Al  Al5  1  0.842902  0.750000  0.880772  1
  Al  Al6  1  0.342963  0.250000  0.618575  1
  Al  Al7  1  0.156491  0.250000  0.121222  1
  Pd  Pd8  1  0.911036  0.551484  0.174909  1
  Pd  Pd9  1  0.588471  0.948309  0.674974  1
  Pd  Pd10  1  0.087921  0.051835  0.824294  1
  Pd  Pd11  1  0.412614  0.448418  0.325024  1
  Pd  Pd12  1  0.087921  0.448165  0.824294  1
  Pd  Pd13  1  0.412614  0.051582  0.325024  1
  Pd  Pd14  1  0.911036  0.948516  0.174909  1
  Pd  Pd15  1  0.588471  0.551691  0.674974  1
