# generated using pymatgen
data_Mn3VGaS8
_symmetry_space_group_name_H-M   'P 1'
_cell_length_a   6.75321176
_cell_length_b   6.75321259
_cell_length_c   6.75321203
_cell_angle_alpha   61.10015282
_cell_angle_beta   61.10014501
_cell_angle_gamma   61.10014643
_symmetry_Int_Tables_number   1
_chemical_formula_structural   Mn3VGaS8
_chemical_formula_sum   'Mn3 V1 Ga1 S8'
_cell_volume   223.17213727
_cell_formula_units_Z   1
loop_
 _symmetry_equiv_pos_site_id
 _symmetry_equiv_pos_as_xyz
  1  'x, y, z'
loop_
 _atom_site_type_symbol
 _atom_site_label
 _atom_site_symmetry_multiplicity
 _atom_site_fract_x
 _atom_site_fract_y
 _atom_site_fract_z
 _atom_site_occupancy
  Mn  Mn0  1  0.843073  0.380411  0.380411  1
  Mn  Mn1  1  0.380411  0.843073  0.380411  1
  Mn  Mn2  1  0.380411  0.380411  0.843073  1
  V  V3  1  0.404019  0.404019  0.404019  1
  Ga  Ga4  1  0.991699  0.991699  0.991699  1
  S  S5  1  0.132052  0.132052  0.132052  1
  S  S6  1  0.581773  0.140735  0.140735  1
  S  S7  1  0.140735  0.581773  0.140735  1
  S  S8  1  0.140735  0.140735  0.581773  1
  S  S9  1  0.616730  0.616730  0.616730  1
  S  S10  1  0.121999  0.633181  0.633181  1
  S  S11  1  0.633181  0.121999  0.633181  1
  S  S12  1  0.633181  0.633181  0.121999  1
