# generated using pymatgen
data_BaThB12
_symmetry_space_group_name_H-M   'P 1'
_cell_length_a   4.18030500
_cell_length_b   4.18030500
_cell_length_c   8.39634700
_cell_angle_alpha   90.00000000
_cell_angle_beta   90.00000000
_cell_angle_gamma   90.00000000
_symmetry_Int_Tables_number   1
_chemical_formula_structural   BaThB12
_chemical_formula_sum   'Ba1 Th1 B12'
_cell_volume   146.72574311
_cell_formula_units_Z   1
loop_
 _symmetry_equiv_pos_site_id
 _symmetry_equiv_pos_as_xyz
  1  'x, y, z'
loop_
 _atom_site_type_symbol
 _atom_site_label
 _atom_site_symmetry_multiplicity
 _atom_site_fract_x
 _atom_site_fract_y
 _atom_site_fract_z
 _atom_site_occupancy
  Ba  Ba0  1  0.000000  0.000000  0.000000  1
  Th  Th1  1  0.000000  0.000000  0.500000  1
  B  B2  1  0.200283  0.500000  0.254831  1
  B  B3  1  0.200283  0.500000  0.745169  1
  B  B4  1  0.500000  0.500000  0.402317  1
  B  B5  1  0.500000  0.500000  0.896932  1
  B  B6  1  0.500000  0.200283  0.254831  1
  B  B7  1  0.500000  0.200283  0.745169  1
  B  B8  1  0.500000  0.500000  0.103068  1
  B  B9  1  0.500000  0.500000  0.597683  1
  B  B10  1  0.500000  0.799717  0.254831  1
  B  B11  1  0.500000  0.799717  0.745169  1
  B  B12  1  0.799717  0.500000  0.254831  1
  B  B13  1  0.799717  0.500000  0.745169  1
