# generated using pymatgen
data_Ta2Mn3Se8
_symmetry_space_group_name_H-M   'P 1'
_cell_length_a   3.48235100
_cell_length_b   11.18445400
_cell_length_c   15.69163200
_cell_angle_alpha   90.00000000
_cell_angle_beta   90.00000000
_cell_angle_gamma   90.00000000
_symmetry_Int_Tables_number   1
_chemical_formula_structural   Ta2Mn3Se8
_chemical_formula_sum   'Ta4 Mn6 Se16'
_cell_volume   611.16073628
_cell_formula_units_Z   2
loop_
 _symmetry_equiv_pos_site_id
 _symmetry_equiv_pos_as_xyz
  1  'x, y, z'
loop_
 _atom_site_type_symbol
 _atom_site_label
 _atom_site_symmetry_multiplicity
 _atom_site_fract_x
 _atom_site_fract_y
 _atom_site_fract_z
 _atom_site_occupancy
  Ta  Ta0  1  0.500000  0.689306  0.376866  1
  Ta  Ta1  1  0.500000  0.310694  0.623134  1
  Ta  Ta2  1  0.500000  0.189306  0.123134  1
  Ta  Ta3  1  0.500000  0.810694  0.876866  1
  Mn  Mn4  1  0.000000  0.854112  0.273602  1
  Mn  Mn5  1  0.000000  0.145888  0.726398  1
  Mn  Mn6  1  0.000000  0.354112  0.226398  1
  Mn  Mn7  1  0.000000  0.645888  0.773602  1
  Mn  Mn8  1  0.000000  0.500000  0.500000  1
  Mn  Mn9  1  0.000000  0.000000  0.000000  1
  Se  Se10  1  0.500000  0.923797  0.371293  1
  Se  Se11  1  0.500000  0.076203  0.628707  1
  Se  Se12  1  0.500000  0.423797  0.128707  1
  Se  Se13  1  0.500000  0.576203  0.871293  1
  Se  Se14  1  0.500000  0.725878  0.212629  1
  Se  Se15  1  0.500000  0.274122  0.787371  1
  Se  Se16  1  0.500000  0.225878  0.287371  1
  Se  Se17  1  0.500000  0.774122  0.712629  1
  Se  Se18  1  0.000000  0.517979  0.344065  1
  Se  Se19  1  0.000000  0.482021  0.655935  1
  Se  Se20  1  0.000000  0.783005  0.000277  1
  Se  Se21  1  0.000000  0.216995  0.999723  1
  Se  Se22  1  0.000000  0.283005  0.499723  1
  Se  Se23  1  0.000000  0.716995  0.500277  1
  Se  Se24  1  0.000000  0.982021  0.844065  1
  Se  Se25  1  0.000000  0.017979  0.155935  1
