# generated using pymatgen
data_Tb10PPdPb6
_symmetry_space_group_name_H-M   'P 1'
_cell_length_a   9.22427800
_cell_length_b   9.22427880
_cell_length_c   6.84594000
_cell_angle_alpha   90.00000000
_cell_angle_beta   90.00000000
_cell_angle_gamma   119.99999714
_symmetry_Int_Tables_number   1
_chemical_formula_structural   Tb10PPdPb6
_chemical_formula_sum   'Tb10 P1 Pd1 Pb6'
_cell_volume   504.46209208
_cell_formula_units_Z   1
loop_
 _symmetry_equiv_pos_site_id
 _symmetry_equiv_pos_as_xyz
  1  'x, y, z'
loop_
 _atom_site_type_symbol
 _atom_site_label
 _atom_site_symmetry_multiplicity
 _atom_site_fract_x
 _atom_site_fract_y
 _atom_site_fract_z
 _atom_site_occupancy
  Tb  Tb0  1  0.244390  0.000000  0.238572  1
  Tb  Tb1  1  0.755610  0.000000  0.761428  1
  Tb  Tb2  1  0.000000  0.244390  0.238572  1
  Tb  Tb3  1  0.000000  0.755610  0.761428  1
  Tb  Tb4  1  0.755610  0.755610  0.238572  1
  Tb  Tb5  1  0.244390  0.244390  0.761428  1
  Tb  Tb6  1  0.333333  0.666667  0.000000  1
  Tb  Tb7  1  0.666667  0.333333  0.000000  1
  Tb  Tb8  1  0.666667  0.333333  0.500000  1
  Tb  Tb9  1  0.333333  0.666667  0.500000  1
  P  P10  1  0.000000  0.000000  0.000000  1
  Pd  Pd11  1  0.000000  0.000000  0.500000  1
  Pb  Pb12  1  0.604176  0.000000  0.249698  1
  Pb  Pb13  1  0.395824  0.000000  0.750302  1
  Pb  Pb14  1  0.000000  0.604176  0.249698  1
  Pb  Pb15  1  0.000000  0.395824  0.750302  1
  Pb  Pb16  1  0.395824  0.395824  0.249698  1
  Pb  Pb17  1  0.604176  0.604176  0.750302  1
