# generated using pymatgen
data_Tm5ZrAuO12
_symmetry_space_group_name_H-M   'P 1'
_cell_length_a   6.36042423
_cell_length_b   6.36404800
_cell_length_c   6.38709012
_cell_angle_alpha   99.35781493
_cell_angle_beta   98.74114688
_cell_angle_gamma   98.90754731
_symmetry_Int_Tables_number   1
_chemical_formula_structural   Tm5ZrAuO12
_chemical_formula_sum   'Tm5 Zr1 Au1 O12'
_cell_volume   247.82330209
_cell_formula_units_Z   1
loop_
 _symmetry_equiv_pos_site_id
 _symmetry_equiv_pos_as_xyz
  1  'x, y, z'
loop_
 _atom_site_type_symbol
 _atom_site_label
 _atom_site_symmetry_multiplicity
 _atom_site_fract_x
 _atom_site_fract_y
 _atom_site_fract_z
 _atom_site_occupancy
  Tm  Tm0  1  0.389104  0.689664  0.854566  1
  Tm  Tm1  1  0.858528  0.389105  0.693121  1
  Tm  Tm2  1  0.309938  0.144621  0.610690  1
  Tm  Tm3  1  0.610642  0.309688  0.139853  1
  Tm  Tm4  1  0.140906  0.610055  0.308359  1
  Zr  Zr5  1  0.686046  0.855827  0.386489  1
  Au  Au6  1  0.998507  0.997367  0.000234  1
  O  O7  1  0.441781  0.600919  0.182084  1
  O  O8  1  0.175973  0.434692  0.584273  1
  O  O9  1  0.595570  0.170403  0.430132  1
  O  O10  1  0.563755  0.409242  0.821732  1
  O  O11  1  0.817618  0.579043  0.416463  1
  O  O12  1  0.427395  0.823855  0.564345  1
  O  O13  1  0.930439  0.038995  0.683520  1
  O  O14  1  0.951722  0.312495  0.061537  1
  O  O15  1  0.310153  0.062478  0.949101  1
  O  O16  1  0.055523  0.952338  0.314423  1
  O  O17  1  0.048524  0.685634  0.940445  1
  O  O18  1  0.687875  0.933579  0.058632  1
