# generated using pymatgen
data_YPu5O12
_symmetry_space_group_name_H-M   'P 1'
_cell_length_a   6.57896126
_cell_length_b   6.57896183
_cell_length_c   7.58689661
_cell_angle_alpha   73.25801423
_cell_angle_beta   73.25801505
_cell_angle_gamma   48.24334251
_symmetry_Int_Tables_number   1
_chemical_formula_structural   YPu5O12
_chemical_formula_sum   'Y1 Pu5 O12'
_cell_volume   232.44464134
_cell_formula_units_Z   1
loop_
 _symmetry_equiv_pos_site_id
 _symmetry_equiv_pos_as_xyz
  1  'x, y, z'
loop_
 _atom_site_type_symbol
 _atom_site_label
 _atom_site_symmetry_multiplicity
 _atom_site_fract_x
 _atom_site_fract_y
 _atom_site_fract_z
 _atom_site_occupancy
  Y  Y0  1  0.000095  0.999905  0.500000  1
  Pu  Pu1  1  0.999849  0.000151  0.000000  1
  Pu  Pu2  1  0.667215  0.667089  0.665967  1
  Pu  Pu3  1  0.334156  0.334071  0.832434  1
  Pu  Pu4  1  0.332911  0.332785  0.334033  1
  Pu  Pu5  1  0.665929  0.665844  0.167566  1
  O  O6  1  0.417494  0.918048  0.917557  1
  O  O7  1  0.917183  0.417673  0.917085  1
  O  O8  1  0.085860  0.577327  0.585700  1
  O  O9  1  0.254046  0.748245  0.755818  1
  O  O10  1  0.577190  0.083328  0.585364  1
  O  O11  1  0.747109  0.254411  0.754548  1
  O  O12  1  0.745589  0.252891  0.245452  1
  O  O13  1  0.916672  0.422810  0.414636  1
  O  O14  1  0.422673  0.914140  0.414300  1
  O  O15  1  0.251755  0.745954  0.244182  1
  O  O16  1  0.582327  0.082817  0.082915  1
  O  O17  1  0.081952  0.582506  0.082443  1
