# generated using pymatgen
data_La3Pd2PtPb3
_symmetry_space_group_name_H-M   'P 1'
_cell_length_a   7.92734000
_cell_length_b   7.92733979
_cell_length_c   4.21929000
_cell_angle_alpha   90.00000000
_cell_angle_beta   90.00000000
_cell_angle_gamma   120.00000924
_symmetry_Int_Tables_number   1
_chemical_formula_structural   La3Pd2PtPb3
_chemical_formula_sum   'La3 Pd2 Pt1 Pb3'
_cell_volume   229.62804398
_cell_formula_units_Z   1
loop_
 _symmetry_equiv_pos_site_id
 _symmetry_equiv_pos_as_xyz
  1  'x, y, z'
loop_
 _atom_site_type_symbol
 _atom_site_label
 _atom_site_symmetry_multiplicity
 _atom_site_fract_x
 _atom_site_fract_y
 _atom_site_fract_z
 _atom_site_occupancy
  La  La0  1  0.413393  0.409703  0.500000  1
  La  La1  1  0.590297  0.003691  0.500000  1
  La  La2  1  0.996309  0.586607  0.500000  1
  Pd  Pd3  1  0.333333  0.666667  0.000000  1
  Pd  Pd4  1  0.000000  0.000000  0.500000  1
  Pt  Pt5  1  0.666667  0.333333  0.000000  1
  Pb  Pb6  1  0.745728  0.747629  0.000000  1
  Pb  Pb7  1  0.252371  0.998099  0.000000  1
  Pb  Pb8  1  0.001901  0.254272  0.000000  1
