# generated using pymatgen
data_TmSiTc2C
_symmetry_space_group_name_H-M   'P 1'
_cell_length_a   3.86405100
_cell_length_b   5.83913697
_cell_length_c   7.30745800
_cell_angle_alpha   90.00000000
_cell_angle_beta   90.00000000
_cell_angle_gamma   70.67810120
_symmetry_Int_Tables_number   1
_chemical_formula_structural   TmSiTc2C
_chemical_formula_sum   'Tm2 Si2 Tc4 C2'
_cell_volume   155.58942898
_cell_formula_units_Z   2
loop_
 _symmetry_equiv_pos_site_id
 _symmetry_equiv_pos_as_xyz
  1  'x, y, z'
loop_
 _atom_site_type_symbol
 _atom_site_label
 _atom_site_symmetry_multiplicity
 _atom_site_fract_x
 _atom_site_fract_y
 _atom_site_fract_z
 _atom_site_occupancy
  Tm  Tm0  1  0.956729  0.086545  0.249999  1
  Tm  Tm1  1  0.043273  0.913455  0.749999  1
  Si  Si2  1  0.233609  0.532782  0.249999  1
  Si  Si3  1  0.766393  0.467218  0.749999  1
  Tc  Tc4  1  0.670260  0.659479  0.058909  1
  Tc  Tc5  1  0.670260  0.659479  0.441091  1
  Tc  Tc6  1  0.329741  0.340521  0.558909  1
  Tc  Tc7  1  0.329741  0.340521  0.941091  1
  C  C8  1  0.500001  0.000000  0.000000  1
  C  C9  1  0.500001  0.000000  0.500000  1
