# generated using pymatgen
data_SmY2Lu(CrB4)4
_symmetry_space_group_name_H-M   'P 1'
_cell_length_a   3.45017000
_cell_length_b   5.94245452
_cell_length_c   11.48267870
_cell_angle_alpha   89.88390822
_cell_angle_beta   90.00000000
_cell_angle_gamma   90.00000000
_symmetry_Int_Tables_number   1
_chemical_formula_structural   SmY2Lu(CrB4)4
_chemical_formula_sum   'Sm1 Y2 Lu1 Cr4 B16'
_cell_volume   235.42288792
_cell_formula_units_Z   1
loop_
 _symmetry_equiv_pos_site_id
 _symmetry_equiv_pos_as_xyz
  1  'x, y, z'
loop_
 _atom_site_type_symbol
 _atom_site_label
 _atom_site_symmetry_multiplicity
 _atom_site_fract_x
 _atom_site_fract_y
 _atom_site_fract_z
 _atom_site_occupancy
  Sm  Sm0  1  0.000000  0.624349  0.348900  1
  Y  Y1  1  0.000000  0.375506  0.651688  1
  Y  Y2  1  0.000000  0.124500  0.150019  1
  Lu  Lu3  1  0.000000  0.875515  0.849299  1
  Cr  Cr4  1  0.000000  0.624498  0.079088  1
  Cr  Cr5  1  0.000000  0.375705  0.918268  1
  Cr  Cr6  1  0.000000  0.123589  0.420398  1
  Cr  Cr7  1  0.000000  0.876546  0.582423  1
  B  B8  1  0.500000  0.781598  0.181953  1
  B  B9  1  0.500000  0.216526  0.816006  1
  B  B10  1  0.500000  0.279000  0.315949  1
  B  B11  1  0.500000  0.719193  0.686013  1
  B  B12  1  0.500000  0.863460  0.030238  1
  B  B13  1  0.500000  0.136447  0.966224  1
  B  B14  1  0.500000  0.361434  0.469071  1
  B  B15  1  0.500000  0.638333  0.534439  1
  B  B16  1  0.500000  0.888672  0.454911  1
  B  B17  1  0.500000  0.112884  0.548389  1
  B  B18  1  0.500000  0.387062  0.045102  1
  B  B19  1  0.500000  0.614952  0.951610  1
  B  B20  1  0.500000  0.976596  0.308941  1
  B  B21  1  0.500000  0.023396  0.693530  1
  B  B22  1  0.500000  0.474304  0.189225  1
  B  B23  1  0.500000  0.525938  0.808317  1
