# generated using pymatgen
data_TbZr2PdF15
_symmetry_space_group_name_H-M   'P 1'
_cell_length_a   8.15845800
_cell_length_b   8.15845759
_cell_length_c   8.14962801
_cell_angle_alpha   79.43364314
_cell_angle_beta   79.43364024
_cell_angle_gamma   99.40894516
_symmetry_Int_Tables_number   1
_chemical_formula_structural   TbZr2PdF15
_chemical_formula_sum   'Tb2 Zr4 Pd2 F30'
_cell_volume   513.18289617
_cell_formula_units_Z   2
loop_
 _symmetry_equiv_pos_site_id
 _symmetry_equiv_pos_as_xyz
  1  'x, y, z'
loop_
 _atom_site_type_symbol
 _atom_site_label
 _atom_site_symmetry_multiplicity
 _atom_site_fract_x
 _atom_site_fract_y
 _atom_site_fract_z
 _atom_site_occupancy
  Tb  Tb0  1  0.178179  0.821821  0.250000  1
  Tb  Tb1  1  0.821821  0.178179  0.750000  1
  Zr  Zr2  1  0.742919  0.678885  0.671063  1
  Zr  Zr3  1  0.321115  0.257081  0.828937  1
  Zr  Zr4  1  0.257081  0.321115  0.328937  1
  Zr  Zr5  1  0.678885  0.742919  0.171063  1
  Pd  Pd6  1  0.749568  0.250432  0.250000  1
  Pd  Pd7  1  0.250432  0.749568  0.750000  1
  F  F8  1  0.311678  0.350305  0.057637  1
  F  F9  1  0.934465  0.808839  0.155490  1
  F  F10  1  0.839200  0.461154  0.688984  1
  F  F11  1  0.461154  0.839200  0.188984  1
  F  F12  1  0.808839  0.934465  0.655490  1
  F  F13  1  0.350305  0.311678  0.557636  1
  F  F14  1  0.688322  0.649695  0.942363  1
  F  F15  1  0.065535  0.191161  0.844510  1
  F  F16  1  0.160800  0.538846  0.311016  1
  F  F17  1  0.538846  0.160800  0.811016  1
  F  F18  1  0.191161  0.065535  0.344510  1
  F  F19  1  0.649695  0.688322  0.442363  1
  F  F20  1  0.770747  0.284824  0.003331  1
  F  F21  1  0.995873  0.271924  0.209817  1
  F  F22  1  0.787118  0.501238  0.223288  1
  F  F23  1  0.501238  0.787118  0.723288  1
  F  F24  1  0.271924  0.995873  0.709817  1
  F  F25  1  0.284824  0.770747  0.503331  1
  F  F26  1  0.229253  0.715176  0.996669  1
  F  F27  1  0.004127  0.728076  0.790183  1
  F  F28  1  0.212882  0.498762  0.776712  1
  F  F29  1  0.498762  0.212882  0.276712  1
  F  F30  1  0.728076  0.004127  0.290183  1
  F  F31  1  0.715176  0.229253  0.496669  1
  F  F32  1  0.473046  0.526954  0.250000  1
  F  F33  1  0.746423  0.954926  0.974881  1
  F  F34  1  0.045074  0.253577  0.525119  1
  F  F35  1  0.253577  0.045074  0.025119  1
  F  F36  1  0.954926  0.746423  0.474881  1
  F  F37  1  0.526954  0.473046  0.750000  1
