# generated using pymatgen
data_Lu16In6HgOs
_symmetry_space_group_name_H-M   'P 1'
_cell_length_a   10.37303300
_cell_length_b   10.37303180
_cell_length_c   6.76177700
_cell_angle_alpha   90.00000000
_cell_angle_beta   90.00000000
_cell_angle_gamma   120.00000062
_symmetry_Int_Tables_number   1
_chemical_formula_structural   Lu16In6HgOs
_chemical_formula_sum   'Lu16 In6 Hg1 Os1'
_cell_volume   630.09051463
_cell_formula_units_Z   1
loop_
 _symmetry_equiv_pos_site_id
 _symmetry_equiv_pos_as_xyz
  1  'x, y, z'
loop_
 _atom_site_type_symbol
 _atom_site_label
 _atom_site_symmetry_multiplicity
 _atom_site_fract_x
 _atom_site_fract_y
 _atom_site_fract_z
 _atom_site_occupancy
  Lu  Lu0  1  0.517210  0.034418  0.529711  1
  Lu  Lu1  1  0.965582  0.482790  0.529711  1
  Lu  Lu2  1  0.517210  0.482790  0.529711  1
  Lu  Lu3  1  0.468769  0.937540  0.024017  1
  Lu  Lu4  1  0.062460  0.531231  0.024017  1
  Lu  Lu5  1  0.468769  0.531231  0.024017  1
  Lu  Lu6  1  0.176627  0.353254  0.739768  1
  Lu  Lu7  1  0.646746  0.823373  0.739768  1
  Lu  Lu8  1  0.176627  0.823373  0.739768  1
  Lu  Lu9  1  0.828947  0.657896  0.235090  1
  Lu  Lu10  1  0.342104  0.171053  0.235090  1
  Lu  Lu11  1  0.828947  0.171053  0.235090  1
  Lu  Lu12  1  0.666667  0.333333  0.867246  1
  Lu  Lu13  1  0.333333  0.666667  0.395539  1
  Lu  Lu14  1  0.000000  0.000000  0.506449  1
  Lu  Lu15  1  0.000000  0.000000  0.010348  1
  In  In16  1  0.835536  0.671070  0.760364  1
  In  In17  1  0.328930  0.164464  0.760364  1
  In  In18  1  0.835536  0.164464  0.760364  1
  In  In19  1  0.162687  0.325376  0.266549  1
  In  In20  1  0.674624  0.837313  0.266549  1
  In  In21  1  0.162687  0.837313  0.266549  1
  Hg  Hg22  1  0.666667  0.333333  0.308549  1
  Os  Os23  1  0.333333  0.666667  0.801049  1
