# generated using pymatgen
data_Li4Tb3Sn3Sb
_symmetry_space_group_name_H-M   'P 1'
_cell_length_a   4.57775919
_cell_length_b   7.18429840
_cell_length_c   8.64383165
_cell_angle_alpha   114.55544469
_cell_angle_beta   105.35501932
_cell_angle_gamma   90.00000483
_symmetry_Int_Tables_number   1
_chemical_formula_structural   Li4Tb3Sn3Sb
_chemical_formula_sum   'Li4 Tb3 Sn3 Sb1'
_cell_volume   247.36779667
_cell_formula_units_Z   1
loop_
 _symmetry_equiv_pos_site_id
 _symmetry_equiv_pos_as_xyz
  1  'x, y, z'
loop_
 _atom_site_type_symbol
 _atom_site_label
 _atom_site_symmetry_multiplicity
 _atom_site_fract_x
 _atom_site_fract_y
 _atom_site_fract_z
 _atom_site_occupancy
  Li  Li0  1  0.326511  0.015138  0.653020  1
  Li  Li1  1  0.673789  0.983285  0.347580  1
  Li  Li2  1  0.326511  0.637882  0.653020  1
  Li  Li3  1  0.673789  0.364295  0.347580  1
  Tb  Tb4  1  0.874307  0.374307  0.748613  1
  Tb  Tb5  1  0.127916  0.627916  0.255834  1
  Tb  Tb6  1  0.998417  0.998417  0.996834  1
  Sn  Sn7  1  0.784340  0.784340  0.568681  1
  Sn  Sn8  1  0.499578  0.299087  0.999155  1
  Sn  Sn9  1  0.499578  0.700068  0.999155  1
  Sb  Sb10  1  0.215265  0.215265  0.430528  1
