# generated using pymatgen
data_La20GeBi8Os3
_symmetry_space_group_name_H-M   'P 1'
_cell_length_a   8.55980592
_cell_length_b   9.29608300
_cell_length_c   13.09821100
_cell_angle_alpha   90.00000000
_cell_angle_beta   89.79853610
_cell_angle_gamma   90.00000000
_symmetry_Int_Tables_number   1
_chemical_formula_structural   La20GeBi8Os3
_chemical_formula_sum   'La20 Ge1 Bi8 Os3'
_cell_volume   1042.25312933
_cell_formula_units_Z   1
loop_
 _symmetry_equiv_pos_site_id
 _symmetry_equiv_pos_as_xyz
  1  'x, y, z'
loop_
 _atom_site_type_symbol
 _atom_site_label
 _atom_site_symmetry_multiplicity
 _atom_site_fract_x
 _atom_site_fract_y
 _atom_site_fract_z
 _atom_site_occupancy
  La  La0  1  0.336947  0.750000  0.713956  1
  La  La1  1  0.649362  0.250000  0.296164  1
  La  La2  1  0.851913  0.250000  0.799003  1
  La  La3  1  0.144438  0.750000  0.199441  1
  La  La4  1  0.875803  0.750000  0.802410  1
  La  La5  1  0.118941  0.250000  0.194802  1
  La  La6  1  0.377061  0.250000  0.695860  1
  La  La7  1  0.630842  0.750000  0.295052  1
  La  La8  1  0.687606  0.525627  0.563857  1
  La  La9  1  0.315720  0.448724  0.438260  1
  La  La10  1  0.180618  0.464242  0.938962  1
  La  La11  1  0.315720  0.051276  0.438260  1
  La  La12  1  0.819945  0.537850  0.060595  1
  La  La13  1  0.687606  0.974373  0.563857  1
  La  La14  1  0.819945  0.962150  0.060595  1
  La  La15  1  0.180618  0.035758  0.938962  1
  La  La16  1  0.055341  0.750000  0.494678  1
  La  La17  1  0.947076  0.250000  0.502584  1
  La  La18  1  0.557383  0.250000  0.005025  1
  La  La19  1  0.450375  0.750000  0.997013  1
  Ge  Ge20  1  0.436843  0.750000  0.489102  1
  Bi  Bi21  1  0.572076  0.506631  0.826661  1
  Bi  Bi22  1  0.422364  0.494178  0.175421  1
  Bi  Bi23  1  0.075702  0.492342  0.670809  1
  Bi  Bi24  1  0.422364  0.005822  0.175421  1
  Bi  Bi25  1  0.922270  0.508022  0.328189  1
  Bi  Bi26  1  0.572076  0.993369  0.826661  1
  Bi  Bi27  1  0.922270  0.991978  0.328189  1
  Bi  Bi28  1  0.075702  0.007658  0.670809  1
  Os  Os29  1  0.079466  0.750000  0.981456  1
  Os  Os30  1  0.918823  0.250000  0.014786  1
  Os  Os31  1  0.576786  0.250000  0.513154  1
