# generated using pymatgen
data_Pr6Mn3WC12
_symmetry_space_group_name_H-M   'P 1'
_cell_length_a   8.36224600
_cell_length_b   8.36224546
_cell_length_c   5.26808500
_cell_angle_alpha   90.00000000
_cell_angle_beta   90.00000000
_cell_angle_gamma   119.99998631
_symmetry_Int_Tables_number   1
_chemical_formula_structural   Pr6Mn3WC12
_chemical_formula_sum   'Pr6 Mn3 W1 C12'
_cell_volume   319.02837818
_cell_formula_units_Z   1
loop_
 _symmetry_equiv_pos_site_id
 _symmetry_equiv_pos_as_xyz
  1  'x, y, z'
loop_
 _atom_site_type_symbol
 _atom_site_label
 _atom_site_symmetry_multiplicity
 _atom_site_fract_x
 _atom_site_fract_y
 _atom_site_fract_z
 _atom_site_occupancy
  Pr  Pr0  1  0.611976  0.683403  0.751168  1
  Pr  Pr1  1  0.928572  0.611976  0.248832  1
  Pr  Pr2  1  0.683403  0.071428  0.248832  1
  Pr  Pr3  1  0.316597  0.928572  0.751168  1
  Pr  Pr4  1  0.071428  0.388024  0.751168  1
  Pr  Pr5  1  0.388024  0.316597  0.248832  1
  Mn  Mn6  1  0.000000  0.000000  0.000000  1
  Mn  Mn7  1  0.666667  0.333333  0.753561  1
  Mn  Mn8  1  0.333333  0.666667  0.246439  1
  W  W9  1  0.000000  0.000000  0.500000  1
  C  C10  1  0.953867  0.764064  0.741594  1
  C  C11  1  0.189803  0.953867  0.258406  1
  C  C12  1  0.764064  0.810197  0.258406  1
  C  C13  1  0.235936  0.189803  0.741594  1
  C  C14  1  0.810197  0.046133  0.741594  1
  C  C15  1  0.046133  0.235936  0.258406  1
  C  C16  1  0.856174  0.574746  0.749752  1
  C  C17  1  0.281427  0.856174  0.250248  1
  C  C18  1  0.574746  0.718573  0.250248  1
  C  C19  1  0.425254  0.281427  0.749752  1
  C  C20  1  0.143826  0.425254  0.250248  1
  C  C21  1  0.718573  0.143826  0.749752  1
