# generated using pymatgen
data_Zr2InRhAu
_symmetry_space_group_name_H-M   'P 1'
_cell_length_a   7.68457589
_cell_length_b   7.68457589
_cell_length_c   3.41701900
_cell_angle_alpha   90.00000000
_cell_angle_beta   90.00000000
_cell_angle_gamma   89.40990404
_symmetry_Int_Tables_number   1
_chemical_formula_structural   Zr2InRhAu
_chemical_formula_sum   'Zr4 In2 Rh2 Au2'
_cell_volume   201.77351874
_cell_formula_units_Z   2
loop_
 _symmetry_equiv_pos_site_id
 _symmetry_equiv_pos_as_xyz
  1  'x, y, z'
loop_
 _atom_site_type_symbol
 _atom_site_label
 _atom_site_symmetry_multiplicity
 _atom_site_fract_x
 _atom_site_fract_y
 _atom_site_fract_z
 _atom_site_occupancy
  Zr  Zr0  1  0.182209  0.317791  0.000000  1
  Zr  Zr1  1  0.817791  0.682209  0.000000  1
  Zr  Zr2  1  0.658829  0.158829  0.000000  1
  Zr  Zr3  1  0.341171  0.841171  0.000000  1
  In  In4  1  0.000000  0.000000  0.500000  1
  In  In5  1  0.500000  0.500000  0.500000  1
  Rh  Rh6  1  0.369720  0.130280  0.500000  1
  Rh  Rh7  1  0.630280  0.869720  0.500000  1
  Au  Au8  1  0.870692  0.370692  0.500000  1
  Au  Au9  1  0.129308  0.629308  0.500000  1
