# generated using pymatgen
data_K8Li4Al3InBi8
_symmetry_space_group_name_H-M   'P 1'
_cell_length_a   10.85682652
_cell_length_b   10.85682560
_cell_length_c   6.89793549
_cell_angle_alpha   90.13532805
_cell_angle_beta   89.86467151
_cell_angle_gamma   100.66284967
_symmetry_Int_Tables_number   1
_chemical_formula_structural   K8Li4Al3InBi8
_chemical_formula_sum   'K8 Li4 Al3 In1 Bi8'
_cell_volume   799.02133030
_cell_formula_units_Z   1
loop_
 _symmetry_equiv_pos_site_id
 _symmetry_equiv_pos_as_xyz
  1  'x, y, z'
loop_
 _atom_site_type_symbol
 _atom_site_label
 _atom_site_symmetry_multiplicity
 _atom_site_fract_x
 _atom_site_fract_y
 _atom_site_fract_z
 _atom_site_occupancy
  K  K0  1  0.583368  0.921383  0.751834  1
  K  K1  1  0.921383  0.583368  0.248166  1
  K  K2  1  0.420712  0.077857  0.255948  1
  K  K3  1  0.077857  0.420712  0.744052  1
  K  K4  1  0.669043  0.332120  0.773953  1
  K  K5  1  0.828904  0.166639  0.277048  1
  K  K6  1  0.332120  0.669043  0.226047  1
  K  K7  1  0.166639  0.828904  0.722952  1
  Li  Li8  1  0.621925  0.621925  0.000000  1
  Li  Li9  1  0.879549  0.879549  0.500000  1
  Li  Li10  1  0.379786  0.379786  0.000000  1
  Li  Li11  1  0.119130  0.119130  0.500000  1
  Al  Al12  1  0.869719  0.869719  0.000000  1
  Al  Al13  1  0.632226  0.632226  0.500000  1
  Al  Al14  1  0.127442  0.127442  0.000000  1
  In  In15  1  0.367623  0.367623  0.500000  1
  Bi  Bi16  1  0.346815  0.141791  0.762624  1
  Bi  Bi17  1  0.141791  0.346815  0.237376  1
  Bi  Bi18  1  0.652695  0.848671  0.250348  1
  Bi  Bi19  1  0.848671  0.652695  0.749652  1
  Bi  Bi20  1  0.901588  0.097250  0.780902  1
  Bi  Bi21  1  0.607934  0.405834  0.274571  1
  Bi  Bi22  1  0.097250  0.901588  0.219098  1
  Bi  Bi23  1  0.405834  0.607934  0.725429  1
