# generated using pymatgen
data_La2Ho2TmIn4
_symmetry_space_group_name_H-M   'P 1'
_cell_length_a   8.11165200
_cell_length_b   8.42348100
_cell_length_c   15.99314600
_cell_angle_alpha   90.00000000
_cell_angle_beta   90.00000000
_cell_angle_gamma   90.00000000
_symmetry_Int_Tables_number   1
_chemical_formula_structural   La2Ho2TmIn4
_chemical_formula_sum   'La8 Ho8 Tm4 In16'
_cell_volume   1092.78522152
_cell_formula_units_Z   4
loop_
 _symmetry_equiv_pos_site_id
 _symmetry_equiv_pos_as_xyz
  1  'x, y, z'
loop_
 _atom_site_type_symbol
 _atom_site_label
 _atom_site_symmetry_multiplicity
 _atom_site_fract_x
 _atom_site_fract_y
 _atom_site_fract_z
 _atom_site_occupancy
  La  La0  1  0.984845  0.820541  0.093600  1
  La  La1  1  0.484845  0.679459  0.406400  1
  La  La2  1  0.515155  0.320541  0.906400  1
  La  La3  1  0.015155  0.179459  0.593600  1
  La  La4  1  0.015155  0.179459  0.906400  1
  La  La5  1  0.515155  0.320541  0.593600  1
  La  La6  1  0.484845  0.679459  0.093600  1
  La  La7  1  0.984845  0.820541  0.406400  1
  Ho  Ho8  1  0.676871  0.830910  0.875880  1
  Ho  Ho9  1  0.176871  0.669090  0.624120  1
  Ho  Ho10  1  0.823129  0.330910  0.124120  1
  Ho  Ho11  1  0.323129  0.169090  0.375880  1
  Ho  Ho12  1  0.323129  0.169090  0.124120  1
  Ho  Ho13  1  0.823129  0.330910  0.375880  1
  Ho  Ho14  1  0.176871  0.669090  0.875880  1
  Ho  Ho15  1  0.676871  0.830910  0.624120  1
  Tm  Tm16  1  0.651990  0.998631  0.250000  1
  Tm  Tm17  1  0.151990  0.501369  0.250000  1
  Tm  Tm18  1  0.848010  0.498631  0.750000  1
  Tm  Tm19  1  0.348010  0.001369  0.750000  1
  In  In20  1  0.779580  0.631710  0.250000  1
  In  In21  1  0.279580  0.868290  0.250000  1
  In  In22  1  0.720420  0.131710  0.750000  1
  In  In23  1  0.220420  0.368290  0.750000  1
  In  In24  1  0.019311  0.116516  0.250000  1
  In  In25  1  0.519311  0.383484  0.250000  1
  In  In26  1  0.480689  0.616516  0.750000  1
  In  In27  1  0.980689  0.883484  0.750000  1
  In  In28  1  0.839159  0.534375  0.957150  1
  In  In29  1  0.339159  0.965625  0.542850  1
  In  In30  1  0.660841  0.034375  0.042850  1
  In  In31  1  0.160841  0.465625  0.457150  1
  In  In32  1  0.160841  0.465625  0.042850  1
  In  In33  1  0.660841  0.034375  0.457150  1
  In  In34  1  0.339159  0.965625  0.957150  1
  In  In35  1  0.839159  0.534375  0.542850  1
