# generated using pymatgen
data_VZn3(GaRh3)2
_symmetry_space_group_name_H-M   'P 1'
_cell_length_a   4.29852300
_cell_length_b   6.02423000
_cell_length_c   12.84939601
_cell_angle_alpha   90.00364597
_cell_angle_beta   89.99989764
_cell_angle_gamma   89.99982110
_symmetry_Int_Tables_number   1
_chemical_formula_structural   VZn3(GaRh3)2
_chemical_formula_sum   'V2 Zn6 Ga4 Rh12'
_cell_volume   332.73885098
_cell_formula_units_Z   2
loop_
 _symmetry_equiv_pos_site_id
 _symmetry_equiv_pos_as_xyz
  1  'x, y, z'
loop_
 _atom_site_type_symbol
 _atom_site_label
 _atom_site_symmetry_multiplicity
 _atom_site_fract_x
 _atom_site_fract_y
 _atom_site_fract_z
 _atom_site_occupancy
  V  V0  1  0.000199  0.499980  0.663917  1
  V  V1  1  0.500199  0.000025  0.836022  1
  Zn  Zn2  1  0.000001  0.999949  0.998754  1
  Zn  Zn3  1  0.499813  0.500005  0.167916  1
  Zn  Zn4  1  0.999811  0.999995  0.332124  1
  Zn  Zn5  1  0.500001  0.500053  0.501242  1
  Zn  Zn6  1  0.000169  0.000070  0.669315  1
  Zn  Zn7  1  0.500170  0.499930  0.830633  1
  Ga  Ga8  1  0.000003  0.500017  0.001461  1
  Ga  Ga9  1  0.499818  0.999993  0.167362  1
  Ga  Ga10  1  0.999820  0.500009  0.332656  1
  Ga  Ga11  1  0.500002  0.999984  0.498519  1
  Rh  Rh12  1  0.500001  0.249169  0.997540  1
  Rh  Rh13  1  0.500002  0.750821  0.997536  1
  Rh  Rh14  1  0.999824  0.249423  0.165493  1
  Rh  Rh15  1  0.999823  0.750566  0.165485  1
  Rh  Rh16  1  0.499822  0.250566  0.334560  1
  Rh  Rh17  1  0.499822  0.749453  0.334563  1
  Rh  Rh18  1  0.000002  0.250892  0.502506  1
  Rh  Rh19  1  0.000002  0.749118  0.502511  1
  Rh  Rh20  1  0.500172  0.248749  0.667266  1
  Rh  Rh21  1  0.500173  0.751222  0.667295  1
  Rh  Rh22  1  0.000175  0.251304  0.832669  1
  Rh  Rh23  1  0.000175  0.748703  0.832656  1
