# generated using pymatgen
data_DyEr11Co5Hg
_symmetry_space_group_name_H-M   'P 1'
_cell_length_a   8.17589217
_cell_length_b   8.17589016
_cell_length_c   8.17741300
_cell_angle_alpha   110.56946772
_cell_angle_beta   110.57628149
_cell_angle_gamma   107.28183808
_symmetry_Int_Tables_number   1
_chemical_formula_structural   DyEr11Co5Hg
_chemical_formula_sum   'Dy1 Er11 Co5 Hg1'
_cell_volume   420.37265898
_cell_formula_units_Z   1
loop_
 _symmetry_equiv_pos_site_id
 _symmetry_equiv_pos_as_xyz
  1  'x, y, z'
loop_
 _atom_site_type_symbol
 _atom_site_label
 _atom_site_symmetry_multiplicity
 _atom_site_fract_x
 _atom_site_fract_y
 _atom_site_fract_z
 _atom_site_occupancy
  Dy  Dy0  1  0.289542  0.184738  0.474280  1
  Er  Er1  1  0.710742  0.815534  0.526274  1
  Er  Er2  1  0.289420  0.814955  0.104375  1
  Er  Er3  1  0.711050  0.184515  0.895567  1
  Er  Er4  1  0.619348  0.315506  0.303620  1
  Er  Er5  1  0.380750  0.684955  0.696422  1
  Er  Er6  1  0.011468  0.315672  0.696422  1
  Er  Er7  1  0.988113  0.684271  0.303620  1
  Er  Er8  1  0.212710  0.405729  0.192694  1
  Er  Er9  1  0.787911  0.595311  0.807714  1
  Er  Er10  1  0.212403  0.019804  0.807714  1
  Er  Er11  1  0.786965  0.979983  0.192694  1
  Co  Co12  1  0.999370  0.376858  0.376228  1
  Co  Co13  1  0.000189  0.623247  0.623437  1
  Co  Co14  1  0.386178  0.885233  0.499615  1
  Co  Co15  1  0.614381  0.113437  0.499615  1
  Co  Co16  1  0.999418  0.000290  0.999708  1
  Hg  Hg17  1  0.500038  0.499960  0.999998  1
