# generated using pymatgen
data_Dy4MnAl6Tc
_symmetry_space_group_name_H-M   'P 1'
_cell_length_a   5.52654700
_cell_length_b   5.52654717
_cell_length_c   8.83340200
_cell_angle_alpha   90.00000000
_cell_angle_beta   90.00000000
_cell_angle_gamma   120.00000499
_symmetry_Int_Tables_number   1
_chemical_formula_structural   Dy4MnAl6Tc
_chemical_formula_sum   'Dy4 Mn1 Al6 Tc1'
_cell_volume   233.65030576
_cell_formula_units_Z   1
loop_
 _symmetry_equiv_pos_site_id
 _symmetry_equiv_pos_as_xyz
  1  'x, y, z'
loop_
 _atom_site_type_symbol
 _atom_site_label
 _atom_site_symmetry_multiplicity
 _atom_site_fract_x
 _atom_site_fract_y
 _atom_site_fract_z
 _atom_site_occupancy
  Dy  Dy0  1  0.666668  0.333334  0.055647  1
  Dy  Dy1  1  0.666668  0.333334  0.447227  1
  Dy  Dy2  1  0.333333  0.666666  0.552773  1
  Dy  Dy3  1  0.333333  0.666666  0.944353  1
  Mn  Mn4  1  0.000000  0.000000  0.500000  1
  Al  Al5  1  0.162928  0.325856  0.250408  1
  Al  Al6  1  0.162927  0.837071  0.250408  1
  Al  Al7  1  0.674144  0.837071  0.250408  1
  Al  Al8  1  0.325857  0.162929  0.749592  1
  Al  Al9  1  0.837072  0.162929  0.749592  1
  Al  Al10  1  0.837073  0.674144  0.749592  1
  Tc  Tc11  1  0.000000  0.000000  0.000000  1
