# generated using pymatgen
data_La19Th(Ir2Os)4
_symmetry_space_group_name_H-M   'P 1'
_cell_length_a   11.35008500
_cell_length_b   11.32220381
_cell_length_c   6.69995100
_cell_angle_alpha   90.16019475
_cell_angle_beta   89.75590592
_cell_angle_gamma   90.07890667
_symmetry_Int_Tables_number   1
_chemical_formula_structural   La19Th(Ir2Os)4
_chemical_formula_sum   'La19 Th1 Ir8 Os4'
_cell_volume   860.98515845
_cell_formula_units_Z   1
loop_
 _symmetry_equiv_pos_site_id
 _symmetry_equiv_pos_as_xyz
  1  'x, y, z'
loop_
 _atom_site_type_symbol
 _atom_site_label
 _atom_site_symmetry_multiplicity
 _atom_site_fract_x
 _atom_site_fract_y
 _atom_site_fract_z
 _atom_site_occupancy
  La  La0  1  0.294068  0.910222  0.882502  1
  La  La1  1  0.704723  0.090135  0.885486  1
  La  La2  1  0.704032  0.909431  0.384614  1
  La  La3  1  0.589312  0.794627  0.886203  1
  La  La4  1  0.592825  0.206000  0.384726  1
  La  La5  1  0.410217  0.791142  0.385090  1
  La  La6  1  0.409851  0.206286  0.882996  1
  La  La7  1  0.205899  0.409561  0.611412  1
  La  La8  1  0.203268  0.589225  0.114490  1
  La  La9  1  0.794811  0.411556  0.113025  1
  La  La10  1  0.794550  0.590474  0.615507  1
  La  La11  1  0.909459  0.706353  0.115439  1
  La  La12  1  0.910704  0.295714  0.611795  1
  La  La13  1  0.090071  0.705077  0.614846  1
  La  La14  1  0.089175  0.293830  0.114532  1
  La  La15  1  0.997202  0.999453  0.500437  1
  La  La16  1  0.001713  0.001106  0.000451  1
  La  La17  1  0.498684  0.499359  0.004434  1
  La  La18  1  0.501076  0.498365  0.503417  1
  Th  Th19  1  0.297918  0.088581  0.386945  1
  Ir  Ir20  1  0.848059  0.152087  0.246615  1
  Ir  Ir21  1  0.846676  0.848139  0.752811  1
  Ir  Ir22  1  0.155657  0.150634  0.732206  1
  Ir  Ir23  1  0.158838  0.858906  0.259337  1
  Ir  Ir24  1  0.652594  0.349075  0.751967  1
  Ir  Ir25  1  0.651708  0.652398  0.250047  1
  Ir  Ir26  1  0.347317  0.338192  0.256937  1
  Ir  Ir27  1  0.348325  0.649440  0.752491  1
  Os  Os28  1  0.495124  0.001605  0.130708  1
  Os  Os29  1  0.496029  0.001001  0.618245  1
  Os  Os30  1  0.000023  0.500670  0.875034  1
  Os  Os31  1  0.000090  0.501357  0.375258  1
