# generated using pymatgen
data_Ho16In4Ni3Os
_symmetry_space_group_name_H-M   'P 1'
_cell_length_a   9.54696545
_cell_length_b   9.54696527
_cell_length_c   9.54696569
_cell_angle_alpha   59.79090730
_cell_angle_beta   59.79090825
_cell_angle_gamma   59.79090686
_symmetry_Int_Tables_number   1
_chemical_formula_structural   Ho16In4Ni3Os
_chemical_formula_sum   'Ho16 In4 Ni3 Os1'
_cell_volume   612.37100514
_cell_formula_units_Z   1
loop_
 _symmetry_equiv_pos_site_id
 _symmetry_equiv_pos_as_xyz
  1  'x, y, z'
loop_
 _atom_site_type_symbol
 _atom_site_label
 _atom_site_symmetry_multiplicity
 _atom_site_fract_x
 _atom_site_fract_y
 _atom_site_fract_z
 _atom_site_occupancy
  Ho  Ho0  1  0.347169  0.347169  0.347169  1
  Ho  Ho1  1  0.349991  0.349991  0.954193  1
  Ho  Ho2  1  0.349991  0.954193  0.349991  1
  Ho  Ho3  1  0.954193  0.349991  0.349991  1
  Ho  Ho4  1  0.810855  0.188634  0.188634  1
  Ho  Ho5  1  0.188168  0.811131  0.811131  1
  Ho  Ho6  1  0.188634  0.810855  0.188634  1
  Ho  Ho7  1  0.811131  0.188168  0.811131  1
  Ho  Ho8  1  0.188634  0.188634  0.810855  1
  Ho  Ho9  1  0.811131  0.811131  0.188168  1
  Ho  Ho10  1  0.935604  0.564171  0.564171  1
  Ho  Ho11  1  0.555915  0.940190  0.940190  1
  Ho  Ho12  1  0.564171  0.935604  0.564171  1
  Ho  Ho13  1  0.940190  0.555915  0.940190  1
  Ho  Ho14  1  0.564171  0.564171  0.935604  1
  Ho  Ho15  1  0.940190  0.940190  0.555915  1
  In  In16  1  0.582978  0.582978  0.582978  1
  In  In17  1  0.581786  0.581786  0.252643  1
  In  In18  1  0.581786  0.252643  0.581786  1
  In  In19  1  0.252643  0.581786  0.581786  1
  Ni  Ni20  1  0.141697  0.141697  0.575359  1
  Ni  Ni21  1  0.141697  0.575359  0.141697  1
  Ni  Ni22  1  0.575359  0.141697  0.141697  1
  Os  Os23  1  0.141916  0.141916  0.141916  1
