# generated using pymatgen
data_Pr3Th(Ga5Rh3)2
_symmetry_space_group_name_H-M   'P 1'
_cell_length_a   8.68051152
_cell_length_b   8.71791829
_cell_length_c   8.71789334
_cell_angle_alpha   141.13809473
_cell_angle_beta   108.33476664
_cell_angle_gamma   84.70566936
_symmetry_Int_Tables_number   1
_chemical_formula_structural   Pr3Th(Ga5Rh3)2
_chemical_formula_sum   'Pr3 Th1 Ga10 Rh6'
_cell_volume   379.80525497
_cell_formula_units_Z   1
loop_
 _symmetry_equiv_pos_site_id
 _symmetry_equiv_pos_as_xyz
  1  'x, y, z'
loop_
 _atom_site_type_symbol
 _atom_site_label
 _atom_site_symmetry_multiplicity
 _atom_site_fract_x
 _atom_site_fract_y
 _atom_site_fract_z
 _atom_site_occupancy
  Pr  Pr0  1  0.135942  0.364683  0.771267  1
  Pr  Pr1  1  0.590989  0.863208  0.727780  1
  Pr  Pr2  1  0.408747  0.136328  0.272425  1
  Th  Th3  1  0.864007  0.639126  0.224881  1
  Ga  Ga4  1  0.497781  0.751197  0.251796  1
  Ga  Ga5  1  0.497774  0.245958  0.746560  1
  Ga  Ga6  1  0.208498  0.958015  0.751816  1
  Ga  Ga7  1  0.792608  0.541389  0.747119  1
  Ga  Ga8  1  0.792605  0.045487  0.251220  1
  Ga  Ga9  1  0.208497  0.456686  0.250487  1
  Ga  Ga10  1  0.076964  0.909094  0.167877  1
  Ga  Ga11  1  0.923626  0.090846  0.832786  1
  Ga  Ga12  1  0.262662  0.592097  0.670567  1
  Ga  Ga13  1  0.737958  0.408527  0.329433  1
  Rh  Rh14  1  0.252999  0.849848  0.403137  1
  Rh  Rh15  1  0.744779  0.146731  0.598057  1
  Rh  Rh16  1  0.557303  0.646016  0.911275  1
  Rh  Rh17  1  0.446444  0.353630  0.092821  1
  Rh  Rh18  1  0.999910  0.749725  0.748506  1
  Rh  Rh19  1  0.999907  0.251410  0.250190  1
