# generated using pymatgen
data_Tm8TiSi16W11
_symmetry_space_group_name_H-M   'P 1'
_cell_length_a   6.70962244
_cell_length_b   6.90071749
_cell_length_c   12.90951527
_cell_angle_alpha   89.94871080
_cell_angle_beta   89.99147368
_cell_angle_gamma   90.12477086
_symmetry_Int_Tables_number   1
_chemical_formula_structural   Tm8TiSi16W11
_chemical_formula_sum   'Tm8 Ti1 Si16 W11'
_cell_volume   597.72449981
_cell_formula_units_Z   1
loop_
 _symmetry_equiv_pos_site_id
 _symmetry_equiv_pos_as_xyz
  1  'x, y, z'
loop_
 _atom_site_type_symbol
 _atom_site_label
 _atom_site_symmetry_multiplicity
 _atom_site_fract_x
 _atom_site_fract_y
 _atom_site_fract_z
 _atom_site_occupancy
  Tm  Tm0  1  0.997961  0.169899  0.093373  1
  Tm  Tm1  1  0.003547  0.831624  0.906861  1
  Tm  Tm2  1  0.502277  0.666920  0.906949  1
  Tm  Tm3  1  0.003378  0.830632  0.593058  1
  Tm  Tm4  1  0.497834  0.328918  0.093614  1
  Tm  Tm5  1  0.998297  0.171059  0.407067  1
  Tm  Tm6  1  0.497007  0.329821  0.406857  1
  Tm  Tm7  1  0.503016  0.668297  0.593265  1
  Ti  Ti8  1  0.167419  0.666487  0.125186  1
  Si  Si9  1  0.033047  0.126196  0.749529  1
  Si  Si10  1  0.967570  0.876789  0.251080  1
  Si  Si11  1  0.466914  0.626464  0.250122  1
  Si  Si12  1  0.531078  0.372236  0.749348  1
  Si  Si13  1  0.300546  0.863998  0.749836  1
  Si  Si14  1  0.702423  0.135970  0.250295  1
  Si  Si15  1  0.202951  0.366640  0.248800  1
  Si  Si16  1  0.799729  0.635890  0.750289  1
  Si  Si17  1  0.163532  0.457462  0.545208  1
  Si  Si18  1  0.835595  0.543490  0.456302  1
  Si  Si19  1  0.336977  0.958043  0.455195  1
  Si  Si20  1  0.835623  0.543009  0.043494  1
  Si  Si21  1  0.662691  0.040517  0.546831  1
  Si  Si22  1  0.161559  0.457468  0.953855  1
  Si  Si23  1  0.661518  0.039701  0.953924  1
  Si  Si24  1  0.337886  0.958536  0.044494  1
  W  W25  1  0.160357  0.496794  0.749578  1
  W  W26  1  0.841887  0.507461  0.250983  1
  W  W27  1  0.337441  0.997852  0.251487  1
  W  W28  1  0.665377  0.998254  0.749728  1
  W  W29  1  0.329197  0.162833  0.624313  1
  W  W30  1  0.668941  0.836698  0.375539  1
  W  W31  1  0.168420  0.661812  0.376690  1
  W  W32  1  0.671017  0.834459  0.125174  1
  W  W33  1  0.828520  0.338290  0.624699  1
  W  W34  1  0.331753  0.163658  0.872903  1
  W  W35  1  0.826718  0.335823  0.874076  1
