# generated using pymatgen
data_Tb16MgTl3Pd4
_symmetry_space_group_name_H-M   'P 1'
_cell_length_a   9.77140375
_cell_length_b   9.77140389
_cell_length_c   9.77140300
_cell_angle_alpha   60.13310415
_cell_angle_beta   60.13310369
_cell_angle_gamma   60.13309809
_symmetry_Int_Tables_number   1
_chemical_formula_structural   Tb16MgTl3Pd4
_chemical_formula_sum   'Tb16 Mg1 Tl3 Pd4'
_cell_volume   661.70340693
_cell_formula_units_Z   1
loop_
 _symmetry_equiv_pos_site_id
 _symmetry_equiv_pos_as_xyz
  1  'x, y, z'
loop_
 _atom_site_type_symbol
 _atom_site_label
 _atom_site_symmetry_multiplicity
 _atom_site_fract_x
 _atom_site_fract_y
 _atom_site_fract_z
 _atom_site_occupancy
  Tb  Tb0  1  0.809536  0.809536  0.188904  1
  Tb  Tb1  1  0.809536  0.188904  0.809536  1
  Tb  Tb2  1  0.188194  0.188194  0.809604  1
  Tb  Tb3  1  0.648812  0.056335  0.648812  1
  Tb  Tb4  1  0.063560  0.063560  0.435932  1
  Tb  Tb5  1  0.434080  0.434080  0.066760  1
  Tb  Tb6  1  0.648853  0.648853  0.648853  1
  Tb  Tb7  1  0.809604  0.188194  0.188194  1
  Tb  Tb8  1  0.188904  0.809536  0.809536  1
  Tb  Tb9  1  0.056335  0.648812  0.648812  1
  Tb  Tb10  1  0.435932  0.063560  0.063560  1
  Tb  Tb11  1  0.434080  0.066760  0.434080  1
  Tb  Tb12  1  0.063560  0.435932  0.063560  1
  Tb  Tb13  1  0.648812  0.648812  0.056335  1
  Tb  Tb14  1  0.188194  0.809604  0.188194  1
  Tb  Tb15  1  0.066760  0.434080  0.434080  1
  Mg  Mg16  1  0.423099  0.423099  0.423099  1
  Tl  Tl17  1  0.414305  0.414305  0.754156  1
  Tl  Tl18  1  0.414305  0.754156  0.414305  1
  Tl  Tl19  1  0.754156  0.414305  0.414305  1
  Pd  Pd20  1  0.856462  0.431510  0.856462  1
  Pd  Pd21  1  0.854948  0.854948  0.854948  1
  Pd  Pd22  1  0.856462  0.856462  0.431510  1
  Pd  Pd23  1  0.431510  0.856462  0.856462  1
