# generated using pymatgen
data_Sr7Pr3Pb8
_symmetry_space_group_name_H-M   'P 1'
_cell_length_a   8.47258900
_cell_length_b   8.93385123
_cell_length_c   17.17085300
_cell_angle_alpha   89.96988298
_cell_angle_beta   90.00000000
_cell_angle_gamma   90.00000000
_symmetry_Int_Tables_number   1
_chemical_formula_structural   Sr7Pr3Pb8
_chemical_formula_sum   'Sr14 Pr6 Pb16'
_cell_volume   1299.71061570
_cell_formula_units_Z   2
loop_
 _symmetry_equiv_pos_site_id
 _symmetry_equiv_pos_as_xyz
  1  'x, y, z'
loop_
 _atom_site_type_symbol
 _atom_site_label
 _atom_site_symmetry_multiplicity
 _atom_site_fract_x
 _atom_site_fract_y
 _atom_site_fract_z
 _atom_site_occupancy
  Sr  Sr0  1  0.668038  0.166806  0.879939  1
  Sr  Sr1  1  0.168038  0.333194  0.620061  1
  Sr  Sr2  1  0.497329  0.677335  0.595294  1
  Sr  Sr3  1  0.997329  0.822665  0.904706  1
  Sr  Sr4  1  0.501249  0.317681  0.093139  1
  Sr  Sr5  1  0.001249  0.182319  0.406861  1
  Sr  Sr6  1  0.498855  0.323322  0.406841  1
  Sr  Sr7  1  0.998855  0.176678  0.093159  1
  Sr  Sr8  1  0.500829  0.682711  0.906397  1
  Sr  Sr9  1  0.000829  0.817289  0.593603  1
  Sr  Sr10  1  0.831819  0.509179  0.749616  1
  Sr  Sr11  1  0.331819  0.990821  0.750384  1
  Sr  Sr12  1  0.171048  0.486656  0.249050  1
  Sr  Sr13  1  0.671048  0.013344  0.250950  1
  Pr  Pr14  1  0.666565  0.168177  0.624277  1
  Pr  Pr15  1  0.166565  0.331823  0.875723  1
  Pr  Pr16  1  0.332949  0.833481  0.123261  1
  Pr  Pr17  1  0.832949  0.666519  0.376739  1
  Pr  Pr18  1  0.332501  0.833298  0.376915  1
  Pr  Pr19  1  0.832501  0.666702  0.123085  1
  Pb  Pb20  1  0.671425  0.955727  0.462847  1
  Pb  Pb21  1  0.171425  0.544273  0.037153  1
  Pb  Pb22  1  0.322719  0.039103  0.964274  1
  Pb  Pb23  1  0.822719  0.460897  0.535726  1
  Pb  Pb24  1  0.339741  0.036482  0.536999  1
  Pb  Pb25  1  0.839741  0.463518  0.963001  1
  Pb  Pb26  1  0.666352  0.955623  0.042584  1
  Pb  Pb27  1  0.166352  0.544377  0.457416  1
  Pb  Pb28  1  0.464066  0.379304  0.750885  1
  Pb  Pb29  1  0.964066  0.120696  0.749115  1
  Pb  Pb30  1  0.536149  0.628138  0.250323  1
  Pb  Pb31  1  0.036149  0.871862  0.249677  1
  Pb  Pb32  1  0.710353  0.869651  0.747710  1
  Pb  Pb33  1  0.210353  0.630349  0.752290  1
  Pb  Pb34  1  0.288012  0.123497  0.250101  1
  Pb  Pb35  1  0.788012  0.376503  0.249899  1
