# generated using pymatgen
data_Dy8LuCd(SiB4)4
_symmetry_space_group_name_H-M   'P 1'
_cell_length_a   7.18415200
_cell_length_b   7.18415200
_cell_length_c   7.96418600
_cell_angle_alpha   90.00000000
_cell_angle_beta   90.00000000
_cell_angle_gamma   90.00000000
_symmetry_Int_Tables_number   1
_chemical_formula_structural   Dy8LuCd(SiB4)4
_chemical_formula_sum   'Dy8 Lu1 Cd1 Si4 B16'
_cell_volume   411.04788607
_cell_formula_units_Z   1
loop_
 _symmetry_equiv_pos_site_id
 _symmetry_equiv_pos_as_xyz
  1  'x, y, z'
loop_
 _atom_site_type_symbol
 _atom_site_label
 _atom_site_symmetry_multiplicity
 _atom_site_fract_x
 _atom_site_fract_y
 _atom_site_fract_z
 _atom_site_occupancy
  Dy  Dy0  1  0.681853  0.180322  0.229327  1
  Dy  Dy1  1  0.318147  0.819678  0.770673  1
  Dy  Dy2  1  0.318147  0.819678  0.229327  1
  Dy  Dy3  1  0.819678  0.681853  0.229327  1
  Dy  Dy4  1  0.819678  0.681853  0.770673  1
  Dy  Dy5  1  0.681853  0.180322  0.770673  1
  Dy  Dy6  1  0.180322  0.318147  0.770673  1
  Dy  Dy7  1  0.180322  0.318147  0.229327  1
  Lu  Lu8  1  0.500000  0.500000  0.500000  1
  Cd  Cd9  1  0.000000  0.000000  0.500000  1
  Si  Si10  1  0.119256  0.611374  0.500000  1
  Si  Si11  1  0.880744  0.388626  0.500000  1
  Si  Si12  1  0.388626  0.119256  0.500000  1
  Si  Si13  1  0.611374  0.880744  0.500000  1
  B  B14  1  0.175294  0.038812  0.000000  1
  B  B15  1  0.824706  0.961188  0.000000  1
  B  B16  1  0.961188  0.175294  0.000000  1
  B  B17  1  0.327193  0.539707  0.000000  1
  B  B18  1  0.038812  0.824706  0.000000  1
  B  B19  1  0.672807  0.460293  0.000000  1
  B  B20  1  0.539707  0.672807  0.000000  1
  B  B21  1  0.460293  0.327193  0.000000  1
  B  B22  1  0.089614  0.588298  0.000000  1
  B  B23  1  0.910386  0.411702  0.000000  1
  B  B24  1  0.411702  0.089614  0.000000  1
  B  B25  1  0.588298  0.910386  0.000000  1
  B  B26  1  0.000000  0.000000  0.156469  1
  B  B27  1  0.000000  0.000000  0.843531  1
  B  B28  1  0.500000  0.500000  0.835792  1
  B  B29  1  0.500000  0.500000  0.164208  1
