# generated using pymatgen
data_TbHo2Ni9
_symmetry_space_group_name_H-M   'P 1'
_cell_length_a   4.94604037
_cell_length_b   4.94604028
_cell_length_c   8.57755110
_cell_angle_alpha   73.24301180
_cell_angle_beta   106.75698737
_cell_angle_gamma   119.99998916
_symmetry_Int_Tables_number   1
_chemical_formula_structural   TbHo2Ni9
_chemical_formula_sum   'Tb1 Ho2 Ni9'
_cell_volume   171.35669327
_cell_formula_units_Z   1
loop_
 _symmetry_equiv_pos_site_id
 _symmetry_equiv_pos_as_xyz
  1  'x, y, z'
loop_
 _atom_site_type_symbol
 _atom_site_label
 _atom_site_symmetry_multiplicity
 _atom_site_fract_x
 _atom_site_fract_y
 _atom_site_fract_z
 _atom_site_occupancy
  Tb  Tb0  1  0.000000  0.000000  0.000000  1
  Ho  Ho1  1  0.139017  0.860983  0.417051  1
  Ho  Ho2  1  0.860982  0.139017  0.582948  1
  Ni  Ni3  1  0.666921  0.333078  0.000762  1
  Ni  Ni4  1  0.080955  0.417182  0.246590  1
  Ni  Ni5  1  0.582816  0.417183  0.246590  1
  Ni  Ni6  1  0.582816  0.919042  0.246590  1
  Ni  Ni7  1  0.500001  0.500000  0.500000  1
  Ni  Ni8  1  0.417183  0.080956  0.753409  1
  Ni  Ni9  1  0.417183  0.582816  0.753409  1
  Ni  Ni10  1  0.919044  0.582816  0.753409  1
  Ni  Ni11  1  0.333079  0.666922  0.999238  1
