# generated using pymatgen
data_Er6Al16Os6Pd
_symmetry_space_group_name_H-M   'P 1'
_cell_length_a   8.93606586
_cell_length_b   8.93606653
_cell_length_c   8.93606600
_cell_angle_alpha   60.00000195
_cell_angle_beta   59.99999947
_cell_angle_gamma   60.00000213
_symmetry_Int_Tables_number   1
_chemical_formula_structural   Er6Al16Os6Pd
_chemical_formula_sum   'Er6 Al16 Os6 Pd1'
_cell_volume   504.57314887
_cell_formula_units_Z   1
loop_
 _symmetry_equiv_pos_site_id
 _symmetry_equiv_pos_as_xyz
  1  'x, y, z'
loop_
 _atom_site_type_symbol
 _atom_site_label
 _atom_site_symmetry_multiplicity
 _atom_site_fract_x
 _atom_site_fract_y
 _atom_site_fract_z
 _atom_site_occupancy
  Er  Er0  1  0.710863  0.710863  0.289137  1
  Er  Er1  1  0.289137  0.710863  0.289137  1
  Er  Er2  1  0.710863  0.289137  0.289137  1
  Er  Er3  1  0.289137  0.289137  0.710863  1
  Er  Er4  1  0.710863  0.289137  0.710863  1
  Er  Er5  1  0.289137  0.710863  0.710863  1
  Al  Al6  1  0.876463  0.876463  0.370611  1
  Al  Al7  1  0.876463  0.370611  0.876463  1
  Al  Al8  1  0.370611  0.876463  0.876463  1
  Al  Al9  1  0.876463  0.876463  0.876463  1
  Al  Al10  1  0.123537  0.123537  0.629389  1
  Al  Al11  1  0.123537  0.629389  0.123537  1
  Al  Al12  1  0.629389  0.123537  0.123537  1
  Al  Al13  1  0.123537  0.123537  0.123537  1
  Al  Al14  1  0.667005  0.667005  0.998986  1
  Al  Al15  1  0.667005  0.998986  0.667005  1
  Al  Al16  1  0.998986  0.667005  0.667005  1
  Al  Al17  1  0.667005  0.667005  0.667005  1
  Al  Al18  1  0.332995  0.332995  0.001014  1
  Al  Al19  1  0.332995  0.001014  0.332995  1
  Al  Al20  1  0.001014  0.332995  0.332995  1
  Al  Al21  1  0.332995  0.332995  0.332995  1
  Os  Os22  1  0.000000  0.000000  0.500000  1
  Os  Os23  1  0.500000  0.000000  0.500000  1
  Os  Os24  1  0.000000  0.500000  0.500000  1
  Os  Os25  1  0.500000  0.500000  0.000000  1
  Os  Os26  1  0.000000  0.500000  0.000000  1
  Os  Os27  1  0.500000  0.000000  0.000000  1
  Pd  Pd28  1  0.000000  0.000000  0.000000  1
