# generated using pymatgen
data_Y4AlZn3Pt4
_symmetry_space_group_name_H-M   'P 1'
_cell_length_a   4.33658800
_cell_length_b   6.90096828
_cell_length_c   7.94639473
_cell_angle_alpha   90.62097271
_cell_angle_beta   90.00000000
_cell_angle_gamma   90.00000000
_symmetry_Int_Tables_number   1
_chemical_formula_structural   Y4AlZn3Pt4
_chemical_formula_sum   'Y4 Al1 Zn3 Pt4'
_cell_volume   237.79505659
_cell_formula_units_Z   1
loop_
 _symmetry_equiv_pos_site_id
 _symmetry_equiv_pos_as_xyz
  1  'x, y, z'
loop_
 _atom_site_type_symbol
 _atom_site_label
 _atom_site_symmetry_multiplicity
 _atom_site_fract_x
 _atom_site_fract_y
 _atom_site_fract_z
 _atom_site_occupancy
  Y  Y0  1  0.250000  0.023958  0.691061  1
  Y  Y1  1  0.250000  0.528381  0.813435  1
  Y  Y2  1  0.750000  0.972481  0.311774  1
  Y  Y3  1  0.750000  0.472758  0.185193  1
  Al  Al4  1  0.750000  0.352417  0.563557  1
  Zn  Zn5  1  0.250000  0.152609  0.068442  1
  Zn  Zn6  1  0.250000  0.649130  0.432042  1
  Zn  Zn7  1  0.750000  0.853617  0.933231  1
  Pt  Pt8  1  0.250000  0.262378  0.396460  1
  Pt  Pt9  1  0.250000  0.764153  0.114493  1
  Pt  Pt10  1  0.750000  0.728212  0.612236  1
  Pt  Pt11  1  0.750000  0.239905  0.878075  1
