# generated using pymatgen
data_Li28Lu2Si7Ge
_symmetry_space_group_name_H-M   'P 1'
_cell_length_a   9.30665144
_cell_length_b   9.30724241
_cell_length_c   9.30720128
_cell_angle_alpha   109.58900029
_cell_angle_beta   109.59067502
_cell_angle_gamma   109.21413163
_symmetry_Int_Tables_number   1
_chemical_formula_structural   Li28Lu2Si7Ge
_chemical_formula_sum   'Li28 Lu2 Si7 Ge1'
_cell_volume   620.74524004
_cell_formula_units_Z   1
loop_
 _symmetry_equiv_pos_site_id
 _symmetry_equiv_pos_as_xyz
  1  'x, y, z'
loop_
 _atom_site_type_symbol
 _atom_site_label
 _atom_site_symmetry_multiplicity
 _atom_site_fract_x
 _atom_site_fract_y
 _atom_site_fract_z
 _atom_site_occupancy
  Li  Li0  1  0.068965  0.542064  0.278946  1
  Li  Li1  1  0.263626  0.791501  0.721332  1
  Li  Li2  1  0.179904  0.958612  0.972112  1
  Li  Li3  1  0.985186  0.206536  0.027122  1
  Li  Li4  1  0.041410  0.013800  0.221320  1
  Li  Li5  1  0.792491  0.820100  0.778679  1
  Li  Li6  1  0.458783  0.737230  0.529179  1
  Li  Li7  1  0.208598  0.929867  0.472106  1
  Li  Li8  1  0.724675  0.340684  0.063246  1
  Li  Li9  1  0.971089  0.408488  0.882915  1
  Li  Li10  1  0.277871  0.661963  0.935814  1
  Li  Li11  1  0.525317  0.088381  0.116229  1
  Li  Li12  1  0.694313  0.868890  0.092757  1
  Li  Li13  1  0.474195  0.882017  0.325995  1
  Li  Li14  1  0.555811  0.148632  0.674936  1
  Li  Li15  1  0.776518  0.601856  0.907174  1
  Li  Li16  1  0.851164  0.526459  0.407106  1
  Li  Li17  1  0.398925  0.304765  0.174967  1
  Li  Li18  1  0.130628  0.222729  0.824148  1
  Li  Li19  1  0.119165  0.444312  0.592868  1
  Li  Li20  1  0.911467  0.027715  0.436528  1
  Li  Li21  1  0.338699  0.275110  0.616184  1
  Li  Li22  1  0.590990  0.474913  0.563426  1
  Li  Li23  1  0.660694  0.723298  0.384587  1
  Li  Li24  1  0.002785  0.874934  0.627583  1
  Li  Li25  1  0.247400  0.374457  0.373250  1
  Li  Li26  1  0.124391  0.753223  0.127206  1
  Li  Li27  1  0.624876  0.997536  0.872677  1
  Lu  Lu28  1  0.500505  0.499628  0.999632  1
  Lu  Lu29  1  0.749977  0.250064  0.499935  1
  Si  Si30  1  0.372897  0.128702  0.836651  1
  Si  Si31  1  0.957928  0.621216  0.743782  1
  Si  Si32  1  0.877031  0.213831  0.256075  1
  Si  Si33  1  0.378927  0.122922  0.336875  1
  Si  Si34  1  0.785988  0.042144  0.663165  1
  Si  Si35  1  0.463989  0.627187  0.756265  1
  Si  Si36  1  0.871135  0.707878  0.243828  1
  Ge  Ge37  1  0.291690  0.536356  0.163406  1
