# generated using pymatgen
data_Sn4PdSe10
_symmetry_space_group_name_H-M   'P 1'
_cell_length_a   6.65533937
_cell_length_b   7.55692020
_cell_length_c   9.32713597
_cell_angle_alpha   106.95173894
_cell_angle_beta   110.98788448
_cell_angle_gamma   89.91509502
_symmetry_Int_Tables_number   1
_chemical_formula_structural   Sn4PdSe10
_chemical_formula_sum   'Sn4 Pd1 Se10'
_cell_volume   416.15353078
_cell_formula_units_Z   1
loop_
 _symmetry_equiv_pos_site_id
 _symmetry_equiv_pos_as_xyz
  1  'x, y, z'
loop_
 _atom_site_type_symbol
 _atom_site_label
 _atom_site_symmetry_multiplicity
 _atom_site_fract_x
 _atom_site_fract_y
 _atom_site_fract_z
 _atom_site_occupancy
  Sn  Sn0  1  0.198824  0.400126  0.897581  1
  Sn  Sn1  1  0.399540  0.801926  0.301330  1
  Sn  Sn2  1  0.600460  0.198074  0.698670  1
  Sn  Sn3  1  0.801176  0.599874  0.102419  1
  Pd  Pd4  1  0.000000  0.000000  0.500000  1
  Se  Se5  1  0.888826  0.323356  0.593541  1
  Se  Se6  1  0.736543  0.859999  0.590969  1
  Se  Se7  1  0.085607  0.747001  0.999449  1
  Se  Se8  1  0.914393  0.252999  0.000551  1
  Se  Se9  1  0.263457  0.140001  0.409031  1
  Se  Se10  1  0.111174  0.676644  0.406459  1
  Se  Se11  1  0.490919  0.551677  0.804105  1
  Se  Se12  1  0.296499  0.048652  0.777176  1
  Se  Se13  1  0.703501  0.951348  0.222824  1
  Se  Se14  1  0.509081  0.448323  0.195895  1
