# generated using pymatgen
data_Ho4LuVMoO12
_symmetry_space_group_name_H-M   'P 1'
_cell_length_a   6.76956102
_cell_length_b   6.76783775
_cell_length_c   7.26651182
_cell_angle_alpha   74.19390676
_cell_angle_beta   74.19170681
_cell_angle_gamma   51.73790116
_symmetry_Int_Tables_number   1
_chemical_formula_structural   Ho4LuVMoO12
_chemical_formula_sum   'Ho4 Lu1 V1 Mo1 O12'
_cell_volume   249.13558378
_cell_formula_units_Z   1
loop_
 _symmetry_equiv_pos_site_id
 _symmetry_equiv_pos_as_xyz
  1  'x, y, z'
loop_
 _atom_site_type_symbol
 _atom_site_label
 _atom_site_symmetry_multiplicity
 _atom_site_fract_x
 _atom_site_fract_y
 _atom_site_fract_z
 _atom_site_occupancy
  Ho  Ho0  1  0.706450  0.687995  0.637244  1
  Ho  Ho1  1  0.312634  0.307461  0.824162  1
  Ho  Ho2  1  0.692549  0.687169  0.174972  1
  Ho  Ho3  1  0.003845  0.997783  0.499046  1
  Lu  Lu4  1  0.312822  0.293815  0.361342  1
  V  V5  1  0.743981  0.254996  0.001077  1
  Mo  Mo6  1  0.231824  0.767240  0.001025  1
  O  O7  1  0.896786  0.426710  0.918358  1
  O  O8  1  0.430678  0.898311  0.917307  1
  O  O9  1  0.102919  0.567452  0.085448  1
  O  O10  1  0.571255  0.104401  0.085159  1
  O  O11  1  0.105500  0.588938  0.570576  1
  O  O12  1  0.597154  0.093083  0.572009  1
  O  O13  1  0.913847  0.398895  0.423470  1
  O  O14  1  0.407443  0.901059  0.425337  1
  O  O15  1  0.988660  0.009243  0.814254  1
  O  O16  1  0.989833  0.010316  0.186763  1
  O  O17  1  0.496308  0.502836  0.809507  1
  O  O18  1  0.495512  0.502300  0.192944  1
