# generated using pymatgen
data_Er8Si12Pt3Au
_symmetry_space_group_name_H-M   'P 1'
_cell_length_a   8.18774400
_cell_length_b   8.18774410
_cell_length_c   7.86662400
_cell_angle_alpha   90.00000000
_cell_angle_beta   90.00000000
_cell_angle_gamma   119.99999150
_symmetry_Int_Tables_number   1
_chemical_formula_structural   Er8Si12Pt3Au
_chemical_formula_sum   'Er8 Si12 Pt3 Au1'
_cell_volume   456.71742138
_cell_formula_units_Z   1
loop_
 _symmetry_equiv_pos_site_id
 _symmetry_equiv_pos_as_xyz
  1  'x, y, z'
loop_
 _atom_site_type_symbol
 _atom_site_label
 _atom_site_symmetry_multiplicity
 _atom_site_fract_x
 _atom_site_fract_y
 _atom_site_fract_z
 _atom_site_occupancy
  Er  Er0  1  0.512428  0.024855  0.247359  1
  Er  Er1  1  0.490704  0.981408  0.751883  1
  Er  Er2  1  0.975145  0.487572  0.247359  1
  Er  Er3  1  0.018592  0.509296  0.751883  1
  Er  Er4  1  0.512428  0.487572  0.247359  1
  Er  Er5  1  0.490704  0.509296  0.751883  1
  Er  Er6  1  0.000000  0.000000  0.250720  1
  Er  Er7  1  0.000000  0.000000  0.751549  1
  Si  Si8  1  0.165087  0.330175  0.006040  1
  Si  Si9  1  0.835139  0.670278  0.994669  1
  Si  Si10  1  0.669825  0.834913  0.006040  1
  Si  Si11  1  0.833925  0.667849  0.500595  1
  Si  Si12  1  0.329722  0.164861  0.994669  1
  Si  Si13  1  0.162080  0.324159  0.501864  1
  Si  Si14  1  0.165087  0.834913  0.006040  1
  Si  Si15  1  0.332151  0.166075  0.500595  1
  Si  Si16  1  0.835139  0.164861  0.994669  1
  Si  Si17  1  0.675841  0.837920  0.501864  1
  Si  Si18  1  0.833925  0.166075  0.500595  1
  Si  Si19  1  0.162080  0.837920  0.501864  1
  Pt  Pt20  1  0.333333  0.666667  0.030392  1
  Pt  Pt21  1  0.666667  0.333333  0.964660  1
  Pt  Pt22  1  0.666667  0.333333  0.533583  1
  Au  Au23  1  0.333333  0.666667  0.461866  1
