# generated using pymatgen
data_Sn(SF6)2
_symmetry_space_group_name_H-M   'P 1'
_cell_length_a   6.33675100
_cell_length_b   7.86960400
_cell_length_c   9.99732100
_cell_angle_alpha   90.00000000
_cell_angle_beta   90.00000000
_cell_angle_gamma   90.00000000
_symmetry_Int_Tables_number   1
_chemical_formula_structural   Sn(SF6)2
_chemical_formula_sum   'Sn2 S4 F24'
_cell_volume   498.54361454
_cell_formula_units_Z   2
loop_
 _symmetry_equiv_pos_site_id
 _symmetry_equiv_pos_as_xyz
  1  'x, y, z'
loop_
 _atom_site_type_symbol
 _atom_site_label
 _atom_site_symmetry_multiplicity
 _atom_site_fract_x
 _atom_site_fract_y
 _atom_site_fract_z
 _atom_site_occupancy
  Sn  Sn0  1  0.000000  0.500000  0.000000  1
  Sn  Sn1  1  0.500000  0.000000  0.500000  1
  S  S2  1  0.500000  0.571639  0.244327  1
  S  S3  1  0.500000  0.428361  0.755673  1
  S  S4  1  0.000000  0.071639  0.255673  1
  S  S5  1  0.000000  0.928361  0.744327  1
  F  F6  1  0.224921  0.365124  0.906245  1
  F  F7  1  0.224921  0.634876  0.093755  1
  F  F8  1  0.275079  0.865124  0.593755  1
  F  F9  1  0.275079  0.134876  0.406245  1
  F  F10  1  0.775079  0.634876  0.093755  1
  F  F11  1  0.775079  0.365124  0.906245  1
  F  F12  1  0.817486  0.971042  0.845550  1
  F  F13  1  0.817486  0.028958  0.154450  1
  F  F14  1  0.682514  0.471042  0.654450  1
  F  F15  1  0.682514  0.528958  0.345550  1
  F  F16  1  0.182514  0.028958  0.154450  1
  F  F17  1  0.182514  0.971042  0.845550  1
  F  F18  1  0.317486  0.528958  0.345550  1
  F  F19  1  0.317486  0.471042  0.654450  1
  F  F20  1  0.000000  0.664368  0.846302  1
  F  F21  1  0.000000  0.335632  0.153698  1
  F  F22  1  0.500000  0.164368  0.653698  1
  F  F23  1  0.500000  0.835632  0.346302  1
  F  F24  1  0.500000  0.608997  0.823187  1
  F  F25  1  0.500000  0.391003  0.176813  1
  F  F26  1  0.000000  0.108997  0.676813  1
  F  F27  1  0.000000  0.891003  0.323187  1
  F  F28  1  0.724921  0.865124  0.593755  1
  F  F29  1  0.724921  0.134876  0.406245  1
