# generated using pymatgen
data_Tb2Ce2CdNi4Sn
_symmetry_space_group_name_H-M   'P 1'
_cell_length_a   7.42744079
_cell_length_b   7.42260907
_cell_length_c   3.66532100
_cell_angle_alpha   90.00000000
_cell_angle_beta   90.00000000
_cell_angle_gamma   92.79715117
_symmetry_Int_Tables_number   1
_chemical_formula_structural   Tb2Ce2CdNi4Sn
_chemical_formula_sum   'Tb2 Ce2 Cd1 Ni4 Sn1'
_cell_volume   201.83201652
_cell_formula_units_Z   1
loop_
 _symmetry_equiv_pos_site_id
 _symmetry_equiv_pos_as_xyz
  1  'x, y, z'
loop_
 _atom_site_type_symbol
 _atom_site_label
 _atom_site_symmetry_multiplicity
 _atom_site_fract_x
 _atom_site_fract_y
 _atom_site_fract_z
 _atom_site_occupancy
  Tb  Tb0  1  0.172820  0.325365  0.500000  1
  Tb  Tb1  1  0.827180  0.674635  0.500000  1
  Ce  Ce2  1  0.676016  0.175397  0.500000  1
  Ce  Ce3  1  0.323984  0.824603  0.500000  1
  Cd  Cd4  1  0.500000  0.500000  0.000000  1
  Ni  Ni5  1  0.123627  0.630140  0.000000  1
  Ni  Ni6  1  0.876373  0.369860  0.000000  1
  Ni  Ni7  1  0.619090  0.883570  0.000000  1
  Ni  Ni8  1  0.380910  0.116430  0.000000  1
  Sn  Sn9  1  0.000000  0.000000  0.000000  1
