# generated using pymatgen
data_Ho7Er3(BiPb)3
_symmetry_space_group_name_H-M   'P 1'
_cell_length_a   9.09108700
_cell_length_b   9.09108836
_cell_length_c   6.44033200
_cell_angle_alpha   90.00000000
_cell_angle_beta   90.00000000
_cell_angle_gamma   120.00000595
_symmetry_Int_Tables_number   1
_chemical_formula_structural   Ho7Er3(BiPb)3
_chemical_formula_sum   'Ho7 Er3 Bi3 Pb3'
_cell_volume   460.96776272
_cell_formula_units_Z   1
loop_
 _symmetry_equiv_pos_site_id
 _symmetry_equiv_pos_as_xyz
  1  'x, y, z'
loop_
 _atom_site_type_symbol
 _atom_site_label
 _atom_site_symmetry_multiplicity
 _atom_site_fract_x
 _atom_site_fract_y
 _atom_site_fract_z
 _atom_site_occupancy
  Ho  Ho0  1  0.666667  0.333333  0.002820  1
  Ho  Ho1  1  0.761845  0.761841  0.749979  1
  Ho  Ho2  1  0.238159  0.000004  0.749979  1
  Ho  Ho3  1  0.999996  0.238155  0.749979  1
  Ho  Ho4  1  0.238450  0.238458  0.250021  1
  Ho  Ho5  1  0.761542  0.999992  0.250021  1
  Ho  Ho6  1  0.000008  0.761550  0.250021  1
  Er  Er7  1  0.333333  0.666667  0.002943  1
  Er  Er8  1  0.333333  0.666667  0.497078  1
  Er  Er9  1  0.666667  0.333333  0.497109  1
  Bi  Bi10  1  0.392974  0.393036  0.749945  1
  Bi  Bi11  1  0.606964  0.999938  0.749945  1
  Bi  Bi12  1  0.000062  0.607026  0.749945  1
  Pb  Pb13  1  0.607374  0.607447  0.250071  1
  Pb  Pb14  1  0.392553  0.999928  0.250071  1
  Pb  Pb15  1  0.000072  0.392626  0.250071  1
