# generated using pymatgen
data_Ti4FeCo10CuB4
_symmetry_space_group_name_H-M   'P 1'
_cell_length_a   8.41552700
_cell_length_b   8.41552700
_cell_length_c   2.99659800
_cell_angle_alpha   90.00000000
_cell_angle_beta   90.00000000
_cell_angle_gamma   90.00000000
_symmetry_Int_Tables_number   1
_chemical_formula_structural   Ti4FeCo10CuB4
_chemical_formula_sum   'Ti4 Fe1 Co10 Cu1 B4'
_cell_volume   212.22235070
_cell_formula_units_Z   1
loop_
 _symmetry_equiv_pos_site_id
 _symmetry_equiv_pos_as_xyz
  1  'x, y, z'
loop_
 _atom_site_type_symbol
 _atom_site_label
 _atom_site_symmetry_multiplicity
 _atom_site_fract_x
 _atom_site_fract_y
 _atom_site_fract_z
 _atom_site_occupancy
  Ti  Ti0  1  0.673894  0.178641  0.000000  1
  Ti  Ti1  1  0.326106  0.821359  0.000000  1
  Ti  Ti2  1  0.178641  0.326106  0.000000  1
  Ti  Ti3  1  0.821359  0.673894  0.000000  1
  Fe  Fe4  1  0.000000  0.000000  0.000000  1
  Co  Co5  1  0.571914  0.718727  0.500000  1
  Co  Co6  1  0.428086  0.281273  0.500000  1
  Co  Co7  1  0.068811  0.783378  0.500000  1
  Co  Co8  1  0.931189  0.216622  0.500000  1
  Co  Co9  1  0.281273  0.571914  0.500000  1
  Co  Co10  1  0.718727  0.428086  0.500000  1
  Co  Co11  1  0.216622  0.068811  0.500000  1
  Co  Co12  1  0.783378  0.931189  0.500000  1
  Co  Co13  1  0.500000  0.000000  0.500000  1
  Co  Co14  1  0.000000  0.500000  0.500000  1
  Cu  Cu15  1  0.500000  0.500000  0.000000  1
  B  B16  1  0.124195  0.620318  0.000000  1
  B  B17  1  0.875805  0.379682  0.000000  1
  B  B18  1  0.620318  0.875805  0.000000  1
  B  B19  1  0.379682  0.124195  0.000000  1
