# generated using pymatgen
data_NaY2(B3Rh4)2
_symmetry_space_group_name_H-M   'P 1'
_cell_length_a   9.87505959
_cell_length_b   9.02829938
_cell_length_c   5.58293530
_cell_angle_alpha   81.34937376
_cell_angle_beta   64.66910743
_cell_angle_gamma   33.98152957
_symmetry_Int_Tables_number   1
_chemical_formula_structural   NaY2(B3Rh4)2
_chemical_formula_sum   'Na1 Y2 B6 Rh8'
_cell_volume   229.96035008
_cell_formula_units_Z   1
loop_
 _symmetry_equiv_pos_site_id
 _symmetry_equiv_pos_as_xyz
  1  'x, y, z'
loop_
 _atom_site_type_symbol
 _atom_site_label
 _atom_site_symmetry_multiplicity
 _atom_site_fract_x
 _atom_site_fract_y
 _atom_site_fract_z
 _atom_site_occupancy
  Na  Na0  1  0.686347  0.686347  0.313653  1
  Y  Y1  1  0.316536  0.316536  0.683464  1
  Y  Y2  1  0.508039  0.508039  0.491961  1
  B  B3  1  0.669895  0.981834  0.018166  1
  B  B4  1  0.981834  0.669895  0.330105  1
  B  B5  1  0.328556  0.013848  0.986152  1
  B  B6  1  0.013848  0.328556  0.671444  1
  B  B7  1  0.167526  0.831523  0.168477  1
  B  B8  1  0.831523  0.167526  0.832474  1
  Rh  Rh9  1  0.585072  0.585072  0.914928  1
  Rh  Rh10  1  0.913296  0.913296  0.086704  1
  Rh  Rh11  1  0.414436  0.414436  0.085564  1
  Rh  Rh12  1  0.085072  0.085072  0.414928  1
  Rh  Rh13  1  0.914436  0.914436  0.585564  1
  Rh  Rh14  1  0.248562  0.248562  0.251438  1
  Rh  Rh15  1  0.086458  0.086458  0.913542  1
  Rh  Rh16  1  0.748562  0.748562  0.751438  1
