# generated using pymatgen
data_Y2HoEr3Sn6Pd5Pt
_symmetry_space_group_name_H-M   'P 1'
_cell_length_a   7.67699701
_cell_length_b   7.67433050
_cell_length_c   7.69514402
_cell_angle_alpha   89.99205246
_cell_angle_beta   90.00184858
_cell_angle_gamma   120.00770636
_symmetry_Int_Tables_number   1
_chemical_formula_structural   Y2HoEr3Sn6Pd5Pt
_chemical_formula_sum   'Y2 Ho1 Er3 Sn6 Pd5 Pt1'
_cell_volume   392.59568231
_cell_formula_units_Z   1
loop_
 _symmetry_equiv_pos_site_id
 _symmetry_equiv_pos_as_xyz
  1  'x, y, z'
loop_
 _atom_site_type_symbol
 _atom_site_label
 _atom_site_symmetry_multiplicity
 _atom_site_fract_x
 _atom_site_fract_y
 _atom_site_fract_z
 _atom_site_occupancy
  Y  Y0  1  0.595084  0.599141  0.750639  1
  Y  Y1  1  0.003830  0.404723  0.750545  1
  Ho  Ho2  1  0.400513  0.995719  0.750864  1
  Er  Er3  1  0.399938  0.999248  0.249319  1
  Er  Er4  1  0.599272  0.600264  0.249276  1
  Er  Er5  1  0.000929  0.400791  0.249285  1
  Sn  Sn6  1  0.737157  0.002611  0.001160  1
  Sn  Sn7  1  0.263942  0.262110  0.498865  1
  Sn  Sn8  1  0.999321  0.736388  0.498992  1
  Sn  Sn9  1  0.997635  0.735073  0.001342  1
  Sn  Sn10  1  0.265395  0.262184  0.001382  1
  Sn  Sn11  1  0.736987  0.001104  0.499239  1
  Pd  Pd12  1  0.333488  0.667630  0.487132  1
  Pd  Pd13  1  0.665907  0.332564  0.006102  1
  Pd  Pd14  1  0.665981  0.332607  0.494033  1
  Pd  Pd15  1  0.000097  0.000125  0.249338  1
  Pd  Pd16  1  0.001031  0.000160  0.751167  1
  Pt  Pt17  1  0.333494  0.667559  0.011321  1
