# generated using pymatgen
data_Na3Ac16YbPb16
_symmetry_space_group_name_H-M   'P 1'
_cell_length_a   8.78698305
_cell_length_b   17.05911200
_cell_length_c   8.89125600
_cell_angle_alpha   90.00000000
_cell_angle_beta   90.00635752
_cell_angle_gamma   90.00000000
_symmetry_Int_Tables_number   1
_chemical_formula_structural   Na3Ac16YbPb16
_chemical_formula_sum   'Na3 Ac16 Yb1 Pb16'
_cell_volume   1332.78262231
_cell_formula_units_Z   1
loop_
 _symmetry_equiv_pos_site_id
 _symmetry_equiv_pos_as_xyz
  1  'x, y, z'
loop_
 _atom_site_type_symbol
 _atom_site_label
 _atom_site_symmetry_multiplicity
 _atom_site_fract_x
 _atom_site_fract_y
 _atom_site_fract_z
 _atom_site_occupancy
  Na  Na0  1  0.306128  0.750000  0.990486  1
  Na  Na1  1  0.189645  0.250000  0.491138  1
  Na  Na2  1  0.692620  0.250000  0.007785  1
  Ac  Ac3  1  0.637858  0.625491  0.165478  1
  Ac  Ac4  1  0.142232  0.877065  0.332189  1
  Ac  Ac5  1  0.361463  0.127089  0.830449  1
  Ac  Ac6  1  0.860538  0.377391  0.664460  1
  Ac  Ac7  1  0.361463  0.372911  0.830449  1
  Ac  Ac8  1  0.860538  0.122609  0.664460  1
  Ac  Ac9  1  0.637858  0.874509  0.165478  1
  Ac  Ac10  1  0.142232  0.622935  0.332189  1
  Ac  Ac11  1  0.491028  0.596295  0.687969  1
  Ac  Ac12  1  0.996673  0.904658  0.816361  1
  Ac  Ac13  1  0.504580  0.096545  0.315068  1
  Ac  Ac14  1  0.005178  0.403283  0.186875  1
  Ac  Ac15  1  0.504580  0.403455  0.315068  1
  Ac  Ac16  1  0.005178  0.096717  0.186875  1
  Ac  Ac17  1  0.491028  0.903705  0.687969  1
  Ac  Ac18  1  0.996673  0.595342  0.816361  1
  Yb  Yb19  1  0.811450  0.750000  0.503261  1
  Pb  Pb20  1  0.693616  0.461744  0.961903  1
  Pb  Pb21  1  0.199231  0.040029  0.538146  1
  Pb  Pb22  1  0.308226  0.964908  0.039596  1
  Pb  Pb23  1  0.801956  0.545442  0.466204  1
  Pb  Pb24  1  0.308226  0.535092  0.039596  1
  Pb  Pb25  1  0.801956  0.954558  0.466204  1
  Pb  Pb26  1  0.693616  0.038256  0.961903  1
  Pb  Pb27  1  0.199231  0.459971  0.538146  1
  Pb  Pb28  1  0.448552  0.750000  0.409086  1
  Pb  Pb29  1  0.947658  0.750000  0.100950  1
  Pb  Pb30  1  0.552811  0.250000  0.590776  1
  Pb  Pb31  1  0.051313  0.250000  0.900750  1
  Pb  Pb32  1  0.693977  0.750000  0.851125  1
  Pb  Pb33  1  0.181520  0.750000  0.644078  1
  Pb  Pb34  1  0.305700  0.250000  0.146027  1
  Pb  Pb35  1  0.813468  0.250000  0.355143  1
