# generated using pymatgen
data_La7Pr6SmPt6
_symmetry_space_group_name_H-M   'P 1'
_cell_length_a   6.58653000
_cell_length_b   10.30029345
_cell_length_c   10.30029283
_cell_angle_alpha   119.98448534
_cell_angle_beta   90.00069852
_cell_angle_gamma   89.99930249
_symmetry_Int_Tables_number   1
_chemical_formula_structural   La7Pr6SmPt6
_chemical_formula_sum   'La7 Pr6 Sm1 Pt6'
_cell_volume   605.27724878
_cell_formula_units_Z   1
loop_
 _symmetry_equiv_pos_site_id
 _symmetry_equiv_pos_as_xyz
  1  'x, y, z'
loop_
 _atom_site_type_symbol
 _atom_site_label
 _atom_site_symmetry_multiplicity
 _atom_site_fract_x
 _atom_site_fract_y
 _atom_site_fract_z
 _atom_site_occupancy
  La  La0  1  0.961031  0.666612  0.333388  1
  La  La1  1  0.247774  0.128865  0.871135  1
  La  La2  1  0.247639  0.742587  0.871296  1
  La  La3  1  0.247639  0.128704  0.257413  1
  La  La4  1  0.746040  0.871968  0.128032  1
  La  La5  1  0.745921  0.255778  0.127885  1
  La  La6  1  0.745921  0.872115  0.744222  1
  Pr  Pr7  1  0.441193  0.537343  0.462657  1
  Pr  Pr8  1  0.441064  0.925262  0.462662  1
  Pr  Pr9  1  0.441064  0.537338  0.074738  1
  Pr  Pr10  1  0.942171  0.461337  0.538663  1
  Pr  Pr11  1  0.941982  0.077369  0.538648  1
  Pr  Pr12  1  0.941982  0.461352  0.922631  1
  Sm  Sm13  1  0.463289  0.333382  0.666618  1
  Pt  Pt14  1  0.189110  0.811831  0.188169  1
  Pt  Pt15  1  0.188953  0.376265  0.188210  1
  Pt  Pt16  1  0.188953  0.811790  0.623735  1
  Pt  Pt17  1  0.688150  0.188954  0.811046  1
  Pt  Pt18  1  0.688061  0.622166  0.811017  1
  Pt  Pt19  1  0.688061  0.188983  0.377834  1
