# generated using pymatgen
data_PrY3(Si5Pt3)2
_symmetry_space_group_name_H-M   'P 1'
_cell_length_a   8.19679537
_cell_length_b   8.20109889
_cell_length_c   8.20109786
_cell_angle_alpha   136.31439097
_cell_angle_beta   105.03766677
_cell_angle_gamma   91.00564210
_symmetry_Int_Tables_number   1
_chemical_formula_structural   PrY3(Si5Pt3)2
_chemical_formula_sum   'Pr1 Y3 Si10 Pt6'
_cell_volume   349.91598003
_cell_formula_units_Z   1
loop_
 _symmetry_equiv_pos_site_id
 _symmetry_equiv_pos_as_xyz
  1  'x, y, z'
loop_
 _atom_site_type_symbol
 _atom_site_label
 _atom_site_symmetry_multiplicity
 _atom_site_fract_x
 _atom_site_fract_y
 _atom_site_fract_z
 _atom_site_occupancy
  Pr  Pr0  1  0.603080  0.871109  0.731970  1
  Y  Y1  1  0.858808  0.628850  0.229958  1
  Y  Y2  1  0.140732  0.371116  0.769615  1
  Y  Y3  1  0.398227  0.128779  0.269448  1
  Si  Si4  1  0.499798  0.751015  0.250281  1
  Si  Si5  1  0.499798  0.249517  0.748784  1
  Si  Si6  1  0.227786  0.978448  0.749138  1
  Si  Si7  1  0.771071  0.520779  0.750225  1
  Si  Si8  1  0.771071  0.020846  0.250292  1
  Si  Si9  1  0.227786  0.478648  0.249338  1
  Si  Si10  1  0.037673  0.887596  0.150077  1
  Si  Si11  1  0.965059  0.114904  0.850155  1
  Si  Si12  1  0.736961  0.387516  0.349445  1
  Si  Si13  1  0.261840  0.610939  0.650901  1
  Pt  Pt14  1  0.001268  0.749840  0.750308  1
  Pt  Pt15  1  0.001268  0.250959  0.251428  1
  Pt  Pt16  1  0.249710  0.862854  0.386857  1
  Pt  Pt17  1  0.750589  0.138525  0.612063  1
  Pt  Pt18  1  0.473926  0.363079  0.110846  1
  Pt  Pt19  1  0.523552  0.634681  0.888870  1
