# generated using pymatgen
data_Tb4Y(SiAs)2
_symmetry_space_group_name_H-M   'P 1'
_cell_length_a   8.25328307
_cell_length_b   8.25328240
_cell_length_c   7.67675500
_cell_angle_alpha   90.00000000
_cell_angle_beta   90.00000000
_cell_angle_gamma   124.95698953
_symmetry_Int_Tables_number   1
_chemical_formula_structural   Tb4Y(SiAs)2
_chemical_formula_sum   'Tb8 Y2 Si4 As4'
_cell_volume   428.57194795
_cell_formula_units_Z   2
loop_
 _symmetry_equiv_pos_site_id
 _symmetry_equiv_pos_as_xyz
  1  'x, y, z'
loop_
 _atom_site_type_symbol
 _atom_site_label
 _atom_site_symmetry_multiplicity
 _atom_site_fract_x
 _atom_site_fract_y
 _atom_site_fract_z
 _atom_site_occupancy
  Tb  Tb0  1  0.035613  0.307278  0.332114  1
  Tb  Tb1  1  0.964387  0.692722  0.667886  1
  Tb  Tb2  1  0.464387  0.192722  0.832114  1
  Tb  Tb3  1  0.807278  0.535613  0.167886  1
  Tb  Tb4  1  0.535613  0.807278  0.167886  1
  Tb  Tb5  1  0.192722  0.464387  0.832114  1
  Tb  Tb6  1  0.692722  0.964387  0.667886  1
  Tb  Tb7  1  0.307278  0.035613  0.332114  1
  Y  Y8  1  0.000000  0.000000  0.000000  1
  Y  Y9  1  0.500000  0.500000  0.500000  1
  Si  Si10  1  0.378870  0.378870  0.121817  1
  Si  Si11  1  0.621130  0.621130  0.878183  1
  Si  Si12  1  0.121130  0.121130  0.621817  1
  Si  Si13  1  0.878870  0.878870  0.378183  1
  As  As14  1  0.798038  0.201962  0.000000  1
  As  As15  1  0.201962  0.798038  0.000000  1
  As  As16  1  0.701962  0.298038  0.500000  1
  As  As17  1  0.298038  0.701962  0.500000  1
