# generated using pymatgen
data_Tb2BePtI2
_symmetry_space_group_name_H-M   'P 1'
_cell_length_a   4.03323000
_cell_length_b   4.03323168
_cell_length_c   12.25974700
_cell_angle_alpha   90.00000000
_cell_angle_beta   90.00000000
_cell_angle_gamma   120.00000264
_symmetry_Int_Tables_number   1
_chemical_formula_structural   Tb2BePtI2
_chemical_formula_sum   'Tb2 Be1 Pt1 I2'
_cell_volume   172.71031910
_cell_formula_units_Z   1
loop_
 _symmetry_equiv_pos_site_id
 _symmetry_equiv_pos_as_xyz
  1  'x, y, z'
loop_
 _atom_site_type_symbol
 _atom_site_label
 _atom_site_symmetry_multiplicity
 _atom_site_fract_x
 _atom_site_fract_y
 _atom_site_fract_z
 _atom_site_occupancy
  Tb  Tb0  1  0.000000  0.000000  0.154955  1
  Tb  Tb1  1  0.000000  0.000000  0.845457  1
  Be  Be2  1  0.333333  0.666667  0.001172  1
  Pt  Pt3  1  0.666667  0.333333  0.998129  1
  I  I4  1  0.333333  0.666667  0.669412  1
  I  I5  1  0.666667  0.333333  0.330877  1
