# generated using pymatgen
data_Ca21Mg(Ga6Ag)2
_symmetry_space_group_name_H-M   'P 1'
_cell_length_a   11.36310424
_cell_length_b   11.36310499
_cell_length_c   11.47008000
_cell_angle_alpha   59.68808770
_cell_angle_beta   59.68808549
_cell_angle_gamma   59.37820242
_symmetry_Int_Tables_number   1
_chemical_formula_structural   Ca21Mg(Ga6Ag)2
_chemical_formula_sum   'Ca21 Mg1 Ga12 Ag2'
_cell_volume   1037.33380514
_cell_formula_units_Z   1
loop_
 _symmetry_equiv_pos_site_id
 _symmetry_equiv_pos_as_xyz
  1  'x, y, z'
loop_
 _atom_site_type_symbol
 _atom_site_label
 _atom_site_symmetry_multiplicity
 _atom_site_fract_x
 _atom_site_fract_y
 _atom_site_fract_z
 _atom_site_occupancy
  Ca  Ca0  1  0.996821  0.003179  0.000000  1
  Ca  Ca1  1  0.127236  0.134160  0.128070  1
  Ca  Ca2  1  0.390612  0.873085  0.868152  1
  Ca  Ca3  1  0.869949  0.388128  0.870961  1
  Ca  Ca4  1  0.865840  0.872764  0.389465  1
  Ca  Ca5  1  0.126915  0.609388  0.131848  1
  Ca  Ca6  1  0.127236  0.134160  0.610535  1
  Ca  Ca7  1  0.611872  0.130051  0.129039  1
  Ca  Ca8  1  0.865840  0.872764  0.871930  1
  Ca  Ca9  1  0.504469  0.827610  0.495917  1
  Ca  Ca10  1  0.827947  0.499765  0.500865  1
  Ca  Ca11  1  0.504469  0.827610  0.172004  1
  Ca  Ca12  1  0.172390  0.495531  0.827996  1
  Ca  Ca13  1  0.827947  0.499765  0.171422  1
  Ca  Ca14  1  0.504848  0.495152  0.829106  1
  Ca  Ca15  1  0.171255  0.828745  0.500000  1
  Ca  Ca16  1  0.500235  0.172053  0.828578  1
  Ca  Ca17  1  0.504848  0.495152  0.170894  1
  Ca  Ca18  1  0.829554  0.170446  0.500000  1
  Ca  Ca19  1  0.172390  0.495531  0.504083  1
  Ca  Ca20  1  0.500235  0.172053  0.499135  1
  Mg  Mg21  1  0.497692  0.502308  0.500000  1
  Ga  Ga22  1  0.784824  0.215176  0.217417  1
  Ga  Ga23  1  0.785537  0.781765  0.216349  1
  Ga  Ga24  1  0.218235  0.214463  0.783651  1
  Ga  Ga25  1  0.784824  0.215176  0.782583  1
  Ga  Ga26  1  0.308459  0.311005  0.308389  1
  Ga  Ga27  1  0.928451  0.692112  0.689719  1
  Ga  Ga28  1  0.690257  0.928758  0.690493  1
  Ga  Ga29  1  0.688995  0.691542  0.927851  1
  Ga  Ga30  1  0.307888  0.071549  0.310281  1
  Ga  Ga31  1  0.308458  0.311005  0.072149  1
  Ga  Ga32  1  0.071242  0.309743  0.309507  1
  Ga  Ga33  1  0.688995  0.691542  0.691610  1
  Ag  Ag34  1  0.216617  0.783383  0.215037  1
  Ag  Ag35  1  0.216617  0.783383  0.784963  1
