# generated using pymatgen
data_Ho11Er3Tm6(CoBi2)4
_symmetry_space_group_name_H-M   'P 1'
_cell_length_a   7.91837572
_cell_length_b   8.87020413
_cell_length_c   12.36081142
_cell_angle_alpha   90.01281624
_cell_angle_beta   90.02350682
_cell_angle_gamma   90.01492709
_symmetry_Int_Tables_number   1
_chemical_formula_structural   Ho11Er3Tm6(CoBi2)4
_chemical_formula_sum   'Ho11 Er3 Tm6 Co4 Bi8'
_cell_volume   868.19371587
_cell_formula_units_Z   1
loop_
 _symmetry_equiv_pos_site_id
 _symmetry_equiv_pos_as_xyz
  1  'x, y, z'
loop_
 _atom_site_type_symbol
 _atom_site_label
 _atom_site_symmetry_multiplicity
 _atom_site_fract_x
 _atom_site_fract_y
 _atom_site_fract_z
 _atom_site_occupancy
  Ho  Ho0  1  0.651868  0.249805  0.300767  1
  Ho  Ho1  1  0.848201  0.249981  0.800770  1
  Ho  Ho2  1  0.151709  0.750027  0.199190  1
  Ho  Ho3  1  0.884810  0.749927  0.812823  1
  Ho  Ho4  1  0.115427  0.250090  0.187151  1
  Ho  Ho5  1  0.384562  0.249529  0.687584  1
  Ho  Ho6  1  0.615596  0.750454  0.312368  1
  Ho  Ho7  1  0.054357  0.750486  0.497818  1
  Ho  Ho8  1  0.945911  0.249469  0.502412  1
  Ho  Ho9  1  0.554373  0.249952  0.002222  1
  Ho  Ho10  1  0.445310  0.750066  0.997474  1
  Er  Er11  1  0.347919  0.750197  0.699201  1
  Er  Er12  1  0.673968  0.537747  0.563042  1
  Er  Er13  1  0.326081  0.462705  0.437153  1
  Tm  Tm14  1  0.172905  0.462361  0.937271  1
  Tm  Tm15  1  0.327248  0.037702  0.437264  1
  Tm  Tm16  1  0.827101  0.537541  0.062672  1
  Tm  Tm17  1  0.672668  0.961846  0.562945  1
  Tm  Tm18  1  0.827157  0.962494  0.062720  1
  Tm  Tm19  1  0.172855  0.037643  0.937222  1
  Co  Co20  1  0.063885  0.750028  0.992731  1
  Co  Co21  1  0.935864  0.249985  0.007245  1
  Co  Co22  1  0.564508  0.249448  0.507626  1
  Co  Co23  1  0.435450  0.750474  0.492626  1
  Bi  Bi24  1  0.570086  0.509137  0.826815  1
  Bi  Bi25  1  0.429693  0.491178  0.172905  1
  Bi  Bi26  1  0.071586  0.491242  0.673238  1
  Bi  Bi27  1  0.429516  0.008936  0.172929  1
  Bi  Bi28  1  0.928793  0.508888  0.326895  1
  Bi  Bi29  1  0.570263  0.990787  0.826798  1
  Bi  Bi30  1  0.929475  0.991264  0.326829  1
  Bi  Bi31  1  0.070856  0.008611  0.673293  1
