# generated using pymatgen
data_Ce2B2IrRhN2
_symmetry_space_group_name_H-M   'P 1'
_cell_length_a   3.83030100
_cell_length_b   3.83030100
_cell_length_c   7.41237700
_cell_angle_alpha   90.00000000
_cell_angle_beta   90.00000000
_cell_angle_gamma   90.00000000
_symmetry_Int_Tables_number   1
_chemical_formula_structural   Ce2B2IrRhN2
_chemical_formula_sum   'Ce2 B2 Ir1 Rh1 N2'
_cell_volume   108.74850807
_cell_formula_units_Z   1
loop_
 _symmetry_equiv_pos_site_id
 _symmetry_equiv_pos_as_xyz
  1  'x, y, z'
loop_
 _atom_site_type_symbol
 _atom_site_label
 _atom_site_symmetry_multiplicity
 _atom_site_fract_x
 _atom_site_fract_y
 _atom_site_fract_z
 _atom_site_occupancy
  Ce  Ce0  1  0.500000  0.000000  0.169252  1
  Ce  Ce1  1  0.000000  0.500000  0.830748  1
  B  B2  1  0.000000  0.500000  0.350296  1
  B  B3  1  0.500000  0.000000  0.649705  1
  Ir  Ir4  1  0.500000  0.500000  0.500000  1
  Rh  Rh5  1  0.000000  0.000000  0.500000  1
  N  N6  1  0.000000  0.500000  0.149881  1
  N  N7  1  0.500000  0.000000  0.850119  1
