# generated using pymatgen
data_TbY11CdCo6
_symmetry_space_group_name_H-M   'P 1'
_cell_length_a   8.41877633
_cell_length_b   8.41877729
_cell_length_c   8.42056900
_cell_angle_alpha   109.48159332
_cell_angle_beta   109.46694169
_cell_angle_gamma   109.45649860
_symmetry_Int_Tables_number   1
_chemical_formula_structural   TbY11CdCo6
_chemical_formula_sum   'Tb1 Y11 Cd1 Co6'
_cell_volume   459.47698432
_cell_formula_units_Z   1
loop_
 _symmetry_equiv_pos_site_id
 _symmetry_equiv_pos_as_xyz
  1  'x, y, z'
loop_
 _atom_site_type_symbol
 _atom_site_label
 _atom_site_symmetry_multiplicity
 _atom_site_fract_x
 _atom_site_fract_y
 _atom_site_fract_z
 _atom_site_occupancy
  Tb  Tb0  1  0.806056  0.695710  0.501766  1
  Y  Y1  1  0.193914  0.303264  0.497178  1
  Y  Y2  1  0.194096  0.696848  0.890944  1
  Y  Y3  1  0.806137  0.302880  0.109016  1
  Y  Y4  1  0.696883  0.503107  0.806216  1
  Y  Y5  1  0.302846  0.496777  0.193572  1
  Y  Y6  1  0.696794  0.890726  0.193572  1
  Y  Y7  1  0.303109  0.109333  0.806216  1
  Y  Y8  1  0.502958  0.806088  0.696727  1
  Y  Y9  1  0.496744  0.193663  0.302893  1
  Y  Y10  1  0.109230  0.806150  0.302893  1
  Y  Y11  1  0.890639  0.193769  0.696727  1
  Cd  Cd12  1  0.000181  0.000316  0.000496  1
  Co  Co13  1  0.887522  0.387875  0.500181  1
  Co  Co14  1  0.112306  0.612660  0.500181  1
  Co  Co15  1  0.388007  0.499890  0.887899  1
  Co  Co16  1  0.612861  0.500850  0.113711  1
  Co  Co17  1  0.499607  0.887737  0.387344  1
  Co  Co18  1  0.500109  0.112357  0.612465  1
