# generated using pymatgen
data_SmY5Zr2(Co4P3)4
_symmetry_space_group_name_H-M   'P 1'
_cell_length_a   3.73620600
_cell_length_b   10.71295600
_cell_length_c   12.43893600
_cell_angle_alpha   90.00000000
_cell_angle_beta   90.00000000
_cell_angle_gamma   90.00000000
_symmetry_Int_Tables_number   1
_chemical_formula_structural   SmY5Zr2(Co4P3)4
_chemical_formula_sum   'Sm1 Y5 Zr2 Co16 P12'
_cell_volume   497.87849497
_cell_formula_units_Z   1
loop_
 _symmetry_equiv_pos_site_id
 _symmetry_equiv_pos_as_xyz
  1  'x, y, z'
loop_
 _atom_site_type_symbol
 _atom_site_label
 _atom_site_symmetry_multiplicity
 _atom_site_fract_x
 _atom_site_fract_y
 _atom_site_fract_z
 _atom_site_occupancy
  Sm  Sm0  1  0.500000  0.000000  0.469501  1
  Y  Y1  1  0.000000  0.500000  0.529327  1
  Y  Y2  1  0.500000  0.821107  0.204466  1
  Y  Y3  1  0.500000  0.178893  0.204466  1
  Y  Y4  1  0.000000  0.678327  0.795343  1
  Y  Y5  1  0.000000  0.321673  0.795343  1
  Zr  Zr6  1  0.500000  0.500000  0.158190  1
  Zr  Zr7  1  0.000000  0.000000  0.842858  1
  Co  Co8  1  0.500000  0.500000  0.703948  1
  Co  Co9  1  0.000000  0.000000  0.294750  1
  Co  Co10  1  0.000000  0.500000  0.986033  1
  Co  Co11  1  0.500000  0.000000  0.013990  1
  Co  Co12  1  0.500000  0.332035  0.992868  1
  Co  Co13  1  0.500000  0.667965  0.992868  1
  Co  Co14  1  0.000000  0.168278  0.007157  1
  Co  Co15  1  0.000000  0.831722  0.007157  1
  Co  Co16  1  0.500000  0.296407  0.433383  1
  Co  Co17  1  0.500000  0.703593  0.433383  1
  Co  Co18  1  0.000000  0.205874  0.566810  1
  Co  Co19  1  0.000000  0.794126  0.566810  1
  Co  Co20  1  0.500000  0.877425  0.701771  1
  Co  Co21  1  0.500000  0.122575  0.701771  1
  Co  Co22  1  0.000000  0.621769  0.298605  1
  Co  Co23  1  0.000000  0.378231  0.298605  1
  P  P24  1  0.500000  0.500000  0.883851  1
  P  P25  1  0.000000  0.000000  0.115751  1
  P  P26  1  0.500000  0.500000  0.363166  1
  P  P27  1  0.000000  0.000000  0.638618  1
  P  P28  1  0.500000  0.310025  0.615658  1
  P  P29  1  0.500000  0.689975  0.615658  1
  P  P30  1  0.000000  0.192172  0.383981  1
  P  P31  1  0.000000  0.807828  0.383981  1
  P  P32  1  0.500000  0.838248  0.894393  1
  P  P33  1  0.500000  0.161752  0.894393  1
  P  P34  1  0.000000  0.661339  0.105572  1
  P  P35  1  0.000000  0.338661  0.105572  1
