# generated using pymatgen
data_Tb5Pd9
_symmetry_space_group_name_H-M   'P 1'
_cell_length_a   9.82674400
_cell_length_b   9.82674400
_cell_length_c   5.78541000
_cell_angle_alpha   90.00000000
_cell_angle_beta   90.00000000
_cell_angle_gamma   90.00000000
_symmetry_Int_Tables_number   1
_chemical_formula_structural   Tb5Pd9
_chemical_formula_sum   'Tb10 Pd18'
_cell_volume   558.66752446
_cell_formula_units_Z   2
loop_
 _symmetry_equiv_pos_site_id
 _symmetry_equiv_pos_as_xyz
  1  'x, y, z'
loop_
 _atom_site_type_symbol
 _atom_site_label
 _atom_site_symmetry_multiplicity
 _atom_site_fract_x
 _atom_site_fract_y
 _atom_site_fract_z
 _atom_site_occupancy
  Tb  Tb0  1  0.454246  0.807321  0.000000  1
  Tb  Tb1  1  0.545754  0.192679  0.000000  1
  Tb  Tb2  1  0.192679  0.545754  0.000000  1
  Tb  Tb3  1  0.807321  0.454246  0.000000  1
  Tb  Tb4  1  0.500000  0.500000  0.500000  1
  Tb  Tb5  1  0.307321  0.045754  0.500000  1
  Tb  Tb6  1  0.692679  0.954246  0.500000  1
  Tb  Tb7  1  0.954246  0.692679  0.500000  1
  Tb  Tb8  1  0.045754  0.307321  0.500000  1
  Tb  Tb9  1  0.000000  0.000000  0.000000  1
  Pd  Pd10  1  0.191750  0.808250  0.249837  1
  Pd  Pd11  1  0.808250  0.191750  0.750163  1
  Pd  Pd12  1  0.808250  0.191750  0.249837  1
  Pd  Pd13  1  0.191750  0.808250  0.750163  1
  Pd  Pd14  1  0.440088  0.780411  0.500000  1
  Pd  Pd15  1  0.559912  0.219589  0.500000  1
  Pd  Pd16  1  0.219589  0.559912  0.500000  1
  Pd  Pd17  1  0.780411  0.440088  0.500000  1
  Pd  Pd18  1  0.308250  0.308250  0.250163  1
  Pd  Pd19  1  0.691750  0.691750  0.749837  1
  Pd  Pd20  1  0.691750  0.691750  0.250163  1
  Pd  Pd21  1  0.308250  0.308250  0.749837  1
  Pd  Pd22  1  0.280411  0.059912  0.000000  1
  Pd  Pd23  1  0.719589  0.940088  0.000000  1
  Pd  Pd24  1  0.940088  0.719589  0.000000  1
  Pd  Pd25  1  0.059912  0.280411  0.000000  1
  Pd  Pd26  1  0.000000  0.000000  0.500000  1
  Pd  Pd27  1  0.500000  0.500000  0.000000  1
