# generated using pymatgen
data_SrTbYbGa8Ag3
_symmetry_space_group_name_H-M   'P 1'
_cell_length_a   4.39136175
_cell_length_b   8.49732889
_cell_length_c   8.49732943
_cell_angle_alpha   69.65040365
_cell_angle_beta   75.02505233
_cell_angle_gamma   75.02504292
_symmetry_Int_Tables_number   1
_chemical_formula_structural   SrTbYbGa8Ag3
_chemical_formula_sum   'Sr1 Tb1 Yb1 Ga8 Ag3'
_cell_volume   282.17520482
_cell_formula_units_Z   1
loop_
 _symmetry_equiv_pos_site_id
 _symmetry_equiv_pos_as_xyz
  1  'x, y, z'
loop_
 _atom_site_type_symbol
 _atom_site_label
 _atom_site_symmetry_multiplicity
 _atom_site_fract_x
 _atom_site_fract_y
 _atom_site_fract_z
 _atom_site_occupancy
  Sr  Sr0  1  0.499476  0.500524  0.500524  1
  Tb  Tb1  1  0.798679  0.201321  0.201321  1
  Yb  Yb2  1  0.197916  0.802084  0.802084  1
  Ga  Ga3  1  0.356541  0.360062  0.926855  1
  Ga  Ga4  1  0.645873  0.636682  0.071574  1
  Ga  Ga5  1  0.356541  0.926855  0.360062  1
  Ga  Ga6  1  0.645873  0.071574  0.636682  1
  Ga  Ga7  1  0.162931  0.469671  0.204466  1
  Ga  Ga8  1  0.835270  0.529820  0.799639  1
  Ga  Ga9  1  0.162931  0.204466  0.469671  1
  Ga  Ga10  1  0.835270  0.799639  0.529820  1
  Ag  Ag11  1  0.500639  0.999361  0.999361  1
  Ag  Ag12  1  0.001030  0.805409  0.192531  1
  Ag  Ag13  1  0.001030  0.192531  0.805409  1
