# generated using pymatgen
data_TbDy3(PaIr3)2
_symmetry_space_group_name_H-M   'P 1'
_cell_length_a   10.03939147
_cell_length_b   9.82150818
_cell_length_c   9.82150904
_cell_angle_alpha   34.32307056
_cell_angle_beta   31.54087650
_cell_angle_gamma   31.54088086
_symmetry_Int_Tables_number   1
_chemical_formula_structural   TbDy3(PaIr3)2
_chemical_formula_sum   'Tb1 Dy3 Pa2 Ir6'
_cell_volume   246.85517456
_cell_formula_units_Z   1
loop_
 _symmetry_equiv_pos_site_id
 _symmetry_equiv_pos_as_xyz
  1  'x, y, z'
loop_
 _atom_site_type_symbol
 _atom_site_label
 _atom_site_symmetry_multiplicity
 _atom_site_fract_x
 _atom_site_fract_y
 _atom_site_fract_z
 _atom_site_occupancy
  Tb  Tb0  1  0.810991  0.813381  0.813381  1
  Dy  Dy1  1  0.312608  0.312455  0.312455  1
  Dy  Dy2  1  0.687291  0.687537  0.687537  1
  Dy  Dy3  1  0.187098  0.187841  0.187841  1
  Pa  Pa4  1  0.750226  0.249795  0.249795  1
  Pa  Pa5  1  0.250178  0.749964  0.749964  1
  Ir  Ir6  1  0.500522  0.499757  0.499757  1
  Ir  Ir7  1  0.000063  0.999932  0.999932  1
  Ir  Ir8  1  0.250297  0.249657  0.749622  1
  Ir  Ir9  1  0.750216  0.749912  0.250147  1
  Ir  Ir10  1  0.250297  0.749622  0.249657  1
  Ir  Ir11  1  0.750216  0.250147  0.749912  1
