# generated using pymatgen
data_LiPr4Zn3Rh4
_symmetry_space_group_name_H-M   'P 1'
_cell_length_a   4.10597500
_cell_length_b   7.29742700
_cell_length_c   16.57281800
_cell_angle_alpha   90.00000000
_cell_angle_beta   90.00000000
_cell_angle_gamma   90.00000000
_symmetry_Int_Tables_number   1
_chemical_formula_structural   LiPr4Zn3Rh4
_chemical_formula_sum   'Li2 Pr8 Zn6 Rh8'
_cell_volume   496.57222122
_cell_formula_units_Z   2
loop_
 _symmetry_equiv_pos_site_id
 _symmetry_equiv_pos_as_xyz
  1  'x, y, z'
loop_
 _atom_site_type_symbol
 _atom_site_label
 _atom_site_symmetry_multiplicity
 _atom_site_fract_x
 _atom_site_fract_y
 _atom_site_fract_z
 _atom_site_occupancy
  Li  Li0  1  0.250000  0.994126  0.439783  1
  Li  Li1  1  0.750000  0.505874  0.939783  1
  Pr  Pr2  1  0.750000  0.454010  0.217275  1
  Pr  Pr3  1  0.750000  0.953530  0.282380  1
  Pr  Pr4  1  0.750000  0.832313  0.060011  1
  Pr  Pr5  1  0.250000  0.045990  0.717275  1
  Pr  Pr6  1  0.250000  0.164237  0.940557  1
  Pr  Pr7  1  0.250000  0.546470  0.782380  1
  Pr  Pr8  1  0.750000  0.335763  0.440557  1
  Pr  Pr9  1  0.250000  0.667687  0.560011  1
  Zn  Zn10  1  0.750000  0.002430  0.559311  1
  Zn  Zn11  1  0.250000  0.628441  0.351057  1
  Zn  Zn12  1  0.750000  0.373991  0.649442  1
  Zn  Zn13  1  0.750000  0.871559  0.851057  1
  Zn  Zn14  1  0.250000  0.497570  0.059311  1
  Zn  Zn15  1  0.250000  0.126009  0.149442  1
  Rh  Rh16  1  0.250000  0.244779  0.565775  1
  Rh  Rh17  1  0.750000  0.255221  0.065775  1
  Rh  Rh18  1  0.250000  0.250295  0.312113  1
  Rh  Rh19  1  0.750000  0.249705  0.812113  1
  Rh  Rh20  1  0.250000  0.749527  0.935680  1
  Rh  Rh21  1  0.750000  0.751045  0.686615  1
  Rh  Rh22  1  0.750000  0.750473  0.435680  1
  Rh  Rh23  1  0.250000  0.748955  0.186615  1
