# generated using pymatgen
data_CrTc5S8
_symmetry_space_group_name_H-M   'P 1'
_cell_length_a   6.43960745
_cell_length_b   6.43165797
_cell_length_c   6.43264900
_cell_angle_alpha   92.69815767
_cell_angle_beta   93.07972603
_cell_angle_gamma   93.72886602
_symmetry_Int_Tables_number   1
_chemical_formula_structural   CrTc5S8
_chemical_formula_sum   'Cr1 Tc5 S8'
_cell_volume   265.13321862
_cell_formula_units_Z   1
loop_
 _symmetry_equiv_pos_site_id
 _symmetry_equiv_pos_as_xyz
  1  'x, y, z'
loop_
 _atom_site_type_symbol
 _atom_site_label
 _atom_site_symmetry_multiplicity
 _atom_site_fract_x
 _atom_site_fract_y
 _atom_site_fract_z
 _atom_site_occupancy
  Cr  Cr0  1  0.411561  0.235774  0.549474  1
  Tc  Tc1  1  0.448156  0.588771  0.770913  1
  Tc  Tc2  1  0.770728  0.449150  0.591322  1
  Tc  Tc3  1  0.590969  0.771508  0.449019  1
  Tc  Tc4  1  0.550371  0.410497  0.229632  1
  Tc  Tc5  1  0.229708  0.549550  0.410824  1
  S  S6  1  0.779546  0.778260  0.778954  1
  S  S7  1  0.224884  0.218228  0.232978  1
  S  S8  1  0.281699  0.875862  0.618579  1
  S  S9  1  0.611407  0.272130  0.865936  1
  S  S10  1  0.873350  0.623808  0.273855  1
  S  S11  1  0.718379  0.131546  0.381585  1
  S  S12  1  0.377184  0.726344  0.127166  1
  S  S13  1  0.132058  0.368574  0.719767  1
