# generated using pymatgen
data_Y12Er4MgHg3Rh4
_symmetry_space_group_name_H-M   'P 1'
_cell_length_a   9.62953789
_cell_length_b   9.61503838
_cell_length_c   9.61503800
_cell_angle_alpha   60.00000130
_cell_angle_beta   60.04979807
_cell_angle_gamma   60.04979780
_symmetry_Int_Tables_number   1
_chemical_formula_structural   Y12Er4MgHg3Rh4
_chemical_formula_sum   'Y12 Er4 Mg1 Hg3 Rh4'
_cell_volume   629.96868490
_cell_formula_units_Z   1
loop_
 _symmetry_equiv_pos_site_id
 _symmetry_equiv_pos_as_xyz
  1  'x, y, z'
loop_
 _atom_site_type_symbol
 _atom_site_label
 _atom_site_symmetry_multiplicity
 _atom_site_fract_x
 _atom_site_fract_y
 _atom_site_fract_z
 _atom_site_occupancy
  Y  Y0  1  0.059811  0.440094  0.440094  1
  Y  Y1  1  0.436502  0.062713  0.062713  1
  Y  Y2  1  0.436502  0.062713  0.438071  1
  Y  Y3  1  0.059811  0.440094  0.060001  1
  Y  Y4  1  0.436502  0.438071  0.062713  1
  Y  Y5  1  0.059811  0.060001  0.440094  1
  Y  Y6  1  0.184745  0.813932  0.813932  1
  Y  Y7  1  0.812855  0.186453  0.186453  1
  Y  Y8  1  0.812855  0.186453  0.814240  1
  Y  Y9  1  0.184745  0.813932  0.187391  1
  Y  Y10  1  0.812855  0.814240  0.186453  1
  Y  Y11  1  0.184745  0.187391  0.813932  1
  Er  Er12  1  0.600764  0.598416  0.598416  1
  Er  Er13  1  0.600764  0.598416  0.202407  1
  Er  Er14  1  0.600764  0.202407  0.598416  1
  Er  Er15  1  0.191888  0.602705  0.602705  1
  Mg  Mg16  1  0.534607  0.821797  0.821797  1
  Hg  Hg17  1  0.831545  0.835844  0.835844  1
  Hg  Hg18  1  0.831545  0.835844  0.496765  1
  Hg  Hg19  1  0.831545  0.496765  0.835844  1
  Rh  Rh20  1  0.391740  0.395009  0.395009  1
  Rh  Rh21  1  0.391740  0.395009  0.818244  1
  Rh  Rh22  1  0.391740  0.818244  0.395009  1
  Rh  Rh23  1  0.819619  0.393461  0.393461  1
