# generated using pymatgen
data_AuSeF34
_symmetry_space_group_name_H-M   'P 1'
_cell_length_a   8.88142071
_cell_length_b   8.46395074
_cell_length_c   10.06668177
_cell_angle_alpha   81.86411494
_cell_angle_beta   87.12511662
_cell_angle_gamma   67.03107084
_symmetry_Int_Tables_number   1
_chemical_formula_structural   AuSeF34
_chemical_formula_sum   'Au1 Se1 F34'
_cell_volume   689.71224806
_cell_formula_units_Z   1
loop_
 _symmetry_equiv_pos_site_id
 _symmetry_equiv_pos_as_xyz
  1  'x, y, z'
loop_
 _atom_site_type_symbol
 _atom_site_label
 _atom_site_symmetry_multiplicity
 _atom_site_fract_x
 _atom_site_fract_y
 _atom_site_fract_z
 _atom_site_occupancy
  Au  Au0  1  0.134090  0.749119  0.244637  1
  Se  Se1  1  0.863496  0.249438  0.762058  1
  F  F2  1  0.612567  0.200257  0.482934  1
  F  F3  1  0.395192  0.793978  0.510379  1
  F  F4  1  0.828594  0.709706  0.718875  1
  F  F5  1  0.172293  0.311029  0.277531  1
  F  F6  1  0.094771  0.747803  0.868165  1
  F  F7  1  0.920069  0.226671  0.141806  1
  F  F8  1  0.556227  0.146007  0.373988  1
  F  F9  1  0.437695  0.855141  0.623051  1
  F  F10  1  0.663298  0.320275  0.704351  1
  F  F11  1  0.355855  0.671965  0.312235  1
  F  F12  1  0.923384  0.080034  0.666332  1
  F  F13  1  0.061732  0.935955  0.353092  1
  F  F14  1  0.905816  0.378286  0.627644  1
  F  F15  1  0.086075  0.604360  0.392318  1
  F  F16  1  0.864620  0.802495  0.601003  1
  F  F17  1  0.155974  0.187323  0.382448  1
  F  F18  1  0.804538  0.419863  0.857283  1
  F  F19  1  0.203342  0.559555  0.138177  1
  F  F20  1  0.211733  0.690974  0.765590  1
  F  F21  1  0.786746  0.312206  0.224451  1
  F  F22  1  0.914197  0.826129  0.174228  1
  F  F23  1  0.062378  0.179627  0.821327  1
  F  F24  1  0.819622  0.120052  0.895269  1
  F  F25  1  0.182812  0.894957  0.097951  1
  F  F26  1  0.484369  0.592396  0.986238  1
  F  F27  1  0.516462  0.412483  0.012469  1
  F  F28  1  0.450330  0.091441  0.866830  1
  F  F29  1  0.535107  0.920554  0.134034  1
  F  F30  1  0.289443  0.247316  0.606570  1
  F  F31  1  0.710623  0.750888  0.385227  1
  F  F32  1  0.259017  0.393778  0.674008  1
  F  F33  1  0.740625  0.599097  0.325355  1
  F  F34  1  0.554679  0.924950  0.834540  1
  F  F35  1  0.442230  0.093893  0.157607  1
