# generated using pymatgen
data_SrLaThTiSb5
_symmetry_space_group_name_H-M   'P 1'
_cell_length_a   9.65980450
_cell_length_b   9.63724514
_cell_length_c   6.28219600
_cell_angle_alpha   90.00000000
_cell_angle_beta   90.00000000
_cell_angle_gamma   119.92278220
_symmetry_Int_Tables_number   1
_chemical_formula_structural   SrLaThTiSb5
_chemical_formula_sum   'Sr2 La2 Th2 Ti2 Sb10'
_cell_volume   506.87486377
_cell_formula_units_Z   2
loop_
 _symmetry_equiv_pos_site_id
 _symmetry_equiv_pos_as_xyz
  1  'x, y, z'
loop_
 _atom_site_type_symbol
 _atom_site_label
 _atom_site_symmetry_multiplicity
 _atom_site_fract_x
 _atom_site_fract_y
 _atom_site_fract_z
 _atom_site_occupancy
  Sr  Sr0  1  0.384410  0.004572  0.750000  1
  Sr  Sr1  1  0.384410  0.379838  0.250000  1
  La  La2  1  0.613534  0.617250  0.750000  1
  La  La3  1  0.613534  0.996285  0.250000  1
  Th  Th4  1  0.002231  0.622711  0.250000  1
  Th  Th5  1  0.002231  0.379519  0.750000  1
  Ti  Ti6  1  0.001452  0.000726  0.000000  1
  Ti  Ti7  1  0.001452  0.000726  0.500000  1
  Sb  Sb8  1  0.682728  0.341364  0.500000  1
  Sb  Sb9  1  0.323637  0.661819  0.000000  1
  Sb  Sb10  1  0.752685  0.001239  0.750000  1
  Sb  Sb11  1  0.752685  0.751448  0.250000  1
  Sb  Sb12  1  0.323637  0.661819  0.500000  1
  Sb  Sb13  1  0.682728  0.341364  0.000000  1
  Sb  Sb14  1  0.244609  0.995168  0.250000  1
  Sb  Sb15  1  0.244609  0.249442  0.750000  1
  Sb  Sb16  1  0.994713  0.743977  0.750000  1
  Sb  Sb17  1  0.994713  0.250736  0.250000  1
