# generated using pymatgen
data_Ta2BiSbPb4O13
_symmetry_space_group_name_H-M   'P 1'
_cell_length_a   7.78374785
_cell_length_b   7.76722133
_cell_length_c   7.78374774
_cell_angle_alpha   59.24283865
_cell_angle_beta   59.08922878
_cell_angle_gamma   59.24283012
_symmetry_Int_Tables_number   1
_chemical_formula_structural   Ta2BiSbPb4O13
_chemical_formula_sum   'Ta2 Bi1 Sb1 Pb4 O13'
_cell_volume   326.62727059
_cell_formula_units_Z   1
loop_
 _symmetry_equiv_pos_site_id
 _symmetry_equiv_pos_as_xyz
  1  'x, y, z'
loop_
 _atom_site_type_symbol
 _atom_site_label
 _atom_site_symmetry_multiplicity
 _atom_site_fract_x
 _atom_site_fract_y
 _atom_site_fract_z
 _atom_site_occupancy
  Ta  Ta0  1  0.003058  0.502657  0.499627  1
  Ta  Ta1  1  0.499627  0.502657  0.003058  1
  Bi  Bi2  1  0.503208  0.497738  0.503208  1
  Sb  Sb3  1  0.498148  0.004028  0.498148  1
  Pb  Pb4  1  0.006260  0.996514  0.006260  1
  Pb  Pb5  1  0.499737  0.013748  0.009203  1
  Pb  Pb6  1  0.009203  0.013748  0.499737  1
  Pb  Pb7  1  0.017947  0.495900  0.017947  1
  O  O8  1  0.890337  0.394463  0.395137  1
  O  O9  1  0.420139  0.800162  0.800333  1
  O  O10  1  0.395137  0.394463  0.890337  1
  O  O11  1  0.800333  0.800162  0.420139  1
  O  O12  1  0.790777  0.432335  0.790777  1
  O  O13  1  0.400677  0.884739  0.400677  1
  O  O14  1  0.151255  0.579991  0.571067  1
  O  O15  1  0.582904  0.193984  0.189836  1
  O  O16  1  0.571067  0.579991  0.151255  1
  O  O17  1  0.189836  0.193984  0.582904  1
  O  O18  1  0.189145  0.584081  0.189145  1
  O  O19  1  0.582861  0.142057  0.582861  1
  O  O20  1  0.123343  0.117601  0.123343  1
