# generated using pymatgen
data_La3Al2Sn3
_symmetry_space_group_name_H-M   'P 1'
_cell_length_a   6.61795991
_cell_length_b   6.61796015
_cell_length_c   10.37682900
_cell_angle_alpha   90.00000000
_cell_angle_beta   90.00000000
_cell_angle_gamma   102.48983230
_symmetry_Int_Tables_number   1
_chemical_formula_structural   La3Al2Sn3
_chemical_formula_sum   'La6 Al4 Sn6'
_cell_volume   443.72258246
_cell_formula_units_Z   2
loop_
 _symmetry_equiv_pos_site_id
 _symmetry_equiv_pos_as_xyz
  1  'x, y, z'
loop_
 _atom_site_type_symbol
 _atom_site_label
 _atom_site_symmetry_multiplicity
 _atom_site_fract_x
 _atom_site_fract_y
 _atom_site_fract_z
 _atom_site_occupancy
  La  La0  1  0.640360  0.640360  0.250000  1
  La  La1  1  0.359640  0.359640  0.750000  1
  La  La2  1  0.797776  0.202224  0.000000  1
  La  La3  1  0.202224  0.797776  0.000000  1
  La  La4  1  0.202224  0.797776  0.500000  1
  La  La5  1  0.797776  0.202224  0.500000  1
  Al  Al6  1  0.315918  0.315918  0.051228  1
  Al  Al7  1  0.684082  0.684082  0.948772  1
  Al  Al8  1  0.684082  0.684082  0.551228  1
  Al  Al9  1  0.315918  0.315918  0.448772  1
  Sn  Sn10  1  0.091659  0.491073  0.250000  1
  Sn  Sn11  1  0.908341  0.508927  0.750000  1
  Sn  Sn12  1  0.491073  0.091659  0.250000  1
  Sn  Sn13  1  0.508927  0.908341  0.750000  1
  Sn  Sn14  1  0.027545  0.027545  0.250000  1
  Sn  Sn15  1  0.972455  0.972455  0.750000  1
