# generated using pymatgen
data_Sc7TaV12Si15P
_symmetry_space_group_name_H-M   'P 1'
_cell_length_a   6.60305464
_cell_length_b   6.59014821
_cell_length_c   12.20524574
_cell_angle_alpha   90.09302135
_cell_angle_beta   89.95957631
_cell_angle_gamma   90.05312683
_symmetry_Int_Tables_number   1
_chemical_formula_structural   Sc7TaV12Si15P
_chemical_formula_sum   'Sc7 Ta1 V12 Si15 P1'
_cell_volume   531.11153507
_cell_formula_units_Z   1
loop_
 _symmetry_equiv_pos_site_id
 _symmetry_equiv_pos_as_xyz
  1  'x, y, z'
loop_
 _atom_site_type_symbol
 _atom_site_label
 _atom_site_symmetry_multiplicity
 _atom_site_fract_x
 _atom_site_fract_y
 _atom_site_fract_z
 _atom_site_occupancy
  Sc  Sc0  1  0.837876  0.500627  0.279039  1
  Sc  Sc1  1  0.161582  0.498679  0.779222  1
  Sc  Sc2  1  0.501239  0.837421  0.721365  1
  Sc  Sc3  1  0.496843  0.159534  0.217902  1
  Sc  Sc4  1  0.998914  0.336790  0.529760  1
  Sc  Sc5  1  0.660731  0.999614  0.972054  1
  Sc  Sc6  1  0.337730  0.998741  0.469794  1
  Ta  Ta7  1  0.009329  0.660024  0.030854  1
  V  V8  1  0.329288  0.334770  0.000786  1
  V  V9  1  0.169531  0.832990  0.246259  1
  V  V10  1  0.832650  0.168144  0.751459  1
  V  V11  1  0.668157  0.668125  0.499922  1
  V  V12  1  0.008329  0.153758  0.123504  1
  V  V13  1  0.342673  0.506200  0.375474  1
  V  V14  1  0.657490  0.495859  0.878302  1
  V  V15  1  0.505633  0.343450  0.624209  1
  V  V16  1  0.488625  0.663569  0.121219  1
  V  V17  1  0.992949  0.842712  0.627524  1
  V  V18  1  0.155619  0.004709  0.878624  1
  V  V19  1  0.842874  0.991379  0.372765  1
  Si  Si20  1  0.540191  0.793632  0.314248  1
  Si  Si21  1  0.460582  0.206938  0.814896  1
  Si  Si22  1  0.794199  0.539375  0.685824  1
  Si  Si23  1  0.206500  0.459520  0.185952  1
  Si  Si24  1  0.705855  0.039710  0.565098  1
  Si  Si25  1  0.958498  0.296723  0.934866  1
  Si  Si26  1  0.040518  0.706074  0.434929  1
  Si  Si27  1  0.707108  0.374951  0.071229  1
  Si  Si28  1  0.128649  0.202804  0.319965  1
  Si  Si29  1  0.870140  0.795341  0.823294  1
  Si  Si30  1  0.203409  0.128831  0.680496  1
  Si  Si31  1  0.798145  0.867707  0.177791  1
  Si  Si32  1  0.296424  0.630227  0.570064  1
  Si  Si33  1  0.369307  0.703945  0.927730  1
  Si  Si34  1  0.629706  0.295650  0.429475  1
  P  P35  1  0.292706  0.961479  0.064101  1
