# generated using pymatgen
data_ThAlNi4
_symmetry_space_group_name_H-M   'P 1'
_cell_length_a   4.92463422
_cell_length_b   4.92463455
_cell_length_c   4.08964500
_cell_angle_alpha   90.00000000
_cell_angle_beta   90.00000000
_cell_angle_gamma   117.21990294
_symmetry_Int_Tables_number   1
_chemical_formula_structural   ThAlNi4
_chemical_formula_sum   'Th1 Al1 Ni4'
_cell_volume   88.19849029
_cell_formula_units_Z   1
loop_
 _symmetry_equiv_pos_site_id
 _symmetry_equiv_pos_as_xyz
  1  'x, y, z'
loop_
 _atom_site_type_symbol
 _atom_site_label
 _atom_site_symmetry_multiplicity
 _atom_site_fract_x
 _atom_site_fract_y
 _atom_site_fract_z
 _atom_site_occupancy
  Th  Th0  1  0.000000  0.000000  0.000000  1
  Al  Al1  1  0.500000  0.500000  0.500000  1
  Ni  Ni2  1  0.667009  0.332991  0.000000  1
  Ni  Ni3  1  0.332991  0.667009  0.000000  1
  Ni  Ni4  1  0.500000  0.000000  0.500000  1
  Ni  Ni5  1  0.000000  0.500000  0.500000  1
