# generated using pymatgen
data_TbDy2Lu3CoTe2
_symmetry_space_group_name_H-M   'P 1'
_cell_length_a   8.26881100
_cell_length_b   8.26462181
_cell_length_c   3.92118500
_cell_angle_alpha   90.00000000
_cell_angle_beta   90.00000000
_cell_angle_gamma   120.01676496
_symmetry_Int_Tables_number   1
_chemical_formula_structural   TbDy2Lu3CoTe2
_chemical_formula_sum   'Tb1 Dy2 Lu3 Co1 Te2'
_cell_volume   232.02812054
_cell_formula_units_Z   1
loop_
 _symmetry_equiv_pos_site_id
 _symmetry_equiv_pos_as_xyz
  1  'x, y, z'
loop_
 _atom_site_type_symbol
 _atom_site_label
 _atom_site_symmetry_multiplicity
 _atom_site_fract_x
 _atom_site_fract_y
 _atom_site_fract_z
 _atom_site_occupancy
  Tb  Tb0  1  0.397450  0.000000  0.500000  1
  Dy  Dy1  1  0.999989  0.397045  0.500000  1
  Dy  Dy2  1  0.602945  0.602955  0.500000  1
  Lu  Lu3  1  0.999842  0.768533  0.000000  1
  Lu  Lu4  1  0.231309  0.231467  0.000000  1
  Lu  Lu5  1  0.768726  0.000000  0.000000  1
  Co  Co6  1  0.999535  0.000000  0.500000  1
  Te  Te7  1  0.333279  0.666357  0.000000  1
  Te  Te8  1  0.666924  0.333643  0.000000  1
