# generated using pymatgen
data_Dy16Co3NiAg4
_symmetry_space_group_name_H-M   'P 1'
_cell_length_a   9.43921390
_cell_length_b   9.43921422
_cell_length_c   9.41157832
_cell_angle_alpha   59.90281708
_cell_angle_beta   59.90281957
_cell_angle_gamma   59.99999683
_symmetry_Int_Tables_number   1
_chemical_formula_structural   Dy16Co3NiAg4
_chemical_formula_sum   'Dy16 Co3 Ni1 Ag4'
_cell_volume   592.07895206
_cell_formula_units_Z   1
loop_
 _symmetry_equiv_pos_site_id
 _symmetry_equiv_pos_as_xyz
  1  'x, y, z'
loop_
 _atom_site_type_symbol
 _atom_site_label
 _atom_site_symmetry_multiplicity
 _atom_site_fract_x
 _atom_site_fract_y
 _atom_site_fract_z
 _atom_site_occupancy
  Dy  Dy0  1  0.149178  0.549711  0.151932  1
  Dy  Dy1  1  0.691696  0.312035  0.684234  1
  Dy  Dy2  1  0.687141  0.313186  0.312532  1
  Dy  Dy3  1  0.936269  0.563361  0.564100  1
  Dy  Dy4  1  0.549711  0.149178  0.151932  1
  Dy  Dy5  1  0.151044  0.151044  0.546868  1
  Dy  Dy6  1  0.936269  0.936269  0.564100  1
  Dy  Dy7  1  0.313186  0.687141  0.312532  1
  Dy  Dy8  1  0.563426  0.935325  0.937823  1
  Dy  Dy9  1  0.563361  0.936269  0.564100  1
  Dy  Dy10  1  0.687141  0.687141  0.312532  1
  Dy  Dy11  1  0.563426  0.563426  0.937823  1
  Dy  Dy12  1  0.935325  0.563426  0.937823  1
  Dy  Dy13  1  0.312035  0.691696  0.684234  1
  Dy  Dy14  1  0.149178  0.149178  0.151932  1
  Dy  Dy15  1  0.312035  0.312035  0.684234  1
  Co  Co16  1  0.358195  0.925695  0.357915  1
  Co  Co17  1  0.925695  0.358195  0.357915  1
  Co  Co18  1  0.358195  0.358195  0.357915  1
  Ni  Ni19  1  0.357897  0.357897  0.926310  1
  Ag  Ag20  1  0.917922  0.245851  0.918306  1
  Ag  Ag21  1  0.917922  0.917922  0.918306  1
  Ag  Ag22  1  0.917903  0.917903  0.246292  1
  Ag  Ag23  1  0.245851  0.917922  0.918306  1
