# generated using pymatgen
data_Cs3AgPb4
_symmetry_space_group_name_H-M   'P 1'
_cell_length_a   7.46829000
_cell_length_b   14.38018200
_cell_length_c   7.13185200
_cell_angle_alpha   90.00000000
_cell_angle_beta   90.00000000
_cell_angle_gamma   90.00000000
_symmetry_Int_Tables_number   1
_chemical_formula_structural   Cs3AgPb4
_chemical_formula_sum   'Cs6 Ag2 Pb8'
_cell_volume   765.92788025
_cell_formula_units_Z   2
loop_
 _symmetry_equiv_pos_site_id
 _symmetry_equiv_pos_as_xyz
  1  'x, y, z'
loop_
 _atom_site_type_symbol
 _atom_site_label
 _atom_site_symmetry_multiplicity
 _atom_site_fract_x
 _atom_site_fract_y
 _atom_site_fract_z
 _atom_site_occupancy
  Cs  Cs0  1  0.250000  0.001329  0.172149  1
  Cs  Cs1  1  0.250000  0.498672  0.172149  1
  Cs  Cs2  1  0.749999  0.750000  0.436581  1
  Cs  Cs3  1  0.250000  0.250000  0.563419  1
  Cs  Cs4  1  0.749999  0.501328  0.827851  1
  Cs  Cs5  1  0.749999  0.998672  0.827851  1
  Ag  Ag6  1  0.250000  0.750000  0.304233  1
  Ag  Ag7  1  0.749999  0.250000  0.695765  1
  Pb  Pb8  1  0.526163  0.250000  0.049403  1
  Pb  Pb9  1  0.973837  0.250000  0.049403  1
  Pb  Pb10  1  0.749999  0.136603  0.338287  1
  Pb  Pb11  1  0.749999  0.363398  0.338287  1
  Pb  Pb12  1  0.250000  0.636602  0.661712  1
  Pb  Pb13  1  0.250000  0.863397  0.661712  1
  Pb  Pb14  1  0.026162  0.750000  0.950596  1
  Pb  Pb15  1  0.473836  0.750000  0.950596  1
