# generated using pymatgen
data_Tb6Al21Si3(Os3Ru)2
_symmetry_space_group_name_H-M   'P 1'
_cell_length_a   8.72281400
_cell_length_b   8.72281528
_cell_length_c   9.65047600
_cell_angle_alpha   90.00000000
_cell_angle_beta   90.00000000
_cell_angle_gamma   119.99999513
_symmetry_Int_Tables_number   1
_chemical_formula_structural   Tb6Al21Si3(Os3Ru)2
_chemical_formula_sum   'Tb6 Al21 Si3 Os6 Ru2'
_cell_volume   635.90563856
_cell_formula_units_Z   1
loop_
 _symmetry_equiv_pos_site_id
 _symmetry_equiv_pos_as_xyz
  1  'x, y, z'
loop_
 _atom_site_type_symbol
 _atom_site_label
 _atom_site_symmetry_multiplicity
 _atom_site_fract_x
 _atom_site_fract_y
 _atom_site_fract_z
 _atom_site_occupancy
  Tb  Tb0  1  0.194536  0.389072  0.247233  1
  Tb  Tb1  1  0.805109  0.610219  0.753324  1
  Tb  Tb2  1  0.610928  0.805464  0.247233  1
  Tb  Tb3  1  0.389781  0.194891  0.753324  1
  Tb  Tb4  1  0.194536  0.805464  0.247233  1
  Tb  Tb5  1  0.805109  0.194891  0.753324  1
  Al  Al6  1  0.333333  0.666667  0.478235  1
  Al  Al7  1  0.163696  0.327390  0.574176  1
  Al  Al8  1  0.835462  0.670926  0.423286  1
  Al  Al9  1  0.672610  0.836304  0.574176  1
  Al  Al10  1  0.835350  0.670703  0.077377  1
  Al  Al11  1  0.329074  0.164538  0.423286  1
  Al  Al12  1  0.165147  0.330292  0.922745  1
  Al  Al13  1  0.163696  0.836304  0.574176  1
  Al  Al14  1  0.329297  0.164650  0.077377  1
  Al  Al15  1  0.835462  0.164538  0.423286  1
  Al  Al16  1  0.669708  0.834853  0.922745  1
  Al  Al17  1  0.835350  0.164650  0.077377  1
  Al  Al18  1  0.165147  0.834853  0.922745  1
  Al  Al19  1  0.563561  0.127121  0.248606  1
  Al  Al20  1  0.436865  0.873731  0.748714  1
  Al  Al21  1  0.872879  0.436439  0.248606  1
  Al  Al22  1  0.126269  0.563135  0.748714  1
  Al  Al23  1  0.563561  0.436439  0.248606  1
  Al  Al24  1  0.436865  0.563135  0.748714  1
  Al  Al25  1  0.000000  0.000000  0.248854  1
  Al  Al26  1  0.000000  0.000000  0.749614  1
  Si  Si27  1  0.333333  0.666667  0.036733  1
  Si  Si28  1  0.666667  0.333333  0.963671  1
  Si  Si29  1  0.666667  0.333333  0.538307  1
  Os  Os30  1  0.499938  0.999877  0.998813  1
  Os  Os31  1  0.000123  0.500062  0.998813  1
  Os  Os32  1  0.504286  0.008572  0.501164  1
  Os  Os33  1  0.499938  0.500062  0.998813  1
  Os  Os34  1  0.991428  0.495714  0.501164  1
  Os  Os35  1  0.504286  0.495714  0.501164  1
  Ru  Ru36  1  0.000000  0.000000  0.998879  1
  Ru  Ru37  1  0.000000  0.000000  0.499388  1
