# generated using pymatgen
data_YbNb2O4
_symmetry_space_group_name_H-M   'P 1'
_cell_length_a   5.10418900
_cell_length_b   5.89431000
_cell_length_c   11.80870100
_cell_angle_alpha   90.00000000
_cell_angle_beta   90.00000000
_cell_angle_gamma   90.00000000
_symmetry_Int_Tables_number   1
_chemical_formula_structural   YbNb2O4
_chemical_formula_sum   'Yb4 Nb8 O16'
_cell_volume   355.27270816
_cell_formula_units_Z   4
loop_
 _symmetry_equiv_pos_site_id
 _symmetry_equiv_pos_as_xyz
  1  'x, y, z'
loop_
 _atom_site_type_symbol
 _atom_site_label
 _atom_site_symmetry_multiplicity
 _atom_site_fract_x
 _atom_site_fract_y
 _atom_site_fract_z
 _atom_site_occupancy
  Yb  Yb0  1  0.687179  0.250000  0.495238  1
  Yb  Yb1  1  0.687179  0.750000  0.004762  1
  Yb  Yb2  1  0.312821  0.750000  0.504762  1
  Yb  Yb3  1  0.312821  0.250000  0.995238  1
  Nb  Nb4  1  0.844199  0.000000  0.250000  1
  Nb  Nb5  1  0.155801  0.500000  0.750000  1
  Nb  Nb6  1  0.155801  0.000000  0.750000  1
  Nb  Nb7  1  0.844199  0.500000  0.250000  1
  Nb  Nb8  1  0.659030  0.750000  0.746115  1
  Nb  Nb9  1  0.659030  0.250000  0.753885  1
  Nb  Nb10  1  0.340970  0.250000  0.253885  1
  Nb  Nb11  1  0.340970  0.750000  0.246115  1
  O  O12  1  0.984579  0.750000  0.859088  1
  O  O13  1  0.984579  0.250000  0.640912  1
  O  O14  1  0.015421  0.250000  0.140912  1
  O  O15  1  0.015421  0.750000  0.359088  1
  O  O16  1  0.994282  0.750000  0.637413  1
  O  O17  1  0.994282  0.250000  0.862587  1
  O  O18  1  0.005718  0.250000  0.362587  1
  O  O19  1  0.005718  0.750000  0.137413  1
  O  O20  1  0.507670  0.995128  0.365110  1
  O  O21  1  0.507670  0.004872  0.134890  1
  O  O22  1  0.492330  0.495128  0.634890  1
  O  O23  1  0.492330  0.504872  0.865110  1
  O  O24  1  0.507670  0.495128  0.134890  1
  O  O25  1  0.507670  0.504872  0.365110  1
  O  O26  1  0.492330  0.995128  0.865110  1
  O  O27  1  0.492330  0.004872  0.634890  1
