# generated using pymatgen
data_Pr8Y9Tm3Si16
_symmetry_space_group_name_H-M   'P 1'
_cell_length_a   7.52367910
_cell_length_b   7.81662210
_cell_length_c   14.88512700
_cell_angle_alpha   90.00000000
_cell_angle_beta   90.00000000
_cell_angle_gamma   90.01845070
_symmetry_Int_Tables_number   1
_chemical_formula_structural   Pr8Y9Tm3Si16
_chemical_formula_sum   'Pr8 Y9 Tm3 Si16'
_cell_volume   875.39064623
_cell_formula_units_Z   1
loop_
 _symmetry_equiv_pos_site_id
 _symmetry_equiv_pos_as_xyz
  1  'x, y, z'
loop_
 _atom_site_type_symbol
 _atom_site_label
 _atom_site_symmetry_multiplicity
 _atom_site_fract_x
 _atom_site_fract_y
 _atom_site_fract_z
 _atom_site_occupancy
  Pr  Pr0  1  0.023198  0.179074  0.401904  1
  Pr  Pr1  1  0.523187  0.320943  0.401931  1
  Pr  Pr2  1  0.477144  0.679360  0.902124  1
  Pr  Pr3  1  0.477144  0.679360  0.597876  1
  Pr  Pr4  1  0.976602  0.821051  0.597926  1
  Pr  Pr5  1  0.976602  0.821051  0.902074  1
  Pr  Pr6  1  0.523187  0.320943  0.098069  1
  Pr  Pr7  1  0.023198  0.179074  0.098096  1
  Y  Y8  1  0.321783  0.179114  0.622950  1
  Y  Y9  1  0.678551  0.820571  0.376950  1
  Y  Y10  1  0.178650  0.679445  0.376923  1
  Y  Y11  1  0.821081  0.320374  0.877055  1
  Y  Y12  1  0.821081  0.320374  0.622945  1
  Y  Y13  1  0.321783  0.179114  0.877050  1
  Y  Y14  1  0.178650  0.679445  0.123077  1
  Y  Y15  1  0.678551  0.820571  0.123050  1
  Y  Y16  1  0.152182  0.511584  0.750000  1
  Tm  Tm17  1  0.652589  0.987998  0.750000  1
  Tm  Tm18  1  0.847430  0.488171  0.250000  1
  Tm  Tm19  1  0.347465  0.011778  0.250000  1
  Si  Si20  1  0.271213  0.880739  0.750000  1
  Si  Si21  1  0.473606  0.610861  0.250000  1
  Si  Si22  1  0.026412  0.110645  0.750000  1
  Si  Si23  1  0.527660  0.388767  0.750000  1
  Si  Si24  1  0.144862  0.469609  0.539486  1
  Si  Si25  1  0.973600  0.889039  0.250000  1
  Si  Si26  1  0.728919  0.120687  0.250000  1
  Si  Si27  1  0.855093  0.530189  0.039989  1
  Si  Si28  1  0.355053  0.969822  0.039950  1
  Si  Si29  1  0.144862  0.469609  0.960514  1
  Si  Si30  1  0.644908  0.030218  0.539914  1
  Si  Si31  1  0.355053  0.969822  0.460050  1
  Si  Si32  1  0.855093  0.530189  0.460011  1
  Si  Si33  1  0.769679  0.620884  0.750000  1
  Si  Si34  1  0.229023  0.379305  0.250000  1
  Si  Si35  1  0.644908  0.030218  0.960086  1
