# generated using pymatgen
data_AcYbNpO6
_symmetry_space_group_name_H-M   'P 1'
_cell_length_a   5.57402500
_cell_length_b   7.87801652
_cell_length_c   11.83788700
_cell_angle_alpha   74.10913681
_cell_angle_beta   90.00000000
_cell_angle_gamma   90.00000000
_symmetry_Int_Tables_number   1
_chemical_formula_structural   AcYbNpO6
_chemical_formula_sum   'Ac4 Yb4 Np4 O24'
_cell_volume   499.96313449
_cell_formula_units_Z   4
loop_
 _symmetry_equiv_pos_site_id
 _symmetry_equiv_pos_as_xyz
  1  'x, y, z'
loop_
 _atom_site_type_symbol
 _atom_site_label
 _atom_site_symmetry_multiplicity
 _atom_site_fract_x
 _atom_site_fract_y
 _atom_site_fract_z
 _atom_site_occupancy
  Ac  Ac0  1  0.688651  0.500000  0.250000  1
  Ac  Ac1  1  0.311349  0.500000  0.750000  1
  Ac  Ac2  1  0.744451  0.000000  0.250000  1
  Ac  Ac3  1  0.255549  0.000000  0.750000  1
  Yb  Yb4  1  0.188120  0.203124  0.417223  1
  Yb  Yb5  1  0.188120  0.796876  0.082777  1
  Yb  Yb6  1  0.811880  0.796876  0.582777  1
  Yb  Yb7  1  0.811880  0.203124  0.917223  1
  Np  Np8  1  0.248990  0.283868  0.104821  1
  Np  Np9  1  0.248990  0.716132  0.395179  1
  Np  Np10  1  0.751010  0.716132  0.895179  1
  Np  Np11  1  0.751010  0.283868  0.604821  1
  O  O12  1  0.436004  0.215852  0.262064  1
  O  O13  1  0.436004  0.784148  0.237936  1
  O  O14  1  0.563996  0.784148  0.737936  1
  O  O15  1  0.563996  0.215852  0.762064  1
  O  O16  1  0.064521  0.069039  0.094597  1
  O  O17  1  0.064521  0.930961  0.405403  1
  O  O18  1  0.935479  0.930961  0.905403  1
  O  O19  1  0.935479  0.069039  0.594597  1
  O  O20  1  0.980770  0.279386  0.229053  1
  O  O21  1  0.980770  0.720614  0.270947  1
  O  O22  1  0.019230  0.720614  0.770947  1
  O  O23  1  0.019230  0.279386  0.729053  1
  O  O24  1  0.886768  0.378039  0.444791  1
  O  O25  1  0.886768  0.621961  0.055209  1
  O  O26  1  0.113232  0.621961  0.555209  1
  O  O27  1  0.113232  0.378039  0.944791  1
  O  O28  1  0.632726  0.520051  0.601299  1
  O  O29  1  0.632726  0.479949  0.898701  1
  O  O30  1  0.367274  0.479949  0.398701  1
  O  O31  1  0.367274  0.520051  0.101299  1
  O  O32  1  0.465987  0.158874  0.559593  1
  O  O33  1  0.465987  0.841126  0.940407  1
  O  O34  1  0.534013  0.841126  0.440407  1
  O  O35  1  0.534013  0.158874  0.059593  1
