# generated using pymatgen
data_LiNd16Cd3Co3Ir
_symmetry_space_group_name_H-M   'P 1'
_cell_length_a   9.88427872
_cell_length_b   9.82552783
_cell_length_c   9.82552807
_cell_angle_alpha   59.90358938
_cell_angle_beta   60.10727489
_cell_angle_gamma   60.10728157
_symmetry_Int_Tables_number   1
_chemical_formula_structural   LiNd16Cd3Co3Ir
_chemical_formula_sum   'Li1 Nd16 Cd3 Co3 Ir1'
_cell_volume   675.34491293
_cell_formula_units_Z   1
loop_
 _symmetry_equiv_pos_site_id
 _symmetry_equiv_pos_as_xyz
  1  'x, y, z'
loop_
 _atom_site_type_symbol
 _atom_site_label
 _atom_site_symmetry_multiplicity
 _atom_site_fract_x
 _atom_site_fract_y
 _atom_site_fract_z
 _atom_site_occupancy
  Li  Li0  1  0.570845  0.570623  0.570623  1
  Nd  Nd1  1  0.341442  0.350354  0.350354  1
  Nd  Nd2  1  0.341603  0.349575  0.959751  1
  Nd  Nd3  1  0.341603  0.959751  0.349575  1
  Nd  Nd4  1  0.962538  0.346289  0.346289  1
  Nd  Nd5  1  0.815475  0.190858  0.190858  1
  Nd  Nd6  1  0.188058  0.812277  0.812277  1
  Nd  Nd7  1  0.191320  0.810578  0.189350  1
  Nd  Nd8  1  0.817224  0.187099  0.806573  1
  Nd  Nd9  1  0.191320  0.189350  0.810578  1
  Nd  Nd10  1  0.817224  0.806573  0.187099  1
  Nd  Nd11  1  0.937240  0.562133  0.562133  1
  Nd  Nd12  1  0.561861  0.939302  0.939302  1
  Nd  Nd13  1  0.562497  0.938720  0.559226  1
  Nd  Nd14  1  0.937696  0.561986  0.938001  1
  Nd  Nd15  1  0.562497  0.559226  0.938720  1
  Nd  Nd16  1  0.937696  0.938001  0.561986  1
  Cd  Cd17  1  0.580953  0.580686  0.260219  1
  Cd  Cd18  1  0.580953  0.260219  0.580686  1
  Cd  Cd19  1  0.259368  0.581071  0.581071  1
  Co  Co20  1  0.140675  0.142152  0.142152  1
  Co  Co21  1  0.141376  0.142676  0.578124  1
  Co  Co22  1  0.141376  0.578124  0.142676  1
  Ir  Ir23  1  0.577161  0.142376  0.142376  1
