# generated using pymatgen
data_Ti16Co7Rh
_symmetry_space_group_name_H-M   'P 1'
_cell_length_a   8.00036613
_cell_length_b   7.96246419
_cell_length_c   7.96246400
_cell_angle_alpha   60.00000081
_cell_angle_beta   60.15659353
_cell_angle_gamma   60.15659565
_symmetry_Int_Tables_number   1
_chemical_formula_structural   Ti16Co7Rh
_chemical_formula_sum   'Ti16 Co7 Rh1'
_cell_volume   359.51228874
_cell_formula_units_Z   1
loop_
 _symmetry_equiv_pos_site_id
 _symmetry_equiv_pos_as_xyz
  1  'x, y, z'
loop_
 _atom_site_type_symbol
 _atom_site_label
 _atom_site_symmetry_multiplicity
 _atom_site_fract_x
 _atom_site_fract_y
 _atom_site_fract_z
 _atom_site_occupancy
  Ti  Ti0  1  0.096996  0.634335  0.634335  1
  Ti  Ti1  1  0.635005  0.083392  0.640801  1
  Ti  Ti2  1  0.635005  0.640801  0.083392  1
  Ti  Ti3  1  0.635005  0.640801  0.640801  1
  Ti  Ti4  1  0.806141  0.808383  0.192738  1
  Ti  Ti5  1  0.191967  0.194244  0.806894  1
  Ti  Ti6  1  0.806141  0.192738  0.808383  1
  Ti  Ti7  1  0.191967  0.806894  0.194244  1
  Ti  Ti8  1  0.191967  0.806894  0.806894  1
  Ti  Ti9  1  0.806141  0.192738  0.192738  1
  Ti  Ti10  1  0.435450  0.435428  0.064561  1
  Ti  Ti11  1  0.069415  0.059449  0.435568  1
  Ti  Ti12  1  0.435450  0.064561  0.435428  1
  Ti  Ti13  1  0.069415  0.435568  0.059449  1
  Ti  Ti14  1  0.069415  0.435568  0.435568  1
  Ti  Ti15  1  0.435450  0.064561  0.064561  1
  Co  Co16  1  0.413216  0.755238  0.415773  1
  Co  Co17  1  0.413216  0.415773  0.755238  1
  Co  Co18  1  0.413216  0.415773  0.415773  1
  Co  Co19  1  0.435008  0.854998  0.854998  1
  Co  Co20  1  0.855885  0.441582  0.851267  1
  Co  Co21  1  0.855885  0.851267  0.441582  1
  Co  Co22  1  0.855885  0.851267  0.851267  1
  Rh  Rh23  1  0.746758  0.417747  0.417747  1
