# generated using pymatgen
data_Ce8AlCo2Si12Rh
_symmetry_space_group_name_H-M   'P 1'
_cell_length_a   8.13264102
_cell_length_b   8.13338948
_cell_length_c   8.28283931
_cell_angle_alpha   90.08579199
_cell_angle_beta   90.06064386
_cell_angle_gamma   119.99776500
_symmetry_Int_Tables_number   1
_chemical_formula_structural   Ce8AlCo2Si12Rh
_chemical_formula_sum   'Ce8 Al1 Co2 Si12 Rh1'
_cell_volume   474.48379869
_cell_formula_units_Z   1
loop_
 _symmetry_equiv_pos_site_id
 _symmetry_equiv_pos_as_xyz
  1  'x, y, z'
loop_
 _atom_site_type_symbol
 _atom_site_label
 _atom_site_symmetry_multiplicity
 _atom_site_fract_x
 _atom_site_fract_y
 _atom_site_fract_z
 _atom_site_occupancy
  Ce  Ce0  1  0.000008  0.000007  0.250075  1
  Ce  Ce1  1  0.999995  0.000004  0.750274  1
  Ce  Ce2  1  0.504577  0.495392  0.246985  1
  Ce  Ce3  1  0.504546  0.009122  0.246995  1
  Ce  Ce4  1  0.990841  0.495431  0.247000  1
  Ce  Ce5  1  0.504219  0.495744  0.752496  1
  Ce  Ce6  1  0.504267  0.008527  0.752516  1
  Ce  Ce7  1  0.991563  0.495770  0.752533  1
  Al  Al8  1  0.333446  0.666694  0.497163  1
  Co  Co9  1  0.666657  0.333337  0.503923  1
  Co  Co10  1  0.666593  0.333316  0.999066  1
  Si  Si11  1  0.162568  0.837556  0.500550  1
  Si  Si12  1  0.162563  0.325004  0.500645  1
  Si  Si13  1  0.675004  0.837504  0.500479  1
  Si  Si14  1  0.827541  0.172371  0.499412  1
  Si  Si15  1  0.827530  0.655137  0.499497  1
  Si  Si16  1  0.344892  0.172433  0.499347  1
  Si  Si17  1  0.830242  0.169647  0.999934  1
  Si  Si18  1  0.830235  0.660587  0.999881  1
  Si  Si19  1  0.339416  0.169708  0.999943  1
  Si  Si20  1  0.165536  0.834536  0.000174  1
  Si  Si21  1  0.165550  0.331048  0.000112  1
  Si  Si22  1  0.668899  0.834462  0.000200  1
  Rh  Rh23  1  0.333309  0.666666  0.000800  1
