# generated using pymatgen
data_Ho4Al18Ir2Pd3Rh
_symmetry_space_group_name_H-M   'P 1'
_cell_length_a   7.59818660
_cell_length_b   7.59818656
_cell_length_c   9.43010536
_cell_angle_alpha   89.99620914
_cell_angle_beta   89.99620884
_cell_angle_gamma   119.67615448
_symmetry_Int_Tables_number   1
_chemical_formula_structural   Ho4Al18Ir2Pd3Rh
_chemical_formula_sum   'Ho4 Al18 Ir2 Pd3 Rh1'
_cell_volume   473.01517813
_cell_formula_units_Z   1
loop_
 _symmetry_equiv_pos_site_id
 _symmetry_equiv_pos_as_xyz
  1  'x, y, z'
loop_
 _atom_site_type_symbol
 _atom_site_label
 _atom_site_symmetry_multiplicity
 _atom_site_fract_x
 _atom_site_fract_y
 _atom_site_fract_z
 _atom_site_occupancy
  Ho  Ho0  1  0.996056  0.669839  0.249520  1
  Ho  Ho1  1  0.005487  0.331042  0.750391  1
  Ho  Ho2  1  0.668958  0.994513  0.249609  1
  Ho  Ho3  1  0.330161  0.003944  0.750480  1
  Al  Al4  1  0.125403  0.126280  0.250275  1
  Al  Al5  1  0.873720  0.874597  0.749725  1
  Al  Al6  1  0.995980  0.330709  0.075321  1
  Al  Al7  1  0.997280  0.665237  0.924784  1
  Al  Al8  1  0.999152  0.668963  0.577226  1
  Al  Al9  1  0.331037  0.000848  0.422774  1
  Al  Al10  1  0.000204  0.331134  0.423374  1
  Al  Al11  1  0.668866  0.999796  0.576626  1
  Al  Al12  1  0.669291  0.004020  0.924679  1
  Al  Al13  1  0.334763  0.002720  0.075216  1
  Al  Al14  1  0.330338  0.330274  0.556556  1
  Al  Al15  1  0.669726  0.669663  0.443444  1
  Al  Al16  1  0.670370  0.667521  0.052814  1
  Al  Al17  1  0.332480  0.329630  0.947186  1
  Al  Al18  1  0.340059  0.545966  0.249275  1
  Al  Al19  1  0.659113  0.451820  0.752288  1
  Al  Al20  1  0.548180  0.340887  0.247712  1
  Al  Al21  1  0.454034  0.659941  0.750725  1
  Ir  Ir22  1  0.672063  0.327937  0.000000  1
  Ir  Ir23  1  0.000309  0.999691  0.000000  1
  Pd  Pd24  1  0.327396  0.672604  0.000000  1
  Pd  Pd25  1  0.327290  0.672710  0.500000  1
  Pd  Pd26  1  0.672360  0.327640  0.500000  1
  Rh  Rh27  1  0.999923  0.000077  0.500000  1
