# generated using pymatgen
data_TiAl3(SiRh5)2
_symmetry_space_group_name_H-M   'P 1'
_cell_length_a   4.07271300
_cell_length_b   5.31759388
_cell_length_c   10.18284355
_cell_angle_alpha   88.88231861
_cell_angle_beta   90.00000000
_cell_angle_gamma   90.00000000
_symmetry_Int_Tables_number   1
_chemical_formula_structural   TiAl3(SiRh5)2
_chemical_formula_sum   'Ti1 Al3 Si2 Rh10'
_cell_volume   220.48822826
_cell_formula_units_Z   1
loop_
 _symmetry_equiv_pos_site_id
 _symmetry_equiv_pos_as_xyz
  1  'x, y, z'
loop_
 _atom_site_type_symbol
 _atom_site_label
 _atom_site_symmetry_multiplicity
 _atom_site_fract_x
 _atom_site_fract_y
 _atom_site_fract_z
 _atom_site_occupancy
  Ti  Ti0  1  0.500000  0.143389  0.640371  1
  Al  Al1  1  0.500000  0.861280  0.356887  1
  Al  Al2  1  0.500000  0.644073  0.859225  1
  Al  Al3  1  0.500000  0.363144  0.139848  1
  Si  Si4  1  0.000000  0.481249  0.501154  1
  Si  Si5  1  0.000000  0.997868  0.001013  1
  Rh  Rh6  1  0.500000  0.329981  0.392892  1
  Rh  Rh7  1  0.500000  0.664479  0.603998  1
  Rh  Rh8  1  0.500000  0.832573  0.106592  1
  Rh  Rh9  1  0.500000  0.171794  0.894481  1
  Rh  Rh10  1  0.000000  0.381653  0.732269  1
  Rh  Rh11  1  0.000000  0.626699  0.274095  1
  Rh  Rh12  1  0.000000  0.882200  0.773180  1
  Rh  Rh13  1  0.000000  0.129135  0.225016  1
  Rh  Rh14  1  0.000000  0.503305  0.001271  1
  Rh  Rh15  1  0.000000  0.987178  0.497708  1
