# generated using pymatgen
data_HoZr7Ti8(NbSi4)4
_symmetry_space_group_name_H-M   'P 1'
_cell_length_a   6.88839005
_cell_length_b   6.88812707
_cell_length_c   12.67595600
_cell_angle_alpha   90.00710361
_cell_angle_beta   89.99337909
_cell_angle_gamma   90.00399348
_symmetry_Int_Tables_number   1
_chemical_formula_structural   HoZr7Ti8(NbSi4)4
_chemical_formula_sum   'Ho1 Zr7 Ti8 Nb4 Si16'
_cell_volume   601.45009311
_cell_formula_units_Z   1
loop_
 _symmetry_equiv_pos_site_id
 _symmetry_equiv_pos_as_xyz
  1  'x, y, z'
loop_
 _atom_site_type_symbol
 _atom_site_label
 _atom_site_symmetry_multiplicity
 _atom_site_fract_x
 _atom_site_fract_y
 _atom_site_fract_z
 _atom_site_occupancy
  Ho  Ho0  1  0.998142  0.660036  0.031541  1
  Zr  Zr1  1  0.341914  0.997327  0.468498  1
  Zr  Zr2  1  0.502538  0.842607  0.717653  1
  Zr  Zr3  1  0.496825  0.158094  0.219879  1
  Zr  Zr4  1  0.842519  0.502643  0.282237  1
  Zr  Zr5  1  0.158379  0.497115  0.781554  1
  Zr  Zr6  1  0.655189  0.003659  0.967118  1
  Zr  Zr7  1  0.997739  0.342715  0.531686  1
  Ti  Ti8  1  0.155474  0.004961  0.870818  1
  Ti  Ti9  1  0.495120  0.652035  0.123676  1
  Ti  Ti10  1  0.505620  0.347467  0.622314  1
  Ti  Ti11  1  0.652590  0.491963  0.876072  1
  Ti  Ti12  1  0.347151  0.505572  0.378347  1
  Ti  Ti13  1  0.847268  0.995518  0.373687  1
  Ti  Ti14  1  0.006982  0.152984  0.128474  1
  Ti  Ti15  1  0.994554  0.848016  0.626617  1
  Nb  Nb16  1  0.330760  0.326765  0.999669  1
  Nb  Nb17  1  0.171973  0.829973  0.251395  1
  Nb  Nb18  1  0.828835  0.170823  0.748846  1
  Nb  Nb19  1  0.670926  0.671003  0.500032  1
  Si  Si20  1  0.207191  0.134343  0.676010  1
  Si  Si21  1  0.369641  0.707161  0.925863  1
  Si  Si22  1  0.633975  0.293167  0.426637  1
  Si  Si23  1  0.704384  0.362197  0.073217  1
  Si  Si24  1  0.292424  0.633981  0.573561  1
  Si  Si25  1  0.790284  0.869372  0.179794  1
  Si  Si26  1  0.134109  0.207193  0.324362  1
  Si  Si27  1  0.864317  0.794971  0.820133  1
  Si  Si28  1  0.296781  0.954899  0.062846  1
  Si  Si29  1  0.545760  0.794602  0.313464  1
  Si  Si30  1  0.453661  0.205151  0.811494  1
  Si  Si31  1  0.794677  0.546384  0.686914  1
  Si  Si32  1  0.207064  0.452858  0.188759  1
  Si  Si33  1  0.705208  0.046935  0.562089  1
  Si  Si34  1  0.953682  0.289470  0.936943  1
  Si  Si35  1  0.046350  0.706036  0.437803  1
