# generated using pymatgen
data_La4Pr6OsRu3
_symmetry_space_group_name_H-M   'P 1'
_cell_length_a   9.08861055
_cell_length_b   9.10735717
_cell_length_c   7.39475924
_cell_angle_alpha   84.26788641
_cell_angle_beta   84.31860464
_cell_angle_gamma   43.38300536
_symmetry_Int_Tables_number   1
_chemical_formula_structural   La4Pr6OsRu3
_chemical_formula_sum   'La4 Pr6 Os1 Ru3'
_cell_volume   418.01148589
_cell_formula_units_Z   1
loop_
 _symmetry_equiv_pos_site_id
 _symmetry_equiv_pos_as_xyz
  1  'x, y, z'
loop_
 _atom_site_type_symbol
 _atom_site_label
 _atom_site_symmetry_multiplicity
 _atom_site_fract_x
 _atom_site_fract_y
 _atom_site_fract_z
 _atom_site_occupancy
  La  La0  1  0.012501  0.800651  0.909237  1
  La  La1  1  0.201952  0.984297  0.596199  1
  La  La2  1  0.985283  0.202282  0.095839  1
  La  La3  1  0.797712  0.014837  0.405377  1
  Pr  Pr4  1  0.359704  0.212070  0.816811  1
  Pr  Pr5  1  0.792273  0.639383  0.681142  1
  Pr  Pr6  1  0.638317  0.790454  0.182202  1
  Pr  Pr7  1  0.209692  0.360366  0.318123  1
  Pr  Pr8  1  0.571456  0.427620  0.749753  1
  Pr  Pr9  1  0.425609  0.573740  0.251760  1
  Os  Os10  1  0.169184  0.608682  0.581208  1
  Ru  Ru11  1  0.384383  0.837464  0.913270  1
  Ru  Ru12  1  0.837265  0.384613  0.413006  1
  Ru  Ru13  1  0.614667  0.163542  0.086074  1
