# generated using pymatgen
data_Dy3YAl4IrPt3
_symmetry_space_group_name_H-M   'P 1'
_cell_length_a   4.42356000
_cell_length_b   6.84030490
_cell_length_c   7.79149607
_cell_angle_alpha   90.06903980
_cell_angle_beta   90.00000000
_cell_angle_gamma   90.00000000
_symmetry_Int_Tables_number   1
_chemical_formula_structural   Dy3YAl4IrPt3
_chemical_formula_sum   'Dy3 Y1 Al4 Ir1 Pt3'
_cell_volume   235.75880606
_cell_formula_units_Z   1
loop_
 _symmetry_equiv_pos_site_id
 _symmetry_equiv_pos_as_xyz
  1  'x, y, z'
loop_
 _atom_site_type_symbol
 _atom_site_label
 _atom_site_symmetry_multiplicity
 _atom_site_fract_x
 _atom_site_fract_y
 _atom_site_fract_z
 _atom_site_occupancy
  Dy  Dy0  1  0.750000  0.532147  0.817296  1
  Dy  Dy1  1  0.750000  0.024871  0.680156  1
  Dy  Dy2  1  0.250000  0.967026  0.321261  1
  Y  Y3  1  0.250000  0.470101  0.181031  1
  Al  Al4  1  0.250000  0.853335  0.936020  1
  Al  Al5  1  0.750000  0.145631  0.061782  1
  Al  Al6  1  0.750000  0.645177  0.438790  1
  Al  Al7  1  0.250000  0.359775  0.563391  1
  Ir  Ir8  1  0.250000  0.731160  0.617728  1
  Pt  Pt9  1  0.750000  0.271113  0.382231  1
  Pt  Pt10  1  0.750000  0.773356  0.118371  1
  Pt  Pt11  1  0.250000  0.226307  0.881941  1
