# generated using pymatgen
data_Li2Dy2As6Ir7
_symmetry_space_group_name_H-M   'P 1'
_cell_length_a   7.19597086
_cell_length_b   7.19597140
_cell_length_c   7.10755924
_cell_angle_alpha   109.23727762
_cell_angle_beta   109.23728152
_cell_angle_gamma   110.43436163
_symmetry_Int_Tables_number   1
_chemical_formula_structural   Li2Dy2As6Ir7
_chemical_formula_sum   'Li2 Dy2 As6 Ir7'
_cell_volume   281.54434926
_cell_formula_units_Z   1
loop_
 _symmetry_equiv_pos_site_id
 _symmetry_equiv_pos_as_xyz
  1  'x, y, z'
loop_
 _atom_site_type_symbol
 _atom_site_label
 _atom_site_symmetry_multiplicity
 _atom_site_fract_x
 _atom_site_fract_y
 _atom_site_fract_z
 _atom_site_occupancy
  Li  Li0  1  0.500000  0.000000  0.000000  1
  Li  Li1  1  0.000000  0.500000  0.000000  1
  Dy  Dy2  1  0.000000  0.000000  0.500000  1
  Dy  Dy3  1  0.500000  0.500000  0.500000  1
  As  As4  1  0.684789  0.684789  0.000000  1
  As  As5  1  0.315211  0.315211  0.000000  1
  As  As6  1  0.014130  0.684533  0.698664  1
  As  As7  1  0.985870  0.315467  0.301336  1
  As  As8  1  0.684533  0.014130  0.698664  1
  As  As9  1  0.315467  0.985870  0.301336  1
  Ir  Ir10  1  0.000000  0.000000  0.000000  1
  Ir  Ir11  1  0.250814  0.502791  0.753605  1
  Ir  Ir12  1  0.750000  0.250000  0.500000  1
  Ir  Ir13  1  0.502791  0.250814  0.753605  1
  Ir  Ir14  1  0.497209  0.749186  0.246395  1
  Ir  Ir15  1  0.749186  0.497209  0.246395  1
  Ir  Ir16  1  0.250000  0.750000  0.500000  1
