# generated using pymatgen
data_Zr4Ti3CrP4
_symmetry_space_group_name_H-M   'P 1'
_cell_length_a   3.55457400
_cell_length_b   6.72998609
_cell_length_c   8.09658611
_cell_angle_alpha   90.06262827
_cell_angle_beta   90.00000000
_cell_angle_gamma   90.00000000
_symmetry_Int_Tables_number   1
_chemical_formula_structural   Zr4Ti3CrP4
_chemical_formula_sum   'Zr4 Ti3 Cr1 P4'
_cell_volume   193.68830841
_cell_formula_units_Z   1
loop_
 _symmetry_equiv_pos_site_id
 _symmetry_equiv_pos_as_xyz
  1  'x, y, z'
loop_
 _atom_site_type_symbol
 _atom_site_label
 _atom_site_symmetry_multiplicity
 _atom_site_fract_x
 _atom_site_fract_y
 _atom_site_fract_z
 _atom_site_occupancy
  Zr  Zr0  1  0.250000  0.534121  0.167750  1
  Zr  Zr1  1  0.750000  0.456997  0.833870  1
  Zr  Zr2  1  0.750000  0.966888  0.672084  1
  Zr  Zr3  1  0.250000  0.037569  0.327229  1
  Ti  Ti4  1  0.250000  0.634172  0.561944  1
  Ti  Ti5  1  0.750000  0.361997  0.440127  1
  Ti  Ti6  1  0.750000  0.873730  0.056640  1
  Cr  Cr7  1  0.250000  0.133061  0.941933  1
  P  P8  1  0.250000  0.765255  0.862381  1
  P  P9  1  0.750000  0.236800  0.131229  1
  P  P10  1  0.750000  0.738110  0.361712  1
  P  P11  1  0.250000  0.261300  0.643099  1
