# generated using pymatgen
data_Tb4VReOs6
_symmetry_space_group_name_H-M   'P 1'
_cell_length_a   5.21558415
_cell_length_b   5.21558406
_cell_length_c   8.96118800
_cell_angle_alpha   90.00000000
_cell_angle_beta   90.00000000
_cell_angle_gamma   116.19441013
_symmetry_Int_Tables_number   1
_chemical_formula_structural   Tb4VReOs6
_chemical_formula_sum   'Tb4 V1 Re1 Os6'
_cell_volume   218.73075871
_cell_formula_units_Z   1
loop_
 _symmetry_equiv_pos_site_id
 _symmetry_equiv_pos_as_xyz
  1  'x, y, z'
loop_
 _atom_site_type_symbol
 _atom_site_label
 _atom_site_symmetry_multiplicity
 _atom_site_fract_x
 _atom_site_fract_y
 _atom_site_fract_z
 _atom_site_occupancy
  Tb  Tb0  1  0.330927  0.669073  0.435806  1
  Tb  Tb1  1  0.669172  0.330828  0.564383  1
  Tb  Tb2  1  0.669172  0.330828  0.935617  1
  Tb  Tb3  1  0.330927  0.669073  0.064194  1
  V  V4  1  0.835857  0.164143  0.250000  1
  Re  Re5  1  0.164396  0.835604  0.750000  1
  Os  Os6  1  0.000680  0.999320  0.498171  1
  Os  Os7  1  0.000680  0.999320  0.001829  1
  Os  Os8  1  0.824485  0.649950  0.250000  1
  Os  Os9  1  0.350050  0.175515  0.250000  1
  Os  Os10  1  0.171873  0.348218  0.750000  1
  Os  Os11  1  0.651782  0.828127  0.750000  1
