# generated using pymatgen
data_Li2SiS2O
_symmetry_space_group_name_H-M   'P 1'
_cell_length_a   13.27791400
_cell_length_b   4.93623665
_cell_length_c   6.53302839
_cell_angle_alpha   69.23601230
_cell_angle_beta   90.00000000
_cell_angle_gamma   90.00000000
_symmetry_Int_Tables_number   1
_chemical_formula_structural   Li2SiS2O
_chemical_formula_sum   'Li8 Si4 S8 O4'
_cell_volume   400.38204577
_cell_formula_units_Z   4
loop_
 _symmetry_equiv_pos_site_id
 _symmetry_equiv_pos_as_xyz
  1  'x, y, z'
loop_
 _atom_site_type_symbol
 _atom_site_label
 _atom_site_symmetry_multiplicity
 _atom_site_fract_x
 _atom_site_fract_y
 _atom_site_fract_z
 _atom_site_occupancy
  Li  Li0  1  0.464302  0.165689  0.172558  1
  Li  Li1  1  0.836124  0.025450  0.444794  1
  Li  Li2  1  0.035698  0.665689  0.172558  1
  Li  Li3  1  0.663876  0.525450  0.444794  1
  Li  Li4  1  0.336124  0.474550  0.555206  1
  Li  Li5  1  0.964302  0.334311  0.827442  1
  Li  Li6  1  0.163876  0.974550  0.555206  1
  Li  Li7  1  0.535698  0.834311  0.827442  1
  Si  Si8  1  0.683271  0.167933  0.021244  1
  Si  Si9  1  0.816729  0.667933  0.021244  1
  Si  Si10  1  0.183271  0.332067  0.978756  1
  Si  Si11  1  0.316729  0.832067  0.978756  1
  S  S12  1  0.066784  0.145205  0.199709  1
  S  S13  1  0.642324  0.068316  0.351165  1
  S  S14  1  0.433216  0.645205  0.199709  1
  S  S15  1  0.857676  0.568316  0.351165  1
  S  S16  1  0.142324  0.431684  0.648835  1
  S  S17  1  0.566784  0.354795  0.800291  1
  S  S18  1  0.357676  0.931684  0.648835  1
  S  S19  1  0.933216  0.854795  0.800291  1
  O  O20  1  0.287954  0.131793  0.030004  1
  O  O21  1  0.212046  0.631793  0.030004  1
  O  O22  1  0.787954  0.368207  0.969996  1
  O  O23  1  0.712046  0.868207  0.969996  1
