# generated using pymatgen
data_La16Cd4IrPdRu2
_symmetry_space_group_name_H-M   'P 1'
_cell_length_a   10.16897435
_cell_length_b   10.16897316
_cell_length_c   10.11510113
_cell_angle_alpha   59.76641535
_cell_angle_beta   59.76641973
_cell_angle_gamma   59.95451961
_symmetry_Int_Tables_number   1
_chemical_formula_structural   La16Cd4IrPdRu2
_chemical_formula_sum   'La16 Cd4 Ir1 Pd1 Ru2'
_cell_volume   736.74750599
_cell_formula_units_Z   1
loop_
 _symmetry_equiv_pos_site_id
 _symmetry_equiv_pos_as_xyz
  1  'x, y, z'
loop_
 _atom_site_type_symbol
 _atom_site_label
 _atom_site_symmetry_multiplicity
 _atom_site_fract_x
 _atom_site_fract_y
 _atom_site_fract_z
 _atom_site_occupancy
  La  La0  1  0.899725  0.899725  0.908445  1
  La  La1  1  0.438489  0.438489  0.061445  1
  La  La2  1  0.057920  0.057920  0.436328  1
  La  La3  1  0.441729  0.061623  0.059867  1
  La  La4  1  0.309509  0.689313  0.310989  1
  La  La5  1  0.689157  0.689157  0.310610  1
  La  La6  1  0.689313  0.309509  0.310989  1
  La  La7  1  0.294617  0.898478  0.907022  1
  La  La8  1  0.898478  0.294617  0.907022  1
  La  La9  1  0.310104  0.686358  0.691746  1
  La  La10  1  0.903657  0.903657  0.288702  1
  La  La11  1  0.061623  0.441729  0.059867  1
  La  La12  1  0.310457  0.310457  0.691637  1
  La  La13  1  0.059535  0.449868  0.432402  1
  La  La14  1  0.449868  0.059535  0.432402  1
  La  La15  1  0.686358  0.310104  0.691746  1
  Cd  Cd16  1  0.670643  0.670643  0.988233  1
  Cd  Cd17  1  0.988322  0.670514  0.670750  1
  Cd  Cd18  1  0.670514  0.988322  0.670750  1
  Cd  Cd19  1  0.670796  0.670796  0.671000  1
  Ir  Ir20  1  0.110434  0.110434  0.106760  1
  Pd  Pd21  1  0.109278  0.109278  0.672318  1
  Ru  Ru22  1  0.112129  0.667349  0.109485  1
  Ru  Ru23  1  0.667349  0.112129  0.109485  1
