# generated using pymatgen
data_Mg3In9Co4
_symmetry_space_group_name_H-M   'P 1'
_cell_length_a   6.96456688
_cell_length_b   6.86380330
_cell_length_c   6.87660300
_cell_angle_alpha   90.00000000
_cell_angle_beta   90.00000000
_cell_angle_gamma   89.84789914
_symmetry_Int_Tables_number   1
_chemical_formula_structural   Mg3In9Co4
_chemical_formula_sum   'Mg3 In9 Co4'
_cell_volume   328.72396352
_cell_formula_units_Z   1
loop_
 _symmetry_equiv_pos_site_id
 _symmetry_equiv_pos_as_xyz
  1  'x, y, z'
loop_
 _atom_site_type_symbol
 _atom_site_label
 _atom_site_symmetry_multiplicity
 _atom_site_fract_x
 _atom_site_fract_y
 _atom_site_fract_z
 _atom_site_occupancy
  Mg  Mg0  1  0.000000  0.500000  0.000000  1
  Mg  Mg1  1  0.000000  0.500000  0.500000  1
  Mg  Mg2  1  0.500000  0.000000  0.500000  1
  In  In3  1  0.500000  0.000000  0.000000  1
  In  In4  1  0.157133  0.163584  0.260862  1
  In  In5  1  0.335416  0.654079  0.755166  1
  In  In6  1  0.664584  0.345921  0.755166  1
  In  In7  1  0.664584  0.345921  0.244834  1
  In  In8  1  0.335416  0.654079  0.244834  1
  In  In9  1  0.842867  0.836416  0.260862  1
  In  In10  1  0.157133  0.163584  0.739138  1
  In  In11  1  0.842867  0.836416  0.739138  1
  Co  Co12  1  0.357041  0.351789  0.000000  1
  Co  Co13  1  0.145405  0.855608  0.500000  1
  Co  Co14  1  0.854595  0.144392  0.500000  1
  Co  Co15  1  0.642959  0.648211  0.000000  1
