# generated using pymatgen
data_Li4Tb2HoSn4
_symmetry_space_group_name_H-M   'P 1'
_cell_length_a   8.63703655
_cell_length_b   8.63703625
_cell_length_c   8.63703726
_cell_angle_alpha   149.08982543
_cell_angle_beta   131.34476995
_cell_angle_gamma   58.76415423
_symmetry_Int_Tables_number   1
_chemical_formula_structural   Li4Tb2HoSn4
_chemical_formula_sum   'Li4 Tb2 Ho1 Sn4'
_cell_volume   246.53196309
_cell_formula_units_Z   1
loop_
 _symmetry_equiv_pos_site_id
 _symmetry_equiv_pos_as_xyz
  1  'x, y, z'
loop_
 _atom_site_type_symbol
 _atom_site_label
 _atom_site_symmetry_multiplicity
 _atom_site_fract_x
 _atom_site_fract_y
 _atom_site_fract_z
 _atom_site_occupancy
  Li  Li0  1  0.982160  0.673631  0.308528  1
  Li  Li1  1  0.017840  0.326369  0.691472  1
  Li  Li2  1  0.365103  0.673631  0.691472  1
  Li  Li3  1  0.634897  0.326369  0.308528  1
  Tb  Tb4  1  0.372185  0.872185  0.500000  1
  Tb  Tb5  1  0.627815  0.127815  0.500000  1
  Ho  Ho6  1  0.000000  0.000000  0.000000  1
  Sn  Sn7  1  0.702393  0.500000  0.202393  1
  Sn  Sn8  1  0.297607  0.500000  0.797607  1
  Sn  Sn9  1  0.213710  0.213710  0.000000  1
  Sn  Sn10  1  0.786290  0.786290  0.000000  1
