# generated using pymatgen
data_TiIr4Rh3
_symmetry_space_group_name_H-M   'P 1'
_cell_length_a   5.46338202
_cell_length_b   5.46338132
_cell_length_c   5.46845406
_cell_angle_alpha   60.03069457
_cell_angle_beta   60.03068227
_cell_angle_gamma   60.00000556
_symmetry_Int_Tables_number   1
_chemical_formula_structural   TiIr4Rh3
_chemical_formula_sum   'Ti1 Ir4 Rh3'
_cell_volume   115.47127593
_cell_formula_units_Z   1
loop_
 _symmetry_equiv_pos_site_id
 _symmetry_equiv_pos_as_xyz
  1  'x, y, z'
loop_
 _atom_site_type_symbol
 _atom_site_label
 _atom_site_symmetry_multiplicity
 _atom_site_fract_x
 _atom_site_fract_y
 _atom_site_fract_z
 _atom_site_occupancy
  Ti  Ti0  1  0.000000  0.000000  0.000000  1
  Ir  Ir1  1  0.500001  0.000000  0.000000  1
  Ir  Ir2  1  0.000000  0.500001  0.000000  1
  Ir  Ir3  1  0.500000  0.500000  0.000000  1
  Ir  Ir4  1  0.500000  0.500000  0.500000  1
  Rh  Rh5  1  0.000000  0.000000  0.500001  1
  Rh  Rh6  1  0.500000  0.000000  0.500000  1
  Rh  Rh7  1  0.000000  0.500000  0.500000  1
