# generated using pymatgen
data_Gd12Ga2Tc3
_symmetry_space_group_name_H-M   'P 1'
_cell_length_a   8.46420404
_cell_length_b   8.46420376
_cell_length_c   8.46420514
_cell_angle_alpha   110.18145900
_cell_angle_beta   110.18145700
_cell_angle_gamma   108.05990366
_symmetry_Int_Tables_number   1
_chemical_formula_structural   Gd12Ga2Tc3
_chemical_formula_sum   'Gd12 Ga2 Tc3'
_cell_volume   466.59428058
_cell_formula_units_Z   1
loop_
 _symmetry_equiv_pos_site_id
 _symmetry_equiv_pos_as_xyz
  1  'x, y, z'
loop_
 _atom_site_type_symbol
 _atom_site_label
 _atom_site_symmetry_multiplicity
 _atom_site_fract_x
 _atom_site_fract_y
 _atom_site_fract_z
 _atom_site_occupancy
  Gd  Gd0  1  0.184233  0.432277  0.248044  1
  Gd  Gd1  1  0.815767  0.567723  0.751956  1
  Gd  Gd2  1  0.184233  0.936190  0.751956  1
  Gd  Gd3  1  0.936190  0.184233  0.751956  1
  Gd  Gd4  1  0.815767  0.063810  0.248044  1
  Gd  Gd5  1  0.063810  0.815767  0.248044  1
  Gd  Gd6  1  0.432277  0.184233  0.248044  1
  Gd  Gd7  1  0.567723  0.815767  0.751956  1
  Gd  Gd8  1  0.318472  0.318472  0.636944  1
  Gd  Gd9  1  0.681528  0.681528  0.363056  1
  Gd  Gd10  1  0.681528  0.318472  0.000000  1
  Gd  Gd11  1  0.318472  0.681528  0.000000  1
  Ga  Ga12  1  0.000000  0.500000  0.500000  1
  Ga  Ga13  1  0.500000  0.000000  0.500000  1
  Tc  Tc14  1  0.338323  0.338323  0.000000  1
  Tc  Tc15  1  0.661677  0.661677  0.000000  1
  Tc  Tc16  1  0.000000  0.000000  0.000000  1
