# generated using pymatgen
data_SmGdDy4Ta2O14
_symmetry_space_group_name_H-M   'P 1'
_cell_length_a   6.48293942
_cell_length_b   6.48293891
_cell_length_c   7.55674332
_cell_angle_alpha   90.02727236
_cell_angle_beta   89.97272891
_cell_angle_gamma   109.31412248
_symmetry_Int_Tables_number   1
_chemical_formula_structural   SmGdDy4Ta2O14
_chemical_formula_sum   'Sm1 Gd1 Dy4 Ta2 O14'
_cell_volume   299.72391611
_cell_formula_units_Z   1
loop_
 _symmetry_equiv_pos_site_id
 _symmetry_equiv_pos_as_xyz
  1  'x, y, z'
loop_
 _atom_site_type_symbol
 _atom_site_label
 _atom_site_symmetry_multiplicity
 _atom_site_fract_x
 _atom_site_fract_y
 _atom_site_fract_z
 _atom_site_occupancy
  Sm  Sm0  1  0.500000  0.500000  0.000000  1
  Gd  Gd1  1  0.500000  0.500000  0.500000  1
  Dy  Dy2  1  0.534390  0.000643  0.748897  1
  Dy  Dy3  1  0.000643  0.534390  0.251103  1
  Dy  Dy4  1  0.465610  0.999357  0.251103  1
  Dy  Dy5  1  0.999357  0.465610  0.748897  1
  Ta  Ta6  1  0.000000  0.000000  0.500000  1
  Ta  Ta7  1  0.000000  0.000000  0.000000  1
  O  O8  1  0.679766  0.930225  0.467503  1
  O  O9  1  0.930225  0.679766  0.532497  1
  O  O10  1  0.679075  0.929579  0.032452  1
  O  O11  1  0.929579  0.679075  0.967548  1
  O  O12  1  0.320234  0.069775  0.532497  1
  O  O13  1  0.069775  0.320234  0.467503  1
  O  O14  1  0.320925  0.070421  0.967548  1
  O  O15  1  0.070421  0.320925  0.032452  1
  O  O16  1  0.934305  0.065695  0.750134  1
  O  O17  1  0.065695  0.934305  0.249866  1
  O  O18  1  0.367493  0.632506  0.747309  1
  O  O19  1  0.632506  0.367493  0.252691  1
  O  O20  1  0.639665  0.360335  0.747613  1
  O  O21  1  0.360335  0.639665  0.252387  1
