# generated using pymatgen
data_Ta5NbP3
_symmetry_space_group_name_H-M   'P 1'
_cell_length_a   14.49587400
_cell_length_b   11.62612100
_cell_length_c   3.42487300
_cell_angle_alpha   90.00000000
_cell_angle_beta   90.00000000
_cell_angle_gamma   90.00000000
_symmetry_Int_Tables_number   1
_chemical_formula_structural   Ta5NbP3
_chemical_formula_sum   'Ta20 Nb4 P12'
_cell_volume   577.19653564
_cell_formula_units_Z   4
loop_
 _symmetry_equiv_pos_site_id
 _symmetry_equiv_pos_as_xyz
  1  'x, y, z'
loop_
 _atom_site_type_symbol
 _atom_site_label
 _atom_site_symmetry_multiplicity
 _atom_site_fract_x
 _atom_site_fract_y
 _atom_site_fract_z
 _atom_site_occupancy
  Ta  Ta0  1  0.477094  0.847557  0.000000  1
  Ta  Ta1  1  0.522906  0.152444  0.000000  1
  Ta  Ta2  1  0.977095  0.652444  0.500001  1
  Ta  Ta3  1  0.022905  0.347556  0.500001  1
  Ta  Ta4  1  0.420956  0.413857  0.000000  1
  Ta  Ta5  1  0.579044  0.586144  0.000000  1
  Ta  Ta6  1  0.920956  0.086143  0.500001  1
  Ta  Ta7  1  0.079044  0.913858  0.500001  1
  Ta  Ta8  1  0.077401  0.122651  0.000000  1
  Ta  Ta9  1  0.922599  0.877348  0.000000  1
  Ta  Ta10  1  0.577402  0.377349  0.500001  1
  Ta  Ta11  1  0.422598  0.622651  0.500001  1
  Ta  Ta12  1  0.295465  0.195335  0.000000  1
  Ta  Ta13  1  0.704535  0.804666  0.000000  1
  Ta  Ta14  1  0.795465  0.304665  0.500001  1
  Ta  Ta15  1  0.204535  0.695334  0.500001  1
  Ta  Ta16  1  0.108359  0.530410  0.000000  1
  Ta  Ta17  1  0.891641  0.469590  0.000000  1
  Ta  Ta18  1  0.608359  0.969589  0.500001  1
  Ta  Ta19  1  0.391641  0.030410  0.500001  1
  Nb  Nb20  1  0.244770  0.920132  0.000000  1
  Nb  Nb21  1  0.755230  0.079869  0.000000  1
  Nb  Nb22  1  0.744770  0.579869  0.500001  1
  Nb  Nb23  1  0.255230  0.420131  0.500001  1
  P  P24  1  0.151685  0.316181  0.000000  1
  P  P25  1  0.848315  0.683819  0.000000  1
  P  P26  1  0.651685  0.183818  0.500001  1
  P  P27  1  0.348315  0.816182  0.500001  1
  P  P28  1  0.083686  0.756339  0.000000  1
  P  P29  1  0.916314  0.243661  0.000000  1
  P  P30  1  0.583686  0.743661  0.500001  1
  P  P31  1  0.416314  0.256339  0.500001  1
  P  P32  1  0.294410  0.577846  0.000000  1
  P  P33  1  0.705590  0.422154  0.000000  1
  P  P34  1  0.794410  0.922154  0.500001  1
  P  P35  1  0.205590  0.077845  0.500001  1
