# generated using pymatgen
data_Yb3DyMnFe3B16
_symmetry_space_group_name_H-M   'P 1'
_cell_length_a   3.35059700
_cell_length_b   5.90296128
_cell_length_c   11.41900865
_cell_angle_alpha   89.93077936
_cell_angle_beta   90.00000000
_cell_angle_gamma   90.00000000
_symmetry_Int_Tables_number   1
_chemical_formula_structural   Yb3DyMnFe3B16
_chemical_formula_sum   'Yb3 Dy1 Mn1 Fe3 B16'
_cell_volume   225.85006216
_cell_formula_units_Z   1
loop_
 _symmetry_equiv_pos_site_id
 _symmetry_equiv_pos_as_xyz
  1  'x, y, z'
loop_
 _atom_site_type_symbol
 _atom_site_label
 _atom_site_symmetry_multiplicity
 _atom_site_fract_x
 _atom_site_fract_y
 _atom_site_fract_z
 _atom_site_occupancy
  Yb  Yb0  1  0.000000  0.873601  0.347954  1
  Yb  Yb1  1  0.000000  0.626052  0.850134  1
  Yb  Yb2  1  0.000000  0.374523  0.151178  1
  Dy  Dy3  1  0.000000  0.125748  0.650555  1
  Mn  Mn4  1  0.000000  0.127345  0.916575  1
  Fe  Fe5  1  0.000000  0.873407  0.083063  1
  Fe  Fe6  1  0.000000  0.628306  0.584157  1
  Fe  Fe7  1  0.000000  0.371350  0.416193  1
  B  B8  1  0.500000  0.362315  0.968481  1
  B  B9  1  0.500000  0.638561  0.032892  1
  B  B10  1  0.500000  0.860007  0.531576  1
  B  B11  1  0.500000  0.139596  0.467286  1
  B  B12  1  0.500000  0.475981  0.690268  1
  B  B13  1  0.500000  0.524218  0.309764  1
  B  B14  1  0.500000  0.973430  0.809638  1
  B  B15  1  0.500000  0.024268  0.190546  1
  B  B16  1  0.500000  0.282095  0.816530  1
  B  B17  1  0.500000  0.721113  0.182477  1
  B  B18  1  0.500000  0.778476  0.682445  1
  B  B19  1  0.500000  0.221126  0.316993  1
  B  B20  1  0.500000  0.389231  0.546033  1
  B  B21  1  0.500000  0.612601  0.453140  1
  B  B22  1  0.500000  0.885438  0.954724  1
  B  B23  1  0.500000  0.111212  0.047400  1
