# generated using pymatgen
data_Ti8Tc3Ir4Ru
_symmetry_space_group_name_H-M   'P 1'
_cell_length_a   6.21814800
_cell_length_b   4.38407500
_cell_length_c   8.75853500
_cell_angle_alpha   90.00000000
_cell_angle_beta   89.99984779
_cell_angle_gamma   90.00000000
_symmetry_Int_Tables_number   1
_chemical_formula_structural   Ti8Tc3Ir4Ru
_chemical_formula_sum   'Ti8 Tc3 Ir4 Ru1'
_cell_volume   238.76490910
_cell_formula_units_Z   1
loop_
 _symmetry_equiv_pos_site_id
 _symmetry_equiv_pos_as_xyz
  1  'x, y, z'
loop_
 _atom_site_type_symbol
 _atom_site_label
 _atom_site_symmetry_multiplicity
 _atom_site_fract_x
 _atom_site_fract_y
 _atom_site_fract_z
 _atom_site_occupancy
  Ti  Ti0  1  0.001651  0.749999  0.124999  1
  Ti  Ti1  1  0.498392  0.749999  0.125005  1
  Ti  Ti2  1  0.000899  0.249999  0.376316  1
  Ti  Ti3  1  0.499151  0.249999  0.376321  1
  Ti  Ti4  1  0.500008  0.749999  0.625001  1
  Ti  Ti5  1  0.999940  0.749999  0.625005  1
  Ti  Ti6  1  0.499099  0.249999  0.873677  1
  Ti  Ti7  1  0.000857  0.249999  0.873680  1
  Tc  Tc8  1  0.250018  0.749999  0.374252  1
  Tc  Tc9  1  0.749978  0.249999  0.625018  1
  Tc  Tc10  1  0.249985  0.749999  0.875735  1
  Ir  Ir11  1  0.250022  0.249999  0.125002  1
  Ir  Ir12  1  0.750021  0.749999  0.373804  1
  Ir  Ir13  1  0.249978  0.249999  0.624999  1
  Ir  Ir14  1  0.749977  0.749999  0.876190  1
  Ru  Ru15  1  0.750023  0.249999  0.124999  1
