# generated using pymatgen
data_Sc6Al24Fe7Au
_symmetry_space_group_name_H-M   'P 1'
_cell_length_a   8.57984708
_cell_length_b   8.57984773
_cell_length_c   9.20834509
_cell_angle_alpha   89.98583237
_cell_angle_beta   90.01416648
_cell_angle_gamma   119.99270175
_symmetry_Int_Tables_number   1
_chemical_formula_structural   Sc6Al24Fe7Au
_chemical_formula_sum   'Sc6 Al24 Fe7 Au1'
_cell_volume   587.08807960
_cell_formula_units_Z   1
loop_
 _symmetry_equiv_pos_site_id
 _symmetry_equiv_pos_as_xyz
  1  'x, y, z'
loop_
 _atom_site_type_symbol
 _atom_site_label
 _atom_site_symmetry_multiplicity
 _atom_site_fract_x
 _atom_site_fract_y
 _atom_site_fract_z
 _atom_site_occupancy
  Sc  Sc0  1  0.805762  0.194238  0.745647  1
  Sc  Sc1  1  0.194238  0.805762  0.254353  1
  Sc  Sc2  1  0.386880  0.191511  0.747922  1
  Sc  Sc3  1  0.613120  0.808489  0.252078  1
  Sc  Sc4  1  0.808489  0.613120  0.747922  1
  Sc  Sc5  1  0.191511  0.386880  0.252078  1
  Al  Al6  1  0.674982  0.325018  0.974830  1
  Al  Al7  1  0.325018  0.674982  0.025170  1
  Al  Al8  1  0.333644  0.666356  0.474604  1
  Al  Al9  1  0.666356  0.333644  0.525396  1
  Al  Al10  1  0.837838  0.162162  0.425657  1
  Al  Al11  1  0.162162  0.837838  0.574343  1
  Al  Al12  1  0.322291  0.160768  0.426125  1
  Al  Al13  1  0.160518  0.839482  0.921934  1
  Al  Al14  1  0.677709  0.839232  0.573875  1
  Al  Al15  1  0.839482  0.160518  0.078066  1
  Al  Al16  1  0.839232  0.677709  0.426125  1
  Al  Al17  1  0.682178  0.853316  0.921579  1
  Al  Al18  1  0.160768  0.322291  0.573875  1
  Al  Al19  1  0.317822  0.146684  0.078421  1
  Al  Al20  1  0.146684  0.317822  0.921579  1
  Al  Al21  1  0.853316  0.682178  0.078421  1
  Al  Al22  1  0.439348  0.560652  0.738497  1
  Al  Al23  1  0.560652  0.439348  0.261503  1
  Al  Al24  1  0.110617  0.555179  0.750088  1
  Al  Al25  1  0.889383  0.444821  0.249912  1
  Al  Al26  1  0.444821  0.889383  0.750088  1
  Al  Al27  1  0.555179  0.110617  0.249912  1
  Al  Al28  1  0.000460  0.999540  0.749459  1
  Al  Al29  1  0.999540  0.000460  0.250541  1
  Fe  Fe30  1  0.000000  0.500000  0.000000  1
  Fe  Fe31  1  0.500000  0.500000  0.500000  1
  Fe  Fe32  1  0.500000  0.000000  0.000000  1
  Fe  Fe33  1  0.000000  0.500000  0.500000  1
  Fe  Fe34  1  0.500000  0.000000  0.500000  1
  Fe  Fe35  1  0.000000  0.000000  0.000000  1
  Fe  Fe36  1  0.000000  0.000000  0.500000  1
  Au  Au37  1  0.500000  0.500000  0.000000  1
