# generated using pymatgen
data_UV(PO5)2
_symmetry_space_group_name_H-M   'P 1'
_cell_length_a   5.75646676
_cell_length_b   5.24768720
_cell_length_c   7.54040589
_cell_angle_alpha   105.54306758
_cell_angle_beta   110.37187307
_cell_angle_gamma   97.08888155
_symmetry_Int_Tables_number   1
_chemical_formula_structural   UV(PO5)2
_chemical_formula_sum   'U1 V1 P2 O10'
_cell_volume   199.71667659
_cell_formula_units_Z   1
loop_
 _symmetry_equiv_pos_site_id
 _symmetry_equiv_pos_as_xyz
  1  'x, y, z'
loop_
 _atom_site_type_symbol
 _atom_site_label
 _atom_site_symmetry_multiplicity
 _atom_site_fract_x
 _atom_site_fract_y
 _atom_site_fract_z
 _atom_site_occupancy
  U  U0  1  0.000000  0.500000  0.000000  1
  V  V1  1  0.000000  0.500000  0.500000  1
  P  P2  1  0.323740  0.134952  0.743123  1
  P  P3  1  0.676260  0.865048  0.256877  1
  O  O4  1  0.182236  0.183524  0.886839  1
  O  O5  1  0.260998  0.822883  0.630811  1
  O  O6  1  0.934690  0.560494  0.751754  1
  O  O7  1  0.246145  0.286356  0.591158  1
  O  O8  1  0.753855  0.713644  0.408842  1
  O  O9  1  0.614359  0.227776  0.868044  1
  O  O10  1  0.385641  0.772224  0.131956  1
  O  O11  1  0.065310  0.439506  0.248246  1
  O  O12  1  0.739002  0.177117  0.369189  1
  O  O13  1  0.817764  0.816476  0.113161  1
