# generated using pymatgen
data_DyYCr2F14
_symmetry_space_group_name_H-M   'P 1'
_cell_length_a   5.51260804
_cell_length_b   8.77485196
_cell_length_c   11.69961299
_cell_angle_alpha   63.02319989
_cell_angle_beta   89.98689514
_cell_angle_gamma   89.99039423
_symmetry_Int_Tables_number   1
_chemical_formula_structural   DyYCr2F14
_chemical_formula_sum   'Dy2 Y2 Cr4 F28'
_cell_volume   504.35791006
_cell_formula_units_Z   2
loop_
 _symmetry_equiv_pos_site_id
 _symmetry_equiv_pos_as_xyz
  1  'x, y, z'
loop_
 _atom_site_type_symbol
 _atom_site_label
 _atom_site_symmetry_multiplicity
 _atom_site_fract_x
 _atom_site_fract_y
 _atom_site_fract_z
 _atom_site_occupancy
  Dy  Dy0  1  0.266305  0.809326  0.265841  1
  Dy  Dy1  1  0.733695  0.190674  0.734159  1
  Y  Y2  1  0.766121  0.190549  0.234269  1
  Y  Y3  1  0.233879  0.809451  0.765731  1
  Cr  Cr4  1  0.757802  0.726319  0.044013  1
  Cr  Cr5  1  0.242198  0.273681  0.955987  1
  Cr  Cr6  1  0.257359  0.274539  0.456273  1
  Cr  Cr7  1  0.742641  0.725461  0.543727  1
  F  F8  1  0.935608  0.706763  0.422583  1
  F  F9  1  0.064392  0.293237  0.577417  1
  F  F10  1  0.434683  0.293395  0.076834  1
  F  F11  1  0.565317  0.706605  0.923166  1
  F  F12  1  0.479376  0.729826  0.137212  1
  F  F13  1  0.520624  0.270174  0.862788  1
  F  F14  1  0.979104  0.271009  0.363087  1
  F  F15  1  0.020896  0.728991  0.636913  1
  F  F16  1  0.950908  0.744993  0.168339  1
  F  F17  1  0.049092  0.255007  0.831661  1
  F  F18  1  0.450173  0.255988  0.331800  1
  F  F19  1  0.549827  0.744012  0.668200  1
  F  F20  1  0.767006  0.491379  0.138314  1
  F  F21  1  0.232994  0.508621  0.861686  1
  F  F22  1  0.267196  0.509475  0.362025  1
  F  F23  1  0.732804  0.490525  0.637975  1
  F  F24  1  0.956547  0.282487  0.043656  1
  F  F25  1  0.043453  0.717513  0.956344  1
  F  F26  1  0.456868  0.717712  0.455596  1
  F  F27  1  0.543132  0.282288  0.544404  1
  F  F28  1  0.742407  0.959144  0.454372  1
  F  F29  1  0.257593  0.040856  0.545628  1
  F  F30  1  0.242418  0.040049  0.046229  1
  F  F31  1  0.757582  0.959951  0.953771  1
  F  F32  1  0.587103  0.973679  0.227369  1
  F  F33  1  0.412897  0.026321  0.772631  1
  F  F34  1  0.088141  0.025617  0.272680  1
  F  F35  1  0.911859  0.974383  0.727320  1
