# generated using pymatgen
data_Nd16Y4Ir5Pt7
_symmetry_space_group_name_H-M   'P 1'
_cell_length_a   11.35998255
_cell_length_b   11.35998255
_cell_length_c   6.48550739
_cell_angle_alpha   90.02798844
_cell_angle_beta   90.02798844
_cell_angle_gamma   90.02194654
_symmetry_Int_Tables_number   1
_chemical_formula_structural   Nd16Y4Ir5Pt7
_chemical_formula_sum   'Nd16 Y4 Ir5 Pt7'
_cell_volume   836.94930123
_cell_formula_units_Z   1
loop_
 _symmetry_equiv_pos_site_id
 _symmetry_equiv_pos_as_xyz
  1  'x, y, z'
loop_
 _atom_site_type_symbol
 _atom_site_label
 _atom_site_symmetry_multiplicity
 _atom_site_fract_x
 _atom_site_fract_y
 _atom_site_fract_z
 _atom_site_occupancy
  Nd  Nd0  1  0.292736  0.087747  0.377787  1
  Nd  Nd1  1  0.293387  0.909240  0.877740  1
  Nd  Nd2  1  0.707146  0.087610  0.877866  1
  Nd  Nd3  1  0.707202  0.911882  0.377869  1
  Nd  Nd4  1  0.585345  0.791386  0.877398  1
  Nd  Nd5  1  0.587831  0.207693  0.378290  1
  Nd  Nd6  1  0.410815  0.790427  0.382530  1
  Nd  Nd7  1  0.411997  0.207007  0.878436  1
  Nd  Nd8  1  0.208614  0.414655  0.622602  1
  Nd  Nd9  1  0.209573  0.589185  0.117470  1
  Nd  Nd10  1  0.792307  0.412169  0.121710  1
  Nd  Nd11  1  0.792993  0.588003  0.621564  1
  Nd  Nd12  1  0.912253  0.707264  0.122213  1
  Nd  Nd13  1  0.912390  0.292854  0.622134  1
  Nd  Nd14  1  0.090760  0.706613  0.622260  1
  Nd  Nd15  1  0.088118  0.292798  0.122131  1
  Y  Y16  1  0.999918  0.999839  0.500294  1
  Y  Y17  1  0.000161  0.000082  0.999706  1
  Y  Y18  1  0.498364  0.501430  0.999455  1
  Y  Y19  1  0.498570  0.501636  0.500545  1
  Ir  Ir20  1  0.350781  0.649219  0.750000  1
  Ir  Ir21  1  0.500359  0.000418  0.120257  1
  Ir  Ir22  1  0.500221  0.000929  0.619318  1
  Ir  Ir23  1  0.999071  0.499779  0.880682  1
  Ir  Ir24  1  0.999582  0.499641  0.379743  1
  Pt  Pt25  1  0.850511  0.149489  0.250000  1
  Pt  Pt26  1  0.850495  0.850687  0.750123  1
  Pt  Pt27  1  0.149313  0.149505  0.749877  1
  Pt  Pt28  1  0.149007  0.850993  0.250000  1
  Pt  Pt29  1  0.649639  0.350361  0.750000  1
  Pt  Pt30  1  0.650446  0.649903  0.250091  1
  Pt  Pt31  1  0.350097  0.349554  0.249909  1
