# generated using pymatgen
data_Dy2Al9AgOs2
_symmetry_space_group_name_H-M   'P 1'
_cell_length_a   7.62242100
_cell_length_b   7.62242259
_cell_length_c   9.53616100
_cell_angle_alpha   90.00000000
_cell_angle_beta   90.00000000
_cell_angle_gamma   119.26010967
_symmetry_Int_Tables_number   1
_chemical_formula_structural   Dy2Al9AgOs2
_chemical_formula_sum   'Dy4 Al18 Ag2 Os4'
_cell_volume   483.37040182
_cell_formula_units_Z   2
loop_
 _symmetry_equiv_pos_site_id
 _symmetry_equiv_pos_as_xyz
  1  'x, y, z'
loop_
 _atom_site_type_symbol
 _atom_site_label
 _atom_site_symmetry_multiplicity
 _atom_site_fract_x
 _atom_site_fract_y
 _atom_site_fract_z
 _atom_site_occupancy
  Dy  Dy0  1  0.997838  0.676836  0.750000  1
  Dy  Dy1  1  0.002162  0.323164  0.250000  1
  Dy  Dy2  1  0.676836  0.997838  0.750000  1
  Dy  Dy3  1  0.323164  0.002162  0.250000  1
  Al  Al4  1  0.143061  0.143061  0.750000  1
  Al  Al5  1  0.856939  0.856939  0.250000  1
  Al  Al6  1  0.003645  0.348188  0.576311  1
  Al  Al7  1  0.996355  0.651812  0.423689  1
  Al  Al8  1  0.996355  0.651812  0.076311  1
  Al  Al9  1  0.348188  0.003645  0.923689  1
  Al  Al10  1  0.003645  0.348188  0.923689  1
  Al  Al11  1  0.651812  0.996355  0.076311  1
  Al  Al12  1  0.651812  0.996355  0.423689  1
  Al  Al13  1  0.348188  0.003645  0.576311  1
  Al  Al14  1  0.344762  0.344762  0.053488  1
  Al  Al15  1  0.655238  0.655238  0.946512  1
  Al  Al16  1  0.655238  0.655238  0.553488  1
  Al  Al17  1  0.344762  0.344762  0.446512  1
  Al  Al18  1  0.337701  0.554813  0.750000  1
  Al  Al19  1  0.662299  0.445187  0.250000  1
  Al  Al20  1  0.554813  0.337701  0.750000  1
  Al  Al21  1  0.445187  0.662299  0.250000  1
  Ag  Ag22  1  0.000000  0.000000  0.500000  1
  Ag  Ag23  1  0.000000  0.000000  0.000000  1
  Os  Os24  1  0.672811  0.327189  0.500000  1
  Os  Os25  1  0.327189  0.672811  0.500000  1
  Os  Os26  1  0.327189  0.672811  0.000000  1
  Os  Os27  1  0.672811  0.327189  0.000000  1
