# generated using pymatgen
data_Er3Tm5Re2(B12Ir)2
_symmetry_space_group_name_H-M   'P 1'
_cell_length_a   3.63604200
_cell_length_b   9.09160870
_cell_length_c   11.47587200
_cell_angle_alpha   90.29941664
_cell_angle_beta   90.00000000
_cell_angle_gamma   90.00000000
_symmetry_Int_Tables_number   1
_chemical_formula_structural   Er3Tm5Re2(B12Ir)2
_chemical_formula_sum   'Er3 Tm5 Re2 B24 Ir2'
_cell_volume   379.35812672
_cell_formula_units_Z   1
loop_
 _symmetry_equiv_pos_site_id
 _symmetry_equiv_pos_as_xyz
  1  'x, y, z'
loop_
 _atom_site_type_symbol
 _atom_site_label
 _atom_site_symmetry_multiplicity
 _atom_site_fract_x
 _atom_site_fract_y
 _atom_site_fract_z
 _atom_site_occupancy
  Er  Er0  1  0.000000  0.316379  0.409794  1
  Er  Er1  1  0.000000  0.683626  0.590205  1
  Er  Er2  1  0.000000  0.826175  0.082152  1
  Tm  Tm3  1  0.000000  0.173796  0.917970  1
  Tm  Tm4  1  0.000000  0.946178  0.372395  1
  Tm  Tm5  1  0.000000  0.053854  0.627621  1
  Tm  Tm6  1  0.000000  0.441746  0.125656  1
  Tm  Tm7  1  0.000000  0.558152  0.874294  1
  Re  Re8  1  0.000000  0.138403  0.179947  1
  Re  Re9  1  0.000000  0.861786  0.819983  1
  B  B10  1  0.500000  0.554009  0.434290  1
  B  B11  1  0.500000  0.445973  0.565715  1
  B  B12  1  0.500000  0.053202  0.066816  1
  B  B13  1  0.500000  0.947017  0.933074  1
  B  B14  1  0.500000  0.749956  0.421396  1
  B  B15  1  0.500000  0.250051  0.578618  1
  B  B16  1  0.500000  0.248451  0.080158  1
  B  B17  1  0.500000  0.751541  0.919659  1
  B  B18  1  0.500000  0.791428  0.265781  1
  B  B19  1  0.500000  0.208527  0.734345  1
  B  B20  1  0.500000  0.292820  0.234447  1
  B  B21  1  0.500000  0.707184  0.765523  1
  B  B22  1  0.500000  0.631456  0.183586  1
  B  B23  1  0.500000  0.368382  0.816495  1
  B  B24  1  0.500000  0.131271  0.315140  1
  B  B25  1  0.500000  0.868748  0.684869  1
  B  B26  1  0.500000  0.982039  0.213158  1
  B  B27  1  0.500000  0.018147  0.786905  1
  B  B28  1  0.500000  0.481913  0.287154  1
  B  B29  1  0.500000  0.518060  0.712847  1
  B  B30  1  0.500000  0.606001  0.029684  1
  B  B31  1  0.500000  0.393786  0.970258  1
  B  B32  1  0.500000  0.106460  0.471138  1
  B  B33  1  0.500000  0.893545  0.528868  1
  Ir  Ir34  1  0.000000  0.636831  0.322073  1
  Ir  Ir35  1  0.000000  0.363108  0.677989  1
