# generated using pymatgen
data_Np3WF24
_symmetry_space_group_name_H-M   'P 1'
_cell_length_a   5.44609702
_cell_length_b   9.36511800
_cell_length_c   10.31103704
_cell_angle_alpha   90.00000000
_cell_angle_beta   90.01052746
_cell_angle_gamma   90.00000000
_symmetry_Int_Tables_number   1
_chemical_formula_structural   Np3WF24
_chemical_formula_sum   'Np3 W1 F24'
_cell_volume   525.89733219
_cell_formula_units_Z   1
loop_
 _symmetry_equiv_pos_site_id
 _symmetry_equiv_pos_as_xyz
  1  'x, y, z'
loop_
 _atom_site_type_symbol
 _atom_site_label
 _atom_site_symmetry_multiplicity
 _atom_site_fract_x
 _atom_site_fract_y
 _atom_site_fract_z
 _atom_site_occupancy
  Np  Np0  1  0.585552  0.750000  0.371967  1
  Np  Np1  1  0.085570  0.250000  0.127956  1
  Np  Np2  1  0.414697  0.250000  0.628046  1
  W  W3  1  0.914559  0.750000  0.871921  1
  F  F4  1  0.568264  0.401588  0.738998  1
  F  F5  1  0.058729  0.608020  0.768120  1
  F  F6  1  0.431547  0.901482  0.260861  1
  F  F7  1  0.931512  0.098413  0.238862  1
  F  F8  1  0.192728  0.750000  0.979789  1
  F  F9  1  0.711949  0.250000  0.512799  1
  F  F10  1  0.788184  0.250000  0.012745  1
  F  F11  1  0.288465  0.750000  0.487333  1
  F  F12  1  0.635806  0.750000  0.764047  1
  F  F13  1  0.116832  0.250000  0.743379  1
  F  F14  1  0.383404  0.250000  0.243396  1
  F  F15  1  0.883192  0.750000  0.256600  1
  F  F16  1  0.769669  0.891693  0.976062  1
  F  F17  1  0.259989  0.098554  0.516957  1
  F  F18  1  0.239917  0.401365  0.016845  1
  F  F19  1  0.739905  0.598754  0.483307  1
  F  F20  1  0.239917  0.098635  0.016845  1
  F  F21  1  0.739905  0.901246  0.483307  1
  F  F22  1  0.769669  0.608307  0.976062  1
  F  F23  1  0.259989  0.401446  0.516957  1
  F  F24  1  0.058729  0.891980  0.768120  1
  F  F25  1  0.568264  0.098412  0.738998  1
  F  F26  1  0.931512  0.401587  0.238862  1
  F  F27  1  0.431547  0.598518  0.260861  1
