# generated using pymatgen
data_La12Ge(AsBr4)3
_symmetry_space_group_name_H-M   'P 1'
_cell_length_a   10.78069051
_cell_length_b   10.78068983
_cell_length_c   10.38924300
_cell_angle_alpha   108.73732642
_cell_angle_beta   108.73732520
_cell_angle_gamma   110.19503838
_symmetry_Int_Tables_number   1
_chemical_formula_structural   La12Ge(AsBr4)3
_chemical_formula_sum   'La12 Ge1 As3 Br12'
_cell_volume   937.79678216
_cell_formula_units_Z   1
loop_
 _symmetry_equiv_pos_site_id
 _symmetry_equiv_pos_as_xyz
  1  'x, y, z'
loop_
 _atom_site_type_symbol
 _atom_site_label
 _atom_site_symmetry_multiplicity
 _atom_site_fract_x
 _atom_site_fract_y
 _atom_site_fract_z
 _atom_site_occupancy
  La  La0  1  0.261093  0.747836  0.241168  1
  La  La1  1  0.486745  0.747836  0.006670  1
  La  La2  1  0.240186  0.480370  0.490186  1
  La  La3  1  0.011135  0.022269  0.261135  1
  La  La4  1  0.240186  0.259814  0.750000  1
  La  La5  1  0.011135  0.488865  0.750000  1
  La  La6  1  0.486745  0.238907  0.480074  1
  La  La7  1  0.261093  0.013255  0.019926  1
  La  La8  1  0.752164  0.238907  0.258832  1
  La  La9  1  0.752164  0.013255  0.493330  1
  La  La10  1  0.477731  0.488865  0.238865  1
  La  La11  1  0.019630  0.259814  0.009814  1
  Ge  Ge12  1  0.500000  0.000000  0.250000  1
  As  As13  1  0.249887  0.499776  0.999887  1
  As  As14  1  0.000224  0.250113  0.500113  1
  As  As15  1  0.249887  0.250113  0.250000  1
  Br  Br16  1  0.247837  0.995325  0.503621  1
  Br  Br17  1  0.507967  0.503982  0.753982  1
  Br  Br18  1  0.247837  0.752511  0.744216  1
  Br  Br19  1  0.998061  0.749031  0.999031  1
  Br  Br20  1  0.996018  0.503982  0.250000  1
  Br  Br21  1  0.747489  0.995325  0.991703  1
  Br  Br22  1  0.750969  0.749031  0.250000  1
  Br  Br23  1  0.504675  0.752511  0.508297  1
  Br  Br24  1  0.504675  0.252163  0.996379  1
  Br  Br25  1  0.750969  0.501939  0.500969  1
  Br  Br26  1  0.747489  0.252163  0.755784  1
  Br  Br27  1  0.996018  0.992033  0.746018  1
