# generated using pymatgen
data_TiSeO5
_symmetry_space_group_name_H-M   'P 1'
_cell_length_a   5.50424040
_cell_length_b   5.50609709
_cell_length_c   7.37690090
_cell_angle_alpha   106.42863944
_cell_angle_beta   107.39457311
_cell_angle_gamma   97.63500306
_symmetry_Int_Tables_number   1
_chemical_formula_structural   TiSeO5
_chemical_formula_sum   'Ti2 Se2 O10'
_cell_volume   198.77975759
_cell_formula_units_Z   2
loop_
 _symmetry_equiv_pos_site_id
 _symmetry_equiv_pos_as_xyz
  1  'x, y, z'
loop_
 _atom_site_type_symbol
 _atom_site_label
 _atom_site_symmetry_multiplicity
 _atom_site_fract_x
 _atom_site_fract_y
 _atom_site_fract_z
 _atom_site_occupancy
  Ti  Ti0  1  0.003774  0.993955  0.979259  1
  Ti  Ti1  1  0.987219  0.000947  0.477457  1
  Se  Se2  1  0.331744  0.645151  0.257945  1
  Se  Se3  1  0.665997  0.353098  0.744341  1
  O  O4  1  0.930254  0.043632  0.249189  1
  O  O5  1  0.068207  0.956675  0.761643  1
  O  O6  1  0.268870  0.789448  0.082303  1
  O  O7  1  0.301401  0.330829  0.142519  1
  O  O8  1  0.146602  0.687872  0.403595  1
  O  O9  1  0.642569  0.759872  0.418185  1
  O  O10  1  0.356782  0.243576  0.588624  1
  O  O11  1  0.856031  0.317745  0.603500  1
  O  O12  1  0.703713  0.667898  0.869349  1
  O  O13  1  0.736833  0.209302  0.922090  1
