# generated using pymatgen
data_TbHoCo6(Ni2P3)2
_symmetry_space_group_name_H-M   'P 1'
_cell_length_a   3.67714900
_cell_length_b   10.25779600
_cell_length_c   11.81994900
_cell_angle_alpha   90.00000000
_cell_angle_beta   90.00000000
_cell_angle_gamma   90.00000000
_symmetry_Int_Tables_number   1
_chemical_formula_structural   TbHoCo6(Ni2P3)2
_chemical_formula_sum   'Tb2 Ho2 Co12 Ni8 P12'
_cell_volume   445.84190798
_cell_formula_units_Z   2
loop_
 _symmetry_equiv_pos_site_id
 _symmetry_equiv_pos_as_xyz
  1  'x, y, z'
loop_
 _atom_site_type_symbol
 _atom_site_label
 _atom_site_symmetry_multiplicity
 _atom_site_fract_x
 _atom_site_fract_y
 _atom_site_fract_z
 _atom_site_occupancy
  Tb  Tb0  1  0.750000  0.418508  0.296731  1
  Tb  Tb1  1  0.750000  0.081492  0.796731  1
  Ho  Ho2  1  0.250000  0.581489  0.703272  1
  Ho  Ho3  1  0.250000  0.918511  0.203272  1
  Co  Co4  1  0.250000  0.221665  0.175842  1
  Co  Co5  1  0.250000  0.278335  0.675842  1
  Co  Co6  1  0.750000  0.777713  0.824086  1
  Co  Co7  1  0.750000  0.722287  0.324086  1
  Co  Co8  1  0.250000  0.880229  0.697650  1
  Co  Co9  1  0.250000  0.619771  0.197650  1
  Co  Co10  1  0.750000  0.118732  0.301991  1
  Co  Co11  1  0.750000  0.381268  0.801991  1
  Co  Co12  1  0.250000  0.467522  0.932334  1
  Co  Co13  1  0.250000  0.032478  0.432334  1
  Co  Co14  1  0.750000  0.533242  0.066977  1
  Co  Co15  1  0.750000  0.966758  0.566977  1
  Ni  Ni16  1  0.250000  0.712949  0.989867  1
  Ni  Ni17  1  0.250000  0.787051  0.489867  1
  Ni  Ni18  1  0.750000  0.287131  0.010399  1
  Ni  Ni19  1  0.750000  0.212869  0.510399  1
  Ni  Ni20  1  0.250000  0.408653  0.485721  1
  Ni  Ni21  1  0.250000  0.091347  0.985721  1
  Ni  Ni22  1  0.750000  0.591829  0.515517  1
  Ni  Ni23  1  0.750000  0.908171  0.015517  1
  P  P24  1  0.250000  0.420288  0.112399  1
  P  P25  1  0.250000  0.079712  0.612399  1
  P  P26  1  0.750000  0.579867  0.886670  1
  P  P27  1  0.750000  0.920133  0.386670  1
  P  P28  1  0.250000  0.272465  0.865480  1
  P  P29  1  0.250000  0.227535  0.365480  1
  P  P30  1  0.750000  0.728562  0.134851  1
  P  P31  1  0.750000  0.771438  0.634851  1
  P  P32  1  0.250000  0.606037  0.387954  1
  P  P33  1  0.250000  0.893963  0.887954  1
  P  P34  1  0.750000  0.394749  0.612258  1
  P  P35  1  0.750000  0.105251  0.112258  1
