# generated using pymatgen
data_CeNd6Dy3(Sn5Rh2)4
_symmetry_space_group_name_H-M   'P 1'
_cell_length_a   14.14952937
_cell_length_b   14.15590327
_cell_length_c   4.58788516
_cell_angle_alpha   90.01653312
_cell_angle_beta   89.98204007
_cell_angle_gamma   89.86981888
_symmetry_Int_Tables_number   1
_chemical_formula_structural   CeNd6Dy3(Sn5Rh2)4
_chemical_formula_sum   'Ce1 Nd6 Dy3 Sn20 Rh8'
_cell_volume   918.94804613
_cell_formula_units_Z   1
loop_
 _symmetry_equiv_pos_site_id
 _symmetry_equiv_pos_as_xyz
  1  'x, y, z'
loop_
 _atom_site_type_symbol
 _atom_site_label
 _atom_site_symmetry_multiplicity
 _atom_site_fract_x
 _atom_site_fract_y
 _atom_site_fract_z
 _atom_site_occupancy
  Ce  Ce0  1  0.999953  0.000405  0.999921  1
  Nd  Nd1  1  0.499758  0.499919  0.000172  1
  Nd  Nd2  1  0.820770  0.678871  0.500107  1
  Nd  Nd3  1  0.888358  0.388413  0.500037  1
  Nd  Nd4  1  0.111709  0.611501  0.500047  1
  Nd  Nd5  1  0.389191  0.110978  0.499896  1
  Nd  Nd6  1  0.610436  0.889282  0.499932  1
  Dy  Dy7  1  0.678089  0.175840  0.499925  1
  Dy  Dy8  1  0.324375  0.821877  0.499965  1
  Dy  Dy9  1  0.177229  0.322948  0.499945  1
  Sn  Sn10  1  0.569867  0.070201  0.000029  1
  Sn  Sn11  1  0.429702  0.930371  0.999911  1
  Sn  Sn12  1  0.070233  0.430021  0.999785  1
  Sn  Sn13  1  0.930783  0.569404  0.000406  1
  Sn  Sn14  1  0.651470  0.699430  0.000106  1
  Sn  Sn15  1  0.346624  0.300521  0.999960  1
  Sn  Sn16  1  0.153595  0.800928  0.000056  1
  Sn  Sn17  1  0.847609  0.200121  0.999744  1
  Sn  Sn18  1  0.300229  0.652968  0.999893  1
  Sn  Sn19  1  0.698711  0.345738  0.000134  1
  Sn  Sn20  1  0.199649  0.152830  0.999841  1
  Sn  Sn21  1  0.800083  0.849029  0.999987  1
  Sn  Sn22  1  0.662544  0.504113  0.499951  1
  Sn  Sn23  1  0.336831  0.493148  0.500017  1
  Sn  Sn24  1  0.162208  0.992469  0.500143  1
  Sn  Sn25  1  0.837462  0.005973  0.499696  1
  Sn  Sn26  1  0.494553  0.663574  0.499998  1
  Sn  Sn27  1  0.507070  0.336685  0.500425  1
  Sn  Sn28  1  0.007270  0.162151  0.499854  1
  Sn  Sn29  1  0.994925  0.838687  0.500099  1
  Rh  Rh30  1  0.745961  0.529016  0.000194  1
  Rh  Rh31  1  0.253120  0.468749  0.000088  1
  Rh  Rh32  1  0.246073  0.969264  0.999454  1
  Rh  Rh33  1  0.754169  0.033275  0.000296  1
  Rh  Rh34  1  0.467143  0.746815  0.000401  1
  Rh  Rh35  1  0.530176  0.252980  0.999728  1
  Rh  Rh36  1  0.031819  0.246423  0.999862  1
  Rh  Rh37  1  0.970252  0.755081  0.999993  1
