# generated using pymatgen
data_Hf8Ti11NbGe13P3
_symmetry_space_group_name_H-M   'P 1'
_cell_length_a   6.70224381
_cell_length_b   6.85128236
_cell_length_c   13.06721600
_cell_angle_alpha   90.00000000
_cell_angle_beta   90.00000000
_cell_angle_gamma   89.88847969
_symmetry_Int_Tables_number   1
_chemical_formula_structural   Hf8Ti11NbGe13P3
_chemical_formula_sum   'Hf8 Ti11 Nb1 Ge13 P3'
_cell_volume   600.03189481
_cell_formula_units_Z   1
loop_
 _symmetry_equiv_pos_site_id
 _symmetry_equiv_pos_as_xyz
  1  'x, y, z'
loop_
 _atom_site_type_symbol
 _atom_site_label
 _atom_site_symmetry_multiplicity
 _atom_site_fract_x
 _atom_site_fract_y
 _atom_site_fract_z
 _atom_site_occupancy
  Hf  Hf0  1  0.490333  0.668235  0.594618  1
  Hf  Hf1  1  0.990979  0.823824  0.907675  1
  Hf  Hf2  1  0.511789  0.331262  0.094822  1
  Hf  Hf3  1  0.009823  0.168189  0.403796  1
  Hf  Hf4  1  0.511789  0.331262  0.405178  1
  Hf  Hf5  1  0.009823  0.168189  0.096204  1
  Hf  Hf6  1  0.490333  0.668235  0.905382  1
  Hf  Hf7  1  0.990979  0.823824  0.592325  1
  Ti  Ti8  1  0.651857  0.174247  0.627011  1
  Ti  Ti9  1  0.168765  0.334474  0.873526  1
  Ti  Ti10  1  0.339740  0.828940  0.127475  1
  Ti  Ti11  1  0.836448  0.670404  0.372805  1
  Ti  Ti12  1  0.339740  0.828940  0.372525  1
  Ti  Ti13  1  0.836448  0.670404  0.127195  1
  Ti  Ti14  1  0.651857  0.174247  0.872989  1
  Ti  Ti15  1  0.168765  0.334474  0.626474  1
  Ti  Ti16  1  0.822940  0.493541  0.750000  1
  Ti  Ti17  1  0.331986  0.011060  0.750000  1
  Ti  Ti18  1  0.174965  0.513471  0.250000  1
  Nb  Nb19  1  0.673863  0.989354  0.250000  1
  Ge  Ge20  1  0.680326  0.960446  0.463717  1
  Ge  Ge21  1  0.180332  0.538564  0.039344  1
  Ge  Ge22  1  0.317071  0.038382  0.961496  1
  Ge  Ge23  1  0.819984  0.458794  0.539028  1
  Ge  Ge24  1  0.317071  0.038382  0.538504  1
  Ge  Ge25  1  0.819984  0.458794  0.960972  1
  Ge  Ge26  1  0.680326  0.960446  0.036283  1
  Ge  Ge27  1  0.180332  0.538564  0.460656  1
  Ge  Ge28  1  0.959393  0.121192  0.750000  1
  Ge  Ge29  1  0.689700  0.856049  0.750000  1
  Ge  Ge30  1  0.186957  0.646586  0.750000  1
  Ge  Ge31  1  0.307997  0.147541  0.250000  1
  Ge  Ge32  1  0.814013  0.359809  0.250000  1
  P  P33  1  0.457111  0.375007  0.750000  1
  P  P34  1  0.541205  0.623013  0.250000  1
  P  P35  1  0.044974  0.871859  0.250000  1
