# generated using pymatgen
data_ErCu3RhAu
_symmetry_space_group_name_H-M   'P 1'
_cell_length_a   4.98319212
_cell_length_b   4.98319274
_cell_length_c   5.19991677
_cell_angle_alpha   61.36939790
_cell_angle_beta   61.36939131
_cell_angle_gamma   60.00000081
_symmetry_Int_Tables_number   1
_chemical_formula_structural   ErCu3RhAu
_chemical_formula_sum   'Er1 Cu3 Rh1 Au1'
_cell_volume   93.14990582
_cell_formula_units_Z   1
loop_
 _symmetry_equiv_pos_site_id
 _symmetry_equiv_pos_as_xyz
  1  'x, y, z'
loop_
 _atom_site_type_symbol
 _atom_site_label
 _atom_site_symmetry_multiplicity
 _atom_site_fract_x
 _atom_site_fract_y
 _atom_site_fract_z
 _atom_site_occupancy
  Er  Er0  1  0.998443  0.998443  0.004672  1
  Cu  Cu1  1  0.627726  0.129188  0.615360  1
  Cu  Cu2  1  0.129188  0.627726  0.615360  1
  Cu  Cu3  1  0.627726  0.627726  0.615360  1
  Rh  Rh4  1  0.628301  0.628301  0.115096  1
  Au  Au5  1  0.238616  0.238616  0.284153  1
