# generated using pymatgen
data_CsGa3Se5
_symmetry_space_group_name_H-M   'P 1'
_cell_length_a   13.68152200
_cell_length_b   7.67928075
_cell_length_c   11.16352492
_cell_angle_alpha   76.63936434
_cell_angle_beta   90.00000000
_cell_angle_gamma   90.00000000
_symmetry_Int_Tables_number   1
_chemical_formula_structural   CsGa3Se5
_chemical_formula_sum   'Cs4 Ga12 Se20'
_cell_volume   1141.14300576
_cell_formula_units_Z   4
loop_
 _symmetry_equiv_pos_site_id
 _symmetry_equiv_pos_as_xyz
  1  'x, y, z'
loop_
 _atom_site_type_symbol
 _atom_site_label
 _atom_site_symmetry_multiplicity
 _atom_site_fract_x
 _atom_site_fract_y
 _atom_site_fract_z
 _atom_site_occupancy
  Cs  Cs0  1  0.612808  0.834533  0.401241  1
  Cs  Cs1  1  0.112808  0.165467  0.098759  1
  Cs  Cs2  1  0.387192  0.165467  0.598759  1
  Cs  Cs3  1  0.887192  0.834533  0.901241  1
  Ga  Ga4  1  0.921029  0.796469  0.401492  1
  Ga  Ga5  1  0.578971  0.796469  0.901492  1
  Ga  Ga6  1  0.421029  0.203531  0.098508  1
  Ga  Ga7  1  0.397782  0.560201  0.805275  1
  Ga  Ga8  1  0.102218  0.560201  0.305275  1
  Ga  Ga9  1  0.337217  0.710150  0.123678  1
  Ga  Ga10  1  0.602218  0.439799  0.194725  1
  Ga  Ga11  1  0.078971  0.203531  0.598508  1
  Ga  Ga12  1  0.662783  0.289850  0.876322  1
  Ga  Ga13  1  0.897782  0.439799  0.694725  1
  Ga  Ga14  1  0.162783  0.710150  0.623678  1
  Ga  Ga15  1  0.837217  0.289850  0.376322  1
  Se  Se16  1  0.831490  0.719791  0.589807  1
  Se  Se17  1  0.103022  0.812034  0.409674  1
  Se  Se18  1  0.668510  0.719791  0.089807  1
  Se  Se19  1  0.396978  0.812034  0.909674  1
  Se  Se20  1  0.331490  0.280209  0.910193  1
  Se  Se21  1  0.664474  0.344965  0.402402  1
  Se  Se22  1  0.579451  0.571749  0.767570  1
  Se  Se23  1  0.603022  0.187966  0.090326  1
  Se  Se24  1  0.896978  0.187966  0.590326  1
  Se  Se25  1  0.635212  0.064667  0.759325  1
  Se  Se26  1  0.364788  0.935333  0.240675  1
  Se  Se27  1  0.168510  0.280209  0.410193  1
  Se  Se28  1  0.079451  0.428251  0.732430  1
  Se  Se29  1  0.920549  0.571749  0.267570  1
  Se  Se30  1  0.864788  0.064667  0.259325  1
  Se  Se31  1  0.135212  0.935333  0.740675  1
  Se  Se32  1  0.835526  0.344965  0.902402  1
  Se  Se33  1  0.335526  0.655035  0.597598  1
  Se  Se34  1  0.420549  0.428251  0.232430  1
  Se  Se35  1  0.164474  0.655035  0.097598  1
