# generated using pymatgen
data_Cs4Pt6Se7S
_symmetry_space_group_name_H-M   'P 1'
_cell_length_a   6.68555300
_cell_length_b   6.68555298
_cell_length_c   15.16644500
_cell_angle_alpha   90.00000000
_cell_angle_beta   90.00000000
_cell_angle_gamma   119.99999516
_symmetry_Int_Tables_number   1
_chemical_formula_structural   Cs4Pt6Se7S
_chemical_formula_sum   'Cs4 Pt6 Se7 S1'
_cell_volume   587.06895928
_cell_formula_units_Z   1
loop_
 _symmetry_equiv_pos_site_id
 _symmetry_equiv_pos_as_xyz
  1  'x, y, z'
loop_
 _atom_site_type_symbol
 _atom_site_label
 _atom_site_symmetry_multiplicity
 _atom_site_fract_x
 _atom_site_fract_y
 _atom_site_fract_z
 _atom_site_occupancy
  Cs  Cs0  1  0.333333  0.666667  0.891732  1
  Cs  Cs1  1  0.666667  0.333333  0.390360  1
  Cs  Cs2  1  0.666667  0.333333  0.108886  1
  Cs  Cs3  1  0.333333  0.666667  0.608565  1
  Pt  Pt4  1  0.164015  0.835985  0.251785  1
  Pt  Pt5  1  0.833620  0.667239  0.750043  1
  Pt  Pt6  1  0.833620  0.166380  0.750043  1
  Pt  Pt7  1  0.164015  0.328030  0.251785  1
  Pt  Pt8  1  0.332761  0.166380  0.750043  1
  Pt  Pt9  1  0.671970  0.835985  0.251785  1
  Se  Se10  1  0.333333  0.666667  0.355213  1
  Se  Se11  1  0.666667  0.333333  0.854381  1
  Se  Se12  1  0.666667  0.333333  0.645778  1
  Se  Se13  1  0.333333  0.666667  0.149156  1
  Se  Se14  1  0.000000  0.000000  0.646350  1
  Se  Se15  1  0.000000  0.000000  0.145433  1
  Se  Se16  1  0.000000  0.000000  0.853785  1
  S  S17  1  0.000000  0.000000  0.344879  1
