# generated using pymatgen
data_Yb2Pr(DyRu)2
_symmetry_space_group_name_H-M   'P 1'
_cell_length_a   8.55862588
_cell_length_b   8.55862655
_cell_length_c   7.43296001
_cell_angle_alpha   83.31650550
_cell_angle_beta   83.31649574
_cell_angle_gamma   44.09972227
_symmetry_Int_Tables_number   1
_chemical_formula_structural   Yb2Pr(DyRu)2
_chemical_formula_sum   'Yb4 Pr2 Dy4 Ru4'
_cell_volume   375.89919150
_cell_formula_units_Z   2
loop_
 _symmetry_equiv_pos_site_id
 _symmetry_equiv_pos_as_xyz
  1  'x, y, z'
loop_
 _atom_site_type_symbol
 _atom_site_label
 _atom_site_symmetry_multiplicity
 _atom_site_fract_x
 _atom_site_fract_y
 _atom_site_fract_z
 _atom_site_occupancy
  Yb  Yb0  1  0.201544  0.366007  0.314871  1
  Yb  Yb1  1  0.633993  0.798456  0.185129  1
  Yb  Yb2  1  0.804585  0.627316  0.677617  1
  Yb  Yb3  1  0.372684  0.195415  0.822383  1
  Pr  Pr4  1  0.206361  0.975094  0.581697  1
  Pr  Pr5  1  0.024906  0.793639  0.918303  1
  Dy  Dy6  1  0.968782  0.203560  0.081614  1
  Dy  Dy7  1  0.796440  0.031218  0.418386  1
  Dy  Dy8  1  0.573640  0.426360  0.750000  1
  Dy  Dy9  1  0.418650  0.581350  0.250000  1
  Ru  Ru10  1  0.176223  0.612140  0.575301  1
  Ru  Ru11  1  0.387860  0.823777  0.924699  1
  Ru  Ru12  1  0.816334  0.382005  0.419387  1
  Ru  Ru13  1  0.617995  0.183666  0.080613  1
