# generated using pymatgen
data_TmZr9(Sn3S)2
_symmetry_space_group_name_H-M   'P 1'
_cell_length_a   8.62993999
_cell_length_b   8.62994021
_cell_length_c   6.03655800
_cell_angle_alpha   90.00000000
_cell_angle_beta   90.00000000
_cell_angle_gamma   119.92215195
_symmetry_Int_Tables_number   1
_chemical_formula_structural   TmZr9(Sn3S)2
_chemical_formula_sum   'Tm1 Zr9 Sn6 S2'
_cell_volume   389.65093220
_cell_formula_units_Z   1
loop_
 _symmetry_equiv_pos_site_id
 _symmetry_equiv_pos_as_xyz
  1  'x, y, z'
loop_
 _atom_site_type_symbol
 _atom_site_label
 _atom_site_symmetry_multiplicity
 _atom_site_fract_x
 _atom_site_fract_y
 _atom_site_fract_z
 _atom_site_occupancy
  Tm  Tm0  1  0.747665  0.747665  0.750000  1
  Zr  Zr1  1  0.666545  0.332368  0.000136  1
  Zr  Zr2  1  0.332368  0.666545  0.000136  1
  Zr  Zr3  1  0.332368  0.666545  0.499864  1
  Zr  Zr4  1  0.666545  0.332368  0.499864  1
  Zr  Zr5  1  0.251497  0.999535  0.750000  1
  Zr  Zr6  1  0.999535  0.251497  0.750000  1
  Zr  Zr7  1  0.252168  0.252168  0.250000  1
  Zr  Zr8  1  0.747367  0.000209  0.250000  1
  Zr  Zr9  1  0.000209  0.747367  0.250000  1
  Sn  Sn10  1  0.395446  0.395446  0.750000  1
  Sn  Sn11  1  0.599074  0.001035  0.750000  1
  Sn  Sn12  1  0.001035  0.599074  0.750000  1
  Sn  Sn13  1  0.600507  0.600507  0.250000  1
  Sn  Sn14  1  0.399107  0.000254  0.250000  1
  Sn  Sn15  1  0.000254  0.399107  0.250000  1
  S  S16  1  0.004155  0.004155  0.002256  1
  S  S17  1  0.004155  0.004155  0.497744  1
