# generated using pymatgen
data_La4Mn(CuSb4)2
_symmetry_space_group_name_H-M   'P 1'
_cell_length_a   11.19948579
_cell_length_b   11.19948547
_cell_length_c   11.19948624
_cell_angle_alpha   147.58664068
_cell_angle_beta   147.58663854
_cell_angle_gamma   46.49594701
_symmetry_Int_Tables_number   1
_chemical_formula_structural   La4Mn(CuSb4)2
_chemical_formula_sum   'La4 Mn1 Cu2 Sb8'
_cell_volume   402.16742608
_cell_formula_units_Z   1
loop_
 _symmetry_equiv_pos_site_id
 _symmetry_equiv_pos_as_xyz
  1  'x, y, z'
loop_
 _atom_site_type_symbol
 _atom_site_label
 _atom_site_symmetry_multiplicity
 _atom_site_fract_x
 _atom_site_fract_y
 _atom_site_fract_z
 _atom_site_occupancy
  La  La0  1  0.628248  0.628248  0.498778  1
  La  La1  1  0.129469  0.129469  0.501222  1
  La  La2  1  0.371752  0.870531  0.000000  1
  La  La3  1  0.870531  0.371752  0.000000  1
  Mn  Mn4  1  0.000000  0.000000  0.000000  1
  Cu  Cu5  1  0.000000  0.500000  0.500000  1
  Cu  Cu6  1  0.500000  0.000000  0.500000  1
  Sb  Sb7  1  0.325976  0.325976  0.509809  1
  Sb  Sb8  1  0.816167  0.816167  0.490191  1
  Sb  Sb9  1  0.674024  0.183833  0.000000  1
  Sb  Sb10  1  0.183833  0.674024  0.000000  1
  Sb  Sb11  1  0.249831  0.249831  0.000000  1
  Sb  Sb12  1  0.750169  0.750169  0.000000  1
  Sb  Sb13  1  0.750000  0.250000  0.500000  1
  Sb  Sb14  1  0.250000  0.750000  0.500000  1
