# generated using pymatgen
data_TbCeY2(Cu5Sn)4
_symmetry_space_group_name_H-M   'P 1'
_cell_length_a   5.04131900
_cell_length_b   8.24162167
_cell_length_c   10.54520833
_cell_angle_alpha   90.06837110
_cell_angle_beta   90.00000000
_cell_angle_gamma   90.00000000
_symmetry_Int_Tables_number   1
_chemical_formula_structural   TbCeY2(Cu5Sn)4
_chemical_formula_sum   'Tb1 Ce1 Y2 Cu20 Sn4'
_cell_volume   438.13879373
_cell_formula_units_Z   1
loop_
 _symmetry_equiv_pos_site_id
 _symmetry_equiv_pos_as_xyz
  1  'x, y, z'
loop_
 _atom_site_type_symbol
 _atom_site_label
 _atom_site_symmetry_multiplicity
 _atom_site_fract_x
 _atom_site_fract_y
 _atom_site_fract_z
 _atom_site_occupancy
  Tb  Tb0  1  0.750000  0.749274  0.560422  1
  Ce  Ce1  1  0.250000  0.752007  0.059244  1
  Y  Y2  1  0.750000  0.247982  0.938639  1
  Y  Y3  1  0.250000  0.250639  0.441021  1
  Cu  Cu4  1  0.250000  0.816244  0.744216  1
  Cu  Cu5  1  0.750000  0.183901  0.257105  1
  Cu  Cu6  1  0.750000  0.684343  0.244021  1
  Cu  Cu7  1  0.250000  0.316466  0.754766  1
  Cu  Cu8  1  0.501413  0.567104  0.811587  1
  Cu  Cu9  1  0.499135  0.431321  0.188429  1
  Cu  Cu10  1  0.499615  0.932941  0.313127  1
  Cu  Cu11  1  0.000865  0.431321  0.188429  1
  Cu  Cu12  1  0.501025  0.067702  0.687640  1
  Cu  Cu13  1  0.998587  0.567104  0.811587  1
  Cu  Cu14  1  0.998975  0.067702  0.687640  1
  Cu  Cu15  1  0.000385  0.932941  0.313127  1
  Cu  Cu16  1  0.250000  0.915377  0.517062  1
  Cu  Cu17  1  0.750000  0.084072  0.483681  1
  Cu  Cu18  1  0.750000  0.580059  0.016647  1
  Cu  Cu19  1  0.250000  0.414103  0.982145  1
  Cu  Cu20  1  0.250000  0.561304  0.602172  1
  Cu  Cu21  1  0.750000  0.438827  0.397808  1
  Cu  Cu22  1  0.750000  0.941440  0.103142  1
  Cu  Cu23  1  0.250000  0.063081  0.896426  1
  Sn  Sn24  1  0.250000  0.639071  0.360636  1
  Sn  Sn25  1  0.750000  0.361137  0.639694  1
  Sn  Sn26  1  0.750000  0.861912  0.859417  1
  Sn  Sn27  1  0.250000  0.140625  0.140173  1
