# generated using pymatgen
data_HoErU8(Re3C8)2
_symmetry_space_group_name_H-M   'P 1'
_cell_length_a   11.35343502
_cell_length_b   11.35343538
_cell_length_c   3.27446700
_cell_angle_alpha   90.00000000
_cell_angle_beta   90.00000000
_cell_angle_gamma   90.01119831
_symmetry_Int_Tables_number   1
_chemical_formula_structural   HoErU8(Re3C8)2
_chemical_formula_sum   'Ho1 Er1 U8 Re6 C16'
_cell_volume   422.08039542
_cell_formula_units_Z   1
loop_
 _symmetry_equiv_pos_site_id
 _symmetry_equiv_pos_as_xyz
  1  'x, y, z'
loop_
 _atom_site_type_symbol
 _atom_site_label
 _atom_site_symmetry_multiplicity
 _atom_site_fract_x
 _atom_site_fract_y
 _atom_site_fract_z
 _atom_site_occupancy
  Ho  Ho0  1  0.500000  0.000000  0.000000  1
  Er  Er1  1  0.000000  0.500000  0.000000  1
  U  U2  1  0.270701  0.542110  0.500000  1
  U  U3  1  0.729299  0.457890  0.500000  1
  U  U4  1  0.542137  0.728852  0.500000  1
  U  U5  1  0.771148  0.957863  0.500000  1
  U  U6  1  0.228852  0.042137  0.500000  1
  U  U7  1  0.957890  0.229299  0.500000  1
  U  U8  1  0.457863  0.271148  0.500000  1
  U  U9  1  0.042110  0.770701  0.500000  1
  Re  Re10  1  0.202865  0.297135  0.000000  1
  Re  Re11  1  0.703378  0.203378  0.000000  1
  Re  Re12  1  0.296622  0.796622  0.000000  1
  Re  Re13  1  0.500000  0.500000  0.000000  1
  Re  Re14  1  0.797135  0.702865  0.000000  1
  Re  Re15  1  0.000000  0.000000  0.000000  1
  C  C16  1  0.347221  0.402665  0.000000  1
  C  C17  1  0.618414  0.118414  0.500000  1
  C  C18  1  0.902665  0.847221  0.000000  1
  C  C19  1  0.655352  0.844648  0.000000  1
  C  C20  1  0.344648  0.155352  0.000000  1
  C  C21  1  0.117737  0.382263  0.500000  1
  C  C22  1  0.152648  0.902545  0.000000  1
  C  C23  1  0.845283  0.345283  0.000000  1
  C  C24  1  0.652779  0.597335  0.000000  1
  C  C25  1  0.597455  0.347352  0.000000  1
  C  C26  1  0.882263  0.617737  0.500000  1
  C  C27  1  0.847352  0.097455  0.000000  1
  C  C28  1  0.381586  0.881586  0.500000  1
  C  C29  1  0.154717  0.654717  0.000000  1
  C  C30  1  0.097335  0.152779  0.000000  1
  C  C31  1  0.402545  0.652648  0.000000  1
