# generated using pymatgen
data_Er3TmSc2(B2Rh5)2
_symmetry_space_group_name_H-M   'P 1'
_cell_length_a   9.64144613
_cell_length_b   9.64144613
_cell_length_c   3.21092500
_cell_angle_alpha   90.00000000
_cell_angle_beta   90.00000000
_cell_angle_gamma   90.01913535
_symmetry_Int_Tables_number   1
_chemical_formula_structural   Er3TmSc2(B2Rh5)2
_chemical_formula_sum   'Er3 Tm1 Sc2 B4 Rh10'
_cell_volume   298.47949126
_cell_formula_units_Z   1
loop_
 _symmetry_equiv_pos_site_id
 _symmetry_equiv_pos_as_xyz
  1  'x, y, z'
loop_
 _atom_site_type_symbol
 _atom_site_label
 _atom_site_symmetry_multiplicity
 _atom_site_fract_x
 _atom_site_fract_y
 _atom_site_fract_z
 _atom_site_occupancy
  Er  Er0  1  0.325141  0.174789  0.000000  1
  Er  Er1  1  0.674789  0.825141  0.000000  1
  Er  Er2  1  0.174888  0.674888  0.000000  1
  Tm  Tm3  1  0.825214  0.325214  0.000000  1
  Sc  Sc4  1  0.999929  0.000113  0.000000  1
  Sc  Sc5  1  0.500113  0.499929  0.000000  1
  B  B6  1  0.620698  0.120698  0.000000  1
  B  B7  1  0.120382  0.379446  0.000000  1
  B  B8  1  0.879446  0.620382  0.000000  1
  B  B9  1  0.379449  0.879449  0.000000  1
  Rh  Rh10  1  0.071182  0.225187  0.500000  1
  Rh  Rh11  1  0.225021  0.928490  0.500000  1
  Rh  Rh12  1  0.775071  0.071920  0.500000  1
  Rh  Rh13  1  0.928455  0.774963  0.500000  1
  Rh  Rh14  1  0.428490  0.725021  0.500000  1
  Rh  Rh15  1  0.571920  0.275071  0.500000  1
  Rh  Rh16  1  0.725187  0.571182  0.500000  1
  Rh  Rh17  1  0.274963  0.428455  0.500000  1
  Rh  Rh18  1  0.500014  0.000014  0.500000  1
  Rh  Rh19  1  0.999646  0.499646  0.500000  1
