# generated using pymatgen
data_Dy7(YZn2)2
_symmetry_space_group_name_H-M   'P 1'
_cell_length_a   8.59586842
_cell_length_b   8.59583278
_cell_length_c   8.59588755
_cell_angle_alpha   94.96755082
_cell_angle_beta   94.96588827
_cell_angle_gamma   145.77572294
_symmetry_Int_Tables_number   1
_chemical_formula_structural   Dy7(YZn2)2
_chemical_formula_sum   'Dy7 Y2 Zn4'
_cell_volume   341.40997091
_cell_formula_units_Z   1
loop_
 _symmetry_equiv_pos_site_id
 _symmetry_equiv_pos_as_xyz
  1  'x, y, z'
loop_
 _atom_site_type_symbol
 _atom_site_label
 _atom_site_symmetry_multiplicity
 _atom_site_fract_x
 _atom_site_fract_y
 _atom_site_fract_z
 _atom_site_occupancy
  Dy  Dy0  1  0.499583  0.499793  0.999379  1
  Dy  Dy1  1  0.882173  0.403134  0.285327  1
  Dy  Dy2  1  0.596907  0.882410  0.479329  1
  Dy  Dy3  1  0.403380  0.118355  0.521724  1
  Dy  Dy4  1  0.118138  0.596694  0.714815  1
  Dy  Dy5  1  0.887166  0.817814  0.704975  1
  Dy  Dy6  1  0.817687  0.112500  0.930176  1
  Y  Y7  1  0.182139  0.887541  0.069699  1
  Y  Y8  1  0.112163  0.182295  0.294460  1
  Zn  Zn9  1  0.392057  0.734976  0.127039  1
  Zn  Zn10  1  0.735299  0.607987  0.343288  1
  Zn  Zn11  1  0.265019  0.391781  0.656798  1
  Zn  Zn12  1  0.608282  0.264714  0.872990  1
