# generated using pymatgen
data_Dy5Tm5Si5As
_symmetry_space_group_name_H-M   'P 1'
_cell_length_a   8.38957700
_cell_length_b   8.39961611
_cell_length_c   6.28973600
_cell_angle_alpha   90.00000000
_cell_angle_beta   90.00000000
_cell_angle_gamma   120.04933441
_symmetry_Int_Tables_number   1
_chemical_formula_structural   Dy5Tm5Si5As
_chemical_formula_sum   'Dy5 Tm5 Si5 As1'
_cell_volume   383.65992455
_cell_formula_units_Z   1
loop_
 _symmetry_equiv_pos_site_id
 _symmetry_equiv_pos_as_xyz
  1  'x, y, z'
loop_
 _atom_site_type_symbol
 _atom_site_label
 _atom_site_symmetry_multiplicity
 _atom_site_fract_x
 _atom_site_fract_y
 _atom_site_fract_z
 _atom_site_occupancy
  Dy  Dy0  1  0.758103  0.757719  0.250000  1
  Dy  Dy1  1  0.242882  0.996412  0.250000  1
  Dy  Dy2  1  0.996787  0.244107  0.250000  1
  Dy  Dy3  1  0.243589  0.243431  0.750000  1
  Dy  Dy4  1  0.756038  0.000183  0.750000  1
  Tm  Tm5  1  0.668957  0.333223  0.501664  1
  Tm  Tm6  1  0.332653  0.668748  0.501687  1
  Tm  Tm7  1  0.332653  0.668748  0.998313  1
  Tm  Tm8  1  0.668957  0.333223  0.998336  1
  Tm  Tm9  1  0.000318  0.755132  0.750000  1
  Si  Si10  1  0.604737  0.999722  0.250000  1
  Si  Si11  1  0.999880  0.604649  0.250000  1
  Si  Si12  1  0.607271  0.606095  0.750000  1
  Si  Si13  1  0.393511  0.999607  0.750000  1
  Si  Si14  1  0.000752  0.396206  0.750000  1
  As  As15  1  0.392910  0.392794  0.250000  1
