# generated using pymatgen
data_Dy3Er3FeBi2
_symmetry_space_group_name_H-M   'P 1'
_cell_length_a   8.31262004
_cell_length_b   8.31404858
_cell_length_c   4.17057400
_cell_angle_alpha   90.00000000
_cell_angle_beta   90.00000000
_cell_angle_gamma   120.00494587
_symmetry_Int_Tables_number   1
_chemical_formula_structural   Dy3Er3FeBi2
_chemical_formula_sum   'Dy3 Er3 Fe1 Bi2'
_cell_volume   249.60616281
_cell_formula_units_Z   1
loop_
 _symmetry_equiv_pos_site_id
 _symmetry_equiv_pos_as_xyz
  1  'x, y, z'
loop_
 _atom_site_type_symbol
 _atom_site_label
 _atom_site_symmetry_multiplicity
 _atom_site_fract_x
 _atom_site_fract_y
 _atom_site_fract_z
 _atom_site_occupancy
  Dy  Dy0  1  0.607851  0.000005  0.000000  1
  Dy  Dy1  1  0.999981  0.608031  0.000000  1
  Dy  Dy2  1  0.392011  0.392067  0.000000  1
  Er  Er3  1  0.229367  0.999957  0.500000  1
  Er  Er4  1  0.000065  0.229407  0.500000  1
  Er  Er5  1  0.770660  0.770567  0.500000  1
  Fe  Fe6  1  0.000056  0.999979  0.000000  1
  Bi  Bi7  1  0.333366  0.666690  0.500000  1
  Bi  Bi8  1  0.666642  0.333297  0.500000  1
