# generated using pymatgen
data_Nd10TlSi4Hg
_symmetry_space_group_name_H-M   'P 1'
_cell_length_a   7.82782500
_cell_length_b   9.06453972
_cell_length_c   7.82782500
_cell_angle_alpha   115.58075905
_cell_angle_beta   90.00000000
_cell_angle_gamma   115.58075905
_symmetry_Int_Tables_number   1
_chemical_formula_structural   Nd10TlSi4Hg
_chemical_formula_sum   'Nd10 Tl1 Si4 Hg1'
_cell_volume   439.85117514
_cell_formula_units_Z   1
loop_
 _symmetry_equiv_pos_site_id
 _symmetry_equiv_pos_as_xyz
  1  'x, y, z'
loop_
 _atom_site_type_symbol
 _atom_site_label
 _atom_site_symmetry_multiplicity
 _atom_site_fract_x
 _atom_site_fract_y
 _atom_site_fract_z
 _atom_site_occupancy
  Nd  Nd0  1  0.997858  0.995715  0.997858  1
  Nd  Nd1  1  0.502142  0.004285  0.502142  1
  Nd  Nd2  1  0.535920  0.719000  0.684852  1
  Nd  Nd3  1  0.183080  0.719000  0.034149  1
  Nd  Nd4  1  0.684852  0.719000  0.183080  1
  Nd  Nd5  1  0.034149  0.719000  0.535920  1
  Nd  Nd6  1  0.465851  0.281000  0.316920  1
  Nd  Nd7  1  0.815148  0.281000  0.964080  1
  Nd  Nd8  1  0.316920  0.281000  0.815148  1
  Nd  Nd9  1  0.964080  0.281000  0.465851  1
  Tl  Tl10  1  0.250000  0.500000  0.250000  1
  Si  Si11  1  0.885025  0.000000  0.614975  1
  Si  Si12  1  0.114975  0.000000  0.385025  1
  Si  Si13  1  0.614975  0.000000  0.114975  1
  Si  Si14  1  0.385025  0.000000  0.885025  1
  Hg  Hg15  1  0.750000  0.500000  0.750000  1
