# generated using pymatgen
data_PrTmRh6
_symmetry_space_group_name_H-M   'P 1'
_cell_length_a   5.29745100
_cell_length_b   5.29828768
_cell_length_c   17.45789700
_cell_angle_alpha   89.99938360
_cell_angle_beta   89.99909148
_cell_angle_gamma   119.99404587
_symmetry_Int_Tables_number   1
_chemical_formula_structural   PrTmRh6
_chemical_formula_sum   'Pr3 Tm3 Rh18'
_cell_volume   424.37627446
_cell_formula_units_Z   3
loop_
 _symmetry_equiv_pos_site_id
 _symmetry_equiv_pos_as_xyz
  1  'x, y, z'
loop_
 _atom_site_type_symbol
 _atom_site_label
 _atom_site_symmetry_multiplicity
 _atom_site_fract_x
 _atom_site_fract_y
 _atom_site_fract_z
 _atom_site_occupancy
  Pr  Pr0  1  0.333288  0.666655  0.751721  1
  Pr  Pr1  1  0.666728  0.333366  0.248984  1
  Pr  Pr2  1  0.333314  0.666661  0.540319  1
  Tm  Tm3  1  0.333300  0.666663  0.959586  1
  Tm  Tm4  1  0.666698  0.333329  0.040643  1
  Tm  Tm5  1  0.666696  0.333323  0.456300  1
  Rh  Rh6  1  0.167059  0.832971  0.373791  1
  Rh  Rh7  1  0.167046  0.334037  0.373765  1
  Rh  Rh8  1  0.666031  0.833010  0.373716  1
  Rh  Rh9  1  0.832866  0.167076  0.626916  1
  Rh  Rh10  1  0.832883  0.665848  0.626944  1
  Rh  Rh11  1  0.334080  0.167047  0.626998  1
  Rh  Rh12  1  0.832347  0.167610  0.876853  1
  Rh  Rh13  1  0.832380  0.664799  0.876828  1
  Rh  Rh14  1  0.335039  0.167515  0.876757  1
  Rh  Rh15  1  0.167785  0.832298  0.123401  1
  Rh  Rh16  1  0.167755  0.335428  0.123428  1
  Rh  Rh17  1  0.664697  0.832341  0.123495  1
  Rh  Rh18  1  0.333566  0.666693  0.249101  1
  Rh  Rh19  1  0.666636  0.333347  0.751203  1
  Rh  Rh20  1  0.999900  0.000009  0.248285  1
  Rh  Rh21  1  0.999891  0.999958  0.751409  1
  Rh  Rh22  1  0.000003  0.000009  0.499471  1
  Rh  Rh23  1  0.000013  0.000003  0.000086  1
