# generated using pymatgen
data_DyHoEr14(Ga3Co)2
_symmetry_space_group_name_H-M   'P 1'
_cell_length_a   9.93419900
_cell_length_b   9.93420001
_cell_length_c   6.87607300
_cell_angle_alpha   90.00000000
_cell_angle_beta   90.00000000
_cell_angle_gamma   120.00000663
_symmetry_Int_Tables_number   1
_chemical_formula_structural   DyHoEr14(Ga3Co)2
_chemical_formula_sum   'Dy1 Ho1 Er14 Ga6 Co2'
_cell_volume   587.67448644
_cell_formula_units_Z   1
loop_
 _symmetry_equiv_pos_site_id
 _symmetry_equiv_pos_as_xyz
  1  'x, y, z'
loop_
 _atom_site_type_symbol
 _atom_site_label
 _atom_site_symmetry_multiplicity
 _atom_site_fract_x
 _atom_site_fract_y
 _atom_site_fract_z
 _atom_site_occupancy
  Dy  Dy0  1  0.000000  0.000000  0.770266  1
  Ho  Ho1  1  0.000000  0.000000  0.270153  1
  Er  Er2  1  0.173481  0.826519  0.990768  1
  Er  Er3  1  0.826520  0.173480  0.490630  1
  Er  Er4  1  0.173481  0.346963  0.990768  1
  Er  Er5  1  0.653037  0.826519  0.990768  1
  Er  Er6  1  0.346961  0.173480  0.490630  1
  Er  Er7  1  0.826520  0.653039  0.490630  1
  Er  Er8  1  0.333333  0.666667  0.672350  1
  Er  Er9  1  0.666667  0.333333  0.172468  1
  Er  Er10  1  0.463745  0.536255  0.293242  1
  Er  Er11  1  0.536256  0.463744  0.793249  1
  Er  Er12  1  0.463745  0.927490  0.293242  1
  Er  Er13  1  0.072510  0.536255  0.293242  1
  Er  Er14  1  0.927488  0.463744  0.793249  1
  Er  Er15  1  0.536256  0.072512  0.793249  1
  Ga  Ga16  1  0.163751  0.836249  0.540331  1
  Ga  Ga17  1  0.836251  0.163749  0.040475  1
  Ga  Ga18  1  0.163751  0.327502  0.540331  1
  Ga  Ga19  1  0.672498  0.836249  0.540331  1
  Ga  Ga20  1  0.327498  0.163749  0.040475  1
  Ga  Ga21  1  0.836251  0.672502  0.040475  1
  Co  Co22  1  0.333333  0.666667  0.057353  1
  Co  Co23  1  0.666667  0.333333  0.557441  1
