# generated using pymatgen
data_LiTbYSi3Ag
_symmetry_space_group_name_H-M   'P 1'
_cell_length_a   9.28783265
_cell_length_b   9.28783392
_cell_length_c   6.90552300
_cell_angle_alpha   90.00000000
_cell_angle_beta   90.00000000
_cell_angle_gamma   153.48445800
_symmetry_Int_Tables_number   1
_chemical_formula_structural   LiTbYSi3Ag
_chemical_formula_sum   'Li2 Tb2 Y2 Si6 Ag2'
_cell_volume   265.94329092
_cell_formula_units_Z   2
loop_
 _symmetry_equiv_pos_site_id
 _symmetry_equiv_pos_as_xyz
  1  'x, y, z'
loop_
 _atom_site_type_symbol
 _atom_site_label
 _atom_site_symmetry_multiplicity
 _atom_site_fract_x
 _atom_site_fract_y
 _atom_site_fract_z
 _atom_site_occupancy
  Li  Li0  1  0.808480  0.191520  0.939356  1
  Li  Li1  1  0.808480  0.191520  0.560644  1
  Tb  Tb2  1  0.553846  0.446154  0.250000  1
  Tb  Tb3  1  0.447832  0.552168  0.750000  1
  Y  Y4  1  0.347972  0.652028  0.250000  1
  Y  Y5  1  0.651477  0.348523  0.750000  1
  Si  Si6  1  0.724304  0.275696  0.250000  1
  Si  Si7  1  0.280172  0.719828  0.750000  1
  Si  Si8  1  0.057268  0.942732  0.923787  1
  Si  Si9  1  0.940583  0.059417  0.075490  1
  Si  Si10  1  0.940583  0.059417  0.424510  1
  Si  Si11  1  0.057268  0.942732  0.576213  1
  Ag  Ag12  1  0.190867  0.809133  0.049027  1
  Ag  Ag13  1  0.190867  0.809133  0.450973  1
