# generated using pymatgen
data_Tb4CePr3(CdIr)2
_symmetry_space_group_name_H-M   'P 1'
_cell_length_a   9.82250791
_cell_length_b   9.82250842
_cell_length_c   9.87217700
_cell_angle_alpha   59.83259741
_cell_angle_beta   59.83259567
_cell_angle_gamma   59.81341753
_symmetry_Int_Tables_number   1
_chemical_formula_structural   Tb4CePr3(CdIr)2
_chemical_formula_sum   'Tb8 Ce2 Pr6 Cd4 Ir4'
_cell_volume   670.85113105
_cell_formula_units_Z   2
loop_
 _symmetry_equiv_pos_site_id
 _symmetry_equiv_pos_as_xyz
  1  'x, y, z'
loop_
 _atom_site_type_symbol
 _atom_site_label
 _atom_site_symmetry_multiplicity
 _atom_site_fract_x
 _atom_site_fract_y
 _atom_site_fract_z
 _atom_site_occupancy
  Tb  Tb0  1  0.348814  0.953730  0.348728  1
  Tb  Tb1  1  0.953730  0.348814  0.348728  1
  Tb  Tb2  1  0.813605  0.186820  0.187902  1
  Tb  Tb3  1  0.186820  0.813605  0.811673  1
  Tb  Tb4  1  0.186820  0.813605  0.187902  1
  Tb  Tb5  1  0.813605  0.186820  0.811673  1
  Tb  Tb6  1  0.186742  0.186742  0.813258  1
  Tb  Tb7  1  0.812550  0.812550  0.187450  1
  Ce  Ce8  1  0.344120  0.344120  0.347012  1
  Ce  Ce9  1  0.344120  0.344120  0.964746  1
  Pr  Pr10  1  0.943718  0.558071  0.559640  1
  Pr  Pr11  1  0.558071  0.943718  0.938571  1
  Pr  Pr12  1  0.558071  0.943718  0.559640  1
  Pr  Pr13  1  0.943718  0.558071  0.938571  1
  Pr  Pr14  1  0.558852  0.558852  0.941148  1
  Pr  Pr15  1  0.941029  0.941029  0.558971  1
  Cd  Cd16  1  0.578834  0.578834  0.579852  1
  Cd  Cd17  1  0.578834  0.578834  0.262478  1
  Cd  Cd18  1  0.578350  0.262194  0.579727  1
  Cd  Cd19  1  0.262194  0.578350  0.579727  1
  Ir  Ir20  1  0.143988  0.143988  0.138894  1
  Ir  Ir21  1  0.143988  0.143988  0.573130  1
  Ir  Ir22  1  0.146786  0.572638  0.140288  1
  Ir  Ir23  1  0.572638  0.146786  0.140288  1
