# generated using pymatgen
data_La2Pr3NdOsBr10
_symmetry_space_group_name_H-M   'P 1'
_cell_length_a   7.77470331
_cell_length_b   9.48646438
_cell_length_c   9.82229657
_cell_angle_alpha   108.61837927
_cell_angle_beta   97.19674824
_cell_angle_gamma   105.16015233
_symmetry_Int_Tables_number   1
_chemical_formula_structural   La2Pr3NdOsBr10
_chemical_formula_sum   'La2 Pr3 Nd1 Os1 Br10'
_cell_volume   645.14266784
_cell_formula_units_Z   1
loop_
 _symmetry_equiv_pos_site_id
 _symmetry_equiv_pos_as_xyz
  1  'x, y, z'
loop_
 _atom_site_type_symbol
 _atom_site_label
 _atom_site_symmetry_multiplicity
 _atom_site_fract_x
 _atom_site_fract_y
 _atom_site_fract_z
 _atom_site_occupancy
  La  La0  1  0.533641  0.215867  0.413746  1
  La  La1  1  0.465826  0.783912  0.585836  1
  Pr  Pr2  1  0.870718  0.643398  0.687812  1
  Pr  Pr3  1  0.629144  0.550341  0.248315  1
  Pr  Pr4  1  0.369886  0.449023  0.751276  1
  Nd  Nd5  1  0.130808  0.357452  0.313063  1
  Os  Os6  1  0.499589  0.499805  0.499876  1
  Br  Br7  1  0.149110  0.045964  0.228368  1
  Br  Br8  1  0.849794  0.956255  0.771795  1
  Br  Br9  1  0.250288  0.415920  0.050754  1
  Br  Br10  1  0.748167  0.583286  0.950252  1
  Br  Br11  1  0.708351  0.247098  0.154437  1
  Br  Br12  1  0.294251  0.753511  0.846618  1
  Br  Br13  1  0.045230  0.671742  0.418593  1
  Br  Br14  1  0.955242  0.326512  0.579349  1
  Br  Br15  1  0.413339  0.132264  0.672892  1
  Br  Br16  1  0.586617  0.867652  0.327018  1
