# generated using pymatgen
data_Ir2Rh2Pb3AuO14
_symmetry_space_group_name_H-M   'P 1'
_cell_length_a   7.25660206
_cell_length_b   7.36209052
_cell_length_c   7.36717447
_cell_angle_alpha   60.02283407
_cell_angle_beta   59.39928141
_cell_angle_gamma   59.51794395
_symmetry_Int_Tables_number   1
_chemical_formula_structural   Ir2Rh2Pb3AuO14
_chemical_formula_sum   'Ir2 Rh2 Pb3 Au1 O14'
_cell_volume   276.05166064
_cell_formula_units_Z   1
loop_
 _symmetry_equiv_pos_site_id
 _symmetry_equiv_pos_as_xyz
  1  'x, y, z'
loop_
 _atom_site_type_symbol
 _atom_site_label
 _atom_site_symmetry_multiplicity
 _atom_site_fract_x
 _atom_site_fract_y
 _atom_site_fract_z
 _atom_site_occupancy
  Ir  Ir0  1  0.625000  0.125000  0.625000  1
  Ir  Ir1  1  0.625000  0.625000  0.625000  1
  Rh  Rh2  1  0.125000  0.625000  0.625000  1
  Rh  Rh3  1  0.625000  0.625000  0.125000  1
  Pb  Pb4  1  0.125000  0.625000  0.125000  1
  Pb  Pb5  1  0.125000  0.125000  0.625000  1
  Pb  Pb6  1  0.125000  0.125000  0.125000  1
  Au  Au7  1  0.625000  0.125000  0.125000  1
  O  O8  1  0.705472  0.692006  0.304791  1
  O  O9  1  0.293087  0.293042  0.706299  1
  O  O10  1  0.705352  0.302209  0.690231  1
  O  O11  1  0.290616  0.707734  0.293916  1
  O  O12  1  0.293087  0.707571  0.706299  1
  O  O13  1  0.705472  0.297732  0.304791  1
  O  O14  1  0.544528  0.557994  0.945209  1
  O  O15  1  0.956913  0.956958  0.543701  1
  O  O16  1  0.544648  0.947791  0.559769  1
  O  O17  1  0.959384  0.542266  0.956084  1
  O  O18  1  0.956913  0.542429  0.543701  1
  O  O19  1  0.544528  0.952268  0.945209  1
  O  O20  1  0.281924  0.239421  0.239234  1
  O  O21  1  0.968076  0.010579  0.010766  1
