# generated using pymatgen
data_Ce5Lu3(Ta3Ge4)4
_symmetry_space_group_name_H-M   'P 1'
_cell_length_a   7.06160031
_cell_length_b   7.17889320
_cell_length_c   13.70636200
_cell_angle_alpha   90.01005624
_cell_angle_beta   90.06329507
_cell_angle_gamma   90.00888786
_symmetry_Int_Tables_number   1
_chemical_formula_structural   Ce5Lu3(Ta3Ge4)4
_chemical_formula_sum   'Ce5 Lu3 Ta12 Ge16'
_cell_volume   694.83637472
_cell_formula_units_Z   1
loop_
 _symmetry_equiv_pos_site_id
 _symmetry_equiv_pos_as_xyz
  1  'x, y, z'
loop_
 _atom_site_type_symbol
 _atom_site_label
 _atom_site_symmetry_multiplicity
 _atom_site_fract_x
 _atom_site_fract_y
 _atom_site_fract_z
 _atom_site_occupancy
  Ce  Ce0  1  0.005474  0.172500  0.406898  1
  Ce  Ce1  1  0.505424  0.326542  0.406948  1
  Ce  Ce2  1  0.004128  0.173360  0.092510  1
  Ce  Ce3  1  0.495448  0.673177  0.906996  1
  Ce  Ce4  1  0.996083  0.828797  0.593099  1
  Lu  Lu5  1  0.492080  0.674334  0.596187  1
  Lu  Lu6  1  0.991970  0.824768  0.905193  1
  Lu  Lu7  1  0.508198  0.325575  0.093051  1
  Ta  Ta8  1  0.661406  0.165394  0.627582  1
  Ta  Ta9  1  0.159984  0.333993  0.873644  1
  Ta  Ta10  1  0.341947  0.832184  0.126196  1
  Ta  Ta11  1  0.841886  0.665236  0.372380  1
  Ta  Ta12  1  0.341598  0.834079  0.372738  1
  Ta  Ta13  1  0.842315  0.667387  0.125919  1
  Ta  Ta14  1  0.657003  0.167002  0.873382  1
  Ta  Ta15  1  0.155987  0.332885  0.627360  1
  Ta  Ta16  1  0.833638  0.488362  0.749808  1
  Ta  Ta17  1  0.334457  0.011970  0.751614  1
  Ta  Ta18  1  0.165523  0.511415  0.249394  1
  Ta  Ta19  1  0.666658  0.988384  0.249722  1
  Ge  Ge20  1  0.672930  0.952117  0.457387  1
  Ge  Ge21  1  0.178388  0.542379  0.043309  1
  Ge  Ge22  1  0.320387  0.042170  0.956231  1
  Ge  Ge23  1  0.820210  0.458873  0.545452  1
  Ge  Ge24  1  0.329911  0.041733  0.545510  1
  Ge  Ge25  1  0.826291  0.458912  0.956054  1
  Ge  Ge26  1  0.673419  0.959204  0.042860  1
  Ge  Ge27  1  0.176515  0.545447  0.457237  1
  Ge  Ge28  1  0.459915  0.377584  0.749150  1
  Ge  Ge29  1  0.960554  0.122127  0.751880  1
  Ge  Ge30  1  0.539764  0.622598  0.248959  1
  Ge  Ge31  1  0.040632  0.877028  0.249622  1
  Ge  Ge32  1  0.692039  0.858415  0.749697  1
  Ge  Ge33  1  0.191445  0.641488  0.751209  1
  Ge  Ge34  1  0.310689  0.141197  0.246939  1
  Ge  Ge35  1  0.805704  0.361388  0.247884  1
