# generated using pymatgen
data_Pr8Nd2Si5Pt
_symmetry_space_group_name_H-M   'P 1'
_cell_length_a   7.73840999
_cell_length_b   7.73841039
_cell_length_c   9.09400861
_cell_angle_alpha   115.18025323
_cell_angle_beta   115.18025673
_cell_angle_gamma   90.00000401
_symmetry_Int_Tables_number   1
_chemical_formula_structural   Pr8Nd2Si5Pt
_chemical_formula_sum   'Pr8 Nd2 Si5 Pt1'
_cell_volume   434.96452173
_cell_formula_units_Z   1
loop_
 _symmetry_equiv_pos_site_id
 _symmetry_equiv_pos_as_xyz
  1  'x, y, z'
loop_
 _atom_site_type_symbol
 _atom_site_label
 _atom_site_symmetry_multiplicity
 _atom_site_fract_x
 _atom_site_fract_y
 _atom_site_fract_z
 _atom_site_occupancy
  Pr  Pr0  1  0.953904  0.809867  0.286058  1
  Pr  Pr1  1  0.332155  0.476191  0.286058  1
  Pr  Pr2  1  0.809867  0.332155  0.286058  1
  Pr  Pr3  1  0.476191  0.953904  0.286058  1
  Pr  Pr4  1  0.023809  0.167845  0.713942  1
  Pr  Pr5  1  0.690133  0.546096  0.713942  1
  Pr  Pr6  1  0.167845  0.690133  0.713942  1
  Pr  Pr7  1  0.546096  0.023809  0.713942  1
  Nd  Nd8  1  0.472945  0.472945  0.945890  1
  Nd  Nd9  1  0.027055  0.027055  0.054110  1
  Si  Si10  1  0.250000  0.250000  0.500000  1
  Si  Si11  1  0.614665  0.885335  0.000000  1
  Si  Si12  1  0.385335  0.114665  0.000000  1
  Si  Si13  1  0.885335  0.385335  0.000000  1
  Si  Si14  1  0.114665  0.614665  0.000000  1
  Pt  Pt15  1  0.750000  0.750000  0.500000  1
