# generated using pymatgen
data_ErLuCd4(BiO6)2
_symmetry_space_group_name_H-M   'P 1'
_cell_length_a   6.63673467
_cell_length_b   6.73092238
_cell_length_c   6.67780685
_cell_angle_alpha   90.79467859
_cell_angle_beta   90.98422055
_cell_angle_gamma   91.08894846
_symmetry_Int_Tables_number   1
_chemical_formula_structural   ErLuCd4(BiO6)2
_chemical_formula_sum   'Er1 Lu1 Cd4 Bi2 O12'
_cell_volume   298.17867269
_cell_formula_units_Z   1
loop_
 _symmetry_equiv_pos_site_id
 _symmetry_equiv_pos_as_xyz
  1  'x, y, z'
loop_
 _atom_site_type_symbol
 _atom_site_label
 _atom_site_symmetry_multiplicity
 _atom_site_fract_x
 _atom_site_fract_y
 _atom_site_fract_z
 _atom_site_occupancy
  Er  Er0  1  0.752032  0.565112  0.060866  1
  Lu  Lu1  1  0.057655  0.748208  0.563755  1
  Cd  Cd2  1  0.561869  0.047539  0.746436  1
  Cd  Cd3  1  0.947327  0.246117  0.441033  1
  Cd  Cd4  1  0.250579  0.434849  0.946494  1
  Cd  Cd5  1  0.439586  0.955832  0.252756  1
  Bi  Bi6  1  0.500791  0.501975  0.503261  1
  Bi  Bi7  1  0.000927  0.002498  0.000505  1
  O  O8  1  0.028235  0.692585  0.896469  1
  O  O9  1  0.697395  0.897653  0.037705  1
  O  O10  1  0.917794  0.022419  0.690460  1
  O  O11  1  0.947932  0.301699  0.091625  1
  O  O12  1  0.305109  0.094603  0.962209  1
  O  O13  1  0.083949  0.943184  0.302644  1
  O  O14  1  0.806890  0.586641  0.414903  1
  O  O15  1  0.580055  0.438081  0.806508  1
  O  O16  1  0.400004  0.799912  0.565428  1
  O  O17  1  0.192052  0.442551  0.579941  1
  O  O18  1  0.441795  0.574310  0.196696  1
  O  O19  1  0.588024  0.204232  0.440305  1
