# generated using pymatgen
data_Y14Lu6Cd6NiRh
_symmetry_space_group_name_H-M   'P 1'
_cell_length_a   9.58780468
_cell_length_b   9.58780569
_cell_length_c   9.71954326
_cell_angle_alpha   90.02206946
_cell_angle_beta   89.97792829
_cell_angle_gamma   119.96234937
_symmetry_Int_Tables_number   1
_chemical_formula_structural   Y14Lu6Cd6NiRh
_chemical_formula_sum   'Y14 Lu6 Cd6 Ni1 Rh1'
_cell_volume   774.06867153
_cell_formula_units_Z   1
loop_
 _symmetry_equiv_pos_site_id
 _symmetry_equiv_pos_as_xyz
  1  'x, y, z'
loop_
 _atom_site_type_symbol
 _atom_site_label
 _atom_site_symmetry_multiplicity
 _atom_site_fract_x
 _atom_site_fract_y
 _atom_site_fract_z
 _atom_site_occupancy
  Y  Y0  1  0.542135  0.457865  0.252397  1
  Y  Y1  1  0.541973  0.082653  0.252412  1
  Y  Y2  1  0.917347  0.458027  0.252412  1
  Y  Y3  1  0.456667  0.911331  0.746848  1
  Y  Y4  1  0.088669  0.543333  0.746848  1
  Y  Y5  1  0.791415  0.208585  0.562315  1
  Y  Y6  1  0.790482  0.583510  0.562324  1
  Y  Y7  1  0.416490  0.209518  0.562324  1
  Y  Y8  1  0.790291  0.209709  0.937842  1
  Y  Y9  1  0.789462  0.581407  0.937575  1
  Y  Y10  1  0.418593  0.210538  0.937575  1
  Y  Y11  1  0.207780  0.792220  0.060490  1
  Y  Y12  1  0.209310  0.416568  0.059954  1
  Y  Y13  1  0.583432  0.790690  0.059954  1
  Lu  Lu14  1  0.999707  0.000293  0.498828  1
  Lu  Lu15  1  0.999704  0.000296  0.998442  1
  Lu  Lu16  1  0.457047  0.542953  0.747032  1
  Lu  Lu17  1  0.209710  0.790290  0.440184  1
  Lu  Lu18  1  0.211252  0.420209  0.440693  1
  Lu  Lu19  1  0.579791  0.788748  0.440693  1
  Cd  Cd20  1  0.887102  0.112898  0.251025  1
  Cd  Cd21  1  0.886651  0.773724  0.250295  1
  Cd  Cd22  1  0.226276  0.113349  0.250295  1
  Cd  Cd23  1  0.113735  0.886265  0.748608  1
  Cd  Cd24  1  0.115753  0.229160  0.749095  1
  Cd  Cd25  1  0.770840  0.884247  0.749095  1
  Ni  Ni26  1  0.665517  0.334483  0.748761  1
  Rh  Rh27  1  0.332867  0.667133  0.255682  1
