# generated using pymatgen
data_Cs2BiP2Se7
_symmetry_space_group_name_H-M   'P 1'
_cell_length_a   7.26072765
_cell_length_b   13.11345624
_cell_length_c   18.00131000
_cell_angle_alpha   94.12236859
_cell_angle_beta   101.63476244
_cell_angle_gamma   106.07185347
_symmetry_Int_Tables_number   1
_chemical_formula_structural   Cs2BiP2Se7
_chemical_formula_sum   'Cs8 Bi4 P8 Se28'
_cell_volume   1598.21108648
_cell_formula_units_Z   4
loop_
 _symmetry_equiv_pos_site_id
 _symmetry_equiv_pos_as_xyz
  1  'x, y, z'
loop_
 _atom_site_type_symbol
 _atom_site_label
 _atom_site_symmetry_multiplicity
 _atom_site_fract_x
 _atom_site_fract_y
 _atom_site_fract_z
 _atom_site_occupancy
  Cs  Cs0  1  0.826332  0.638502  0.021624  1
  Cs  Cs1  1  0.605037  0.144703  0.112618  1
  Cs  Cs2  1  0.847715  0.355297  0.387382  1
  Cs  Cs3  1  0.666205  0.861499  0.478376  1
  Cs  Cs4  1  0.333795  0.138501  0.521624  1
  Cs  Cs5  1  0.152285  0.644703  0.612618  1
  Cs  Cs6  1  0.394962  0.855297  0.887382  1
  Cs  Cs7  1  0.173669  0.361499  0.978376  1
  Bi  Bi8  1  0.031146  0.919237  0.242897  1
  Bi  Bi9  1  0.369012  0.580763  0.257103  1
  Bi  Bi10  1  0.630986  0.419236  0.742896  1
  Bi  Bi11  1  0.968854  0.080764  0.757104  1
  P  P12  1  0.473869  0.809453  0.141054  1
  P  P13  1  0.215873  0.287571  0.194053  1
  P  P14  1  0.234250  0.212430  0.305948  1
  P  P15  1  0.023363  0.690548  0.358946  1
  P  P16  1  0.976637  0.309452  0.641054  1
  P  P17  1  0.765751  0.787571  0.694052  1
  P  P18  1  0.784128  0.712429  0.805948  1
  P  P19  1  0.526132  0.190548  0.858946  1
  Se  Se20  1  0.724839  0.885738  0.090864  1
  Se  Se21  1  0.358771  0.631730  0.099707  1
  Se  Se22  1  0.104328  0.155568  0.101967  1
  Se  Se23  1  0.240783  0.886581  0.108417  1
  Se  Se24  1  0.020636  0.392560  0.199212  1
  Se  Se25  1  0.511657  0.399092  0.198140  1
  Se  Se26  1  0.010864  0.677944  0.232537  1
  Se  Se27  1  0.600381  0.822055  0.267462  1
  Se  Se28  1  0.414424  0.100908  0.301860  1
  Se  Se29  1  0.928864  0.107440  0.300788  1
  Se  Se30  1  0.745784  0.613419  0.391584  1
  Se  Se31  1  0.346792  0.344432  0.398033  1
  Se  Se32  1  0.127333  0.868270  0.400293  1
  Se  Se33  1  0.248237  0.614262  0.409135  1
  Se  Se34  1  0.751763  0.385739  0.590864  1
  Se  Se35  1  0.872666  0.131730  0.599707  1
  Se  Se36  1  0.653208  0.655567  0.601968  1
  Se  Se37  1  0.254217  0.386582  0.608417  1
  Se  Se38  1  0.071136  0.892560  0.699212  1
  Se  Se39  1  0.585576  0.899091  0.698140  1
  Se  Se40  1  0.399617  0.177945  0.732537  1
  Se  Se41  1  0.989136  0.322056  0.767463  1
  Se  Se42  1  0.488344  0.600908  0.801860  1
  Se  Se43  1  0.979364  0.607440  0.800788  1
  Se  Se44  1  0.759218  0.113419  0.891584  1
  Se  Se45  1  0.895673  0.844432  0.898033  1
  Se  Se46  1  0.641230  0.368270  0.900293  1
  Se  Se47  1  0.275161  0.114262  0.909135  1
