# generated using pymatgen
data_Pa2Al9Fe2Ir
_symmetry_space_group_name_H-M   'P 1'
_cell_length_a   7.50250285
_cell_length_b   7.50250302
_cell_length_c   9.19315900
_cell_angle_alpha   89.99961255
_cell_angle_beta   89.99960971
_cell_angle_gamma   119.40969267
_symmetry_Int_Tables_number   1
_chemical_formula_structural   Pa2Al9Fe2Ir
_chemical_formula_sum   'Pa4 Al18 Fe4 Ir2'
_cell_volume   450.77566738
_cell_formula_units_Z   2
loop_
 _symmetry_equiv_pos_site_id
 _symmetry_equiv_pos_as_xyz
  1  'x, y, z'
loop_
 _atom_site_type_symbol
 _atom_site_label
 _atom_site_symmetry_multiplicity
 _atom_site_fract_x
 _atom_site_fract_y
 _atom_site_fract_z
 _atom_site_occupancy
  Pa  Pa0  1  0.996559  0.672819  0.245573  1
  Pa  Pa1  1  0.002986  0.326046  0.753608  1
  Pa  Pa2  1  0.673954  0.997014  0.246392  1
  Pa  Pa3  1  0.327181  0.003441  0.754427  1
  Al  Al4  1  0.130762  0.129642  0.244030  1
  Al  Al5  1  0.870358  0.869238  0.755970  1
  Al  Al6  1  0.003487  0.336871  0.074640  1
  Al  Al7  1  0.997800  0.663201  0.925633  1
  Al  Al8  1  0.003511  0.664160  0.575611  1
  Al  Al9  1  0.335840  0.996489  0.424389  1
  Al  Al10  1  0.011055  0.343134  0.423212  1
  Al  Al11  1  0.656866  0.988945  0.576788  1
  Al  Al12  1  0.663129  0.996513  0.925360  1
  Al  Al13  1  0.336799  0.002200  0.074367  1
  Al  Al14  1  0.335913  0.340778  0.551606  1
  Al  Al15  1  0.659222  0.664087  0.448394  1
  Al  Al16  1  0.665134  0.665582  0.044369  1
  Al  Al17  1  0.334418  0.334866  0.955631  1
  Al  Al18  1  0.342189  0.556583  0.248520  1
  Al  Al19  1  0.657466  0.449132  0.756838  1
  Al  Al20  1  0.550868  0.342534  0.243162  1
  Al  Al21  1  0.443417  0.657811  0.751480  1
  Fe  Fe22  1  0.675512  0.324488  0.000000  1
  Fe  Fe23  1  0.324819  0.675181  0.000000  1
  Fe  Fe24  1  0.326856  0.673144  0.500000  1
  Fe  Fe25  1  0.999975  0.000025  0.000000  1
  Ir  Ir26  1  0.673903  0.326097  0.500000  1
  Ir  Ir27  1  0.000021  0.999979  0.500000  1
