# generated using pymatgen
data_Nb6Si6Mo5Ru
_symmetry_space_group_name_H-M   'P 1'
_cell_length_a   7.68957934
_cell_length_b   7.70624505
_cell_length_c   7.69022446
_cell_angle_alpha   126.45993107
_cell_angle_beta   128.17909584
_cell_angle_gamma   77.69070445
_symmetry_Int_Tables_number   1
_chemical_formula_structural   Nb6Si6Mo5Ru
_chemical_formula_sum   'Nb6 Si6 Mo5 Ru1'
_cell_volume   279.41481699
_cell_formula_units_Z   1
loop_
 _symmetry_equiv_pos_site_id
 _symmetry_equiv_pos_as_xyz
  1  'x, y, z'
loop_
 _atom_site_type_symbol
 _atom_site_label
 _atom_site_symmetry_multiplicity
 _atom_site_fract_x
 _atom_site_fract_y
 _atom_site_fract_z
 _atom_site_occupancy
  Nb  Nb0  1  0.549373  0.083153  0.034773  1
  Nb  Nb1  1  0.448051  0.498004  0.553763  1
  Nb  Nb2  1  0.943836  0.496431  0.048314  1
  Nb  Nb3  1  0.047259  0.085100  0.534939  1
  Nb  Nb4  1  0.757884  0.909616  0.655629  1
  Nb  Nb5  1  0.252477  0.908524  0.150915  1
  Si  Si6  1  0.745015  0.495894  0.249839  1
  Si  Si7  1  0.247108  0.497333  0.753298  1
  Si  Si8  1  0.334047  0.821451  0.485861  1
  Si  Si9  1  0.667225  0.166340  0.496206  1
  Si  Si10  1  0.834464  0.827412  0.992796  1
  Si  Si11  1  0.173572  0.172393  0.000207  1
  Mo  Mo12  1  0.498715  0.239201  0.740395  1
  Mo  Mo13  1  0.002445  0.241426  0.240633  1
  Mo  Mo14  1  0.128811  0.754137  0.625370  1
  Mo  Mo15  1  0.868925  0.496719  0.627226  1
  Mo  Mo16  1  0.628640  0.752626  0.125619  1
  Ru  Ru17  1  0.372155  0.496439  0.126418  1
