# generated using pymatgen
data_SrCa(BrO3)4
_symmetry_space_group_name_H-M   'P 1'
_cell_length_a   7.15191736
_cell_length_b   7.06682914
_cell_length_c   7.37578800
_cell_angle_alpha   76.97187174
_cell_angle_beta   73.00309400
_cell_angle_gamma   116.50711861
_symmetry_Int_Tables_number   1
_chemical_formula_structural   SrCa(BrO3)4
_chemical_formula_sum   'Sr1 Ca1 Br4 O12'
_cell_volume   290.12862328
_cell_formula_units_Z   1
loop_
 _symmetry_equiv_pos_site_id
 _symmetry_equiv_pos_as_xyz
  1  'x, y, z'
loop_
 _atom_site_type_symbol
 _atom_site_label
 _atom_site_symmetry_multiplicity
 _atom_site_fract_x
 _atom_site_fract_y
 _atom_site_fract_z
 _atom_site_occupancy
  Sr  Sr0  1  0.377597  0.624051  0.493554  1
  Ca  Ca1  1  0.624659  0.384944  0.993273  1
  Br  Br2  1  0.418578  0.791906  0.952122  1
  Br  Br3  1  0.762669  0.394368  0.451549  1
  Br  Br4  1  0.983884  0.113917  0.030975  1
  Br  Br5  1  0.092316  0.959571  0.528336  1
  O  O6  1  0.481975  0.632393  0.102019  1
  O  O7  1  0.621760  0.460039  0.629899  1
  O  O8  1  0.743358  0.521338  0.241274  1
  O  O9  1  0.544907  0.804307  0.716352  1
  O  O10  1  0.599247  0.062047  0.925461  1
  O  O11  1  0.045034  0.568345  0.393534  1
  O  O12  1  0.044648  0.382599  0.905088  1
  O  O13  1  0.363439  0.021648  0.388587  1
  O  O14  1  0.999134  0.748568  0.758487  1
  O  O15  1  0.777327  0.019734  0.271349  1
  O  O16  1  0.219056  0.161999  0.068747  1
  O  O17  1  0.143013  0.190826  0.581996  1
