# generated using pymatgen
data_Hf8Ta(CoP2)2
_symmetry_space_group_name_H-M   'P 1'
_cell_length_a   11.87802800
_cell_length_b   11.87802800
_cell_length_c   3.62042900
_cell_angle_alpha   90.00000000
_cell_angle_beta   90.00000000
_cell_angle_gamma   90.00000000
_symmetry_Int_Tables_number   1
_chemical_formula_structural   Hf8Ta(CoP2)2
_chemical_formula_sum   'Hf16 Ta2 Co4 P8'
_cell_volume   510.79745455
_cell_formula_units_Z   2
loop_
 _symmetry_equiv_pos_site_id
 _symmetry_equiv_pos_as_xyz
  1  'x, y, z'
loop_
 _atom_site_type_symbol
 _atom_site_label
 _atom_site_symmetry_multiplicity
 _atom_site_fract_x
 _atom_site_fract_y
 _atom_site_fract_z
 _atom_site_occupancy
  Hf  Hf0  1  0.178923  0.102360  0.500000  1
  Hf  Hf1  1  0.821077  0.897640  0.500000  1
  Hf  Hf2  1  0.102360  0.821077  0.500000  1
  Hf  Hf3  1  0.678923  0.397640  0.500000  1
  Hf  Hf4  1  0.897640  0.178923  0.500000  1
  Hf  Hf5  1  0.321077  0.602360  0.500000  1
  Hf  Hf6  1  0.602360  0.678923  0.500000  1
  Hf  Hf7  1  0.397640  0.321077  0.500000  1
  Hf  Hf8  1  0.621828  0.121828  0.500000  1
  Hf  Hf9  1  0.378172  0.878172  0.500000  1
  Hf  Hf10  1  0.121828  0.378172  0.500000  1
  Hf  Hf11  1  0.878172  0.621828  0.500000  1
  Hf  Hf12  1  0.096427  0.596427  0.000000  1
  Hf  Hf13  1  0.903573  0.403573  0.000000  1
  Hf  Hf14  1  0.596427  0.903573  0.000000  1
  Hf  Hf15  1  0.403573  0.096427  0.000000  1
  Ta  Ta16  1  0.000000  0.000000  0.000000  1
  Ta  Ta17  1  0.500000  0.500000  0.000000  1
  Co  Co18  1  0.749897  0.249897  0.000000  1
  Co  Co19  1  0.250103  0.750103  0.000000  1
  Co  Co20  1  0.249897  0.250103  0.000000  1
  Co  Co21  1  0.750103  0.749897  0.000000  1
  P  P22  1  0.056787  0.222071  0.000000  1
  P  P23  1  0.943213  0.777929  0.000000  1
  P  P24  1  0.222071  0.943213  0.000000  1
  P  P25  1  0.556787  0.277929  0.000000  1
  P  P26  1  0.777929  0.056787  0.000000  1
  P  P27  1  0.443213  0.722071  0.000000  1
  P  P28  1  0.722071  0.556787  0.000000  1
  P  P29  1  0.277929  0.443213  0.000000  1
