# generated using pymatgen
data_Er6Al24Ru7Au
_symmetry_space_group_name_H-M   'P 1'
_cell_length_a   8.82483822
_cell_length_b   8.82483754
_cell_length_c   9.54323075
_cell_angle_alpha   89.82526344
_cell_angle_beta   90.17473904
_cell_angle_gamma   119.84656344
_symmetry_Int_Tables_number   1
_chemical_formula_structural   Er6Al24Ru7Au
_chemical_formula_sum   'Er6 Al24 Ru7 Au1'
_cell_volume   644.62364586
_cell_formula_units_Z   1
loop_
 _symmetry_equiv_pos_site_id
 _symmetry_equiv_pos_as_xyz
  1  'x, y, z'
loop_
 _atom_site_type_symbol
 _atom_site_label
 _atom_site_symmetry_multiplicity
 _atom_site_fract_x
 _atom_site_fract_y
 _atom_site_fract_z
 _atom_site_occupancy
  Er  Er0  1  0.192628  0.387660  0.249947  1
  Er  Er1  1  0.807372  0.612340  0.750053  1
  Er  Er2  1  0.612340  0.807372  0.249947  1
  Er  Er3  1  0.387660  0.192628  0.750053  1
  Er  Er4  1  0.195003  0.804997  0.253124  1
  Er  Er5  1  0.804997  0.195003  0.746876  1
  Al  Al6  1  0.328131  0.671869  0.023347  1
  Al  Al7  1  0.671869  0.328131  0.976653  1
  Al  Al8  1  0.666632  0.333368  0.517775  1
  Al  Al9  1  0.333368  0.666632  0.482225  1
  Al  Al10  1  0.162439  0.323905  0.578386  1
  Al  Al11  1  0.837561  0.676095  0.421614  1
  Al  Al12  1  0.676095  0.837561  0.578386  1
  Al  Al13  1  0.848944  0.678498  0.080507  1
  Al  Al14  1  0.323905  0.162439  0.421614  1
  Al  Al15  1  0.151056  0.321502  0.919493  1
  Al  Al16  1  0.162571  0.837429  0.578922  1
  Al  Al17  1  0.321502  0.151056  0.080507  1
  Al  Al18  1  0.837429  0.162571  0.421078  1
  Al  Al19  1  0.678498  0.848944  0.919493  1
  Al  Al20  1  0.837527  0.162473  0.078440  1
  Al  Al21  1  0.162473  0.837527  0.921560  1
  Al  Al22  1  0.560426  0.120829  0.248466  1
  Al  Al23  1  0.439574  0.879171  0.751534  1
  Al  Al24  1  0.879171  0.439574  0.248466  1
  Al  Al25  1  0.120829  0.560426  0.751534  1
  Al  Al26  1  0.563340  0.436660  0.255746  1
  Al  Al27  1  0.436660  0.563340  0.744254  1
  Al  Al28  1  0.999353  0.000647  0.250179  1
  Al  Al29  1  0.000647  0.999353  0.749821  1
  Ru  Ru30  1  0.500000  0.000000  0.000000  1
  Ru  Ru31  1  0.000000  0.500000  0.000000  1
  Ru  Ru32  1  0.500000  0.000000  0.500000  1
  Ru  Ru33  1  0.000000  0.500000  0.500000  1
  Ru  Ru34  1  0.500000  0.500000  0.500000  1
  Ru  Ru35  1  0.000000  0.000000  0.000000  1
  Ru  Ru36  1  0.000000  0.000000  0.500000  1
  Au  Au37  1  0.500000  0.500000  0.000000  1
