# generated using pymatgen
data_Rb17Sc5O16
_symmetry_space_group_name_H-M   'P 1'
_cell_length_a   19.71813030
_cell_length_b   19.71812961
_cell_length_c   7.22384100
_cell_angle_alpha   84.82678785
_cell_angle_beta   84.82678681
_cell_angle_gamma   158.92534015
_symmetry_Int_Tables_number   1
_chemical_formula_structural   Rb17Sc5O16
_chemical_formula_sum   'Rb17 Sc5 O16'
_cell_volume   878.65840122
_cell_formula_units_Z   1
loop_
 _symmetry_equiv_pos_site_id
 _symmetry_equiv_pos_as_xyz
  1  'x, y, z'
loop_
 _atom_site_type_symbol
 _atom_site_label
 _atom_site_symmetry_multiplicity
 _atom_site_fract_x
 _atom_site_fract_y
 _atom_site_fract_z
 _atom_site_occupancy
  Rb  Rb0  1  0.397039  0.674949  0.057081  1
  Rb  Rb1  1  0.484521  0.577012  0.075877  1
  Rb  Rb2  1  0.319346  0.784746  0.066858  1
  Rb  Rb3  1  0.084394  0.913554  0.192749  1
  Rb  Rb4  1  0.168288  0.829131  0.469919  1
  Rb  Rb5  1  0.324522  0.597978  0.593466  1
  Rb  Rb6  1  0.223029  0.675005  0.612735  1
  Rb  Rb7  1  0.416787  0.508198  0.610380  1
  Rb  Rb8  1  0.674949  0.397039  0.057081  1
  Rb  Rb9  1  0.577012  0.484521  0.075877  1
  Rb  Rb10  1  0.784746  0.319346  0.066858  1
  Rb  Rb11  1  0.913554  0.084394  0.192749  1
  Rb  Rb12  1  0.829131  0.168288  0.469919  1
  Rb  Rb13  1  0.597978  0.324522  0.593466  1
  Rb  Rb14  1  0.675005  0.223029  0.612735  1
  Rb  Rb15  1  0.508198  0.416787  0.610380  1
  Rb  Rb16  1  0.995706  0.995706  0.485832  1
  Sc  Sc17  1  0.997293  0.997293  0.991799  1
  Sc  Sc18  1  0.084909  0.906630  0.687873  1
  Sc  Sc19  1  0.177676  0.821043  0.984980  1
  Sc  Sc20  1  0.906630  0.084909  0.687873  1
  Sc  Sc21  1  0.821043  0.177676  0.984980  1
  O  O22  1  0.078977  0.449686  0.003653  1
  O  O23  1  0.165338  0.349623  0.407181  1
  O  O24  1  0.449686  0.078977  0.003653  1
  O  O25  1  0.259665  0.259665  0.013944  1
  O  O26  1  0.549752  0.919094  0.264037  1
  O  O27  1  0.212021  0.786006  0.781534  1
  O  O28  1  0.039771  0.953573  0.829079  1
  O  O29  1  0.128565  0.870705  0.869689  1
  O  O30  1  0.349623  0.165338  0.407181  1
  O  O31  1  0.642492  0.826616  0.664359  1
  O  O32  1  0.919094  0.549752  0.264037  1
  O  O33  1  0.734359  0.734359  0.272019  1
  O  O34  1  0.786006  0.212021  0.781534  1
  O  O35  1  0.953573  0.039771  0.829079  1
  O  O36  1  0.870705  0.128565  0.869689  1
  O  O37  1  0.826616  0.642492  0.664359  1
