# generated using pymatgen
data_SrTa2CdO7
_symmetry_space_group_name_H-M   'P 1'
_cell_length_a   7.51470095
_cell_length_b   7.42813008
_cell_length_c   7.51470159
_cell_angle_alpha   60.38035704
_cell_angle_beta   60.81103027
_cell_angle_gamma   60.38036083
_symmetry_Int_Tables_number   1
_chemical_formula_structural   SrTa2CdO7
_chemical_formula_sum   'Sr2 Ta4 Cd2 O14'
_cell_volume   300.11177506
_cell_formula_units_Z   2
loop_
 _symmetry_equiv_pos_site_id
 _symmetry_equiv_pos_as_xyz
  1  'x, y, z'
loop_
 _atom_site_type_symbol
 _atom_site_label
 _atom_site_symmetry_multiplicity
 _atom_site_fract_x
 _atom_site_fract_y
 _atom_site_fract_z
 _atom_site_occupancy
  Sr  Sr0  1  0.625000  0.125000  0.125000  1
  Sr  Sr1  1  0.125000  0.125000  0.625000  1
  Ta  Ta2  1  0.625000  0.625000  0.625000  1
  Ta  Ta3  1  0.125000  0.625000  0.625000  1
  Ta  Ta4  1  0.625000  0.625000  0.125000  1
  Ta  Ta5  1  0.625000  0.125000  0.625000  1
  Cd  Cd6  1  0.125000  0.125000  0.125000  1
  Cd  Cd7  1  0.125000  0.625000  0.125000  1
  O  O8  1  0.565207  0.558047  0.936838  1
  O  O9  1  0.313162  0.310091  0.684793  1
  O  O10  1  0.934946  0.565054  0.934946  1
  O  O11  1  0.936838  0.558047  0.565207  1
  O  O12  1  0.565207  0.939909  0.936838  1
  O  O13  1  0.556836  0.943164  0.556836  1
  O  O14  1  0.315054  0.684946  0.315054  1
  O  O15  1  0.693164  0.306836  0.693164  1
  O  O16  1  0.227574  0.272426  0.227574  1
  O  O17  1  0.022426  0.977574  0.022426  1
  O  O18  1  0.936838  0.939909  0.565207  1
  O  O19  1  0.684793  0.310091  0.313162  1
  O  O20  1  0.313162  0.691953  0.684793  1
  O  O21  1  0.684793  0.691953  0.313162  1
