# generated using pymatgen
data_Sc4ReTcRu6
_symmetry_space_group_name_H-M   'P 1'
_cell_length_a   5.16393303
_cell_length_b   5.08914551
_cell_length_c   8.72536800
_cell_angle_alpha   90.00000000
_cell_angle_beta   90.00000000
_cell_angle_gamma   118.95937204
_symmetry_Int_Tables_number   1
_chemical_formula_structural   Sc4ReTcRu6
_chemical_formula_sum   'Sc4 Re1 Tc1 Ru6'
_cell_volume   200.63146311
_cell_formula_units_Z   1
loop_
 _symmetry_equiv_pos_site_id
 _symmetry_equiv_pos_as_xyz
  1  'x, y, z'
loop_
 _atom_site_type_symbol
 _atom_site_label
 _atom_site_symmetry_multiplicity
 _atom_site_fract_x
 _atom_site_fract_y
 _atom_site_fract_z
 _atom_site_occupancy
  Sc  Sc0  1  0.330290  0.662130  0.433521  1
  Sc  Sc1  1  0.670056  0.330788  0.933422  1
  Sc  Sc2  1  0.670056  0.330788  0.566578  1
  Sc  Sc3  1  0.330290  0.662130  0.066479  1
  Re  Re4  1  0.166345  0.836872  0.750000  1
  Tc  Tc5  1  0.832207  0.667504  0.250000  1
  Ru  Ru6  1  0.653171  0.835741  0.750000  1
  Ru  Ru7  1  0.343173  0.179448  0.250000  1
  Ru  Ru8  1  0.830736  0.184261  0.250000  1
  Ru  Ru9  1  0.168194  0.352790  0.750000  1
  Ru  Ru10  1  0.002740  0.978774  0.499717  1
  Ru  Ru11  1  0.002740  0.978774  0.000283  1
