# generated using pymatgen
data_Tb3GdBe4(GeO7)2
_symmetry_space_group_name_H-M   'P 1'
_cell_length_a   7.48602040
_cell_length_b   7.48602040
_cell_length_c   4.84558871
_cell_angle_alpha   89.91407153
_cell_angle_beta   90.08592847
_cell_angle_gamma   90.06709408
_symmetry_Int_Tables_number   1
_chemical_formula_structural   Tb3GdBe4(GeO7)2
_chemical_formula_sum   'Tb3 Gd1 Be4 Ge2 O14'
_cell_volume   271.54842447
_cell_formula_units_Z   1
loop_
 _symmetry_equiv_pos_site_id
 _symmetry_equiv_pos_as_xyz
  1  'x, y, z'
loop_
 _atom_site_type_symbol
 _atom_site_label
 _atom_site_symmetry_multiplicity
 _atom_site_fract_x
 _atom_site_fract_y
 _atom_site_fract_z
 _atom_site_occupancy
  Tb  Tb0  1  0.341579  0.841551  0.504940  1
  Tb  Tb1  1  0.658450  0.158422  0.504940  1
  Tb  Tb2  1  0.840910  0.659091  0.495457  1
  Gd  Gd3  1  0.158466  0.341535  0.495133  1
  Be  Be4  1  0.134400  0.635725  0.953859  1
  Be  Be5  1  0.864275  0.365601  0.953859  1
  Be  Be6  1  0.634753  0.865247  0.046666  1
  Be  Be7  1  0.366508  0.133493  0.045924  1
  Ge  Ge8  1  0.999634  0.999154  0.999640  1
  Ge  Ge9  1  0.500846  0.500366  0.999640  1
  O  O10  1  0.080581  0.828256  0.783392  1
  O  O11  1  0.917394  0.172171  0.786988  1
  O  O12  1  0.581324  0.672025  0.215404  1
  O  O13  1  0.420708  0.326749  0.212913  1
  O  O14  1  0.327828  0.582607  0.786988  1
  O  O15  1  0.671743  0.419420  0.783392  1
  O  O16  1  0.173250  0.079293  0.212913  1
  O  O17  1  0.827974  0.918677  0.215404  1
  O  O18  1  0.141664  0.644131  0.281617  1
  O  O19  1  0.855870  0.358336  0.281617  1
  O  O20  1  0.642399  0.857602  0.718634  1
  O  O21  1  0.359891  0.140109  0.717801  1
  O  O22  1  0.998924  0.501076  0.817562  1
  O  O23  1  0.500634  0.999366  0.185320  1
