# generated using pymatgen
data_Tm10ZnSiSn6
_symmetry_space_group_name_H-M   'P 1'
_cell_length_a   9.04313000
_cell_length_b   9.04312973
_cell_length_c   6.48018200
_cell_angle_alpha   90.00000000
_cell_angle_beta   90.00000000
_cell_angle_gamma   120.00000098
_symmetry_Int_Tables_number   1
_chemical_formula_structural   Tm10ZnSiSn6
_chemical_formula_sum   'Tm10 Zn1 Si1 Sn6'
_cell_volume   458.93942398
_cell_formula_units_Z   1
loop_
 _symmetry_equiv_pos_site_id
 _symmetry_equiv_pos_as_xyz
  1  'x, y, z'
loop_
 _atom_site_type_symbol
 _atom_site_label
 _atom_site_symmetry_multiplicity
 _atom_site_fract_x
 _atom_site_fract_y
 _atom_site_fract_z
 _atom_site_occupancy
  Tm  Tm0  1  0.666667  0.333333  0.000000  1
  Tm  Tm1  1  0.333333  0.666667  0.000000  1
  Tm  Tm2  1  0.333333  0.666667  0.500000  1
  Tm  Tm3  1  0.666667  0.333333  0.500000  1
  Tm  Tm4  1  0.741742  0.741742  0.736325  1
  Tm  Tm5  1  0.258258  0.000000  0.736325  1
  Tm  Tm6  1  0.000000  0.258258  0.736325  1
  Tm  Tm7  1  0.258258  0.258258  0.263675  1
  Tm  Tm8  1  0.741742  0.000000  0.263675  1
  Tm  Tm9  1  0.000000  0.741742  0.263675  1
  Zn  Zn10  1  0.000000  0.000000  0.000000  1
  Si  Si11  1  0.000000  0.000000  0.500000  1
  Sn  Sn12  1  0.389999  0.389999  0.749717  1
  Sn  Sn13  1  0.610001  0.000000  0.749717  1
  Sn  Sn14  1  0.000000  0.610001  0.749717  1
  Sn  Sn15  1  0.610001  0.610001  0.250283  1
  Sn  Sn16  1  0.389999  0.000000  0.250283  1
  Sn  Sn17  1  0.000000  0.389999  0.250283  1
