# generated using pymatgen
data_Sm2(IrRh)3
_symmetry_space_group_name_H-M   'P 1'
_cell_length_a   5.34135000
_cell_length_b   5.34135018
_cell_length_c   17.61436600
_cell_angle_alpha   90.00000000
_cell_angle_beta   90.00000000
_cell_angle_gamma   119.99999888
_symmetry_Int_Tables_number   1
_chemical_formula_structural   Sm2(IrRh)3
_chemical_formula_sum   'Sm6 Ir9 Rh9'
_cell_volume   435.21087693
_cell_formula_units_Z   3
loop_
 _symmetry_equiv_pos_site_id
 _symmetry_equiv_pos_as_xyz
  1  'x, y, z'
loop_
 _atom_site_type_symbol
 _atom_site_label
 _atom_site_symmetry_multiplicity
 _atom_site_fract_x
 _atom_site_fract_y
 _atom_site_fract_z
 _atom_site_occupancy
  Sm  Sm0  1  0.333333  0.666667  0.958206  1
  Sm  Sm1  1  0.666667  0.333333  0.042073  1
  Sm  Sm2  1  0.666667  0.333333  0.458976  1
  Sm  Sm3  1  0.333333  0.666667  0.541384  1
  Sm  Sm4  1  0.333333  0.666667  0.749750  1
  Sm  Sm5  1  0.666667  0.333333  0.251025  1
  Ir  Ir6  1  0.167068  0.832932  0.372274  1
  Ir  Ir7  1  0.167068  0.334135  0.372274  1
  Ir  Ir8  1  0.665865  0.832932  0.372274  1
  Ir  Ir9  1  0.832772  0.167228  0.627231  1
  Ir  Ir10  1  0.832772  0.665544  0.627231  1
  Ir  Ir11  1  0.334456  0.167228  0.627231  1
  Ir  Ir12  1  0.832752  0.167248  0.873274  1
  Ir  Ir13  1  0.832752  0.665505  0.873274  1
  Ir  Ir14  1  0.334495  0.167248  0.873274  1
  Rh  Rh15  1  0.166863  0.833137  0.126391  1
  Rh  Rh16  1  0.166863  0.333725  0.126391  1
  Rh  Rh17  1  0.666275  0.833137  0.126391  1
  Rh  Rh18  1  0.333333  0.666667  0.249605  1
  Rh  Rh19  1  0.666667  0.333333  0.750529  1
  Rh  Rh20  1  0.000000  0.000000  0.250087  1
  Rh  Rh21  1  0.000000  0.000000  0.750348  1
  Rh  Rh22  1  0.000000  0.000000  0.500459  1
  Rh  Rh23  1  0.000000  0.000000  0.000048  1
