# generated using pymatgen
data_Dy16Er4(Ir3Pt)3
_symmetry_space_group_name_H-M   'P 1'
_cell_length_a   10.96212991
_cell_length_b   10.96212991
_cell_length_c   6.32819407
_cell_angle_alpha   89.98826795
_cell_angle_beta   89.98826795
_cell_angle_gamma   90.23906891
_symmetry_Int_Tables_number   1
_chemical_formula_structural   Dy16Er4(Ir3Pt)3
_chemical_formula_sum   'Dy16 Er4 Ir9 Pt3'
_cell_volume   760.44162229
_cell_formula_units_Z   1
loop_
 _symmetry_equiv_pos_site_id
 _symmetry_equiv_pos_as_xyz
  1  'x, y, z'
loop_
 _atom_site_type_symbol
 _atom_site_label
 _atom_site_symmetry_multiplicity
 _atom_site_fract_x
 _atom_site_fract_y
 _atom_site_fract_z
 _atom_site_occupancy
  Dy  Dy0  1  0.293438  0.086656  0.371689  1
  Dy  Dy1  1  0.292648  0.908421  0.877075  1
  Dy  Dy2  1  0.705652  0.090059  0.873711  1
  Dy  Dy3  1  0.704715  0.909847  0.373074  1
  Dy  Dy4  1  0.584696  0.790232  0.878564  1
  Dy  Dy5  1  0.585097  0.209863  0.378555  1
  Dy  Dy6  1  0.411077  0.790546  0.378389  1
  Dy  Dy7  1  0.414648  0.209856  0.878468  1
  Dy  Dy8  1  0.209768  0.415304  0.621436  1
  Dy  Dy9  1  0.209454  0.588923  0.121611  1
  Dy  Dy10  1  0.790137  0.414903  0.121445  1
  Dy  Dy11  1  0.790144  0.585352  0.621532  1
  Dy  Dy12  1  0.913344  0.706562  0.128311  1
  Dy  Dy13  1  0.909941  0.294348  0.626289  1
  Dy  Dy14  1  0.091579  0.707352  0.622925  1
  Dy  Dy15  1  0.090153  0.295285  0.126926  1
  Er  Er16  1  0.001324  0.998022  0.499711  1
  Er  Er17  1  0.001978  0.998676  0.000289  1
  Er  Er18  1  0.499690  0.500005  0.000449  1
  Er  Er19  1  0.499995  0.500310  0.499551  1
  Ir  Ir20  1  0.151105  0.848895  0.250000  1
  Ir  Ir21  1  0.653535  0.346465  0.750000  1
  Ir  Ir22  1  0.653921  0.653576  0.249657  1
  Ir  Ir23  1  0.346424  0.346079  0.250343  1
  Ir  Ir24  1  0.347376  0.652624  0.750000  1
  Ir  Ir25  1  0.500577  0.000084  0.122877  1
  Ir  Ir26  1  0.500350  0.000312  0.624192  1
  Ir  Ir27  1  0.999688  0.499650  0.875808  1
  Ir  Ir28  1  0.999916  0.499423  0.377123  1
  Pt  Pt29  1  0.848230  0.151770  0.250000  1
  Pt  Pt30  1  0.846843  0.847441  0.749870  1
  Pt  Pt31  1  0.152559  0.153157  0.750130  1
