# generated using pymatgen
data_Sm4Cu(AuO4)3
_symmetry_space_group_name_H-M   'P 1'
_cell_length_a   3.95936600
_cell_length_b   12.92067713
_cell_length_c   5.61013700
_cell_angle_alpha   90.00000000
_cell_angle_beta   90.00000000
_cell_angle_gamma   89.99172093
_symmetry_Int_Tables_number   1
_chemical_formula_structural   Sm4Cu(AuO4)3
_chemical_formula_sum   'Sm4 Cu1 Au3 O12'
_cell_volume   287.00164508
_cell_formula_units_Z   1
loop_
 _symmetry_equiv_pos_site_id
 _symmetry_equiv_pos_as_xyz
  1  'x, y, z'
loop_
 _atom_site_type_symbol
 _atom_site_label
 _atom_site_symmetry_multiplicity
 _atom_site_fract_x
 _atom_site_fract_y
 _atom_site_fract_z
 _atom_site_occupancy
  Sm  Sm0  1  0.742410  0.082384  0.250000  1
  Sm  Sm1  1  0.253372  0.572029  0.250000  1
  Sm  Sm2  1  0.729579  0.416439  0.750000  1
  Sm  Sm3  1  0.260009  0.922459  0.750000  1
  Cu  Cu4  1  0.074649  0.330701  0.250000  1
  Au  Au5  1  0.931700  0.831188  0.250000  1
  Au  Au6  1  0.078341  0.176039  0.750000  1
  Au  Au7  1  0.927759  0.667524  0.750000  1
  O  O8  1  0.836443  0.255839  0.014533  1
  O  O9  1  0.186821  0.749746  0.998756  1
  O  O10  1  0.242132  0.417131  0.012722  1
  O  O11  1  0.742068  0.926654  0.000456  1
  O  O12  1  0.242132  0.417131  0.487277  1
  O  O13  1  0.742068  0.926654  0.499543  1
  O  O14  1  0.836443  0.255839  0.485468  1
  O  O15  1  0.186821  0.749746  0.501245  1
  O  O16  1  0.258372  0.079268  0.501367  1
  O  O17  1  0.735261  0.571981  0.501774  1
  O  O18  1  0.258372  0.079268  0.998633  1
  O  O19  1  0.735261  0.571981  0.998226  1
