# generated using pymatgen
data_La2TbIn3Cu2Ir
_symmetry_space_group_name_H-M   'P 1'
_cell_length_a   7.69943101
_cell_length_b   7.73052971
_cell_length_c   4.06267900
_cell_angle_alpha   90.00000000
_cell_angle_beta   90.00000000
_cell_angle_gamma   120.37031010
_symmetry_Int_Tables_number   1
_chemical_formula_structural   La2TbIn3Cu2Ir
_chemical_formula_sum   'La2 Tb1 In3 Cu2 Ir1'
_cell_volume   208.63075802
_cell_formula_units_Z   1
loop_
 _symmetry_equiv_pos_site_id
 _symmetry_equiv_pos_as_xyz
  1  'x, y, z'
loop_
 _atom_site_type_symbol
 _atom_site_label
 _atom_site_symmetry_multiplicity
 _atom_site_fract_x
 _atom_site_fract_y
 _atom_site_fract_z
 _atom_site_occupancy
  La  La0  1  0.409959  0.985711  0.500000  1
  La  La1  1  0.014583  0.421227  0.500000  1
  Tb  Tb2  1  0.578286  0.596679  0.500000  1
  In  In3  1  0.756308  0.998700  0.000000  1
  In  In4  1  0.988059  0.748565  0.000000  1
  In  In5  1  0.255662  0.249036  0.000000  1
  Cu  Cu6  1  0.663866  0.338737  0.000000  1
  Cu  Cu7  1  0.997338  0.996723  0.500000  1
  Ir  Ir8  1  0.335938  0.664622  0.000000  1
