# generated using pymatgen
data_K3H7Pt
_symmetry_space_group_name_H-M   'P 1'
_cell_length_a   9.41778471
_cell_length_b   5.64633170
_cell_length_c   7.78418608
_cell_angle_alpha   47.53644505
_cell_angle_beta   142.42587513
_cell_angle_gamma   121.03115001
_symmetry_Int_Tables_number   1
_chemical_formula_structural   K3H7Pt
_chemical_formula_sum   'K3 H7 Pt1'
_cell_volume   186.02832797
_cell_formula_units_Z   1
loop_
 _symmetry_equiv_pos_site_id
 _symmetry_equiv_pos_as_xyz
  1  'x, y, z'
loop_
 _atom_site_type_symbol
 _atom_site_label
 _atom_site_symmetry_multiplicity
 _atom_site_fract_x
 _atom_site_fract_y
 _atom_site_fract_z
 _atom_site_occupancy
  K  K0  1  0.400624  0.313261  0.624697  1
  K  K1  1  0.886324  0.772251  0.144470  1
  K  K2  1  0.919762  0.793503  0.663326  1
  H  H3  1  0.182695  0.350976  0.742072  1
  H  H4  1  0.422450  0.893269  0.145090  1
  H  H5  1  0.905937  0.257624  0.145856  1
  H  H6  1  0.584505  0.374770  0.146991  1
  H  H7  1  0.182567  0.922356  0.142826  1
  H  H8  1  0.582989  0.946166  0.547296  1
  H  H9  1  0.344883  0.403002  0.144386  1
  Pt  Pt10  1  0.383407  0.148916  0.144769  1
