# generated using pymatgen
data_KSbTeO6
_symmetry_space_group_name_H-M   'P 1'
_cell_length_a   7.27117501
_cell_length_b   7.27117641
_cell_length_c   7.27117513
_cell_angle_alpha   120.37895120
_cell_angle_beta   119.73637065
_cell_angle_gamma   89.90106120
_symmetry_Int_Tables_number   1
_chemical_formula_structural   KSbTeO6
_chemical_formula_sum   'K2 Sb2 Te2 O12'
_cell_volume   271.58288671
_cell_formula_units_Z   2
loop_
 _symmetry_equiv_pos_site_id
 _symmetry_equiv_pos_as_xyz
  1  'x, y, z'
loop_
 _atom_site_type_symbol
 _atom_site_label
 _atom_site_symmetry_multiplicity
 _atom_site_fract_x
 _atom_site_fract_y
 _atom_site_fract_z
 _atom_site_occupancy
  K  K0  1  0.373066  0.623066  0.750000  1
  K  K1  1  0.626934  0.376934  0.250000  1
  Sb  Sb2  1  0.000000  0.000000  0.500000  1
  Sb  Sb3  1  0.000000  0.500000  0.000000  1
  Te  Te4  1  0.000000  0.000000  0.000000  1
  Te  Te5  1  0.500000  0.000000  0.500000  1
  O  O6  1  0.322497  0.072497  0.250000  1
  O  O7  1  0.922560  0.672560  0.250000  1
  O  O8  1  0.329938  0.680163  0.256439  1
  O  O9  1  0.923725  0.073501  0.243561  1
  O  O10  1  0.329938  0.073501  0.649776  1
  O  O11  1  0.923725  0.680163  0.850224  1
  O  O12  1  0.677503  0.927503  0.750000  1
  O  O13  1  0.077440  0.327440  0.750000  1
  O  O14  1  0.670062  0.319837  0.743561  1
  O  O15  1  0.076275  0.926499  0.756439  1
  O  O16  1  0.670062  0.926499  0.350224  1
  O  O17  1  0.076275  0.319837  0.149776  1
