# generated using pymatgen
data_Dy3Tm3(Si2Ni)2
_symmetry_space_group_name_H-M   'P 1'
_cell_length_a   4.08809300
_cell_length_b   11.12531625
_cell_length_c   11.16085732
_cell_angle_alpha   90.13970820
_cell_angle_beta   90.00000000
_cell_angle_gamma   90.00000000
_symmetry_Int_Tables_number   1
_chemical_formula_structural   Dy3Tm3(Si2Ni)2
_chemical_formula_sum   'Dy6 Tm6 Si8 Ni4'
_cell_volume   507.60909744
_cell_formula_units_Z   2
loop_
 _symmetry_equiv_pos_site_id
 _symmetry_equiv_pos_as_xyz
  1  'x, y, z'
loop_
 _atom_site_type_symbol
 _atom_site_label
 _atom_site_symmetry_multiplicity
 _atom_site_fract_x
 _atom_site_fract_y
 _atom_site_fract_z
 _atom_site_occupancy
  Dy  Dy0  1  0.250000  0.374522  0.057206  1
  Dy  Dy1  1  0.750000  0.625478  0.942794  1
  Dy  Dy2  1  0.750000  0.874970  0.444012  1
  Dy  Dy3  1  0.250000  0.125030  0.555988  1
  Dy  Dy4  1  0.250000  0.697124  0.215472  1
  Dy  Dy5  1  0.750000  0.302876  0.784528  1
  Tm  Tm6  1  0.750000  0.195984  0.284215  1
  Tm  Tm7  1  0.250000  0.804016  0.715785  1
  Tm  Tm8  1  0.250000  0.440528  0.382182  1
  Tm  Tm9  1  0.750000  0.559472  0.617818  1
  Tm  Tm10  1  0.750000  0.941360  0.117195  1
  Tm  Tm11  1  0.250000  0.058640  0.882805  1
  Si  Si12  1  0.250000  0.685265  0.478052  1
  Si  Si13  1  0.750000  0.314735  0.521948  1
  Si  Si14  1  0.750000  0.184819  0.024437  1
  Si  Si15  1  0.250000  0.815181  0.975563  1
  Si  Si16  1  0.250000  0.003702  0.302615  1
  Si  Si17  1  0.750000  0.996298  0.697385  1
  Si  Si18  1  0.750000  0.502663  0.197664  1
  Si  Si19  1  0.250000  0.497337  0.802336  1
  Ni  Ni20  1  0.250000  0.132731  0.129899  1
  Ni  Ni21  1  0.750000  0.867269  0.870101  1
  Ni  Ni22  1  0.750000  0.631906  0.371818  1
  Ni  Ni23  1  0.250000  0.368094  0.628182  1
