# generated using pymatgen
data_Y6OsRu
_symmetry_space_group_name_H-M   'P 1'
_cell_length_a   6.35695806
_cell_length_b   7.37733622
_cell_length_c   9.20576300
_cell_angle_alpha   90.00000000
_cell_angle_beta   90.00000000
_cell_angle_gamma   90.06612401
_symmetry_Int_Tables_number   1
_chemical_formula_structural   Y6OsRu
_chemical_formula_sum   'Y12 Os2 Ru2'
_cell_volume   431.72621857
_cell_formula_units_Z   2
loop_
 _symmetry_equiv_pos_site_id
 _symmetry_equiv_pos_as_xyz
  1  'x, y, z'
loop_
 _atom_site_type_symbol
 _atom_site_label
 _atom_site_symmetry_multiplicity
 _atom_site_fract_x
 _atom_site_fract_y
 _atom_site_fract_z
 _atom_site_occupancy
  Y  Y0  1  0.635506  0.041185  0.250000  1
  Y  Y1  1  0.364494  0.958815  0.750000  1
  Y  Y2  1  0.133950  0.457400  0.750000  1
  Y  Y3  1  0.866050  0.542600  0.250000  1
  Y  Y4  1  0.171299  0.176074  0.065191  1
  Y  Y5  1  0.828701  0.823926  0.934809  1
  Y  Y6  1  0.669414  0.325067  0.937091  1
  Y  Y7  1  0.828701  0.823926  0.565191  1
  Y  Y8  1  0.330586  0.674933  0.062909  1
  Y  Y9  1  0.171299  0.176074  0.434809  1
  Y  Y10  1  0.330586  0.674933  0.437091  1
  Y  Y11  1  0.669414  0.325067  0.562909  1
  Os  Os12  1  0.460995  0.383904  0.250000  1
  Os  Os13  1  0.539005  0.616096  0.750000  1
  Ru  Ru14  1  0.962236  0.115161  0.750000  1
  Ru  Ru15  1  0.037764  0.884839  0.250000  1
