# generated using pymatgen
data_La4HoIr2
_symmetry_space_group_name_H-M   'P 1'
_cell_length_a   6.72411657
_cell_length_b   7.30857599
_cell_length_c   9.13808185
_cell_angle_alpha   95.90331585
_cell_angle_beta   111.58722970
_cell_angle_gamma   90.00000040
_symmetry_Int_Tables_number   1
_chemical_formula_structural   La4HoIr2
_chemical_formula_sum   'La8 Ho2 Ir4'
_cell_volume   415.01797477
_cell_formula_units_Z   2
loop_
 _symmetry_equiv_pos_site_id
 _symmetry_equiv_pos_as_xyz
  1  'x, y, z'
loop_
 _atom_site_type_symbol
 _atom_site_label
 _atom_site_symmetry_multiplicity
 _atom_site_fract_x
 _atom_site_fract_y
 _atom_site_fract_z
 _atom_site_occupancy
  La  La0  1  0.798871  0.083850  0.818833  1
  La  La1  1  0.980037  0.416150  0.181167  1
  La  La2  1  0.201129  0.916150  0.181167  1
  La  La3  1  0.019963  0.583850  0.818833  1
  La  La4  1  0.216330  0.185007  0.573632  1
  La  La5  1  0.642699  0.314993  0.426368  1
  La  La6  1  0.783670  0.814993  0.426368  1
  La  La7  1  0.357301  0.685007  0.573632  1
  Ho  Ho8  1  0.434333  0.250000  0.000000  1
  Ho  Ho9  1  0.565667  0.750000  0.000000  1
  Ir  Ir10  1  0.596670  0.426224  0.787750  1
  Ir  Ir11  1  0.808920  0.073776  0.212250  1
  Ir  Ir12  1  0.403330  0.573776  0.212250  1
  Ir  Ir13  1  0.191080  0.926224  0.787750  1
