# generated using pymatgen
data_Pr5Ti2CuS5O7
_symmetry_space_group_name_H-M   'P 1'
_cell_length_a   3.93515500
_cell_length_b   18.18565500
_cell_length_c   19.38273700
_cell_angle_alpha   90.00000000
_cell_angle_beta   90.00000000
_cell_angle_gamma   90.00000000
_symmetry_Int_Tables_number   1
_chemical_formula_structural   Pr5Ti2CuS5O7
_chemical_formula_sum   'Pr20 Ti8 Cu4 S20 O28'
_cell_volume   1387.09400283
_cell_formula_units_Z   4
loop_
 _symmetry_equiv_pos_site_id
 _symmetry_equiv_pos_as_xyz
  1  'x, y, z'
loop_
 _atom_site_type_symbol
 _atom_site_label
 _atom_site_symmetry_multiplicity
 _atom_site_fract_x
 _atom_site_fract_y
 _atom_site_fract_z
 _atom_site_occupancy
  Pr  Pr0  1  0.750000  0.376978  0.512967  1
  Pr  Pr1  1  0.750000  0.998232  0.606734  1
  Pr  Pr2  1  0.750000  0.696243  0.957197  1
  Pr  Pr3  1  0.250000  0.969221  0.181125  1
  Pr  Pr4  1  0.750000  0.803757  0.457197  1
  Pr  Pr5  1  0.750000  0.469221  0.318875  1
  Pr  Pr6  1  0.250000  0.530779  0.681125  1
  Pr  Pr7  1  0.250000  0.001768  0.393266  1
  Pr  Pr8  1  0.750000  0.123022  0.012967  1
  Pr  Pr9  1  0.250000  0.709429  0.305011  1
  Pr  Pr10  1  0.750000  0.290571  0.694989  1
  Pr  Pr11  1  0.250000  0.790571  0.805011  1
  Pr  Pr12  1  0.250000  0.303757  0.042803  1
  Pr  Pr13  1  0.750000  0.501768  0.106734  1
  Pr  Pr14  1  0.750000  0.209429  0.194989  1
  Pr  Pr15  1  0.250000  0.196243  0.542803  1
  Pr  Pr16  1  0.750000  0.030779  0.818875  1
  Pr  Pr17  1  0.250000  0.623022  0.487033  1
  Pr  Pr18  1  0.250000  0.876978  0.987033  1
  Pr  Pr19  1  0.250000  0.498232  0.893266  1
  Ti  Ti20  1  0.250000  0.113156  0.696777  1
  Ti  Ti21  1  0.250000  0.172923  0.878467  1
  Ti  Ti22  1  0.750000  0.886844  0.303223  1
  Ti  Ti23  1  0.750000  0.672923  0.621533  1
  Ti  Ti24  1  0.250000  0.386844  0.196777  1
  Ti  Ti25  1  0.250000  0.327077  0.378467  1
  Ti  Ti26  1  0.750000  0.827077  0.121533  1
  Ti  Ti27  1  0.750000  0.613156  0.803223  1
  Cu  Cu28  1  0.250000  0.645849  0.141919  1
  Cu  Cu29  1  0.250000  0.854151  0.641919  1
  Cu  Cu30  1  0.750000  0.354151  0.858081  1
  Cu  Cu31  1  0.750000  0.145849  0.358081  1
  S  S32  1  0.250000  0.905372  0.530968  1
  S  S33  1  0.250000  0.209041  0.325733  1
  S  S34  1  0.250000  0.467794  0.432962  1
  S  S35  1  0.250000  0.594628  0.030968  1
  S  S36  1  0.250000  0.546319  0.220203  1
  S  S37  1  0.250000  0.382292  0.630410  1
  S  S38  1  0.750000  0.967794  0.067038  1
  S  S39  1  0.750000  0.094628  0.469032  1
  S  S40  1  0.750000  0.617708  0.369590  1
  S  S41  1  0.750000  0.709041  0.174267  1
  S  S42  1  0.750000  0.790959  0.674267  1
  S  S43  1  0.250000  0.953681  0.720203  1
  S  S44  1  0.750000  0.405372  0.969032  1
  S  S45  1  0.250000  0.117708  0.130410  1
  S  S46  1  0.250000  0.290959  0.825733  1
  S  S47  1  0.750000  0.453681  0.779797  1
  S  S48  1  0.750000  0.882292  0.869590  1
  S  S49  1  0.750000  0.532206  0.567038  1
  S  S50  1  0.250000  0.032206  0.932962  1
  S  S51  1  0.750000  0.046319  0.279797  1
  O  O52  1  0.250000  0.392966  0.295846  1
  O  O53  1  0.250000  0.076127  0.604739  1
  O  O54  1  0.250000  0.745255  0.425405  1
  O  O55  1  0.750000  0.805781  0.027370  1
  O  O56  1  0.250000  0.423873  0.104739  1
  O  O57  1  0.750000  0.923873  0.395261  1
  O  O58  1  0.750000  0.607034  0.704154  1
  O  O59  1  0.750000  0.694219  0.527370  1
  O  O60  1  0.250000  0.107034  0.795846  1
  O  O61  1  0.250000  0.194219  0.972630  1
  O  O62  1  0.750000  0.710118  0.825037  1
  O  O63  1  0.250000  0.842682  0.119286  1
  O  O64  1  0.250000  0.595243  0.799689  1
  O  O65  1  0.750000  0.576127  0.895261  1
  O  O66  1  0.750000  0.892966  0.204154  1
  O  O67  1  0.250000  0.289882  0.174963  1
  O  O68  1  0.250000  0.305781  0.472630  1
  O  O69  1  0.750000  0.342682  0.380714  1
  O  O70  1  0.750000  0.245255  0.074595  1
  O  O71  1  0.250000  0.904757  0.299689  1
  O  O72  1  0.750000  0.404757  0.200311  1
  O  O73  1  0.750000  0.157318  0.880714  1
  O  O74  1  0.750000  0.095243  0.700311  1
  O  O75  1  0.750000  0.254745  0.574595  1
  O  O76  1  0.250000  0.754745  0.925405  1
  O  O77  1  0.250000  0.210118  0.674963  1
  O  O78  1  0.250000  0.657318  0.619286  1
  O  O79  1  0.750000  0.789882  0.325037  1
