# generated using pymatgen
data_Tm6OsPd
_symmetry_space_group_name_H-M   'P 1'
_cell_length_a   7.20241072
_cell_length_b   9.06933200
_cell_length_c   6.34236081
_cell_angle_alpha   90.00000000
_cell_angle_beta   89.37029592
_cell_angle_gamma   90.00000000
_symmetry_Int_Tables_number   1
_chemical_formula_structural   Tm6OsPd
_chemical_formula_sum   'Tm12 Os2 Pd2'
_cell_volume   414.26467252
_cell_formula_units_Z   2
loop_
 _symmetry_equiv_pos_site_id
 _symmetry_equiv_pos_as_xyz
  1  'x, y, z'
loop_
 _atom_site_type_symbol
 _atom_site_label
 _atom_site_symmetry_multiplicity
 _atom_site_fract_x
 _atom_site_fract_y
 _atom_site_fract_z
 _atom_site_occupancy
  Tm  Tm0  1  0.024152  0.250000  0.620823  1
  Tm  Tm1  1  0.975848  0.750000  0.379177  1
  Tm  Tm2  1  0.459223  0.750000  0.120103  1
  Tm  Tm3  1  0.540777  0.250000  0.879897  1
  Tm  Tm4  1  0.175009  0.057309  0.163379  1
  Tm  Tm5  1  0.824991  0.942691  0.836621  1
  Tm  Tm6  1  0.315057  0.939005  0.677878  1
  Tm  Tm7  1  0.824991  0.557309  0.836621  1
  Tm  Tm8  1  0.684943  0.060995  0.322122  1
  Tm  Tm9  1  0.175009  0.442691  0.163379  1
  Tm  Tm10  1  0.684943  0.439005  0.322122  1
  Tm  Tm11  1  0.315057  0.560995  0.677878  1
  Os  Os12  1  0.113205  0.750000  0.961042  1
  Os  Os13  1  0.886795  0.250000  0.038958  1
  Pd  Pd14  1  0.386778  0.250000  0.453263  1
  Pd  Pd15  1  0.613222  0.750000  0.546737  1
