# generated using pymatgen
data_Hf2Co9B6Rh
_symmetry_space_group_name_H-M   'P 1'
_cell_length_a   5.66449135
_cell_length_b   5.66449157
_cell_length_c   5.66449130
_cell_angle_alpha   95.76114435
_cell_angle_beta   95.76115135
_cell_angle_gamma   95.76115101
_symmetry_Int_Tables_number   1
_chemical_formula_structural   Hf2Co9B6Rh
_chemical_formula_sum   'Hf2 Co9 B6 Rh1'
_cell_volume   178.79847610
_cell_formula_units_Z   1
loop_
 _symmetry_equiv_pos_site_id
 _symmetry_equiv_pos_as_xyz
  1  'x, y, z'
loop_
 _atom_site_type_symbol
 _atom_site_label
 _atom_site_symmetry_multiplicity
 _atom_site_fract_x
 _atom_site_fract_y
 _atom_site_fract_z
 _atom_site_occupancy
  Hf  Hf0  1  0.686067  0.686067  0.686067  1
  Hf  Hf1  1  0.313933  0.313933  0.313933  1
  Co  Co2  1  0.500000  0.000000  0.000000  1
  Co  Co3  1  0.000000  0.500000  0.000000  1
  Co  Co4  1  0.000000  0.000000  0.500000  1
  Co  Co5  1  0.702536  0.203675  0.702536  1
  Co  Co6  1  0.702536  0.702536  0.203675  1
  Co  Co7  1  0.203675  0.702536  0.702536  1
  Co  Co8  1  0.297464  0.796325  0.297464  1
  Co  Co9  1  0.297464  0.297464  0.796325  1
  Co  Co10  1  0.796325  0.297464  0.297464  1
  B  B11  1  0.384565  0.000000  0.615435  1
  B  B12  1  0.615435  0.384565  0.000000  1
  B  B13  1  0.000000  0.615435  0.384565  1
  B  B14  1  0.615435  0.000000  0.384565  1
  B  B15  1  0.384565  0.615435  0.000000  1
  B  B16  1  0.000000  0.384565  0.615435  1
  Rh  Rh17  1  0.000000  0.000000  0.000000  1
