# generated using pymatgen
data_Ho3Mg2PaRh3
_symmetry_space_group_name_H-M   'P 1'
_cell_length_a   7.59420017
_cell_length_b   7.59419930
_cell_length_c   3.96139900
_cell_angle_alpha   90.00000000
_cell_angle_beta   90.00000000
_cell_angle_gamma   120.64525981
_symmetry_Int_Tables_number   1
_chemical_formula_structural   Ho3Mg2PaRh3
_chemical_formula_sum   'Ho3 Mg2 Pa1 Rh3'
_cell_volume   196.55430351
_cell_formula_units_Z   1
loop_
 _symmetry_equiv_pos_site_id
 _symmetry_equiv_pos_as_xyz
  1  'x, y, z'
loop_
 _atom_site_type_symbol
 _atom_site_label
 _atom_site_symmetry_multiplicity
 _atom_site_fract_x
 _atom_site_fract_y
 _atom_site_fract_z
 _atom_site_occupancy
  Ho  Ho0  1  0.967105  0.408677  0.500000  1
  Ho  Ho1  1  0.624791  0.624791  0.500000  1
  Ho  Ho2  1  0.408677  0.967105  0.500000  1
  Mg  Mg3  1  0.005224  0.751578  0.000000  1
  Mg  Mg4  1  0.751578  0.005224  0.000000  1
  Pa  Pa5  1  0.266121  0.266121  0.000000  1
  Rh  Rh6  1  0.322678  0.632766  0.000000  1
  Rh  Rh7  1  0.021060  0.021060  0.500000  1
  Rh  Rh8  1  0.632766  0.322678  0.000000  1
