# generated using pymatgen
data_Lu2AlAuO7
_symmetry_space_group_name_H-M   'P 1'
_cell_length_a   7.09054420
_cell_length_b   7.09054286
_cell_length_c   7.02292000
_cell_angle_alpha   60.31498479
_cell_angle_beta   60.31499093
_cell_angle_gamma   60.57883379
_symmetry_Int_Tables_number   1
_chemical_formula_structural   Lu2AlAuO7
_chemical_formula_sum   'Lu4 Al2 Au2 O14'
_cell_volume   251.93882851
_cell_formula_units_Z   2
loop_
 _symmetry_equiv_pos_site_id
 _symmetry_equiv_pos_as_xyz
  1  'x, y, z'
loop_
 _atom_site_type_symbol
 _atom_site_label
 _atom_site_symmetry_multiplicity
 _atom_site_fract_x
 _atom_site_fract_y
 _atom_site_fract_z
 _atom_site_occupancy
  Lu  Lu0  1  0.625000  0.625000  0.125000  1
  Lu  Lu1  1  0.625000  0.625000  0.625000  1
  Lu  Lu2  1  0.625000  0.125000  0.625000  1
  Lu  Lu3  1  0.125000  0.625000  0.625000  1
  Al  Al4  1  0.625000  0.125000  0.125000  1
  Al  Al5  1  0.125000  0.625000  0.125000  1
  Au  Au6  1  0.125000  0.125000  0.125000  1
  Au  Au7  1  0.125000  0.125000  0.625000  1
  O  O8  1  0.033939  0.470802  0.458032  1
  O  O9  1  0.799950  0.799950  0.200050  1
  O  O10  1  0.779198  0.216061  0.212773  1
  O  O11  1  0.470802  0.033939  0.458032  1
  O  O12  1  0.752278  0.752278  0.747722  1
  O  O13  1  0.033939  0.470802  0.037227  1
  O  O14  1  0.027592  0.027592  0.472408  1
  O  O15  1  0.216061  0.779198  0.212773  1
  O  O16  1  0.222408  0.222408  0.777592  1
  O  O17  1  0.779198  0.216061  0.791968  1
  O  O18  1  0.497722  0.497722  0.502278  1
  O  O19  1  0.470802  0.033939  0.037227  1
  O  O20  1  0.450050  0.450050  0.049950  1
  O  O21  1  0.216061  0.779198  0.791968  1
