# generated using pymatgen
data_Pr20Ga4Si7Sn
_symmetry_space_group_name_H-M   'P 1'
_cell_length_a   7.90176488
_cell_length_b   7.90081514
_cell_length_c   14.55766745
_cell_angle_alpha   89.98411512
_cell_angle_beta   90.03862353
_cell_angle_gamma   89.96842972
_symmetry_Int_Tables_number   1
_chemical_formula_structural   Pr20Ga4Si7Sn
_chemical_formula_sum   'Pr20 Ga4 Si7 Sn1'
_cell_volume   908.84038302
_cell_formula_units_Z   1
loop_
 _symmetry_equiv_pos_site_id
 _symmetry_equiv_pos_as_xyz
  1  'x, y, z'
loop_
 _atom_site_type_symbol
 _atom_site_label
 _atom_site_symmetry_multiplicity
 _atom_site_fract_x
 _atom_site_fract_y
 _atom_site_fract_z
 _atom_site_occupancy
  Pr  Pr0  1  0.813447  0.832650  0.610288  1
  Pr  Pr1  1  0.186196  0.832701  0.106334  1
  Pr  Pr2  1  0.170850  0.817065  0.389450  1
  Pr  Pr3  1  0.001240  0.499397  0.736689  1
  Pr  Pr4  1  0.828536  0.180388  0.390045  1
  Pr  Pr5  1  0.679371  0.669240  0.389673  1
  Pr  Pr6  1  0.665863  0.313394  0.609882  1
  Pr  Pr7  1  0.332574  0.686411  0.609813  1
  Pr  Pr8  1  0.998344  0.503879  0.222881  1
  Pr  Pr9  1  0.665785  0.684803  0.107007  1
  Pr  Pr10  1  0.685426  0.331393  0.892253  1
  Pr  Pr11  1  0.831184  0.815121  0.891992  1
  Pr  Pr12  1  0.323763  0.334171  0.391874  1
  Pr  Pr13  1  0.185208  0.166017  0.609727  1
  Pr  Pr14  1  0.811855  0.166410  0.107192  1
  Pr  Pr15  1  0.314307  0.667231  0.892041  1
  Pr  Pr16  1  0.337639  0.318123  0.104837  1
  Pr  Pr17  1  0.504077  0.998693  0.272894  1
  Pr  Pr18  1  0.167675  0.184504  0.892551  1
  Pr  Pr19  1  0.498995  0.001093  0.777697  1
  Ga  Ga20  1  0.499122  0.999039  0.493729  1
  Ga  Ga21  1  0.499289  0.998199  0.995260  1
  Ga  Ga22  1  0.118376  0.119974  0.248964  1
  Ga  Ga23  1  0.998994  0.499066  0.003231  1
  Si  Si24  1  0.615938  0.385756  0.249131  1
  Si  Si25  1  0.113608  0.885491  0.750496  1
  Si  Si26  1  0.385595  0.385615  0.750273  1
  Si  Si27  1  0.384482  0.614503  0.248530  1
  Si  Si28  1  0.883761  0.882281  0.249073  1
  Si  Si29  1  0.614306  0.613989  0.750304  1
  Si  Si30  1  0.885621  0.114032  0.750518  1
  Sn  Sn31  1  0.998571  0.499368  0.505372  1
