# generated using pymatgen
data_LaHo5Zn4IrPd12
_symmetry_space_group_name_H-M   'P 1'
_cell_length_a   8.25809659
_cell_length_b   8.26065789
_cell_length_c   8.26065832
_cell_angle_alpha   109.55476601
_cell_angle_beta   109.41841564
_cell_angle_gamma   109.41843069
_symmetry_Int_Tables_number   1
_chemical_formula_structural   LaHo5Zn4IrPd12
_chemical_formula_sum   'La1 Ho5 Zn4 Ir1 Pd12'
_cell_volume   433.91520872
_cell_formula_units_Z   1
loop_
 _symmetry_equiv_pos_site_id
 _symmetry_equiv_pos_as_xyz
  1  'x, y, z'
loop_
 _atom_site_type_symbol
 _atom_site_label
 _atom_site_symmetry_multiplicity
 _atom_site_fract_x
 _atom_site_fract_y
 _atom_site_fract_z
 _atom_site_occupancy
  La  La0  1  0.999752  0.711376  0.711376  1
  Ho  Ho1  1  0.703438  0.704631  0.001203  1
  Ho  Ho2  1  0.296589  0.001193  0.297763  1
  Ho  Ho3  1  0.999993  0.297933  0.297933  1
  Ho  Ho4  1  0.296589  0.297763  0.001193  1
  Ho  Ho5  1  0.703438  0.001203  0.704631  1
  Zn  Zn6  1  0.000009  0.000997  0.493219  1
  Zn  Zn7  1  0.000009  0.493219  0.000997  1
  Zn  Zn8  1  0.507776  0.000988  0.000988  1
  Zn  Zn9  1  0.492217  0.493186  0.493186  1
  Ir  Ir10  1  0.000007  0.008024  0.008024  1
  Pd  Pd11  1  0.335670  0.335147  0.670816  1
  Pd  Pd12  1  0.664332  0.999462  0.335160  1
  Pd  Pd13  1  0.000007  0.667620  0.329917  1
  Pd  Pd14  1  0.664332  0.335160  0.999462  1
  Pd  Pd15  1  0.335670  0.670816  0.335147  1
  Pd  Pd16  1  0.000007  0.329917  0.667620  1
  Pd  Pd17  1  0.337112  0.663465  0.000552  1
  Pd  Pd18  1  0.337112  0.000552  0.663465  1
  Pd  Pd19  1  0.662305  0.329908  0.329908  1
  Pd  Pd20  1  0.662916  0.663454  0.326369  1
  Pd  Pd21  1  0.662916  0.326369  0.663454  1
  Pd  Pd22  1  0.337800  0.667618  0.667618  1
