# generated using pymatgen
data_Tb8MgSc(SiB4)4
_symmetry_space_group_name_H-M   'P 1'
_cell_length_a   7.19163100
_cell_length_b   7.19163100
_cell_length_c   7.96696900
_cell_angle_alpha   90.00000000
_cell_angle_beta   90.00000000
_cell_angle_gamma   90.00000000
_symmetry_Int_Tables_number   1
_chemical_formula_structural   Tb8MgSc(SiB4)4
_chemical_formula_sum   'Tb8 Mg1 Sc1 Si4 B16'
_cell_volume   412.04810285
_cell_formula_units_Z   1
loop_
 _symmetry_equiv_pos_site_id
 _symmetry_equiv_pos_as_xyz
  1  'x, y, z'
loop_
 _atom_site_type_symbol
 _atom_site_label
 _atom_site_symmetry_multiplicity
 _atom_site_fract_x
 _atom_site_fract_y
 _atom_site_fract_z
 _atom_site_occupancy
  Tb  Tb0  1  0.681697  0.181002  0.231341  1
  Tb  Tb1  1  0.318303  0.818998  0.768659  1
  Tb  Tb2  1  0.318303  0.818998  0.231341  1
  Tb  Tb3  1  0.818998  0.681697  0.231341  1
  Tb  Tb4  1  0.818998  0.681697  0.768659  1
  Tb  Tb5  1  0.681697  0.181002  0.768659  1
  Tb  Tb6  1  0.181002  0.318303  0.768659  1
  Tb  Tb7  1  0.181002  0.318303  0.231341  1
  Mg  Mg8  1  0.000000  0.000000  0.500000  1
  Sc  Sc9  1  0.500000  0.500000  0.500000  1
  Si  Si10  1  0.121064  0.611526  0.500000  1
  Si  Si11  1  0.878936  0.388474  0.500000  1
  Si  Si12  1  0.388474  0.121064  0.500000  1
  Si  Si13  1  0.611526  0.878936  0.500000  1
  B  B14  1  0.174192  0.038643  0.000000  1
  B  B15  1  0.825808  0.961357  0.000000  1
  B  B16  1  0.961357  0.174192  0.000000  1
  B  B17  1  0.327112  0.539567  0.000000  1
  B  B18  1  0.038643  0.825808  0.000000  1
  B  B19  1  0.672888  0.460433  0.000000  1
  B  B20  1  0.539567  0.672888  0.000000  1
  B  B21  1  0.460433  0.327112  0.000000  1
  B  B22  1  0.089498  0.588577  0.000000  1
  B  B23  1  0.910502  0.411423  0.000000  1
  B  B24  1  0.411423  0.089498  0.000000  1
  B  B25  1  0.588577  0.910502  0.000000  1
  B  B26  1  0.000000  0.000000  0.159019  1
  B  B27  1  0.000000  0.000000  0.840981  1
  B  B28  1  0.500000  0.500000  0.835406  1
  B  B29  1  0.500000  0.500000  0.164594  1
