# generated using pymatgen
data_ErPa(NiSn)2
_symmetry_space_group_name_H-M   'P 1'
_cell_length_a   7.76829887
_cell_length_b   7.76829879
_cell_length_c   7.76829901
_cell_angle_alpha   33.90473433
_cell_angle_beta   33.90473675
_cell_angle_gamma   33.90473569
_symmetry_Int_Tables_number   1
_chemical_formula_structural   ErPa(NiSn)2
_chemical_formula_sum   'Er1 Pa1 Ni2 Sn2'
_cell_volume   130.00150508
_cell_formula_units_Z   1
loop_
 _symmetry_equiv_pos_site_id
 _symmetry_equiv_pos_as_xyz
  1  'x, y, z'
loop_
 _atom_site_type_symbol
 _atom_site_label
 _atom_site_symmetry_multiplicity
 _atom_site_fract_x
 _atom_site_fract_y
 _atom_site_fract_z
 _atom_site_occupancy
  Er  Er0  1  0.874269  0.874269  0.874269  1
  Pa  Pa1  1  0.375736  0.375736  0.375736  1
  Ni  Ni2  1  0.004130  0.004130  0.004130  1
  Ni  Ni3  1  0.494678  0.494678  0.494678  1
  Sn  Sn4  1  0.128540  0.128540  0.128540  1
  Sn  Sn5  1  0.622646  0.622646  0.622646  1
