# generated using pymatgen
data_SrTa9Se16
_symmetry_space_group_name_H-M   'P 1'
_cell_length_a   7.00812406
_cell_length_b   7.01076426
_cell_length_c   14.35598500
_cell_angle_alpha   89.99597911
_cell_angle_beta   90.00766873
_cell_angle_gamma   119.97661738
_symmetry_Int_Tables_number   1
_chemical_formula_structural   SrTa9Se16
_chemical_formula_sum   'Sr1 Ta9 Se16'
_cell_volume   610.98851772
_cell_formula_units_Z   1
loop_
 _symmetry_equiv_pos_site_id
 _symmetry_equiv_pos_as_xyz
  1  'x, y, z'
loop_
 _atom_site_type_symbol
 _atom_site_label
 _atom_site_symmetry_multiplicity
 _atom_site_fract_x
 _atom_site_fract_y
 _atom_site_fract_z
 _atom_site_occupancy
  Sr  Sr0  1  0.000000  0.000000  0.500000  1
  Ta  Ta1  1  0.506486  0.493703  0.772474  1
  Ta  Ta2  1  0.012896  0.506179  0.227478  1
  Ta  Ta3  1  0.493705  0.987067  0.227488  1
  Ta  Ta4  1  0.506295  0.012933  0.772512  1
  Ta  Ta5  1  0.987104  0.493821  0.772522  1
  Ta  Ta6  1  0.493514  0.506297  0.227526  1
  Ta  Ta7  1  0.999987  0.999978  0.771660  1
  Ta  Ta8  1  0.000013  0.000022  0.228340  1
  Ta  Ta9  1  0.000000  0.000000  0.000000  1
  Se  Se10  1  0.830387  0.169416  0.342686  1
  Se  Se11  1  0.830530  0.660883  0.342651  1
  Se  Se12  1  0.339145  0.169399  0.342689  1
  Se  Se13  1  0.663229  0.831801  0.888064  1
  Se  Se14  1  0.169470  0.339117  0.657349  1
  Se  Se15  1  0.168443  0.831769  0.888101  1
  Se  Se16  1  0.168176  0.336522  0.888029  1
  Se  Se17  1  0.831557  0.168231  0.111899  1
  Se  Se18  1  0.336771  0.168199  0.111936  1
  Se  Se19  1  0.660855  0.830601  0.657311  1
  Se  Se20  1  0.333359  0.666597  0.108734  1
  Se  Se21  1  0.666511  0.333326  0.652046  1
  Se  Se22  1  0.666641  0.333403  0.891266  1
  Se  Se23  1  0.333489  0.666674  0.347954  1
  Se  Se24  1  0.831824  0.663478  0.111971  1
  Se  Se25  1  0.169613  0.830584  0.657314  1
