# generated using pymatgen
data_Ta12Mo7Ru5
_symmetry_space_group_name_H-M   'P 1'
_cell_length_a   4.52006700
_cell_length_b   6.39997100
_cell_length_c   13.62963300
_cell_angle_alpha   90.00000000
_cell_angle_beta   90.00010141
_cell_angle_gamma   90.00000000
_symmetry_Int_Tables_number   1
_chemical_formula_structural   Ta12Mo7Ru5
_chemical_formula_sum   'Ta12 Mo7 Ru5'
_cell_volume   394.28208121
_cell_formula_units_Z   1
loop_
 _symmetry_equiv_pos_site_id
 _symmetry_equiv_pos_as_xyz
  1  'x, y, z'
loop_
 _atom_site_type_symbol
 _atom_site_label
 _atom_site_symmetry_multiplicity
 _atom_site_fract_x
 _atom_site_fract_y
 _atom_site_fract_z
 _atom_site_occupancy
  Ta  Ta0  1  0.500000  0.248852  0.000000  1
  Ta  Ta1  1  0.500000  0.751148  0.000000  1
  Ta  Ta2  1  0.999992  0.249505  0.166228  1
  Ta  Ta3  1  0.999992  0.750495  0.166228  1
  Ta  Ta4  1  0.499991  0.249895  0.333373  1
  Ta  Ta5  1  0.499991  0.750106  0.333373  1
  Ta  Ta6  1  0.000000  0.250055  0.500000  1
  Ta  Ta7  1  0.000000  0.749945  0.500000  1
  Ta  Ta8  1  0.500009  0.249895  0.666627  1
  Ta  Ta9  1  0.500009  0.750106  0.666627  1
  Ta  Ta10  1  0.000008  0.249505  0.833772  1
  Ta  Ta11  1  0.000008  0.750495  0.833772  1
  Mo  Mo12  1  0.000000  0.000000  0.000000  1
  Mo  Mo13  1  0.000000  0.500000  0.000000  1
  Mo  Mo14  1  0.499993  0.000000  0.169029  1
  Mo  Mo15  1  0.999991  0.500000  0.333871  1
  Mo  Mo16  1  0.500000  0.000000  0.500000  1
  Mo  Mo17  1  0.000009  0.500000  0.666129  1
  Mo  Mo18  1  0.500007  0.000000  0.830971  1
  Ru  Ru19  1  0.500007  0.500000  0.167601  1
  Ru  Ru20  1  0.999992  0.000000  0.334674  1
  Ru  Ru21  1  0.500000  0.500000  0.500000  1
  Ru  Ru22  1  0.000008  0.000000  0.665326  1
  Ru  Ru23  1  0.499993  0.500000  0.832399  1
