# generated using pymatgen
data_Er12AlFe3CoSn
_symmetry_space_group_name_H-M   'P 1'
_cell_length_a   8.27630179
_cell_length_b   8.27245868
_cell_length_c   8.27630150
_cell_angle_alpha   111.35023810
_cell_angle_beta   110.20292145
_cell_angle_gamma   106.91124256
_symmetry_Int_Tables_number   1
_chemical_formula_structural   Er12AlFe3CoSn
_chemical_formula_sum   'Er12 Al1 Fe3 Co1 Sn1'
_cell_volume   435.40182687
_cell_formula_units_Z   1
loop_
 _symmetry_equiv_pos_site_id
 _symmetry_equiv_pos_as_xyz
  1  'x, y, z'
loop_
 _atom_site_type_symbol
 _atom_site_label
 _atom_site_symmetry_multiplicity
 _atom_site_fract_x
 _atom_site_fract_y
 _atom_site_fract_z
 _atom_site_occupancy
  Er  Er0  1  0.311378  0.614386  0.298525  1
  Er  Er1  1  0.684141  0.385615  0.696993  1
  Er  Er2  1  0.311370  0.013003  0.697145  1
  Er  Er3  1  0.684141  0.986997  0.298366  1
  Er  Er4  1  0.433593  0.223750  0.209610  1
  Er  Er5  1  0.556963  0.769021  0.788109  1
  Er  Er6  1  0.019089  0.230979  0.787941  1
  Er  Er7  1  0.985859  0.776250  0.209842  1
  Er  Er8  1  0.184166  0.283479  0.467557  1
  Er  Er9  1  0.811323  0.714977  0.526383  1
  Er  Er10  1  0.184078  0.716521  0.900687  1
  Er  Er11  1  0.811406  0.285023  0.096346  1
  Al  Al12  1  0.991996  0.000000  0.991996  1
  Fe  Fe13  1  0.108407  0.609540  0.499653  1
  Fe  Fe14  1  0.890114  0.390461  0.498867  1
  Fe  Fe15  1  0.396838  0.000000  0.396838  1
  Co  Co16  1  0.635003  0.000000  0.635003  1
  Sn  Sn17  1  0.500138  0.500000  0.000138  1
