# generated using pymatgen
data_Nd5AgSe4
_symmetry_space_group_name_H-M   'P 1'
_cell_length_a   7.35478954
_cell_length_b   7.35478383
_cell_length_c   7.35479000
_cell_angle_alpha   99.61474279
_cell_angle_beta   99.61471945
_cell_angle_gamma   131.75573147
_symmetry_Int_Tables_number   1
_chemical_formula_structural   Nd5AgSe4
_chemical_formula_sum   'Nd5 Ag1 Se4'
_cell_volume   270.86973750
_cell_formula_units_Z   1
loop_
 _symmetry_equiv_pos_site_id
 _symmetry_equiv_pos_as_xyz
  1  'x, y, z'
loop_
 _atom_site_type_symbol
 _atom_site_label
 _atom_site_symmetry_multiplicity
 _atom_site_fract_x
 _atom_site_fract_y
 _atom_site_fract_z
 _atom_site_occupancy
  Nd  Nd0  1  0.395027  0.806174  0.201200  1
  Nd  Nd1  1  0.000000  0.000000  0.000000  1
  Nd  Nd2  1  0.604973  0.193826  0.798800  1
  Nd  Nd3  1  0.193826  0.395027  0.588853  1
  Nd  Nd4  1  0.806174  0.604973  0.411147  1
  Ag  Ag5  1  0.500000  0.500000  0.000000  1
  Se  Se6  1  0.099761  0.698847  0.798609  1
  Se  Se7  1  0.698847  0.900239  0.599086  1
  Se  Se8  1  0.301153  0.099761  0.400914  1
  Se  Se9  1  0.900239  0.301153  0.201391  1
