# generated using pymatgen
data_Ho4Er5TmIr4
_symmetry_space_group_name_H-M   'P 1'
_cell_length_a   6.43410765
_cell_length_b   7.17937426
_cell_length_c   8.45758514
_cell_angle_alpha   96.62880690
_cell_angle_beta   112.35690397
_cell_angle_gamma   89.99999693
_symmetry_Int_Tables_number   1
_chemical_formula_structural   Ho4Er5TmIr4
_chemical_formula_sum   'Ho4 Er5 Tm1 Ir4'
_cell_volume   358.48798063
_cell_formula_units_Z   1
loop_
 _symmetry_equiv_pos_site_id
 _symmetry_equiv_pos_as_xyz
  1  'x, y, z'
loop_
 _atom_site_type_symbol
 _atom_site_label
 _atom_site_symmetry_multiplicity
 _atom_site_fract_x
 _atom_site_fract_y
 _atom_site_fract_z
 _atom_site_occupancy
  Ho  Ho0  1  0.971691  0.918872  0.184226  1
  Ho  Ho1  1  0.787464  0.581128  0.815774  1
  Ho  Ho2  1  0.028248  0.081258  0.815807  1
  Ho  Ho3  1  0.212441  0.418742  0.184193  1
  Er  Er4  1  0.652632  0.817366  0.440993  1
  Er  Er5  1  0.211639  0.682634  0.559007  1
  Er  Er6  1  0.347481  0.182676  0.559115  1
  Er  Er7  1  0.788366  0.317324  0.440885  1
  Er  Er8  1  0.427581  0.750000  0.000000  1
  Tm  Tm9  1  0.572295  0.250000  0.000000  1
  Ir  Ir10  1  0.824077  0.573072  0.219564  1
  Ir  Ir11  1  0.604514  0.926928  0.780436  1
  Ir  Ir12  1  0.176015  0.426645  0.780456  1
  Ir  Ir13  1  0.395557  0.073355  0.219544  1
