# generated using pymatgen
data_Nd12Ru3RhBr12
_symmetry_space_group_name_H-M   'P 1'
_cell_length_a   10.44396818
_cell_length_b   10.44258886
_cell_length_c   10.43276101
_cell_angle_alpha   109.44886292
_cell_angle_beta   109.45415174
_cell_angle_gamma   109.49235039
_symmetry_Int_Tables_number   1
_chemical_formula_structural   Nd12Ru3RhBr12
_chemical_formula_sum   'Nd12 Ru3 Rh1 Br12'
_cell_volume   876.09067986
_cell_formula_units_Z   1
loop_
 _symmetry_equiv_pos_site_id
 _symmetry_equiv_pos_as_xyz
  1  'x, y, z'
loop_
 _atom_site_type_symbol
 _atom_site_label
 _atom_site_symmetry_multiplicity
 _atom_site_fract_x
 _atom_site_fract_y
 _atom_site_fract_z
 _atom_site_occupancy
  Nd  Nd0  1  0.264387  0.745618  0.231597  1
  Nd  Nd1  1  0.481229  0.745619  0.014021  1
  Nd  Nd2  1  0.233429  0.466854  0.483426  1
  Nd  Nd3  1  0.016077  0.032155  0.266075  1
  Nd  Nd4  1  0.233420  0.266588  0.750010  1
  Nd  Nd5  1  0.016088  0.483918  0.750009  1
  Nd  Nd6  1  0.481241  0.235616  0.467223  1
  Nd  Nd7  1  0.264383  0.018758  0.032772  1
  Nd  Nd8  1  0.754373  0.235616  0.268387  1
  Nd  Nd9  1  0.754372  0.018755  0.485987  1
  Nd  Nd10  1  0.467826  0.483916  0.233911  1
  Nd  Nd11  1  0.033172  0.266590  0.016583  1
  Ru  Ru12  1  0.250711  0.501418  0.000711  1
  Ru  Ru13  1  0.998584  0.249293  0.499293  1
  Ru  Ru14  1  0.250710  0.249295  0.249998  1
  Rh  Rh15  1  0.499998  0.999995  0.250000  1
  Br  Br16  1  0.250145  0.994676  0.505615  1
  Br  Br17  1  0.512118  0.506055  0.756055  1
  Br  Br18  1  0.250146  0.755471  0.744527  1
  Br  Br19  1  0.988850  0.744429  0.994427  1
  Br  Br20  1  0.993939  0.506056  0.250001  1
  Br  Br21  1  0.744531  0.994676  0.989061  1
  Br  Br22  1  0.755579  0.744431  0.250003  1
  Br  Br23  1  0.505326  0.755471  0.510944  1
  Br  Br24  1  0.505327  0.249852  0.994386  1
  Br  Br25  1  0.755575  0.511149  0.505574  1
  Br  Br26  1  0.744526  0.249851  0.755466  1
  Br  Br27  1  0.993940  0.987880  0.743940  1
