# generated using pymatgen
data_Ho4Re2NiRu5
_symmetry_space_group_name_H-M   'P 1'
_cell_length_a   5.31194900
_cell_length_b   5.31194918
_cell_length_c   8.97506200
_cell_angle_alpha   90.00000000
_cell_angle_beta   90.00000000
_cell_angle_gamma   122.90691078
_symmetry_Int_Tables_number   1
_chemical_formula_structural   Ho4Re2NiRu5
_chemical_formula_sum   'Ho4 Re2 Ni1 Ru5'
_cell_volume   212.61508663
_cell_formula_units_Z   1
loop_
 _symmetry_equiv_pos_site_id
 _symmetry_equiv_pos_as_xyz
  1  'x, y, z'
loop_
 _atom_site_type_symbol
 _atom_site_label
 _atom_site_symmetry_multiplicity
 _atom_site_fract_x
 _atom_site_fract_y
 _atom_site_fract_z
 _atom_site_occupancy
  Ho  Ho0  1  0.334876  0.665124  0.431487  1
  Ho  Ho1  1  0.664173  0.335827  0.560549  1
  Ho  Ho2  1  0.664173  0.335827  0.939451  1
  Ho  Ho3  1  0.334876  0.665124  0.068513  1
  Re  Re4  1  0.172928  0.335281  0.750000  1
  Re  Re5  1  0.664719  0.827072  0.750000  1
  Ni  Ni6  1  0.833512  0.166488  0.250000  1
  Ru  Ru7  1  0.994239  0.005761  0.496486  1
  Ru  Ru8  1  0.994239  0.005761  0.003514  1
  Ru  Ru9  1  0.826872  0.659895  0.250000  1
  Ru  Ru10  1  0.340105  0.173128  0.250000  1
  Ru  Ru11  1  0.175287  0.824713  0.750000  1
