# generated using pymatgen
data_Y2Ho3NpAl18
_symmetry_space_group_name_H-M   'P 1'
_cell_length_a   14.60673513
_cell_length_b   14.60673511
_cell_length_c   14.60673600
_cell_angle_alpha   24.35264167
_cell_angle_beta   24.35264189
_cell_angle_gamma   24.35264691
_symmetry_Int_Tables_number   1
_chemical_formula_structural   Y2Ho3NpAl18
_chemical_formula_sum   'Y2 Ho3 Np1 Al18'
_cell_volume   465.81215958
_cell_formula_units_Z   1
loop_
 _symmetry_equiv_pos_site_id
 _symmetry_equiv_pos_as_xyz
  1  'x, y, z'
loop_
 _atom_site_type_symbol
 _atom_site_label
 _atom_site_symmetry_multiplicity
 _atom_site_fract_x
 _atom_site_fract_y
 _atom_site_fract_z
 _atom_site_occupancy
  Y  Y0  1  0.890697  0.890697  0.890697  1
  Y  Y1  1  0.390646  0.390646  0.390646  1
  Ho  Ho2  1  0.999475  0.999475  0.999475  1
  Ho  Ho3  1  0.500361  0.500361  0.500361  1
  Ho  Ho4  1  0.609294  0.609294  0.609294  1
  Np  Np5  1  0.108878  0.108878  0.108878  1
  Al  Al6  1  0.923215  0.371245  0.371245  1
  Al  Al7  1  0.420265  0.872572  0.872572  1
  Al  Al8  1  0.371245  0.371245  0.923215  1
  Al  Al9  1  0.872572  0.872572  0.420265  1
  Al  Al10  1  0.371245  0.923215  0.371245  1
  Al  Al11  1  0.872572  0.420265  0.872572  1
  Al  Al12  1  0.575471  0.129766  0.129766  1
  Al  Al13  1  0.079710  0.627737  0.627737  1
  Al  Al14  1  0.129766  0.129766  0.575471  1
  Al  Al15  1  0.627737  0.627737  0.079710  1
  Al  Al16  1  0.129766  0.575471  0.129766  1
  Al  Al17  1  0.627737  0.079710  0.627737  1
  Al  Al18  1  0.500255  0.500255  0.999641  1
  Al  Al19  1  0.004215  0.004215  0.490762  1
  Al  Al20  1  0.500255  0.999641  0.500255  1
  Al  Al21  1  0.004215  0.490762  0.004215  1
  Al  Al22  1  0.999641  0.500255  0.500255  1
  Al  Al23  1  0.490762  0.004215  0.004215  1
