# generated using pymatgen
data_Lu3Be2Co9B4
_symmetry_space_group_name_H-M   'P 1'
_cell_length_a   4.97684800
_cell_length_b   4.97604539
_cell_length_c   9.31999000
_cell_angle_alpha   90.00003556
_cell_angle_beta   89.99991739
_cell_angle_gamma   120.00533573
_symmetry_Int_Tables_number   1
_chemical_formula_structural   Lu3Be2Co9B4
_chemical_formula_sum   'Lu3 Be2 Co9 B4'
_cell_volume   199.87636164
_cell_formula_units_Z   1
loop_
 _symmetry_equiv_pos_site_id
 _symmetry_equiv_pos_as_xyz
  1  'x, y, z'
loop_
 _atom_site_type_symbol
 _atom_site_label
 _atom_site_symmetry_multiplicity
 _atom_site_fract_x
 _atom_site_fract_y
 _atom_site_fract_z
 _atom_site_occupancy
  Lu  Lu0  1  0.999990  0.000000  0.000143  1
  Lu  Lu1  1  0.999986  0.000000  0.337298  1
  Lu  Lu2  1  0.999997  0.000000  0.662521  1
  Be  Be3  1  0.333230  0.666472  0.000114  1
  Be  Be4  1  0.666757  0.333528  0.000114  1
  Co  Co5  1  0.499994  0.000000  0.499944  1
  Co  Co6  1  0.499995  0.499998  0.499983  1
  Co  Co7  1  0.999997  0.500002  0.499983  1
  Co  Co8  1  0.499993  0.000000  0.188295  1
  Co  Co9  1  0.499994  0.500001  0.188249  1
  Co  Co10  1  0.999994  0.499999  0.188249  1
  Co  Co11  1  0.499995  0.000000  0.811807  1
  Co  Co12  1  0.499998  0.500001  0.811785  1
  Co  Co13  1  0.999997  0.499999  0.811785  1
  B  B14  1  0.333324  0.666661  0.341332  1
  B  B15  1  0.666663  0.333339  0.341332  1
  B  B16  1  0.666628  0.333261  0.658533  1
  B  B17  1  0.333367  0.666739  0.658533  1
