# generated using pymatgen
data_Tb3SnHg2Pd3
_symmetry_space_group_name_H-M   'P 1'
_cell_length_a   7.87454983
_cell_length_b   7.76397508
_cell_length_c   3.73529100
_cell_angle_alpha   90.00000000
_cell_angle_beta   90.00000000
_cell_angle_gamma   119.53657756
_symmetry_Int_Tables_number   1
_chemical_formula_structural   Tb3SnHg2Pd3
_chemical_formula_sum   'Tb3 Sn1 Hg2 Pd3'
_cell_volume   198.68912927
_cell_formula_units_Z   1
loop_
 _symmetry_equiv_pos_site_id
 _symmetry_equiv_pos_as_xyz
  1  'x, y, z'
loop_
 _atom_site_type_symbol
 _atom_site_label
 _atom_site_symmetry_multiplicity
 _atom_site_fract_x
 _atom_site_fract_y
 _atom_site_fract_z
 _atom_site_occupancy
  Tb  Tb0  1  0.403602  0.397961  0.500000  1
  Tb  Tb1  1  0.596398  0.994359  0.500000  1
  Tb  Tb2  1  0.000000  0.615852  0.500000  1
  Sn  Sn3  1  0.000000  0.264657  0.000000  1
  Hg  Hg4  1  0.721605  0.726320  0.000000  1
  Hg  Hg5  1  0.278395  0.004715  0.000000  1
  Pd  Pd6  1  0.678820  0.332195  0.000000  1
  Pd  Pd7  1  0.321180  0.653377  0.000000  1
  Pd  Pd8  1  0.000000  0.010564  0.500000  1
