# generated using pymatgen
data_Lu4Zn3GaIr4
_symmetry_space_group_name_H-M   'P 1'
_cell_length_a   4.05102200
_cell_length_b   6.85987649
_cell_length_c   8.00003132
_cell_angle_alpha   89.72386164
_cell_angle_beta   90.00000000
_cell_angle_gamma   90.00000000
_symmetry_Int_Tables_number   1
_chemical_formula_structural   Lu4Zn3GaIr4
_chemical_formula_sum   'Lu4 Zn3 Ga1 Ir4'
_cell_volume   222.31437305
_cell_formula_units_Z   1
loop_
 _symmetry_equiv_pos_site_id
 _symmetry_equiv_pos_as_xyz
  1  'x, y, z'
loop_
 _atom_site_type_symbol
 _atom_site_label
 _atom_site_symmetry_multiplicity
 _atom_site_fract_x
 _atom_site_fract_y
 _atom_site_fract_z
 _atom_site_occupancy
  Lu  Lu0  1  0.250000  0.966100  0.320262  1
  Lu  Lu1  1  0.250000  0.468423  0.182259  1
  Lu  Lu2  1  0.750000  0.031817  0.680192  1
  Lu  Lu3  1  0.750000  0.535468  0.818301  1
  Zn  Zn4  1  0.250000  0.357475  0.566834  1
  Zn  Zn5  1  0.250000  0.855782  0.931963  1
  Zn  Zn6  1  0.750000  0.639899  0.433757  1
  Ga  Ga7  1  0.750000  0.142380  0.064769  1
  Ir  Ir8  1  0.250000  0.241964  0.885046  1
  Ir  Ir9  1  0.250000  0.743280  0.621171  1
  Ir  Ir10  1  0.750000  0.760836  0.121022  1
  Ir  Ir11  1  0.750000  0.256576  0.374425  1
