# generated using pymatgen
data_YBe2Pt3
_symmetry_space_group_name_H-M   'P 1'
_cell_length_a   5.45104300
_cell_length_b   5.45105566
_cell_length_c   3.53409300
_cell_angle_alpha   90.00000000
_cell_angle_beta   90.00000000
_cell_angle_gamma   120.00001422
_symmetry_Int_Tables_number   1
_chemical_formula_structural   YBe2Pt3
_chemical_formula_sum   'Y1 Be2 Pt3'
_cell_volume   90.94289343
_cell_formula_units_Z   1
loop_
 _symmetry_equiv_pos_site_id
 _symmetry_equiv_pos_as_xyz
  1  'x, y, z'
loop_
 _atom_site_type_symbol
 _atom_site_label
 _atom_site_symmetry_multiplicity
 _atom_site_fract_x
 _atom_site_fract_y
 _atom_site_fract_z
 _atom_site_occupancy
  Y  Y0  1  0.000000  0.000000  0.000000  1
  Be  Be1  1  0.666667  0.333333  0.000000  1
  Be  Be2  1  0.333333  0.666666  0.000000  1
  Pt  Pt3  1  0.500000  0.000000  0.500001  1
  Pt  Pt4  1  0.000000  0.499999  0.500001  1
  Pt  Pt5  1  0.499999  0.499999  0.500001  1
