# generated using pymatgen
data_TmMgGaPt5
_symmetry_space_group_name_H-M   'P 1'
_cell_length_a   5.68717243
_cell_length_b   5.68717132
_cell_length_c   4.08368100
_cell_angle_alpha   90.00000000
_cell_angle_beta   90.00000000
_cell_angle_gamma   96.00029071
_symmetry_Int_Tables_number   1
_chemical_formula_structural   TmMgGaPt5
_chemical_formula_sum   'Tm1 Mg1 Ga1 Pt5'
_cell_volume   131.35863709
_cell_formula_units_Z   1
loop_
 _symmetry_equiv_pos_site_id
 _symmetry_equiv_pos_as_xyz
  1  'x, y, z'
loop_
 _atom_site_type_symbol
 _atom_site_label
 _atom_site_symmetry_multiplicity
 _atom_site_fract_x
 _atom_site_fract_y
 _atom_site_fract_z
 _atom_site_occupancy
  Tm  Tm0  1  0.275943  0.724057  0.500000  1
  Mg  Mg1  1  0.722329  0.277671  0.500000  1
  Ga  Ga2  1  0.990930  0.009070  0.000000  1
  Pt  Pt3  1  0.502480  0.497520  0.000000  1
  Pt  Pt4  1  0.993787  0.488545  0.000000  1
  Pt  Pt5  1  0.511455  0.006213  0.000000  1
  Pt  Pt6  1  0.220563  0.217487  0.500000  1
  Pt  Pt7  1  0.782513  0.779437  0.500000  1
