# generated using pymatgen
data_Ho3Zr2Sn3N
_symmetry_space_group_name_H-M   'P 1'
_cell_length_a   8.74330302
_cell_length_b   8.74291894
_cell_length_c   6.10993902
_cell_angle_alpha   89.99014893
_cell_angle_beta   90.00646584
_cell_angle_gamma   119.99925801
_symmetry_Int_Tables_number   1
_chemical_formula_structural   Ho3Zr2Sn3N
_chemical_formula_sum   'Ho6 Zr4 Sn6 N2'
_cell_volume   404.48528779
_cell_formula_units_Z   2
loop_
 _symmetry_equiv_pos_site_id
 _symmetry_equiv_pos_as_xyz
  1  'x, y, z'
loop_
 _atom_site_type_symbol
 _atom_site_label
 _atom_site_symmetry_multiplicity
 _atom_site_fract_x
 _atom_site_fract_y
 _atom_site_fract_z
 _atom_site_occupancy
  Ho  Ho0  1  0.782460  0.782466  0.749977  1
  Ho  Ho1  1  0.217533  0.999997  0.749977  1
  Ho  Ho2  1  0.000014  0.217553  0.750018  1
  Ho  Ho3  1  0.217531  0.217551  0.250024  1
  Ho  Ho4  1  0.782447  0.000000  0.250023  1
  Ho  Ho5  1  0.999989  0.782454  0.249982  1
  Zr  Zr6  1  0.666683  0.333340  0.000030  1
  Zr  Zr7  1  0.333319  0.666664  0.000011  1
  Zr  Zr8  1  0.333348  0.666681  0.499988  1
  Zr  Zr9  1  0.666658  0.333325  0.499968  1
  Sn  Sn10  1  0.407616  0.407611  0.749983  1
  Sn  Sn11  1  0.592399  0.000008  0.749991  1
  Sn  Sn12  1  0.999987  0.592369  0.750004  1
  Sn  Sn13  1  0.592399  0.592386  0.250020  1
  Sn  Sn14  1  0.407609  0.000002  0.250010  1
  Sn  Sn15  1  0.999996  0.407600  0.249994  1
  N  N16  1  0.000006  0.999996  0.999994  1
  N  N17  1  0.000005  0.999996  0.500006  1
