# generated using pymatgen
data_Eu3ZnP3
_symmetry_space_group_name_H-M   'P 1'
_cell_length_a   9.63341303
_cell_length_b   9.63341352
_cell_length_c   12.10273200
_cell_angle_alpha   90.00000000
_cell_angle_beta   90.00000000
_cell_angle_gamma   142.73166028
_symmetry_Int_Tables_number   1
_chemical_formula_structural   Eu3ZnP3
_chemical_formula_sum   'Eu12 Zn4 P12'
_cell_volume   680.13153379
_cell_formula_units_Z   4
loop_
 _symmetry_equiv_pos_site_id
 _symmetry_equiv_pos_as_xyz
  1  'x, y, z'
loop_
 _atom_site_type_symbol
 _atom_site_label
 _atom_site_symmetry_multiplicity
 _atom_site_fract_x
 _atom_site_fract_y
 _atom_site_fract_z
 _atom_site_occupancy
  Eu  Eu0  1  0.807412  0.807412  0.645261  1
  Eu  Eu1  1  0.192588  0.192588  0.354739  1
  Eu  Eu2  1  0.692588  0.692588  0.145261  1
  Eu  Eu3  1  0.307412  0.307412  0.854739  1
  Eu  Eu4  1  0.120815  0.470077  0.131268  1
  Eu  Eu5  1  0.529923  0.879185  0.868732  1
  Eu  Eu6  1  0.029923  0.379185  0.631268  1
  Eu  Eu7  1  0.620815  0.970077  0.368732  1
  Eu  Eu8  1  0.879185  0.529923  0.868732  1
  Eu  Eu9  1  0.470077  0.120815  0.131268  1
  Eu  Eu10  1  0.970077  0.620815  0.368732  1
  Eu  Eu11  1  0.379185  0.029923  0.631268  1
  Zn  Zn12  1  0.915269  0.084731  0.000000  1
  Zn  Zn13  1  0.415269  0.584731  0.500000  1
  Zn  Zn14  1  0.084731  0.915269  0.000000  1
  Zn  Zn15  1  0.584731  0.415269  0.500000  1
  P  P16  1  0.278237  0.278237  0.609980  1
  P  P17  1  0.721763  0.721763  0.390020  1
  P  P18  1  0.221763  0.221763  0.109980  1
  P  P19  1  0.778237  0.778237  0.890020  1
  P  P20  1  0.557062  0.881958  0.621835  1
  P  P21  1  0.118042  0.442938  0.378165  1
  P  P22  1  0.618042  0.942938  0.121835  1
  P  P23  1  0.057062  0.381958  0.878165  1
  P  P24  1  0.442938  0.118042  0.378165  1
  P  P25  1  0.881958  0.557062  0.621835  1
  P  P26  1  0.381958  0.057062  0.878165  1
  P  P27  1  0.942938  0.618042  0.121835  1
