# generated using pymatgen
data_TcCl3F2
_symmetry_space_group_name_H-M   'P 1'
_cell_length_a   9.97330303
_cell_length_b   9.97330273
_cell_length_c   9.97330202
_cell_angle_alpha   97.70546923
_cell_angle_beta   97.70547412
_cell_angle_gamma   137.04072557
_symmetry_Int_Tables_number   1
_chemical_formula_structural   TcCl3F2
_chemical_formula_sum   'Tc4 Cl12 F8'
_cell_volume   629.08269155
_cell_formula_units_Z   4
loop_
 _symmetry_equiv_pos_site_id
 _symmetry_equiv_pos_as_xyz
  1  'x, y, z'
loop_
 _atom_site_type_symbol
 _atom_site_label
 _atom_site_symmetry_multiplicity
 _atom_site_fract_x
 _atom_site_fract_y
 _atom_site_fract_z
 _atom_site_occupancy
  Tc  Tc0  1  0.533075  0.265944  0.827899  1
  Tc  Tc1  1  0.734056  0.561955  0.267131  1
  Tc  Tc2  1  0.294824  0.466925  0.732869  1
  Tc  Tc3  1  0.438045  0.705176  0.172101  1
  Cl  Cl4  1  0.681502  0.181718  0.884872  1
  Cl  Cl5  1  0.534572  0.843220  0.409051  1
  Cl  Cl6  1  0.874479  0.465428  0.308648  1
  Cl  Cl7  1  0.434169  0.125521  0.590949  1
  Cl  Cl8  1  0.142240  0.372522  0.147835  1
  Cl  Cl9  1  0.627478  0.775312  0.769716  1
  Cl  Cl10  1  0.005595  0.857760  0.230284  1
  Cl  Cl11  1  0.224688  0.994405  0.852165  1
  Cl  Cl12  1  0.203370  0.318498  0.500216  1
  Cl  Cl13  1  0.296847  0.796630  0.115128  1
  Cl  Cl14  1  0.156780  0.565831  0.691352  1
  Cl  Cl15  1  0.818282  0.703153  0.499784  1
  F  F16  1  0.780748  0.542159  0.841071  1
  F  F17  1  0.457841  0.298911  0.238589  1
  F  F18  1  0.060323  0.219252  0.761411  1
  F  F19  1  0.701089  0.939677  0.158929  1
  F  F20  1  0.375886  0.585295  0.955374  1
  F  F21  1  0.579488  0.624114  0.209409  1
  F  F22  1  0.414705  0.370080  0.790591  1
  F  F23  1  0.629920  0.420512  0.044626  1
