# generated using pymatgen
data_HoAgIr2O7
_symmetry_space_group_name_H-M   'P 1'
_cell_length_a   7.22426356
_cell_length_b   7.16496955
_cell_length_c   7.22426272
_cell_angle_alpha   60.27113603
_cell_angle_beta   61.14039131
_cell_angle_gamma   60.27113780
_symmetry_Int_Tables_number   1
_chemical_formula_structural   HoAgIr2O7
_chemical_formula_sum   'Ho2 Ag2 Ir4 O14'
_cell_volume   267.72498877
_cell_formula_units_Z   2
loop_
 _symmetry_equiv_pos_site_id
 _symmetry_equiv_pos_as_xyz
  1  'x, y, z'
loop_
 _atom_site_type_symbol
 _atom_site_label
 _atom_site_symmetry_multiplicity
 _atom_site_fract_x
 _atom_site_fract_y
 _atom_site_fract_z
 _atom_site_occupancy
  Ho  Ho0  1  0.625000  0.125000  0.125000  1
  Ho  Ho1  1  0.125000  0.125000  0.625000  1
  Ag  Ag2  1  0.125000  0.625000  0.125000  1
  Ag  Ag3  1  0.125000  0.125000  0.125000  1
  Ir  Ir4  1  0.125000  0.625000  0.625000  1
  Ir  Ir5  1  0.625000  0.125000  0.625000  1
  Ir  Ir6  1  0.625000  0.625000  0.125000  1
  Ir  Ir7  1  0.625000  0.625000  0.625000  1
  O  O8  1  0.694397  0.714415  0.298239  1
  O  O9  1  0.298239  0.292950  0.694397  1
  O  O10  1  0.713002  0.286998  0.713002  1
  O  O11  1  0.307903  0.692097  0.307903  1
  O  O12  1  0.298239  0.714415  0.694397  1
  O  O13  1  0.694397  0.292950  0.298239  1
  O  O14  1  0.555603  0.535585  0.951761  1
  O  O15  1  0.951761  0.957050  0.555603  1
  O  O16  1  0.536998  0.963002  0.536998  1
  O  O17  1  0.942097  0.557903  0.942097  1
  O  O18  1  0.951761  0.535585  0.555603  1
  O  O19  1  0.555603  0.957050  0.951761  1
  O  O20  1  0.245875  0.254125  0.245875  1
  O  O21  1  0.004125  0.995875  0.004125  1
