# generated using pymatgen
data_TcAs(Cl2F3)2
_symmetry_space_group_name_H-M   'P 1'
_cell_length_a   9.01067700
_cell_length_b   9.01067700
_cell_length_c   6.48076600
_cell_angle_alpha   90.00000000
_cell_angle_beta   90.00000000
_cell_angle_gamma   90.00000000
_symmetry_Int_Tables_number   1
_chemical_formula_structural   TcAs(Cl2F3)2
_chemical_formula_sum   'Tc2 As2 Cl8 F12'
_cell_volume   526.18829729
_cell_formula_units_Z   2
loop_
 _symmetry_equiv_pos_site_id
 _symmetry_equiv_pos_as_xyz
  1  'x, y, z'
loop_
 _atom_site_type_symbol
 _atom_site_label
 _atom_site_symmetry_multiplicity
 _atom_site_fract_x
 _atom_site_fract_y
 _atom_site_fract_z
 _atom_site_occupancy
  Tc  Tc0  1  0.500000  0.500000  0.000000  1
  Tc  Tc1  1  0.000000  0.000000  0.000000  1
  As  As2  1  0.500000  0.000000  0.674825  1
  As  As3  1  0.000000  0.500000  0.325175  1
  Cl  Cl4  1  0.462359  0.690752  0.196144  1
  Cl  Cl5  1  0.190752  0.037641  0.196144  1
  Cl  Cl6  1  0.690752  0.537641  0.803856  1
  Cl  Cl7  1  0.037641  0.809248  0.803856  1
  Cl  Cl8  1  0.962359  0.190752  0.803856  1
  Cl  Cl9  1  0.309248  0.462359  0.803856  1
  Cl  Cl10  1  0.537641  0.309248  0.196144  1
  Cl  Cl11  1  0.809248  0.962359  0.196144  1
  F  F12  1  0.500000  0.000000  0.400014  1
  F  F13  1  0.000000  0.500000  0.599986  1
  F  F14  1  0.432146  0.814503  0.673483  1
  F  F15  1  0.314503  0.067854  0.673483  1
  F  F16  1  0.685497  0.932146  0.673483  1
  F  F17  1  0.567854  0.185497  0.673483  1
  F  F18  1  0.067854  0.685497  0.326517  1
  F  F19  1  0.185497  0.432146  0.326517  1
  F  F20  1  0.814503  0.567854  0.326517  1
  F  F21  1  0.000000  0.500000  0.052633  1
  F  F22  1  0.500000  0.000000  0.947367  1
  F  F23  1  0.932146  0.314503  0.326517  1
