# generated using pymatgen
data_Tb2Ho14In6CoRh
_symmetry_space_group_name_H-M   'P 1'
_cell_length_a   10.34610300
_cell_length_b   10.34610323
_cell_length_c   7.01540100
_cell_angle_alpha   90.00000000
_cell_angle_beta   90.00000000
_cell_angle_gamma   120.00000248
_symmetry_Int_Tables_number   1
_chemical_formula_structural   Tb2Ho14In6CoRh
_chemical_formula_sum   'Tb2 Ho14 In6 Co1 Rh1'
_cell_volume   650.33439855
_cell_formula_units_Z   1
loop_
 _symmetry_equiv_pos_site_id
 _symmetry_equiv_pos_as_xyz
  1  'x, y, z'
loop_
 _atom_site_type_symbol
 _atom_site_label
 _atom_site_symmetry_multiplicity
 _atom_site_fract_x
 _atom_site_fract_y
 _atom_site_fract_z
 _atom_site_occupancy
  Tb  Tb0  1  0.000000  0.000000  0.493999  1
  Tb  Tb1  1  0.000000  0.000000  0.997650  1
  Ho  Ho2  1  0.466915  0.533085  0.480663  1
  Ho  Ho3  1  0.066170  0.533085  0.480663  1
  Ho  Ho4  1  0.466915  0.933830  0.480663  1
  Ho  Ho5  1  0.535928  0.464072  0.982144  1
  Ho  Ho6  1  0.928144  0.464072  0.982144  1
  Ho  Ho7  1  0.535928  0.071856  0.982144  1
  Ho  Ho8  1  0.821691  0.178309  0.274836  1
  Ho  Ho9  1  0.356617  0.178309  0.274836  1
  Ho  Ho10  1  0.821691  0.643383  0.274836  1
  Ho  Ho11  1  0.176283  0.823717  0.776400  1
  Ho  Ho12  1  0.647434  0.823717  0.776400  1
  Ho  Ho13  1  0.176283  0.352566  0.776400  1
  Ho  Ho14  1  0.333333  0.666667  0.101117  1
  Ho  Ho15  1  0.666667  0.333333  0.591040  1
  In  In16  1  0.162785  0.837215  0.234650  1
  In  In17  1  0.674431  0.837215  0.234650  1
  In  In18  1  0.162785  0.325569  0.234650  1
  In  In19  1  0.836281  0.163719  0.733237  1
  In  In20  1  0.327441  0.163719  0.733237  1
  In  In21  1  0.836281  0.672559  0.733237  1
  Co  Co22  1  0.666667  0.333333  0.207038  1
  Rh  Rh23  1  0.333333  0.666667  0.707917  1
