# generated using pymatgen
data_Ho3Tm2In4IrPt
_symmetry_space_group_name_H-M   'P 1'
_cell_length_a   3.61144900
_cell_length_b   8.10080266
_cell_length_c   18.15651609
_cell_angle_alpha   89.94794725
_cell_angle_beta   90.00000000
_cell_angle_gamma   90.00000000
_symmetry_Int_Tables_number   1
_chemical_formula_structural   Ho3Tm2In4IrPt
_chemical_formula_sum   'Ho6 Tm4 In8 Ir2 Pt2'
_cell_volume   531.18020037
_cell_formula_units_Z   2
loop_
 _symmetry_equiv_pos_site_id
 _symmetry_equiv_pos_as_xyz
  1  'x, y, z'
loop_
 _atom_site_type_symbol
 _atom_site_label
 _atom_site_symmetry_multiplicity
 _atom_site_fract_x
 _atom_site_fract_y
 _atom_site_fract_z
 _atom_site_occupancy
  Ho  Ho0  1  0.000000  0.236188  0.221987  1
  Ho  Ho1  1  0.000000  0.763812  0.778013  1
  Ho  Ho2  1  0.000000  0.249025  0.720188  1
  Ho  Ho3  1  0.000000  0.750975  0.279812  1
  Ho  Ho4  1  0.000000  0.000000  0.000000  1
  Ho  Ho5  1  0.000000  0.500000  0.500000  1
  Tm  Tm6  1  0.000000  0.115001  0.411786  1
  Tm  Tm7  1  0.000000  0.884999  0.588214  1
  Tm  Tm8  1  0.000000  0.383404  0.913624  1
  Tm  Tm9  1  0.000000  0.616596  0.086376  1
  In  In10  1  0.500000  0.422900  0.351148  1
  In  In11  1  0.500000  0.577100  0.648852  1
  In  In12  1  0.500000  0.075168  0.850830  1
  In  In13  1  0.500000  0.924832  0.149170  1
  In  In14  1  0.500000  0.293464  0.066215  1
  In  In15  1  0.500000  0.706536  0.933785  1
  In  In16  1  0.500000  0.205724  0.567024  1
  In  In17  1  0.500000  0.794276  0.432976  1
  Ir  Ir18  1  0.500000  0.021990  0.304336  1
  Ir  Ir19  1  0.500000  0.978010  0.695664  1
  Pt  Pt20  1  0.500000  0.476962  0.804116  1
  Pt  Pt21  1  0.500000  0.523038  0.195884  1
