# generated using pymatgen
data_Ca20Cd2InHg9
_symmetry_space_group_name_H-M   'P 1'
_cell_length_a   8.28013500
_cell_length_b   8.28013500
_cell_length_c   14.88453500
_cell_angle_alpha   90.00000000
_cell_angle_beta   90.00000000
_cell_angle_gamma   90.00000000
_symmetry_Int_Tables_number   1
_chemical_formula_structural   Ca20Cd2InHg9
_chemical_formula_sum   'Ca20 Cd2 In1 Hg9'
_cell_volume   1020.49318048
_cell_formula_units_Z   1
loop_
 _symmetry_equiv_pos_site_id
 _symmetry_equiv_pos_as_xyz
  1  'x, y, z'
loop_
 _atom_site_type_symbol
 _atom_site_label
 _atom_site_symmetry_multiplicity
 _atom_site_fract_x
 _atom_site_fract_y
 _atom_site_fract_z
 _atom_site_occupancy
  Ca  Ca0  1  0.667468  0.159671  0.101515  1
  Ca  Ca1  1  0.163680  0.665563  0.602489  1
  Ca  Ca2  1  0.332532  0.840329  0.101515  1
  Ca  Ca3  1  0.836320  0.334437  0.602489  1
  Ca  Ca4  1  0.840329  0.667468  0.101515  1
  Ca  Ca5  1  0.334437  0.163680  0.602489  1
  Ca  Ca6  1  0.159671  0.332532  0.101515  1
  Ca  Ca7  1  0.665563  0.836320  0.602489  1
  Ca  Ca8  1  0.840329  0.332532  0.898485  1
  Ca  Ca9  1  0.334437  0.836320  0.397511  1
  Ca  Ca10  1  0.159671  0.667468  0.898485  1
  Ca  Ca11  1  0.665563  0.163680  0.397511  1
  Ca  Ca12  1  0.667468  0.840329  0.898485  1
  Ca  Ca13  1  0.163680  0.334437  0.397511  1
  Ca  Ca14  1  0.332532  0.159671  0.898485  1
  Ca  Ca15  1  0.836320  0.665563  0.397511  1
  Ca  Ca16  1  0.500000  0.500000  0.753063  1
  Ca  Ca17  1  0.000000  0.000000  0.253349  1
  Ca  Ca18  1  0.000000  0.000000  0.746651  1
  Ca  Ca19  1  0.500000  0.500000  0.246937  1
  Cd  Cd20  1  0.500000  0.500000  0.500000  1
  Cd  Cd21  1  0.500000  0.500000  0.000000  1
  In  In22  1  0.000000  0.000000  0.500000  1
  Hg  Hg23  1  0.634161  0.134674  0.751950  1
  Hg  Hg24  1  0.134674  0.634161  0.248050  1
  Hg  Hg25  1  0.865326  0.365839  0.248050  1
  Hg  Hg26  1  0.365839  0.865326  0.751950  1
  Hg  Hg27  1  0.865326  0.634161  0.751950  1
  Hg  Hg28  1  0.365839  0.134674  0.248050  1
  Hg  Hg29  1  0.134674  0.365839  0.751950  1
  Hg  Hg30  1  0.634161  0.865326  0.248050  1
  Hg  Hg31  1  0.000000  0.000000  0.000000  1
