# generated using pymatgen
data_Cs3In2Sb3
_symmetry_space_group_name_H-M   'P 1'
_cell_length_a   11.72324287
_cell_length_b   11.72324338
_cell_length_c   16.99674100
_cell_angle_alpha   90.00000000
_cell_angle_beta   90.00000000
_cell_angle_gamma   141.80603742
_symmetry_Int_Tables_number   1
_chemical_formula_structural   Cs3In2Sb3
_chemical_formula_sum   'Cs12 In8 Sb12'
_cell_volume   1444.36985682
_cell_formula_units_Z   4
loop_
 _symmetry_equiv_pos_site_id
 _symmetry_equiv_pos_as_xyz
  1  'x, y, z'
loop_
 _atom_site_type_symbol
 _atom_site_label
 _atom_site_symmetry_multiplicity
 _atom_site_fract_x
 _atom_site_fract_y
 _atom_site_fract_z
 _atom_site_occupancy
  Cs  Cs0  1  0.612735  0.929782  0.670106  1
  Cs  Cs1  1  0.570218  0.887265  0.170106  1
  Cs  Cs2  1  0.070218  0.387265  0.329894  1
  Cs  Cs3  1  0.112735  0.429782  0.829894  1
  Cs  Cs4  1  0.655742  0.655742  0.863925  1
  Cs  Cs5  1  0.429782  0.112735  0.829894  1
  Cs  Cs6  1  0.344258  0.344258  0.136075  1
  Cs  Cs7  1  0.929782  0.612735  0.670106  1
  Cs  Cs8  1  0.155742  0.155742  0.636075  1
  Cs  Cs9  1  0.887265  0.570218  0.170106  1
  Cs  Cs10  1  0.844258  0.844258  0.363925  1
  Cs  Cs11  1  0.387265  0.070218  0.329894  1
  In  In12  1  0.239663  0.760337  0.500000  1
  In  In13  1  0.260337  0.739663  0.000000  1
  In  In14  1  0.739663  0.260337  0.000000  1
  In  In15  1  0.916273  0.083727  0.000000  1
  In  In16  1  0.760337  0.239663  0.500000  1
  In  In17  1  0.083727  0.916273  0.000000  1
  In  In18  1  0.416273  0.583727  0.500000  1
  In  In19  1  0.583727  0.416273  0.500000  1
  Sb  Sb20  1  0.048451  0.397705  0.088117  1
  Sb  Sb21  1  0.656424  0.656424  0.610270  1
  Sb  Sb22  1  0.397705  0.048451  0.088117  1
  Sb  Sb23  1  0.602295  0.951549  0.911883  1
  Sb  Sb24  1  0.951549  0.602295  0.911883  1
  Sb  Sb25  1  0.451549  0.102295  0.588117  1
  Sb  Sb26  1  0.548451  0.897705  0.411883  1
  Sb  Sb27  1  0.156424  0.156424  0.889730  1
  Sb  Sb28  1  0.102295  0.451549  0.588117  1
  Sb  Sb29  1  0.843576  0.843576  0.110270  1
  Sb  Sb30  1  0.343576  0.343576  0.389730  1
  Sb  Sb31  1  0.897705  0.548451  0.411883  1
