# generated using pymatgen
data_Ca2NdCdIrRh3O14
_symmetry_space_group_name_H-M   'P 1'
_cell_length_a   7.32702135
_cell_length_b   7.32702246
_cell_length_c   7.32702200
_cell_angle_alpha   59.03659872
_cell_angle_beta   59.03659349
_cell_angle_gamma   59.03660225
_symmetry_Int_Tables_number   1
_chemical_formula_structural   Ca2NdCdIrRh3O14
_chemical_formula_sum   'Ca2 Nd1 Cd1 Ir1 Rh3 O14'
_cell_volume   272.03152326
_cell_formula_units_Z   1
loop_
 _symmetry_equiv_pos_site_id
 _symmetry_equiv_pos_as_xyz
  1  'x, y, z'
loop_
 _atom_site_type_symbol
 _atom_site_label
 _atom_site_symmetry_multiplicity
 _atom_site_fract_x
 _atom_site_fract_y
 _atom_site_fract_z
 _atom_site_occupancy
  Ca  Ca0  1  0.125000  0.625000  0.125000  1
  Ca  Ca1  1  0.125000  0.125000  0.625000  1
  Nd  Nd2  1  0.125000  0.125000  0.125000  1
  Cd  Cd3  1  0.625000  0.125000  0.125000  1
  Ir  Ir4  1  0.625000  0.625000  0.625000  1
  Rh  Rh5  1  0.125000  0.625000  0.625000  1
  Rh  Rh6  1  0.625000  0.125000  0.625000  1
  Rh  Rh7  1  0.625000  0.625000  0.125000  1
  O  O8  1  0.696469  0.695226  0.306982  1
  O  O9  1  0.293359  0.292865  0.702757  1
  O  O10  1  0.696469  0.306982  0.695226  1
  O  O11  1  0.293359  0.702757  0.292865  1
  O  O12  1  0.303878  0.698821  0.698821  1
  O  O13  1  0.700331  0.297531  0.297531  1
  O  O14  1  0.553531  0.554774  0.943018  1
  O  O15  1  0.956641  0.957135  0.547243  1
  O  O16  1  0.553531  0.943018  0.554774  1
  O  O17  1  0.956641  0.547243  0.957135  1
  O  O18  1  0.946122  0.551179  0.551179  1
  O  O19  1  0.549669  0.952469  0.952469  1
  O  O20  1  0.267608  0.244736  0.244736  1
  O  O21  1  0.982392  0.005264  0.005264  1
