# generated using pymatgen
data_LuHf8(In2Co)7
_symmetry_space_group_name_H-M   'P 1'
_cell_length_a   9.41757458
_cell_length_b   9.41757418
_cell_length_c   9.41757400
_cell_angle_alpha   60.00000065
_cell_angle_beta   60.00000205
_cell_angle_gamma   59.99999794
_symmetry_Int_Tables_number   1
_chemical_formula_structural   LuHf8(In2Co)7
_chemical_formula_sum   'Lu1 Hf8 In14 Co7'
_cell_volume   590.61186027
_cell_formula_units_Z   1
loop_
 _symmetry_equiv_pos_site_id
 _symmetry_equiv_pos_as_xyz
  1  'x, y, z'
loop_
 _atom_site_type_symbol
 _atom_site_label
 _atom_site_symmetry_multiplicity
 _atom_site_fract_x
 _atom_site_fract_y
 _atom_site_fract_z
 _atom_site_occupancy
  Lu  Lu0  1  0.500000  0.500000  0.500000  1
  Hf  Hf1  1  0.119910  0.640270  0.119910  1
  Hf  Hf2  1  0.359730  0.880090  0.880090  1
  Hf  Hf3  1  0.880090  0.880090  0.880090  1
  Hf  Hf4  1  0.640270  0.119910  0.119910  1
  Hf  Hf5  1  0.880090  0.880090  0.359730  1
  Hf  Hf6  1  0.119910  0.119910  0.119910  1
  Hf  Hf7  1  0.880090  0.359730  0.880090  1
  Hf  Hf8  1  0.119910  0.119910  0.640270  1
  In  In9  1  0.500000  0.844665  0.155335  1
  In  In10  1  0.500000  0.844665  0.500000  1
  In  In11  1  0.500000  0.155335  0.500000  1
  In  In12  1  0.500000  0.500000  0.844665  1
  In  In13  1  0.155335  0.500000  0.500000  1
  In  In14  1  0.844665  0.155335  0.500000  1
  In  In15  1  0.155335  0.844665  0.500000  1
  In  In16  1  0.500000  0.155335  0.844665  1
  In  In17  1  0.155335  0.500000  0.844665  1
  In  In18  1  0.500000  0.500000  0.155335  1
  In  In19  1  0.844665  0.500000  0.500000  1
  In  In20  1  0.844665  0.500000  0.155335  1
  In  In21  1  0.250000  0.250000  0.250000  1
  In  In22  1  0.750000  0.750000  0.750000  1
  Co  Co23  1  0.781825  0.781825  0.218175  1
  Co  Co24  1  0.000000  0.000000  0.000000  1
  Co  Co25  1  0.218175  0.781825  0.218175  1
  Co  Co26  1  0.218175  0.781825  0.781825  1
  Co  Co27  1  0.218175  0.218175  0.781825  1
  Co  Co28  1  0.781825  0.218175  0.781825  1
  Co  Co29  1  0.781825  0.218175  0.218175  1
