# generated using pymatgen
data_Hf6Ta4Al12Fe7
_symmetry_space_group_name_H-M   'P 1'
_cell_length_a   8.60033976
_cell_length_b   8.60065788
_cell_length_c   8.60050413
_cell_angle_alpha   59.99817429
_cell_angle_beta   59.99803957
_cell_angle_gamma   59.99989572
_symmetry_Int_Tables_number   1
_chemical_formula_structural   Hf6Ta4Al12Fe7
_chemical_formula_sum   'Hf6 Ta4 Al12 Fe7'
_cell_volume   449.82482787
_cell_formula_units_Z   1
loop_
 _symmetry_equiv_pos_site_id
 _symmetry_equiv_pos_as_xyz
  1  'x, y, z'
loop_
 _atom_site_type_symbol
 _atom_site_label
 _atom_site_symmetry_multiplicity
 _atom_site_fract_x
 _atom_site_fract_y
 _atom_site_fract_z
 _atom_site_occupancy
  Hf  Hf0  1  0.696832  0.696838  0.303165  1
  Hf  Hf1  1  0.303173  0.696839  0.303153  1
  Hf  Hf2  1  0.696857  0.303142  0.303138  1
  Hf  Hf3  1  0.303169  0.303152  0.696844  1
  Hf  Hf4  1  0.696832  0.303165  0.696847  1
  Hf  Hf5  1  0.303146  0.696862  0.696869  1
  Ta  Ta6  1  0.880743  0.880749  0.357706  1
  Ta  Ta7  1  0.880795  0.357688  0.880753  1
  Ta  Ta8  1  0.357692  0.880802  0.880754  1
  Ta  Ta9  1  0.880753  0.880766  0.880811  1
  Al  Al10  1  0.120345  0.120336  0.638997  1
  Al  Al11  1  0.120312  0.639022  0.120333  1
  Al  Al12  1  0.639005  0.120319  0.120344  1
  Al  Al13  1  0.120326  0.120331  0.120319  1
  Al  Al14  1  0.662556  0.662574  0.012303  1
  Al  Al15  1  0.662542  0.012310  0.662557  1
  Al  Al16  1  0.012299  0.662564  0.662560  1
  Al  Al17  1  0.662550  0.662594  0.662544  1
  Al  Al18  1  0.333977  0.333932  0.998132  1
  Al  Al19  1  0.333996  0.998125  0.333957  1
  Al  Al20  1  0.998153  0.333957  0.333956  1
  Al  Al21  1  0.333960  0.333912  0.333970  1
  Fe  Fe22  1  0.000008  0.000000  0.999995  1
  Fe  Fe23  1  0.996422  0.996413  0.503588  1
  Fe  Fe24  1  0.503558  0.996436  0.503562  1
  Fe  Fe25  1  0.996424  0.503574  0.503582  1
  Fe  Fe26  1  0.503577  0.503581  0.996422  1
  Fe  Fe27  1  0.996421  0.503591  0.996407  1
  Fe  Fe28  1  0.503577  0.996427  0.996431  1
