# generated using pymatgen
data_Ta6MnB4Ru9
_symmetry_space_group_name_H-M   'P 1'
_cell_length_a   9.38109069
_cell_length_b   9.38109069
_cell_length_c   3.01964900
_cell_angle_alpha   90.00000000
_cell_angle_beta   90.00000000
_cell_angle_gamma   90.27844493
_symmetry_Int_Tables_number   1
_chemical_formula_structural   Ta6MnB4Ru9
_chemical_formula_sum   'Ta6 Mn1 B4 Ru9'
_cell_volume   265.74065732
_cell_formula_units_Z   1
loop_
 _symmetry_equiv_pos_site_id
 _symmetry_equiv_pos_as_xyz
  1  'x, y, z'
loop_
 _atom_site_type_symbol
 _atom_site_label
 _atom_site_symmetry_multiplicity
 _atom_site_fract_x
 _atom_site_fract_y
 _atom_site_fract_z
 _atom_site_occupancy
  Ta  Ta0  1  0.822484  0.677516  0.000000  1
  Ta  Ta1  1  0.177516  0.322484  0.000000  1
  Ta  Ta2  1  0.331944  0.831944  0.000000  1
  Ta  Ta3  1  0.668056  0.168056  0.000000  1
  Ta  Ta4  1  0.500000  0.500000  0.000000  1
  Ta  Ta5  1  0.000000  0.000000  0.000000  1
  Mn  Mn6  1  0.500000  0.000000  0.500000  1
  B  B7  1  0.612290  0.887710  0.000000  1
  B  B8  1  0.387710  0.112290  0.000000  1
  B  B9  1  0.122218  0.622218  0.000000  1
  B  B10  1  0.877782  0.377782  0.000000  1
  Ru  Ru11  1  0.570137  0.721206  0.500000  1
  Ru  Ru12  1  0.429863  0.278794  0.500000  1
  Ru  Ru13  1  0.072432  0.782615  0.500000  1
  Ru  Ru14  1  0.927568  0.217385  0.500000  1
  Ru  Ru15  1  0.282615  0.572432  0.500000  1
  Ru  Ru16  1  0.717385  0.427568  0.500000  1
  Ru  Ru17  1  0.221206  0.070137  0.500000  1
  Ru  Ru18  1  0.778794  0.929863  0.500000  1
  Ru  Ru19  1  0.000000  0.500000  0.500000  1
