# generated using pymatgen
data_FeCo2(AsO4)2
_symmetry_space_group_name_H-M   'P 1'
_cell_length_a   5.33561563
_cell_length_b   7.98715851
_cell_length_c   8.68545492
_cell_angle_alpha   89.98728413
_cell_angle_beta   89.97120021
_cell_angle_gamma   96.10009824
_symmetry_Int_Tables_number   1
_chemical_formula_structural   FeCo2(AsO4)2
_chemical_formula_sum   'Fe2 Co4 As4 O16'
_cell_volume   368.04699099
_cell_formula_units_Z   2
loop_
 _symmetry_equiv_pos_site_id
 _symmetry_equiv_pos_as_xyz
  1  'x, y, z'
loop_
 _atom_site_type_symbol
 _atom_site_label
 _atom_site_symmetry_multiplicity
 _atom_site_fract_x
 _atom_site_fract_y
 _atom_site_fract_z
 _atom_site_occupancy
  Fe  Fe0  1  0.000110  0.499796  0.500155  1
  Fe  Fe1  1  0.500039  0.000171  0.999895  1
  Co  Co2  1  0.902327  0.392650  0.861138  1
  Co  Co3  1  0.097688  0.607436  0.139026  1
  Co  Co4  1  0.402606  0.892563  0.639133  1
  Co  Co5  1  0.597393  0.107338  0.360737  1
  As  As6  1  0.454861  0.303201  0.695665  1
  As  As7  1  0.954915  0.803480  0.804422  1
  As  As8  1  0.545123  0.696722  0.304295  1
  As  As9  1  0.045099  0.196545  0.195581  1
  O  O10  1  0.441515  0.135667  0.568925  1
  O  O11  1  0.941415  0.635697  0.931104  1
  O  O12  1  0.558483  0.864316  0.430972  1
  O  O13  1  0.058632  0.364365  0.068963  1
  O  O14  1  0.569930  0.243099  0.872268  1
  O  O15  1  0.070034  0.743212  0.627916  1
  O  O16  1  0.430060  0.756882  0.127705  1
  O  O17  1  0.929934  0.256695  0.372115  1
  O  O18  1  0.162996  0.376981  0.695959  1
  O  O19  1  0.662950  0.877182  0.804448  1
  O  O20  1  0.836948  0.622939  0.304141  1
  O  O21  1  0.337087  0.122894  0.195464  1
  O  O22  1  0.685876  0.461735  0.648818  1
  O  O23  1  0.185687  0.962054  0.851119  1
  O  O24  1  0.313985  0.538323  0.351302  1
  O  O25  1  0.814307  0.038056  0.148735  1
