# generated using pymatgen
data_Ta6VRe4Si6Mo
_symmetry_space_group_name_H-M   'P 1'
_cell_length_a   7.61429968
_cell_length_b   7.62057302
_cell_length_c   7.62057463
_cell_angle_alpha   126.39867248
_cell_angle_beta   128.37645654
_cell_angle_gamma   77.64953803
_symmetry_Int_Tables_number   1
_chemical_formula_structural   Ta6VRe4Si6Mo
_chemical_formula_sum   'Ta6 V1 Re4 Si6 Mo1'
_cell_volume   270.52852656
_cell_formula_units_Z   1
loop_
 _symmetry_equiv_pos_site_id
 _symmetry_equiv_pos_as_xyz
  1  'x, y, z'
loop_
 _atom_site_type_symbol
 _atom_site_label
 _atom_site_symmetry_multiplicity
 _atom_site_fract_x
 _atom_site_fract_y
 _atom_site_fract_z
 _atom_site_occupancy
  Ta  Ta0  1  0.555836  0.096035  0.042653  1
  Ta  Ta1  1  0.444164  0.486817  0.540200  1
  Ta  Ta2  1  0.946993  0.486981  0.042489  1
  Ta  Ta3  1  0.053007  0.095495  0.539988  1
  Ta  Ta4  1  0.751981  0.906435  0.658056  1
  Ta  Ta5  1  0.248019  0.906075  0.154454  1
  V  V6  1  0.000000  0.240894  0.240894  1
  Re  Re7  1  0.129892  0.757262  0.628043  1
  Re  Re8  1  0.870108  0.498150  0.627370  1
  Re  Re9  1  0.627943  0.754876  0.126129  1
  Re  Re10  1  0.372057  0.498187  0.126933  1
  Si  Si11  1  0.754204  0.497900  0.251587  1
  Si  Si12  1  0.245796  0.497383  0.743697  1
  Si  Si13  1  0.332101  0.825128  0.493420  1
  Si  Si14  1  0.667899  0.161319  0.493027  1
  Si  Si15  1  0.832418  0.828137  0.995296  1
  Si  Si16  1  0.167582  0.162880  0.995721  1
  Mo  Mo17  1  0.500000  0.242242  0.742242  1
