# generated using pymatgen
data_NdDy2Pa(ReB6)2
_symmetry_space_group_name_H-M   'P 1'
_cell_length_a   3.72943600
_cell_length_b   9.22402384
_cell_length_c   11.61476923
_cell_angle_alpha   90.38957957
_cell_angle_beta   90.00000000
_cell_angle_gamma   90.00000000
_symmetry_Int_Tables_number   1
_chemical_formula_structural   NdDy2Pa(ReB6)2
_chemical_formula_sum   'Nd2 Dy4 Pa2 Re4 B24'
_cell_volume   399.54354769
_cell_formula_units_Z   2
loop_
 _symmetry_equiv_pos_site_id
 _symmetry_equiv_pos_as_xyz
  1  'x, y, z'
loop_
 _atom_site_type_symbol
 _atom_site_label
 _atom_site_symmetry_multiplicity
 _atom_site_fract_x
 _atom_site_fract_y
 _atom_site_fract_z
 _atom_site_occupancy
  Nd  Nd0  1  0.000000  0.823800  0.086417  1
  Nd  Nd1  1  0.000000  0.176200  0.913583  1
  Dy  Dy2  1  0.000000  0.945018  0.373848  1
  Dy  Dy3  1  0.000000  0.054982  0.626152  1
  Dy  Dy4  1  0.000000  0.444154  0.127981  1
  Dy  Dy5  1  0.000000  0.555846  0.872019  1
  Pa  Pa6  1  0.000000  0.322424  0.413602  1
  Pa  Pa7  1  0.000000  0.677576  0.586398  1
  Re  Re8  1  0.000000  0.634246  0.326626  1
  Re  Re9  1  0.000000  0.365754  0.673374  1
  Re  Re10  1  0.000000  0.142790  0.184737  1
  Re  Re11  1  0.000000  0.857210  0.815263  1
  B  B12  1  0.500000  0.553165  0.433558  1
  B  B13  1  0.500000  0.446835  0.566442  1
  B  B14  1  0.500000  0.055381  0.070463  1
  B  B15  1  0.500000  0.944619  0.929537  1
  B  B16  1  0.500000  0.747018  0.420554  1
  B  B17  1  0.500000  0.252982  0.579446  1
  B  B18  1  0.500000  0.248896  0.083547  1
  B  B19  1  0.500000  0.751104  0.916453  1
  B  B20  1  0.500000  0.789918  0.268691  1
  B  B21  1  0.500000  0.210082  0.731309  1
  B  B22  1  0.500000  0.293004  0.235648  1
  B  B23  1  0.500000  0.706996  0.764352  1
  B  B24  1  0.500000  0.630117  0.187974  1
  B  B25  1  0.500000  0.369883  0.812026  1
  B  B26  1  0.500000  0.133835  0.315500  1
  B  B27  1  0.500000  0.866165  0.684500  1
  B  B28  1  0.500000  0.985084  0.214936  1
  B  B29  1  0.500000  0.014916  0.785064  1
  B  B30  1  0.500000  0.483116  0.288242  1
  B  B31  1  0.500000  0.516884  0.711758  1
  B  B32  1  0.500000  0.600804  0.028337  1
  B  B33  1  0.500000  0.399196  0.971663  1
  B  B34  1  0.500000  0.114734  0.468743  1
  B  B35  1  0.500000  0.885266  0.531257  1
