# generated using pymatgen
data_CaPrGePd14
_symmetry_space_group_name_H-M   'P 1'
_cell_length_a   9.01207200
_cell_length_b   9.01207200
_cell_length_c   7.17321600
_cell_angle_alpha   90.00000000
_cell_angle_beta   90.00000000
_cell_angle_gamma   90.00000000
_symmetry_Int_Tables_number   1
_chemical_formula_structural   CaPrGePd14
_chemical_formula_sum   'Ca2 Pr2 Ge2 Pd28'
_cell_volume   582.59025252
_cell_formula_units_Z   2
loop_
 _symmetry_equiv_pos_site_id
 _symmetry_equiv_pos_as_xyz
  1  'x, y, z'
loop_
 _atom_site_type_symbol
 _atom_site_label
 _atom_site_symmetry_multiplicity
 _atom_site_fract_x
 _atom_site_fract_y
 _atom_site_fract_z
 _atom_site_occupancy
  Ca  Ca0  1  0.000000  0.000000  0.500000  1
  Ca  Ca1  1  0.500000  0.500000  0.500000  1
  Pr  Pr2  1  0.500000  0.000000  0.939493  1
  Pr  Pr3  1  0.000000  0.500000  0.060507  1
  Ge  Ge4  1  0.500000  0.000000  0.449856  1
  Ge  Ge5  1  0.000000  0.500000  0.550144  1
  Pd  Pd6  1  0.330047  0.830047  0.622568  1
  Pd  Pd7  1  0.330047  0.169953  0.622568  1
  Pd  Pd8  1  0.669953  0.830047  0.622568  1
  Pd  Pd9  1  0.669953  0.169953  0.622568  1
  Pd  Pd10  1  0.169953  0.669953  0.377432  1
  Pd  Pd11  1  0.169953  0.330047  0.377432  1
  Pd  Pd12  1  0.830047  0.669953  0.377432  1
  Pd  Pd13  1  0.830047  0.330047  0.377432  1
  Pd  Pd14  1  0.500000  0.766179  0.254525  1
  Pd  Pd15  1  0.500000  0.233821  0.254525  1
  Pd  Pd16  1  0.266179  0.000000  0.254525  1
  Pd  Pd17  1  0.733821  0.000000  0.254525  1
  Pd  Pd18  1  0.000000  0.733821  0.745475  1
  Pd  Pd19  1  0.000000  0.266179  0.745475  1
  Pd  Pd20  1  0.233821  0.500000  0.745475  1
  Pd  Pd21  1  0.766179  0.500000  0.745475  1
  Pd  Pd22  1  0.500000  0.349844  0.857536  1
  Pd  Pd23  1  0.500000  0.650156  0.857536  1
  Pd  Pd24  1  0.849844  0.000000  0.857536  1
  Pd  Pd25  1  0.150156  0.000000  0.857536  1
  Pd  Pd26  1  0.000000  0.150156  0.142464  1
  Pd  Pd27  1  0.000000  0.849844  0.142464  1
  Pd  Pd28  1  0.650156  0.500000  0.142464  1
  Pd  Pd29  1  0.349844  0.500000  0.142464  1
  Pd  Pd30  1  0.250000  0.750000  0.000000  1
  Pd  Pd31  1  0.250000  0.250000  0.000000  1
  Pd  Pd32  1  0.750000  0.750000  0.000000  1
  Pd  Pd33  1  0.750000  0.250000  0.000000  1
