# generated using pymatgen
data_HoEr3AlIr
_symmetry_space_group_name_H-M   'P 1'
_cell_length_a   9.48279141
_cell_length_b   9.47630133
_cell_length_c   9.47630100
_cell_angle_alpha   60.04531169
_cell_angle_beta   59.97733473
_cell_angle_gamma   59.97734463
_symmetry_Int_Tables_number   1
_chemical_formula_structural   HoEr3AlIr
_chemical_formula_sum   'Ho4 Er12 Al4 Ir4'
_cell_volume   602.14137789
_cell_formula_units_Z   4
loop_
 _symmetry_equiv_pos_site_id
 _symmetry_equiv_pos_as_xyz
  1  'x, y, z'
loop_
 _atom_site_type_symbol
 _atom_site_label
 _atom_site_symmetry_multiplicity
 _atom_site_fract_x
 _atom_site_fract_y
 _atom_site_fract_z
 _atom_site_occupancy
  Ho  Ho0  1  0.812420  0.187559  0.812455  1
  Ho  Ho1  1  0.187572  0.812471  0.187558  1
  Ho  Ho2  1  0.812420  0.812455  0.187559  1
  Ho  Ho3  1  0.187572  0.187558  0.812471  1
  Er  Er4  1  0.602367  0.601180  0.601180  1
  Er  Er5  1  0.601152  0.602343  0.195345  1
  Er  Er6  1  0.601152  0.195345  0.602343  1
  Er  Er7  1  0.195395  0.601134  0.601134  1
  Er  Er8  1  0.055656  0.444279  0.444279  1
  Er  Er9  1  0.444368  0.055676  0.055676  1
  Er  Er10  1  0.444657  0.055239  0.444698  1
  Er  Er11  1  0.055307  0.444726  0.055314  1
  Er  Er12  1  0.444657  0.444698  0.055239  1
  Er  Er13  1  0.055307  0.055314  0.444726  1
  Er  Er14  1  0.190143  0.809866  0.809866  1
  Er  Er15  1  0.809931  0.190150  0.190150  1
  Al  Al16  1  0.828235  0.827587  0.827587  1
  Al  Al17  1  0.827573  0.828257  0.516585  1
  Al  Al18  1  0.827573  0.516585  0.828257  1
  Al  Al19  1  0.516579  0.827579  0.827579  1
  Ir  Ir20  1  0.392353  0.390797  0.390797  1
  Ir  Ir21  1  0.390781  0.392362  0.826036  1
  Ir  Ir22  1  0.390781  0.826036  0.392362  1
  Ir  Ir23  1  0.826051  0.390805  0.390805  1
