# generated using pymatgen
data_Sc8Si4Pt13Rh
_symmetry_space_group_name_H-M   'P 1'
_cell_length_a   4.01110800
_cell_length_b   6.54018984
_cell_length_c   16.34422011
_cell_angle_alpha   90.18843216
_cell_angle_beta   90.00000000
_cell_angle_gamma   90.00000000
_symmetry_Int_Tables_number   1
_chemical_formula_structural   Sc8Si4Pt13Rh
_chemical_formula_sum   'Sc8 Si4 Pt13 Rh1'
_cell_volume   428.76227220
_cell_formula_units_Z   1
loop_
 _symmetry_equiv_pos_site_id
 _symmetry_equiv_pos_as_xyz
  1  'x, y, z'
loop_
 _atom_site_type_symbol
 _atom_site_label
 _atom_site_symmetry_multiplicity
 _atom_site_fract_x
 _atom_site_fract_y
 _atom_site_fract_z
 _atom_site_occupancy
  Sc  Sc0  1  0.000000  0.281712  0.458911  1
  Sc  Sc1  1  0.000000  0.713969  0.537001  1
  Sc  Sc2  1  0.000000  0.785733  0.039508  1
  Sc  Sc3  1  0.000000  0.214502  0.961025  1
  Sc  Sc4  1  0.000000  0.530457  0.291552  1
  Sc  Sc5  1  0.000000  0.475309  0.708933  1
  Sc  Sc6  1  0.000000  0.026666  0.211524  1
  Sc  Sc7  1  0.000000  0.972569  0.790663  1
  Si  Si8  1  0.500000  0.841362  0.308490  1
  Si  Si9  1  0.500000  0.160466  0.692644  1
  Si  Si10  1  0.500000  0.338703  0.193806  1
  Si  Si11  1  0.500000  0.661477  0.807076  1
  Pt  Pt12  1  0.000000  0.092386  0.617910  1
  Pt  Pt13  1  0.000000  0.408010  0.117771  1
  Pt  Pt14  1  0.000000  0.591294  0.882110  1
  Pt  Pt15  1  0.500000  0.597821  0.421190  1
  Pt  Pt16  1  0.500000  0.404389  0.578923  1
  Pt  Pt17  1  0.500000  0.094731  0.079327  1
  Pt  Pt18  1  0.500000  0.905764  0.920734  1
  Pt  Pt19  1  0.500000  0.500067  0.999995  1
  Pt  Pt20  1  0.500000  0.999797  0.499020  1
  Pt  Pt21  1  0.500000  0.212745  0.333030  1
  Pt  Pt22  1  0.500000  0.785149  0.667650  1
  Pt  Pt23  1  0.500000  0.714555  0.168237  1
  Pt  Pt24  1  0.500000  0.285213  0.831604  1
  Rh  Rh25  1  0.000000  0.905152  0.381368  1
