# generated using pymatgen
data_Pr6Nd4In3Bi3Br2
_symmetry_space_group_name_H-M   'P 1'
_cell_length_a   9.69621643
_cell_length_b   9.66176802
_cell_length_c   6.85718600
_cell_angle_alpha   90.00000000
_cell_angle_beta   90.00000000
_cell_angle_gamma   120.40549107
_symmetry_Int_Tables_number   1
_chemical_formula_structural   Pr6Nd4In3Bi3Br2
_chemical_formula_sum   'Pr6 Nd4 In3 Bi3 Br2'
_cell_volume   554.04673631
_cell_formula_units_Z   1
loop_
 _symmetry_equiv_pos_site_id
 _symmetry_equiv_pos_as_xyz
  1  'x, y, z'
loop_
 _atom_site_type_symbol
 _atom_site_label
 _atom_site_symmetry_multiplicity
 _atom_site_fract_x
 _atom_site_fract_y
 _atom_site_fract_z
 _atom_site_occupancy
  Pr  Pr0  1  0.267277  0.994843  0.750000  1
  Pr  Pr1  1  0.730264  0.999217  0.250000  1
  Pr  Pr2  1  0.996815  0.266869  0.750000  1
  Pr  Pr3  1  0.003335  0.735988  0.250000  1
  Pr  Pr4  1  0.735863  0.734381  0.750000  1
  Pr  Pr5  1  0.266677  0.264060  0.250000  1
  Nd  Nd6  1  0.332068  0.672840  0.499864  1
  Nd  Nd7  1  0.667043  0.328915  0.500013  1
  Nd  Nd8  1  0.667043  0.328915  0.999987  1
  Nd  Nd9  1  0.332068  0.672840  0.000136  1
  In  In10  1  0.610191  0.999005  0.750000  1
  In  In11  1  0.391161  0.001119  0.250000  1
  In  In12  1  0.999173  0.612754  0.750000  1
  Bi  Bi13  1  0.000471  0.387085  0.250000  1
  Bi  Bi14  1  0.385758  0.385293  0.750000  1
  Bi  Bi15  1  0.614944  0.613266  0.250000  1
  Br  Br16  1  0.999924  0.001305  0.499823  1
  Br  Br17  1  0.999924  0.001305  0.000177  1
