# generated using pymatgen
data_Ti6MnTc3Pt2
_symmetry_space_group_name_H-M   'P 1'
_cell_length_a   4.38884900
_cell_length_b   6.21711400
_cell_length_c   13.13921200
_cell_angle_alpha   89.99998642
_cell_angle_beta   90.00240023
_cell_angle_gamma   89.99999078
_symmetry_Int_Tables_number   1
_chemical_formula_structural   Ti6MnTc3Pt2
_chemical_formula_sum   'Ti12 Mn2 Tc6 Pt4'
_cell_volume   358.51620424
_cell_formula_units_Z   2
loop_
 _symmetry_equiv_pos_site_id
 _symmetry_equiv_pos_as_xyz
  1  'x, y, z'
loop_
 _atom_site_type_symbol
 _atom_site_label
 _atom_site_symmetry_multiplicity
 _atom_site_fract_x
 _atom_site_fract_y
 _atom_site_fract_z
 _atom_site_occupancy
  Ti  Ti0  1  0.500011  0.257317  0.006667  1
  Ti  Ti1  1  0.500011  0.742682  0.006664  1
  Ti  Ti2  1  0.000097  0.242904  0.159949  1
  Ti  Ti3  1  0.000097  0.757095  0.159947  1
  Ti  Ti4  1  0.500138  0.241302  0.322642  1
  Ti  Ti5  1  0.500138  0.758695  0.322645  1
  Ti  Ti6  1  0.000001  0.250613  0.498459  1
  Ti  Ti7  1  0.000001  0.749385  0.498463  1
  Ti  Ti8  1  0.499870  0.249365  0.668196  1
  Ti  Ti9  1  0.499870  0.750634  0.668193  1
  Ti  Ti10  1  0.999892  0.258771  0.844085  1
  Ti  Ti11  1  0.999892  0.741226  0.844084  1
  Mn  Mn12  1  0.999992  0.499997  0.999699  1
  Mn  Mn13  1  0.500083  0.000017  0.167028  1
  Tc  Tc14  1  0.999998  0.000000  0.999821  1
  Tc  Tc15  1  0.500112  0.499993  0.166809  1
  Tc  Tc16  1  0.000122  0.000007  0.333347  1
  Tc  Tc17  1  0.499998  0.499999  0.499870  1
  Tc  Tc18  1  0.999886  0.999994  0.666776  1
  Tc  Tc19  1  0.499885  0.500005  0.833346  1
  Pt  Pt20  1  0.000134  0.500005  0.332122  1
  Pt  Pt21  1  0.500014  0.999998  0.498955  1
  Pt  Pt22  1  0.999865  0.499994  0.667704  1
  Pt  Pt23  1  0.499893  0.000003  0.834525  1
