# generated using pymatgen
data_Tm2Al20Fe2RuRh
_symmetry_space_group_name_H-M   'P 1'
_cell_length_a   6.78612103
_cell_length_b   6.79377742
_cell_length_c   9.04605229
_cell_angle_alpha   90.10183257
_cell_angle_beta   90.08927323
_cell_angle_gamma   96.84277458
_symmetry_Int_Tables_number   1
_chemical_formula_structural   Tm2Al20Fe2RuRh
_chemical_formula_sum   'Tm2 Al20 Fe2 Ru1 Rh1'
_cell_volume   414.08167560
_cell_formula_units_Z   1
loop_
 _symmetry_equiv_pos_site_id
 _symmetry_equiv_pos_as_xyz
  1  'x, y, z'
loop_
 _atom_site_type_symbol
 _atom_site_label
 _atom_site_symmetry_multiplicity
 _atom_site_fract_x
 _atom_site_fract_y
 _atom_site_fract_z
 _atom_site_occupancy
  Tm  Tm0  1  0.871143  0.127065  0.750488  1
  Tm  Tm1  1  0.128857  0.872935  0.249512  1
  Al  Al2  1  0.619818  0.372675  0.550002  1
  Al  Al3  1  0.380182  0.627325  0.449998  1
  Al  Al4  1  0.373760  0.622042  0.049229  1
  Al  Al5  1  0.626240  0.377958  0.950771  1
  Al  Al6  1  0.229648  0.221586  0.496039  1
  Al  Al7  1  0.770352  0.778414  0.503961  1
  Al  Al8  1  0.777496  0.771949  0.003249  1
  Al  Al9  1  0.222504  0.228051  0.996751  1
  Al  Al10  1  0.847303  0.159510  0.098337  1
  Al  Al11  1  0.152697  0.840490  0.901663  1
  Al  Al12  1  0.160252  0.848165  0.599526  1
  Al  Al13  1  0.839748  0.151835  0.400474  1
  Al  Al14  1  0.860628  0.585864  0.754352  1
  Al  Al15  1  0.139372  0.414136  0.245648  1
  Al  Al16  1  0.414401  0.138696  0.746833  1
  Al  Al17  1  0.585599  0.861304  0.253167  1
  Al  Al18  1  0.221878  0.479299  0.754521  1
  Al  Al19  1  0.778122  0.520701  0.245479  1
  Al  Al20  1  0.520654  0.779501  0.747344  1
  Al  Al21  1  0.479346  0.220499  0.252656  1
  Fe  Fe22  1  0.000000  0.500000  0.000000  1
  Fe  Fe23  1  0.500000  0.000000  0.500000  1
  Ru  Ru24  1  0.500000  0.000000  0.000000  1
  Rh  Rh25  1  0.000000  0.500000  0.500000  1
