# generated using pymatgen
data_DyY3Hf3PtF28
_symmetry_space_group_name_H-M   'P 1'
_cell_length_a   5.67751026
_cell_length_b   9.02063503
_cell_length_c   12.14202274
_cell_angle_alpha   62.44946103
_cell_angle_beta   89.92862110
_cell_angle_gamma   89.94946570
_symmetry_Int_Tables_number   1
_chemical_formula_structural   DyY3Hf3PtF28
_chemical_formula_sum   'Dy1 Y3 Hf3 Pt1 F28'
_cell_volume   551.33429661
_cell_formula_units_Z   1
loop_
 _symmetry_equiv_pos_site_id
 _symmetry_equiv_pos_as_xyz
  1  'x, y, z'
loop_
 _atom_site_type_symbol
 _atom_site_label
 _atom_site_symmetry_multiplicity
 _atom_site_fract_x
 _atom_site_fract_y
 _atom_site_fract_z
 _atom_site_occupancy
  Dy  Dy0  1  0.743367  0.813297  0.267010  1
  Y  Y1  1  0.757949  0.815511  0.765355  1
  Y  Y2  1  0.257985  0.184927  0.732596  1
  Y  Y3  1  0.240782  0.184134  0.238499  1
  Hf  Hf4  1  0.756265  0.273033  0.956831  1
  Hf  Hf5  1  0.256396  0.725368  0.543981  1
  Hf  Hf6  1  0.244482  0.725357  0.045058  1
  Pt  Pt7  1  0.740077  0.272657  0.455839  1
  F  F8  1  0.459676  0.709308  0.920151  1
  F  F9  1  0.935601  0.295640  0.581171  1
  F  F10  1  0.538433  0.289277  0.080450  1
  F  F11  1  0.041296  0.711170  0.419128  1
  F  F12  1  0.447178  0.279428  0.541606  1
  F  F13  1  0.950981  0.723597  0.951530  1
  F  F14  1  0.550433  0.719987  0.452531  1
  F  F15  1  0.048252  0.275700  0.050707  1
  F  F16  1  0.774552  0.522778  0.860610  1
  F  F17  1  0.269682  0.475206  0.638884  1
  F  F18  1  0.223885  0.475771  0.141605  1
  F  F19  1  0.728158  0.518292  0.358362  1
  F  F20  1  0.758715  0.023820  0.058146  1
  F  F21  1  0.260401  0.974528  0.444420  1
  F  F22  1  0.242431  0.974247  0.941713  1
  F  F23  1  0.743713  0.026548  0.548729  1
  F  F24  1  0.981919  0.731710  0.645949  1
  F  F25  1  0.485036  0.267787  0.852805  1
  F  F26  1  0.025554  0.273657  0.363023  1
  F  F27  1  0.518442  0.731853  0.146560  1
  F  F28  1  0.039359  0.747810  0.172360  1
  F  F29  1  0.550113  0.257130  0.325185  1
  F  F30  1  0.965244  0.253204  0.829012  1
  F  F31  1  0.463734  0.745373  0.671904  1
  F  F32  1  0.422805  0.971329  0.234843  1
  F  F33  1  0.920648  0.028372  0.268563  1
  F  F34  1  0.577985  0.030016  0.764470  1
  F  F35  1  0.078470  0.972176  0.730415  1
