# generated using pymatgen
data_LiPr6RuBr12
_symmetry_space_group_name_H-M   'P 1'
_cell_length_a   9.64105230
_cell_length_b   9.64132725
_cell_length_c   9.64046094
_cell_angle_alpha   108.09800457
_cell_angle_beta   108.05282622
_cell_angle_gamma   108.07845811
_symmetry_Int_Tables_number   1
_chemical_formula_structural   LiPr6RuBr12
_chemical_formula_sum   'Li1 Pr6 Ru1 Br12'
_cell_volume   723.25309956
_cell_formula_units_Z   1
loop_
 _symmetry_equiv_pos_site_id
 _symmetry_equiv_pos_as_xyz
  1  'x, y, z'
loop_
 _atom_site_type_symbol
 _atom_site_label
 _atom_site_symmetry_multiplicity
 _atom_site_fract_x
 _atom_site_fract_y
 _atom_site_fract_z
 _atom_site_occupancy
  Li  Li0  1  0.500000  0.500000  0.500000  1
  Pr  Pr1  1  0.118673  0.323928  0.037223  1
  Pr  Pr2  1  0.323380  0.037348  0.118386  1
  Pr  Pr3  1  0.037412  0.118470  0.323816  1
  Pr  Pr4  1  0.962589  0.881530  0.676185  1
  Pr  Pr5  1  0.676620  0.962653  0.881614  1
  Pr  Pr6  1  0.881327  0.676072  0.962777  1
  Ru  Ru7  1  0.000000  0.000000  0.000000  1
  Br  Br8  1  0.215051  0.686947  0.071104  1
  Br  Br9  1  0.465513  0.386317  0.179861  1
  Br  Br10  1  0.686965  0.071041  0.215168  1
  Br  Br11  1  0.928923  0.784943  0.313203  1
  Br  Br12  1  0.179786  0.465297  0.386337  1
  Br  Br13  1  0.386526  0.179933  0.465584  1
  Br  Br14  1  0.613474  0.820067  0.534417  1
  Br  Br15  1  0.820215  0.534703  0.613663  1
  Br  Br16  1  0.071078  0.215057  0.686798  1
  Br  Br17  1  0.313036  0.928960  0.784832  1
  Br  Br18  1  0.534487  0.613683  0.820140  1
  Br  Br19  1  0.784949  0.313053  0.928896  1
