# generated using pymatgen
data_Cs10K4NbV(In3As5)2
_symmetry_space_group_name_H-M   'P 1'
_cell_length_a   8.61443795
_cell_length_b   9.54082730
_cell_length_c   15.11148400
_cell_angle_alpha   85.05979098
_cell_angle_beta   84.60411686
_cell_angle_gamma   87.75535530
_symmetry_Int_Tables_number   1
_chemical_formula_structural   Cs10K4NbV(In3As5)2
_chemical_formula_sum   'Cs10 K4 Nb1 V1 In6 As10'
_cell_volume   1231.29417967
_cell_formula_units_Z   1
loop_
 _symmetry_equiv_pos_site_id
 _symmetry_equiv_pos_as_xyz
  1  'x, y, z'
loop_
 _atom_site_type_symbol
 _atom_site_label
 _atom_site_symmetry_multiplicity
 _atom_site_fract_x
 _atom_site_fract_y
 _atom_site_fract_z
 _atom_site_occupancy
  Cs  Cs0  1  0.743962  0.505875  0.973582  1
  Cs  Cs1  1  0.256476  0.495074  0.024033  1
  Cs  Cs2  1  0.687482  0.078906  0.888448  1
  Cs  Cs3  1  0.310752  0.922360  0.110163  1
  Cs  Cs4  1  0.687330  0.658670  0.400692  1
  Cs  Cs5  1  0.311990  0.343031  0.600841  1
  Cs  Cs6  1  0.753412  0.985470  0.534388  1
  Cs  Cs7  1  0.246488  0.013746  0.466298  1
  Cs  Cs8  1  0.824927  0.365155  0.644261  1
  Cs  Cs9  1  0.174925  0.635427  0.356401  1
  K  K10  1  0.813969  0.806964  0.142954  1
  K  K11  1  0.185976  0.193544  0.856758  1
  K  K12  1  0.272257  0.261948  0.249023  1
  K  K13  1  0.725807  0.736563  0.750969  1
  Nb  Nb14  1  0.648900  0.393099  0.226382  1
  V  V15  1  0.349821  0.608620  0.773158  1
  In  In16  1  0.912730  0.272545  0.370618  1
  In  In17  1  0.089510  0.726467  0.631029  1
  In  In18  1  0.943786  0.186167  0.128691  1
  In  In19  1  0.059022  0.812490  0.869898  1
  In  In20  1  0.633648  0.041706  0.294578  1
  In  In21  1  0.365294  0.954817  0.706313  1
  As  As22  1  0.491152  0.601639  0.189908  1
  As  As23  1  0.500029  0.410787  0.807995  1
  As  As24  1  0.933418  0.453116  0.209463  1
  As  As25  1  0.077658  0.547537  0.790546  1
  As  As26  1  0.579992  0.292628  0.386100  1
  As  As27  1  0.419330  0.702826  0.619665  1
  As  As28  1  0.613590  0.197060  0.126276  1
  As  As29  1  0.386653  0.794766  0.870759  1
  As  As30  1  0.974278  0.001476  0.291909  1
  As  As31  1  0.025436  0.999522  0.707901  1
