# generated using pymatgen
data_HoTlBr4
_symmetry_space_group_name_H-M   'P 1'
_cell_length_a   7.62339500
_cell_length_b   7.06768600
_cell_length_c   18.24649200
_cell_angle_alpha   90.00000000
_cell_angle_beta   90.00000000
_cell_angle_gamma   90.00000000
_symmetry_Int_Tables_number   1
_chemical_formula_structural   HoTlBr4
_chemical_formula_sum   'Ho4 Tl4 Br16'
_cell_volume   983.11664837
_cell_formula_units_Z   4
loop_
 _symmetry_equiv_pos_site_id
 _symmetry_equiv_pos_as_xyz
  1  'x, y, z'
loop_
 _atom_site_type_symbol
 _atom_site_label
 _atom_site_symmetry_multiplicity
 _atom_site_fract_x
 _atom_site_fract_y
 _atom_site_fract_z
 _atom_site_occupancy
  Ho  Ho0  1  0.000000  0.250000  0.067889  1
  Ho  Ho1  1  0.500000  0.250000  0.567889  1
  Ho  Ho2  1  0.000000  0.750000  0.932111  1
  Ho  Ho3  1  0.500000  0.750000  0.432111  1
  Tl  Tl4  1  0.000000  0.250000  0.320640  1
  Tl  Tl5  1  0.500000  0.750000  0.179360  1
  Tl  Tl6  1  0.000000  0.750000  0.679360  1
  Tl  Tl7  1  0.500000  0.250000  0.820640  1
  Br  Br8  1  0.277200  0.619974  0.326465  1
  Br  Br9  1  0.791298  0.427259  0.954827  1
  Br  Br10  1  0.291298  0.572741  0.545173  1
  Br  Br11  1  0.708702  0.927259  0.545173  1
  Br  Br12  1  0.777200  0.380026  0.173535  1
  Br  Br13  1  0.222800  0.619974  0.826465  1
  Br  Br14  1  0.722800  0.880026  0.326465  1
  Br  Br15  1  0.222800  0.119974  0.173535  1
  Br  Br16  1  0.277200  0.119974  0.673535  1
  Br  Br17  1  0.722800  0.380026  0.673535  1
  Br  Br18  1  0.208702  0.572741  0.045173  1
  Br  Br19  1  0.777200  0.880026  0.826465  1
  Br  Br20  1  0.791298  0.927259  0.045173  1
  Br  Br21  1  0.291298  0.072741  0.454827  1
  Br  Br22  1  0.708702  0.427259  0.454827  1
  Br  Br23  1  0.208702  0.072741  0.954827  1
