# generated using pymatgen
data_Yb9PaIr4
_symmetry_space_group_name_H-M   'P 1'
_cell_length_a   8.52528290
_cell_length_b   8.52528145
_cell_length_c   7.37158199
_cell_angle_alpha   82.66205931
_cell_angle_beta   82.66205844
_cell_angle_gamma   45.06225507
_symmetry_Int_Tables_number   1
_chemical_formula_structural   Yb9PaIr4
_chemical_formula_sum   'Yb9 Pa1 Ir4'
_cell_volume   375.61462750
_cell_formula_units_Z   1
loop_
 _symmetry_equiv_pos_site_id
 _symmetry_equiv_pos_as_xyz
  1  'x, y, z'
loop_
 _atom_site_type_symbol
 _atom_site_label
 _atom_site_symmetry_multiplicity
 _atom_site_fract_x
 _atom_site_fract_y
 _atom_site_fract_z
 _atom_site_occupancy
  Yb  Yb0  1  0.425692  0.574308  0.750000  1
  Yb  Yb1  1  0.356612  0.200060  0.319405  1
  Yb  Yb2  1  0.200549  0.973097  0.075290  1
  Yb  Yb3  1  0.793579  0.033824  0.920314  1
  Yb  Yb4  1  0.966176  0.206421  0.579686  1
  Yb  Yb5  1  0.638205  0.794390  0.679339  1
  Yb  Yb6  1  0.205610  0.361795  0.820661  1
  Yb  Yb7  1  0.799940  0.643388  0.180595  1
  Yb  Yb8  1  0.026903  0.799451  0.424710  1
  Pa  Pa9  1  0.565097  0.434903  0.250000  1
  Ir  Ir10  1  0.411803  0.792822  0.410468  1
  Ir  Ir11  1  0.207178  0.588197  0.089532  1
  Ir  Ir12  1  0.801770  0.399114  0.948073  1
  Ir  Ir13  1  0.600886  0.198230  0.551927  1
