# generated using pymatgen
data_Tb2Sc3Ge4
_symmetry_space_group_name_H-M   'P 1'
_cell_length_a   7.23333600
_cell_length_b   7.53066800
_cell_length_c   14.14522400
_cell_angle_alpha   90.00000000
_cell_angle_beta   90.00000000
_cell_angle_gamma   90.00000000
_symmetry_Int_Tables_number   1
_chemical_formula_structural   Tb2Sc3Ge4
_chemical_formula_sum   'Tb8 Sc12 Ge16'
_cell_volume   770.51654751
_cell_formula_units_Z   4
loop_
 _symmetry_equiv_pos_site_id
 _symmetry_equiv_pos_as_xyz
  1  'x, y, z'
loop_
 _atom_site_type_symbol
 _atom_site_label
 _atom_site_symmetry_multiplicity
 _atom_site_fract_x
 _atom_site_fract_y
 _atom_site_fract_z
 _atom_site_occupancy
  Tb  Tb0  1  0.004704  0.175561  0.096875  1
  Tb  Tb1  1  0.995296  0.824439  0.903125  1
  Tb  Tb2  1  0.495296  0.675561  0.903125  1
  Tb  Tb3  1  0.995296  0.824439  0.596875  1
  Tb  Tb4  1  0.504704  0.324439  0.096875  1
  Tb  Tb5  1  0.004704  0.175561  0.403125  1
  Tb  Tb6  1  0.504704  0.324439  0.403125  1
  Tb  Tb7  1  0.495296  0.675561  0.596875  1
  Sc  Sc8  1  0.164517  0.500279  0.750000  1
  Sc  Sc9  1  0.835483  0.499721  0.250000  1
  Sc  Sc10  1  0.335483  0.000279  0.250000  1
  Sc  Sc11  1  0.664517  0.999721  0.750000  1
  Sc  Sc12  1  0.332372  0.168392  0.625392  1
  Sc  Sc13  1  0.667628  0.831608  0.374608  1
  Sc  Sc14  1  0.167628  0.668392  0.374608  1
  Sc  Sc15  1  0.667628  0.831608  0.125392  1
  Sc  Sc16  1  0.832372  0.331608  0.625392  1
  Sc  Sc17  1  0.332372  0.168392  0.874608  1
  Sc  Sc18  1  0.832372  0.331608  0.874608  1
  Sc  Sc19  1  0.167628  0.668392  0.125392  1
  Ge  Ge20  1  0.030280  0.126414  0.750000  1
  Ge  Ge21  1  0.969720  0.873586  0.250000  1
  Ge  Ge22  1  0.469720  0.626414  0.250000  1
  Ge  Ge23  1  0.530280  0.373586  0.750000  1
  Ge  Ge24  1  0.299977  0.860909  0.750000  1
  Ge  Ge25  1  0.700023  0.139091  0.250000  1
  Ge  Ge26  1  0.200023  0.360909  0.250000  1
  Ge  Ge27  1  0.799977  0.639091  0.750000  1
  Ge  Ge28  1  0.170923  0.460036  0.541503  1
  Ge  Ge29  1  0.829077  0.539964  0.458497  1
  Ge  Ge30  1  0.329077  0.960036  0.458497  1
  Ge  Ge31  1  0.829077  0.539964  0.041503  1
  Ge  Ge32  1  0.670923  0.039964  0.541503  1
  Ge  Ge33  1  0.170923  0.460036  0.958497  1
  Ge  Ge34  1  0.670923  0.039964  0.958497  1
  Ge  Ge35  1  0.329077  0.960036  0.041503  1
