# generated using pymatgen
data_Tm5Nb3(Ni4As3)4
_symmetry_space_group_name_H-M   'P 1'
_cell_length_a   12.64118900
_cell_length_b   12.64118855
_cell_length_c   3.86191000
_cell_angle_alpha   90.00000000
_cell_angle_beta   90.00000000
_cell_angle_gamma   120.00000379
_symmetry_Int_Tables_number   1
_chemical_formula_structural   Tm5Nb3(Ni4As3)4
_chemical_formula_sum   'Tm5 Nb3 Ni16 As12'
_cell_volume   534.45186550
_cell_formula_units_Z   1
loop_
 _symmetry_equiv_pos_site_id
 _symmetry_equiv_pos_as_xyz
  1  'x, y, z'
loop_
 _atom_site_type_symbol
 _atom_site_label
 _atom_site_symmetry_multiplicity
 _atom_site_fract_x
 _atom_site_fract_y
 _atom_site_fract_z
 _atom_site_occupancy
  Tm  Tm0  1  0.185135  0.185135  0.500000  1
  Tm  Tm1  1  0.814865  0.000000  0.500000  1
  Tm  Tm2  1  0.000000  0.814865  0.500000  1
  Tm  Tm3  1  0.333333  0.666667  0.000000  1
  Tm  Tm4  1  0.666667  0.333333  0.000000  1
  Nb  Nb5  1  0.561821  0.561821  0.000000  1
  Nb  Nb6  1  0.438179  0.000000  0.000000  1
  Nb  Nb7  1  0.000000  0.438179  0.000000  1
  Ni  Ni8  1  0.721716  0.721716  0.500000  1
  Ni  Ni9  1  0.278284  0.000000  0.500000  1
  Ni  Ni10  1  0.000000  0.278284  0.500000  1
  Ni  Ni11  1  0.182366  0.374758  0.000000  1
  Ni  Ni12  1  0.625242  0.807608  0.000000  1
  Ni  Ni13  1  0.192392  0.817634  0.000000  1
  Ni  Ni14  1  0.807608  0.625242  0.000000  1
  Ni  Ni15  1  0.817634  0.192392  0.000000  1
  Ni  Ni16  1  0.374758  0.182366  0.000000  1
  Ni  Ni17  1  0.360498  0.483451  0.500000  1
  Ni  Ni18  1  0.516549  0.877047  0.500000  1
  Ni  Ni19  1  0.122953  0.639502  0.500000  1
  Ni  Ni20  1  0.877047  0.516549  0.500000  1
  Ni  Ni21  1  0.639502  0.122953  0.500000  1
  Ni  Ni22  1  0.483451  0.360498  0.500000  1
  Ni  Ni23  1  0.000000  0.000000  0.000000  1
  As  As24  1  0.822860  0.822860  0.000000  1
  As  As25  1  0.177140  0.000000  0.000000  1
  As  As26  1  0.000000  0.177140  0.000000  1
  As  As27  1  0.170163  0.481364  0.500000  1
  As  As28  1  0.518636  0.688799  0.500000  1
  As  As29  1  0.311201  0.829837  0.500000  1
  As  As30  1  0.688799  0.518636  0.500000  1
  As  As31  1  0.829837  0.311201  0.500000  1
  As  As32  1  0.481364  0.170163  0.500000  1
  As  As33  1  0.359886  0.359886  0.000000  1
  As  As34  1  0.640114  0.000000  0.000000  1
  As  As35  1  0.000000  0.640114  0.000000  1
