# generated using pymatgen
data_CoTc2F12
_symmetry_space_group_name_H-M   'P 1'
_cell_length_a   5.53043941
_cell_length_b   11.13391200
_cell_length_c   5.53803300
_cell_angle_alpha   57.82960298
_cell_angle_beta   57.57337739
_cell_angle_gamma   57.63234438
_symmetry_Int_Tables_number   1
_chemical_formula_structural   CoTc2F12
_chemical_formula_sum   'Co1 Tc2 F12'
_cell_volume   228.26249447
_cell_formula_units_Z   1
loop_
 _symmetry_equiv_pos_site_id
 _symmetry_equiv_pos_as_xyz
  1  'x, y, z'
loop_
 _atom_site_type_symbol
 _atom_site_label
 _atom_site_symmetry_multiplicity
 _atom_site_fract_x
 _atom_site_fract_y
 _atom_site_fract_z
 _atom_site_occupancy
  Co  Co0  1  0.000000  0.500000  0.000000  1
  Tc  Tc1  1  0.496165  0.245270  0.510365  1
  Tc  Tc2  1  0.503835  0.754730  0.489635  1
  F  F3  1  0.147792  0.194856  0.727120  1
  F  F4  1  0.162349  0.678132  0.738715  1
  F  F5  1  0.355684  0.372704  0.158389  1
  F  F6  1  0.379113  0.862569  0.156487  1
  F  F7  1  0.731750  0.082607  0.373549  1
  F  F8  1  0.741740  0.575349  0.359823  1
  F  F9  1  0.258260  0.424651  0.640177  1
  F  F10  1  0.268250  0.917393  0.626451  1
  F  F11  1  0.620887  0.137431  0.843513  1
  F  F12  1  0.644316  0.627296  0.841611  1
  F  F13  1  0.837651  0.321868  0.261285  1
  F  F14  1  0.852208  0.805144  0.272880  1
