# generated using pymatgen
data_CaSm20Fe8Bi7C12
_symmetry_space_group_name_H-M   'P 1'
_cell_length_a   11.34335114
_cell_length_b   11.34335200
_cell_length_c   11.34335200
_cell_angle_alpha   59.99999999
_cell_angle_beta   59.99999748
_cell_angle_gamma   59.99999746
_symmetry_Int_Tables_number   1
_chemical_formula_structural   CaSm20Fe8Bi7C12
_chemical_formula_sum   'Ca1 Sm20 Fe8 Bi7 C12'
_cell_volume   1032.07005992
_cell_formula_units_Z   1
loop_
 _symmetry_equiv_pos_site_id
 _symmetry_equiv_pos_as_xyz
  1  'x, y, z'
loop_
 _atom_site_type_symbol
 _atom_site_label
 _atom_site_symmetry_multiplicity
 _atom_site_fract_x
 _atom_site_fract_y
 _atom_site_fract_z
 _atom_site_occupancy
  Ca  Ca0  1  0.500000  0.500000  0.500000  1
  Sm  Sm1  1  0.361879  0.914362  0.361879  1
  Sm  Sm2  1  0.000000  0.657432  0.342568  1
  Sm  Sm3  1  0.361879  0.361879  0.361879  1
  Sm  Sm4  1  0.638121  0.085638  0.638121  1
  Sm  Sm5  1  0.914362  0.361879  0.361879  1
  Sm  Sm6  1  0.657432  0.342568  0.000000  1
  Sm  Sm7  1  0.000000  0.342568  0.000000  1
  Sm  Sm8  1  0.638121  0.638121  0.638121  1
  Sm  Sm9  1  0.000000  0.000000  0.342568  1
  Sm  Sm10  1  0.638121  0.638121  0.085638  1
  Sm  Sm11  1  0.361879  0.361879  0.914362  1
  Sm  Sm12  1  0.657432  0.000000  0.000000  1
  Sm  Sm13  1  0.000000  0.000000  0.657432  1
  Sm  Sm14  1  0.657432  0.000000  0.342568  1
  Sm  Sm15  1  0.085638  0.638121  0.638121  1
  Sm  Sm16  1  0.342568  0.000000  0.000000  1
  Sm  Sm17  1  0.000000  0.342568  0.657432  1
  Sm  Sm18  1  0.342568  0.000000  0.657432  1
  Sm  Sm19  1  0.342568  0.657432  0.000000  1
  Sm  Sm20  1  0.000000  0.657432  0.000000  1
  Fe  Fe21  1  0.194167  0.417497  0.194167  1
  Fe  Fe22  1  0.194167  0.194167  0.417497  1
  Fe  Fe23  1  0.582503  0.805833  0.805833  1
  Fe  Fe24  1  0.194167  0.194167  0.194167  1
  Fe  Fe25  1  0.417497  0.194167  0.194167  1
  Fe  Fe26  1  0.805833  0.805833  0.805833  1
  Fe  Fe27  1  0.805833  0.805833  0.582503  1
  Fe  Fe28  1  0.805833  0.582503  0.805833  1
  Bi  Bi29  1  0.288866  0.711134  0.711134  1
  Bi  Bi30  1  0.711134  0.711134  0.288866  1
  Bi  Bi31  1  0.711134  0.288866  0.288866  1
  Bi  Bi32  1  0.711134  0.288866  0.711134  1
  Bi  Bi33  1  0.288866  0.711134  0.288866  1
  Bi  Bi34  1  0.000000  0.000000  0.000000  1
  Bi  Bi35  1  0.288866  0.288866  0.711134  1
  C  C36  1  0.106351  0.106351  0.393649  1
  C  C37  1  0.893649  0.893649  0.606351  1
  C  C38  1  0.106351  0.393649  0.393649  1
  C  C39  1  0.106351  0.393649  0.106351  1
  C  C40  1  0.606351  0.606351  0.893649  1
  C  C41  1  0.893649  0.606351  0.893649  1
  C  C42  1  0.393649  0.393649  0.106351  1
  C  C43  1  0.393649  0.106351  0.393649  1
  C  C44  1  0.893649  0.606351  0.606351  1
  C  C45  1  0.606351  0.893649  0.606351  1
  C  C46  1  0.393649  0.106351  0.106351  1
  C  C47  1  0.606351  0.893649  0.893649  1
