# generated using pymatgen
data_LiPr8CdCo2
_symmetry_space_group_name_H-M   'P 1'
_cell_length_a   9.91332887
_cell_length_b   9.90638828
_cell_length_c   9.91333006
_cell_angle_alpha   60.02315582
_cell_angle_beta   59.84452106
_cell_angle_gamma   60.02315792
_symmetry_Int_Tables_number   1
_chemical_formula_structural   LiPr8CdCo2
_chemical_formula_sum   'Li2 Pr16 Cd2 Co4'
_cell_volume   687.82520177
_cell_formula_units_Z   2
loop_
 _symmetry_equiv_pos_site_id
 _symmetry_equiv_pos_as_xyz
  1  'x, y, z'
loop_
 _atom_site_type_symbol
 _atom_site_label
 _atom_site_symmetry_multiplicity
 _atom_site_fract_x
 _atom_site_fract_y
 _atom_site_fract_z
 _atom_site_occupancy
  Li  Li0  1  0.927948  0.219850  0.927948  1
  Li  Li1  1  0.927948  0.924254  0.927948  1
  Pr  Pr2  1  0.154301  0.537802  0.154301  1
  Pr  Pr3  1  0.685010  0.314990  0.685010  1
  Pr  Pr4  1  0.688320  0.310822  0.311172  1
  Pr  Pr5  1  0.938771  0.560734  0.561952  1
  Pr  Pr6  1  0.534629  0.155203  0.154965  1
  Pr  Pr7  1  0.154965  0.155203  0.534629  1
  Pr  Pr8  1  0.938771  0.938542  0.561952  1
  Pr  Pr9  1  0.308484  0.691516  0.308484  1
  Pr  Pr10  1  0.561952  0.938542  0.938771  1
  Pr  Pr11  1  0.561307  0.938693  0.561307  1
  Pr  Pr12  1  0.688320  0.689686  0.311172  1
  Pr  Pr13  1  0.561952  0.560734  0.938771  1
  Pr  Pr14  1  0.938337  0.561663  0.938337  1
  Pr  Pr15  1  0.311172  0.689686  0.688320  1
  Pr  Pr16  1  0.154301  0.153596  0.154301  1
  Pr  Pr17  1  0.311172  0.310822  0.688320  1
  Cd  Cd18  1  0.918505  0.921518  0.238459  1
  Cd  Cd19  1  0.238459  0.921518  0.918505  1
  Co  Co20  1  0.357643  0.360548  0.921263  1
  Co  Co21  1  0.358237  0.922911  0.358237  1
  Co  Co22  1  0.921263  0.360548  0.357643  1
  Co  Co23  1  0.358237  0.360616  0.358237  1
