# generated using pymatgen
data_AlV10ReSi3Ir
_symmetry_space_group_name_H-M   'P 1'
_cell_length_a   4.67867400
_cell_length_b   4.75499230
_cell_length_c   9.52408963
_cell_angle_alpha   89.95868864
_cell_angle_beta   90.00000000
_cell_angle_gamma   90.00000000
_symmetry_Int_Tables_number   1
_chemical_formula_structural   AlV10ReSi3Ir
_chemical_formula_sum   'Al1 V10 Re1 Si3 Ir1'
_cell_volume   211.88292752
_cell_formula_units_Z   1
loop_
 _symmetry_equiv_pos_site_id
 _symmetry_equiv_pos_as_xyz
  1  'x, y, z'
loop_
 _atom_site_type_symbol
 _atom_site_label
 _atom_site_symmetry_multiplicity
 _atom_site_fract_x
 _atom_site_fract_y
 _atom_site_fract_z
 _atom_site_occupancy
  Al  Al0  1  0.500000  0.502959  0.999090  1
  V  V1  1  0.000000  0.497681  0.625064  1
  V  V2  1  0.500000  0.246030  0.253823  1
  V  V3  1  0.749984  0.000664  0.999245  1
  V  V4  1  0.751822  0.000894  0.499504  1
  V  V5  1  0.000000  0.497780  0.865359  1
  V  V6  1  0.000000  0.499978  0.382580  1
  V  V7  1  0.500000  0.749154  0.747106  1
  V  V8  1  0.500000  0.756095  0.253706  1
  V  V9  1  0.250016  0.000664  0.999245  1
  V  V10  1  0.248178  0.000894  0.499504  1
  Re  Re11  1  0.500000  0.250390  0.747772  1
  Si  Si12  1  0.500000  0.503565  0.497704  1
  Si  Si13  1  0.000000  0.992822  0.749732  1
  Si  Si14  1  0.000000  0.999397  0.255606  1
  Ir  Ir15  1  0.000000  0.501034  0.124959  1
