# generated using pymatgen
data_EuCd2(H6Ir)2
_symmetry_space_group_name_H-M   'P 1'
_cell_length_a   4.87820300
_cell_length_b   4.87820299
_cell_length_c   8.00823200
_cell_angle_alpha   90.00000000
_cell_angle_beta   90.00000000
_cell_angle_gamma   119.99999329
_symmetry_Int_Tables_number   1
_chemical_formula_structural   EuCd2(H6Ir)2
_chemical_formula_sum   'Eu1 Cd2 H12 Ir2'
_cell_volume   165.03917512
_cell_formula_units_Z   1
loop_
 _symmetry_equiv_pos_site_id
 _symmetry_equiv_pos_as_xyz
  1  'x, y, z'
loop_
 _atom_site_type_symbol
 _atom_site_label
 _atom_site_symmetry_multiplicity
 _atom_site_fract_x
 _atom_site_fract_y
 _atom_site_fract_z
 _atom_site_occupancy
  Eu  Eu0  1  0.000000  0.000000  0.000000  1
  Cd  Cd1  1  0.666667  0.333333  0.363381  1
  Cd  Cd2  1  0.333333  0.666667  0.636619  1
  H  H3  1  0.164147  0.835853  0.365744  1
  H  H4  1  0.671705  0.835853  0.365744  1
  H  H5  1  0.164147  0.328295  0.365744  1
  H  H6  1  0.835853  0.164147  0.634256  1
  H  H7  1  0.328295  0.164147  0.634256  1
  H  H8  1  0.835853  0.671705  0.634256  1
  H  H9  1  0.512826  0.025650  0.872821  1
  H  H10  1  0.512826  0.487174  0.872821  1
  H  H11  1  0.974350  0.487174  0.872821  1
  H  H12  1  0.487174  0.974350  0.127179  1
  H  H13  1  0.487174  0.512826  0.127179  1
  H  H14  1  0.025650  0.512826  0.127179  1
  Ir  Ir15  1  0.666667  0.333333  0.740320  1
  Ir  Ir16  1  0.333333  0.666667  0.259680  1
