# generated using pymatgen
data_DyYHo2(ReB6)2
_symmetry_space_group_name_H-M   'P 1'
_cell_length_a   3.68010900
_cell_length_b   9.16996200
_cell_length_c   11.55618600
_cell_angle_alpha   90.00336153
_cell_angle_beta   90.00000000
_cell_angle_gamma   90.00000000
_symmetry_Int_Tables_number   1
_chemical_formula_structural   DyYHo2(ReB6)2
_chemical_formula_sum   'Dy2 Y2 Ho4 Re4 B24'
_cell_volume   389.98036464
_cell_formula_units_Z   2
loop_
 _symmetry_equiv_pos_site_id
 _symmetry_equiv_pos_as_xyz
  1  'x, y, z'
loop_
 _atom_site_type_symbol
 _atom_site_label
 _atom_site_symmetry_multiplicity
 _atom_site_fract_x
 _atom_site_fract_y
 _atom_site_fract_z
 _atom_site_occupancy
  Dy  Dy0  1  0.000000  0.323534  0.413980  1
  Dy  Dy1  1  0.000000  0.676466  0.586020  1
  Y  Y2  1  0.000000  0.823391  0.085988  1
  Y  Y3  1  0.000000  0.176609  0.914012  1
  Ho  Ho4  1  0.000000  0.943094  0.370096  1
  Ho  Ho5  1  0.000000  0.056906  0.629904  1
  Ho  Ho6  1  0.000000  0.443113  0.129955  1
  Ho  Ho7  1  0.000000  0.556887  0.870045  1
  Re  Re8  1  0.000000  0.638746  0.320769  1
  Re  Re9  1  0.000000  0.361254  0.679231  1
  Re  Re10  1  0.000000  0.138915  0.179494  1
  Re  Re11  1  0.000000  0.861085  0.820506  1
  B  B12  1  0.500000  0.553388  0.432755  1
  B  B13  1  0.500000  0.446612  0.567245  1
  B  B14  1  0.500000  0.053442  0.067331  1
  B  B15  1  0.500000  0.946558  0.932669  1
  B  B16  1  0.500000  0.749228  0.418445  1
  B  B17  1  0.500000  0.250772  0.581555  1
  B  B18  1  0.500000  0.249349  0.081726  1
  B  B19  1  0.500000  0.750651  0.918274  1
  B  B20  1  0.500000  0.792058  0.265695  1
  B  B21  1  0.500000  0.207942  0.734305  1
  B  B22  1  0.500000  0.292111  0.234489  1
  B  B23  1  0.500000  0.707889  0.765511  1
  B  B24  1  0.500000  0.630683  0.185705  1
  B  B25  1  0.500000  0.369317  0.814295  1
  B  B26  1  0.500000  0.130853  0.314414  1
  B  B27  1  0.500000  0.869147  0.685586  1
  B  B28  1  0.500000  0.982399  0.212176  1
  B  B29  1  0.500000  0.017601  0.787824  1
  B  B30  1  0.500000  0.482277  0.287985  1
  B  B31  1  0.500000  0.517723  0.712015  1
  B  B32  1  0.500000  0.599621  0.027855  1
  B  B33  1  0.500000  0.400379  0.972145  1
  B  B34  1  0.500000  0.099695  0.472118  1
  B  B35  1  0.500000  0.900305  0.527882  1
