# generated using pymatgen
data_ReTc(SeBr2)4
_symmetry_space_group_name_H-M   'P 1'
_cell_length_a   10.82587071
_cell_length_b   10.82484035
_cell_length_c   10.82472203
_cell_angle_alpha   116.16735350
_cell_angle_beta   115.97373450
_cell_angle_gamma   96.95341033
_symmetry_Int_Tables_number   1
_chemical_formula_structural   ReTc(SeBr2)4
_chemical_formula_sum   'Re2 Tc2 Se8 Br16'
_cell_volume   942.72961355
_cell_formula_units_Z   2
loop_
 _symmetry_equiv_pos_site_id
 _symmetry_equiv_pos_as_xyz
  1  'x, y, z'
loop_
 _atom_site_type_symbol
 _atom_site_label
 _atom_site_symmetry_multiplicity
 _atom_site_fract_x
 _atom_site_fract_y
 _atom_site_fract_z
 _atom_site_occupancy
  Re  Re0  1  0.853148  0.437045  0.649225  1
  Re  Re1  1  0.787784  0.203916  0.350795  1
  Tc  Tc2  1  0.563019  0.213103  0.416477  1
  Tc  Tc3  1  0.796610  0.146544  0.583500  1
  Se  Se4  1  0.356454  0.317886  0.419086  1
  Se  Se5  1  0.898813  0.937343  0.580920  1
  Se  Se6  1  0.063876  0.643396  0.963276  1
  Se  Se7  1  0.680119  0.100595  0.036725  1
  Se  Se8  1  0.703548  0.321582  0.714596  1
  Se  Se9  1  0.606980  0.988928  0.285391  1
  Se  Se10  1  0.012278  0.296755  0.618861  1
  Se  Se11  1  0.677914  0.393454  0.381141  1
  Br  Br12  1  0.402807  0.450807  0.694873  1
  Br  Br13  1  0.755945  0.707923  0.305126  1
  Br  Br14  1  0.291460  0.596898  0.047446  1
  Br  Br15  1  0.549450  0.244039  0.952546  1
  Br  Br16  1  0.354186  0.054449  0.409945  1
  Br  Br17  1  0.644519  0.944196  0.590061  1
  Br  Br18  1  0.054748  0.645789  0.699589  1
  Br  Br19  1  0.946175  0.355165  0.300401  1
  Br  Br20  1  0.335134  0.122789  0.125335  1
  Br  Br21  1  0.997465  0.209798  0.874686  1
  Br  Br22  1  0.789638  0.664693  0.786267  1
  Br  Br23  1  0.878395  0.003340  0.213721  1
  Br  Br24  1  0.385264  0.528986  0.393280  1
  Br  Br25  1  0.135655  0.991973  0.606715  1
  Br  Br26  1  0.007716  0.614698  0.143802  1
  Br  Br27  1  0.470900  0.863913  0.856216  1
