# generated using pymatgen
data_Mn3Nb2Co
_symmetry_space_group_name_H-M   'P 1'
_cell_length_a   4.73952200
_cell_length_b   4.73952247
_cell_length_c   8.07967900
_cell_angle_alpha   90.00000000
_cell_angle_beta   90.00000000
_cell_angle_gamma   119.99999670
_symmetry_Int_Tables_number   1
_chemical_formula_structural   Mn3Nb2Co
_chemical_formula_sum   'Mn6 Nb4 Co2'
_cell_volume   157.17876911
_cell_formula_units_Z   2
loop_
 _symmetry_equiv_pos_site_id
 _symmetry_equiv_pos_as_xyz
  1  'x, y, z'
loop_
 _atom_site_type_symbol
 _atom_site_label
 _atom_site_symmetry_multiplicity
 _atom_site_fract_x
 _atom_site_fract_y
 _atom_site_fract_z
 _atom_site_occupancy
  Mn  Mn0  1  0.829201  0.170799  0.250000  1
  Mn  Mn1  1  0.829201  0.658401  0.250000  1
  Mn  Mn2  1  0.341599  0.170799  0.250000  1
  Mn  Mn3  1  0.170799  0.829201  0.750000  1
  Mn  Mn4  1  0.170799  0.341599  0.750000  1
  Mn  Mn5  1  0.658401  0.829201  0.750000  1
  Nb  Nb6  1  0.333333  0.666667  0.432124  1
  Nb  Nb7  1  0.666667  0.333333  0.567876  1
  Nb  Nb8  1  0.666667  0.333333  0.932124  1
  Nb  Nb9  1  0.333333  0.666667  0.067876  1
  Co  Co10  1  0.000000  0.000000  0.500000  1
  Co  Co11  1  0.000000  0.000000  0.000000  1
