# generated using pymatgen
data_Y2Si14IrRh5
_symmetry_space_group_name_H-M   'P 1'
_cell_length_a   7.99658146
_cell_length_b   8.00297510
_cell_length_c   8.00297618
_cell_angle_alpha   57.06137464
_cell_angle_beta   57.06157544
_cell_angle_gamma   57.06158077
_symmetry_Int_Tables_number   1
_chemical_formula_structural   Y2Si14IrRh5
_chemical_formula_sum   'Y2 Si14 Ir1 Rh5'
_cell_volume   337.62308412
_cell_formula_units_Z   1
loop_
 _symmetry_equiv_pos_site_id
 _symmetry_equiv_pos_as_xyz
  1  'x, y, z'
loop_
 _atom_site_type_symbol
 _atom_site_label
 _atom_site_symmetry_multiplicity
 _atom_site_fract_x
 _atom_site_fract_y
 _atom_site_fract_z
 _atom_site_occupancy
  Y  Y0  1  0.999856  0.999799  0.000957  1
  Y  Y1  1  0.500144  0.499043  0.500201  1
  Si  Si2  1  0.750000  0.748667  0.751333  1
  Si  Si3  1  0.250000  0.250674  0.249326  1
  Si  Si4  1  0.851976  0.067585  0.671065  1
  Si  Si5  1  0.673226  0.851635  0.063350  1
  Si  Si6  1  0.064303  0.674425  0.850004  1
  Si  Si7  1  0.648024  0.828935  0.432415  1
  Si  Si8  1  0.435697  0.649996  0.825575  1
  Si  Si9  1  0.826774  0.436650  0.648365  1
  Si  Si10  1  0.174494  0.561889  0.351901  1
  Si  Si11  1  0.563115  0.350841  0.172078  1
  Si  Si12  1  0.351613  0.170146  0.568484  1
  Si  Si13  1  0.936885  0.327922  0.149159  1
  Si  Si14  1  0.325506  0.148099  0.938111  1
  Si  Si15  1  0.148387  0.931516  0.329854  1
  Ir  Ir16  1  0.750000  0.069917  0.430083  1
  Rh  Rh17  1  0.069653  0.429724  0.750753  1
  Rh  Rh18  1  0.250000  0.931793  0.568207  1
  Rh  Rh19  1  0.569649  0.250388  0.928890  1
  Rh  Rh20  1  0.930351  0.571110  0.249612  1
  Rh  Rh21  1  0.430347  0.749247  0.070276  1
