# generated using pymatgen
data_Y2Ho2Si6IrRh
_symmetry_space_group_name_H-M   'P 1'
_cell_length_a   8.16315846
_cell_length_b   8.16785666
_cell_length_c   7.90763400
_cell_angle_alpha   89.99990484
_cell_angle_beta   89.99977905
_cell_angle_gamma   120.01935583
_symmetry_Int_Tables_number   1
_chemical_formula_structural   Y2Ho2Si6IrRh
_chemical_formula_sum   'Y4 Ho4 Si12 Ir2 Rh2'
_cell_volume   456.51892625
_cell_formula_units_Z   2
loop_
 _symmetry_equiv_pos_site_id
 _symmetry_equiv_pos_as_xyz
  1  'x, y, z'
loop_
 _atom_site_type_symbol
 _atom_site_label
 _atom_site_symmetry_multiplicity
 _atom_site_fract_x
 _atom_site_fract_y
 _atom_site_fract_z
 _atom_site_occupancy
  Y  Y0  1  0.999976  0.999988  0.248556  1
  Y  Y1  1  0.999987  0.999996  0.751407  1
  Y  Y2  1  0.509545  0.490571  0.250219  1
  Y  Y3  1  0.509542  0.018971  0.250219  1
  Ho  Ho4  1  0.981600  0.490799  0.250384  1
  Ho  Ho5  1  0.490663  0.509371  0.749668  1
  Ho  Ho6  1  0.490665  0.981295  0.749669  1
  Ho  Ho7  1  0.018726  0.509363  0.749674  1
  Si  Si8  1  0.166828  0.832986  0.499239  1
  Si  Si9  1  0.166828  0.333843  0.499238  1
  Si  Si10  1  0.666070  0.833035  0.499462  1
  Si  Si11  1  0.833155  0.167091  0.501365  1
  Si  Si12  1  0.833156  0.666065  0.501366  1
  Si  Si13  1  0.333899  0.166949  0.501687  1
  Si  Si14  1  0.832892  0.167378  0.999778  1
  Si  Si15  1  0.832894  0.665515  0.999778  1
  Si  Si16  1  0.334361  0.167181  0.999443  1
  Si  Si17  1  0.167114  0.832680  0.999615  1
  Si  Si18  1  0.167114  0.334432  0.999614  1
  Si  Si19  1  0.665587  0.832794  0.999381  1
  Ir  Ir20  1  0.332654  0.666324  0.470039  1
  Ir  Ir21  1  0.667123  0.333564  0.532584  1
  Rh  Rh22  1  0.667069  0.333534  0.961547  1
  Rh  Rh23  1  0.332551  0.666276  0.036071  1
