# generated using pymatgen
data_Rb8YbSnI12
_symmetry_space_group_name_H-M   'P 1'
_cell_length_a   10.23092813
_cell_length_b   10.23092781
_cell_length_c   10.23092875
_cell_angle_alpha   89.73291818
_cell_angle_beta   89.73291909
_cell_angle_gamma   89.73291715
_symmetry_Int_Tables_number   1
_chemical_formula_structural   Rb8YbSnI12
_chemical_formula_sum   'Rb8 Yb1 Sn1 I12'
_cell_volume   1070.85582313
_cell_formula_units_Z   1
loop_
 _symmetry_equiv_pos_site_id
 _symmetry_equiv_pos_as_xyz
  1  'x, y, z'
loop_
 _atom_site_type_symbol
 _atom_site_label
 _atom_site_symmetry_multiplicity
 _atom_site_fract_x
 _atom_site_fract_y
 _atom_site_fract_z
 _atom_site_occupancy
  Rb  Rb0  1  0.249902  0.249902  0.249902  1
  Rb  Rb1  1  0.750098  0.750098  0.750098  1
  Rb  Rb2  1  0.869726  0.630387  0.250139  1
  Rb  Rb3  1  0.630387  0.250139  0.869726  1
  Rb  Rb4  1  0.250139  0.869726  0.630387  1
  Rb  Rb5  1  0.130274  0.369613  0.749861  1
  Rb  Rb6  1  0.369613  0.749861  0.130274  1
  Rb  Rb7  1  0.749861  0.130274  0.369613  1
  Yb  Yb8  1  0.500000  0.500000  0.500000  1
  Sn  Sn9  1  0.000000  0.000000  0.000000  1
  I  I10  1  0.204977  0.557269  0.430479  1
  I  I11  1  0.058154  0.699923  0.929442  1
  I  I12  1  0.929442  0.058154  0.699923  1
  I  I13  1  0.795023  0.442731  0.569521  1
  I  I14  1  0.699923  0.929442  0.058154  1
  I  I15  1  0.442731  0.569521  0.795023  1
  I  I16  1  0.569521  0.795023  0.442731  1
  I  I17  1  0.557269  0.430479  0.204977  1
  I  I18  1  0.070558  0.941846  0.300077  1
  I  I19  1  0.941846  0.300077  0.070558  1
  I  I20  1  0.300077  0.070558  0.941846  1
  I  I21  1  0.430479  0.204977  0.557269  1
