# generated using pymatgen
data_DyYZr4Pb2F30
_symmetry_space_group_name_H-M   'P 1'
_cell_length_a   8.17312894
_cell_length_b   8.17312971
_cell_length_c   8.15359400
_cell_angle_alpha   79.79491107
_cell_angle_beta   79.79491010
_cell_angle_gamma   99.92064105
_symmetry_Int_Tables_number   1
_chemical_formula_structural   DyYZr4Pb2F30
_chemical_formula_sum   'Dy1 Y1 Zr4 Pb2 F30'
_cell_volume   515.76849377
_cell_formula_units_Z   1
loop_
 _symmetry_equiv_pos_site_id
 _symmetry_equiv_pos_as_xyz
  1  'x, y, z'
loop_
 _atom_site_type_symbol
 _atom_site_label
 _atom_site_symmetry_multiplicity
 _atom_site_fract_x
 _atom_site_fract_y
 _atom_site_fract_z
 _atom_site_occupancy
  Dy  Dy0  1  0.176828  0.823172  0.250000  1
  Y  Y1  1  0.823163  0.176837  0.750000  1
  Zr  Zr2  1  0.747346  0.677974  0.674987  1
  Zr  Zr3  1  0.322026  0.252654  0.825013  1
  Zr  Zr4  1  0.252862  0.321977  0.324804  1
  Zr  Zr5  1  0.678023  0.747138  0.175196  1
  Pb  Pb6  1  0.751853  0.248147  0.250000  1
  Pb  Pb7  1  0.248086  0.751914  0.750000  1
  F  F8  1  0.320487  0.350036  0.051800  1
  F  F9  1  0.938069  0.816239  0.148972  1
  F  F10  1  0.843214  0.460986  0.680932  1
  F  F11  1  0.460431  0.842412  0.181442  1
  F  F12  1  0.816345  0.937871  0.648215  1
  F  F13  1  0.349939  0.320381  0.551916  1
  F  F14  1  0.679619  0.650061  0.948083  1
  F  F15  1  0.062129  0.183655  0.851785  1
  F  F16  1  0.157588  0.539569  0.318558  1
  F  F17  1  0.539014  0.156786  0.819068  1
  F  F18  1  0.183761  0.061931  0.351028  1
  F  F19  1  0.649964  0.679513  0.448200  1
  F  F20  1  0.772689  0.294032  0.989141  1
  F  F21  1  0.017862  0.275136  0.207302  1
  F  F22  1  0.789087  0.515249  0.224190  1
  F  F23  1  0.515132  0.788872  0.724141  1
  F  F24  1  0.274942  0.017904  0.707385  1
  F  F25  1  0.293119  0.773094  0.489009  1
  F  F26  1  0.226906  0.706881  0.010991  1
  F  F27  1  0.982096  0.725058  0.792615  1
  F  F28  1  0.211128  0.484868  0.775859  1
  F  F29  1  0.484751  0.210913  0.275810  1
  F  F30  1  0.724864  0.982138  0.292698  1
  F  F31  1  0.705968  0.227311  0.510859  1
  F  F32  1  0.471500  0.528500  0.250000  1
  F  F33  1  0.746792  0.957439  0.974250  1
  F  F34  1  0.042561  0.253208  0.525750  1
  F  F35  1  0.253161  0.042242  0.026284  1
  F  F36  1  0.957758  0.746839  0.473716  1
  F  F37  1  0.528936  0.471064  0.750000  1
