# generated using pymatgen
data_Er4BeCo3I2
_symmetry_space_group_name_H-M   'P 1'
_cell_length_a   3.91002500
_cell_length_b   3.91002477
_cell_length_c   16.72837800
_cell_angle_alpha   90.00000000
_cell_angle_beta   90.00000000
_cell_angle_gamma   119.99999350
_symmetry_Int_Tables_number   1
_chemical_formula_structural   Er4BeCo3I2
_chemical_formula_sum   'Er4 Be1 Co3 I2'
_cell_volume   221.48460069
_cell_formula_units_Z   1
loop_
 _symmetry_equiv_pos_site_id
 _symmetry_equiv_pos_as_xyz
  1  'x, y, z'
loop_
 _atom_site_type_symbol
 _atom_site_label
 _atom_site_symmetry_multiplicity
 _atom_site_fract_x
 _atom_site_fract_y
 _atom_site_fract_z
 _atom_site_occupancy
  Er  Er0  1  0.000000  0.000000  0.103980  1
  Er  Er1  1  0.000000  0.000000  0.896167  1
  Er  Er2  1  0.000000  0.000000  0.600452  1
  Er  Er3  1  0.000000  0.000000  0.399636  1
  Be  Be4  1  0.333333  0.666667  0.500485  1
  Co  Co5  1  0.666667  0.333333  0.498928  1
  Co  Co6  1  0.666667  0.333333  0.002120  1
  Co  Co7  1  0.333333  0.666667  0.998202  1
  I  I8  1  0.333333  0.666667  0.250024  1
  I  I9  1  0.666667  0.333333  0.750006  1
