# generated using pymatgen
data_LiHf5(ZnRh2)6
_symmetry_space_group_name_H-M   'P 1'
_cell_length_a   4.43239100
_cell_length_b   6.23591900
_cell_length_c   13.22639400
_cell_angle_alpha   89.99989289
_cell_angle_beta   90.00025915
_cell_angle_gamma   89.99609103
_symmetry_Int_Tables_number   1
_chemical_formula_structural   LiHf5(ZnRh2)6
_chemical_formula_sum   'Li1 Hf5 Zn6 Rh12'
_cell_volume   365.57794309
_cell_formula_units_Z   1
loop_
 _symmetry_equiv_pos_site_id
 _symmetry_equiv_pos_as_xyz
  1  'x, y, z'
loop_
 _atom_site_type_symbol
 _atom_site_label
 _atom_site_symmetry_multiplicity
 _atom_site_fract_x
 _atom_site_fract_y
 _atom_site_fract_z
 _atom_site_occupancy
  Li  Li0  1  0.000000  0.999981  0.000000  1
  Hf  Hf1  1  0.499911  0.500007  0.160431  1
  Hf  Hf2  1  0.999916  0.999993  0.330943  1
  Hf  Hf3  1  0.500000  0.500004  0.500000  1
  Hf  Hf4  1  0.000081  0.999993  0.669057  1
  Hf  Hf5  1  0.500090  0.500007  0.839570  1
  Zn  Zn6  1  0.000000  0.500005  0.000000  1
  Zn  Zn7  1  0.499896  0.999991  0.163133  1
  Zn  Zn8  1  0.999924  0.500004  0.328398  1
  Zn  Zn9  1  0.500000  0.999994  0.500000  1
  Zn  Zn10  1  0.000074  0.500004  0.671602  1
  Zn  Zn11  1  0.500102  0.999991  0.836867  1
  Rh  Rh12  1  0.500226  0.239846  0.000000  1
  Rh  Rh13  1  0.499771  0.760177  0.000000  1
  Rh  Rh14  1  0.999856  0.245543  0.164517  1
  Rh  Rh15  1  0.999960  0.754456  0.164528  1
  Rh  Rh16  1  0.499998  0.250056  0.332263  1
  Rh  Rh17  1  0.499820  0.749948  0.332262  1
  Rh  Rh18  1  0.999887  0.252037  0.500000  1
  Rh  Rh19  1  0.000113  0.747963  0.500000  1
  Rh  Rh20  1  0.500179  0.250055  0.667736  1
  Rh  Rh21  1  0.500000  0.749950  0.667737  1
  Rh  Rh22  1  0.000041  0.245539  0.835481  1
  Rh  Rh23  1  0.000145  0.754453  0.835474  1
