# generated using pymatgen
data_Sc4Co5Os3
_symmetry_space_group_name_H-M   'P 1'
_cell_length_a   4.95797089
_cell_length_b   4.95797096
_cell_length_c   8.26317200
_cell_angle_alpha   90.00000000
_cell_angle_beta   90.00000000
_cell_angle_gamma   120.06849501
_symmetry_Int_Tables_number   1
_chemical_formula_structural   Sc4Co5Os3
_chemical_formula_sum   'Sc4 Co5 Os3'
_cell_volume   175.78637521
_cell_formula_units_Z   1
loop_
 _symmetry_equiv_pos_site_id
 _symmetry_equiv_pos_as_xyz
  1  'x, y, z'
loop_
 _atom_site_type_symbol
 _atom_site_label
 _atom_site_symmetry_multiplicity
 _atom_site_fract_x
 _atom_site_fract_y
 _atom_site_fract_z
 _atom_site_occupancy
  Sc  Sc0  1  0.332688  0.667312  0.436766  1
  Sc  Sc1  1  0.664597  0.335403  0.568452  1
  Sc  Sc2  1  0.664597  0.335403  0.931548  1
  Sc  Sc3  1  0.332688  0.667312  0.063234  1
  Co  Co4  1  0.170023  0.341544  0.750000  1
  Co  Co5  1  0.172853  0.827147  0.750000  1
  Co  Co6  1  0.342597  0.164306  0.250000  1
  Co  Co7  1  0.835694  0.657403  0.250000  1
  Co  Co8  1  0.658456  0.829977  0.750000  1
  Os  Os9  1  0.998228  0.001772  0.994595  1
  Os  Os10  1  0.829352  0.170648  0.250000  1
  Os  Os11  1  0.998228  0.001772  0.505405  1
