# generated using pymatgen
data_Y3Th2Sn3N
_symmetry_space_group_name_H-M   'P 1'
_cell_length_a   9.14432647
_cell_length_b   9.14432693
_cell_length_c   6.43865200
_cell_angle_alpha   90.00000000
_cell_angle_beta   90.00000000
_cell_angle_gamma   120.42695901
_symmetry_Int_Tables_number   1
_chemical_formula_structural   Y3Th2Sn3N
_chemical_formula_sum   'Y6 Th4 Sn6 N2'
_cell_volume   464.24202649
_cell_formula_units_Z   2
loop_
 _symmetry_equiv_pos_site_id
 _symmetry_equiv_pos_as_xyz
  1  'x, y, z'
loop_
 _atom_site_type_symbol
 _atom_site_label
 _atom_site_symmetry_multiplicity
 _atom_site_fract_x
 _atom_site_fract_y
 _atom_site_fract_z
 _atom_site_occupancy
  Y  Y0  1  0.665958  0.333534  0.999182  1
  Y  Y1  1  0.333534  0.665958  0.999182  1
  Y  Y2  1  0.333534  0.665958  0.500818  1
  Y  Y3  1  0.665958  0.333534  0.500818  1
  Y  Y4  1  0.776323  0.998131  0.250000  1
  Y  Y5  1  0.998131  0.776323  0.250000  1
  Th  Th6  1  0.779659  0.779659  0.750000  1
  Th  Th7  1  0.222343  0.999571  0.750000  1
  Th  Th8  1  0.999571  0.222343  0.750000  1
  Th  Th9  1  0.218929  0.218929  0.250000  1
  Sn  Sn10  1  0.405937  0.405937  0.750000  1
  Sn  Sn11  1  0.594311  0.999867  0.750000  1
  Sn  Sn12  1  0.999867  0.594311  0.750000  1
  Sn  Sn13  1  0.601199  0.601199  0.250000  1
  Sn  Sn14  1  0.402099  0.996718  0.250000  1
  Sn  Sn15  1  0.996718  0.402099  0.250000  1
  N  N16  1  0.002965  0.002965  0.998021  1
  N  N17  1  0.002965  0.002965  0.501979  1
