# generated using pymatgen
data_Tb2Y10InCo4Os
_symmetry_space_group_name_H-M   'P 1'
_cell_length_a   8.32767655
_cell_length_b   8.33617087
_cell_length_c   8.32767484
_cell_angle_alpha   111.52007032
_cell_angle_beta   110.33184481
_cell_angle_gamma   106.56190033
_symmetry_Int_Tables_number   1
_chemical_formula_structural   Tb2Y10InCo4Os
_chemical_formula_sum   'Tb2 Y10 In1 Co4 Os1'
_cell_volume   444.35730895
_cell_formula_units_Z   1
loop_
 _symmetry_equiv_pos_site_id
 _symmetry_equiv_pos_as_xyz
  1  'x, y, z'
loop_
 _atom_site_type_symbol
 _atom_site_label
 _atom_site_symmetry_multiplicity
 _atom_site_fract_x
 _atom_site_fract_y
 _atom_site_fract_z
 _atom_site_occupancy
  Tb  Tb0  1  0.315168  0.008333  0.693164  1
  Tb  Tb1  1  0.684832  0.991667  0.306836  1
  Y  Y2  1  0.411503  0.218509  0.192849  1
  Y  Y3  1  0.588497  0.781491  0.807151  1
  Y  Y4  1  0.025660  0.218509  0.807005  1
  Y  Y5  1  0.974340  0.781491  0.192995  1
  Y  Y6  1  0.182119  0.283031  0.464777  1
  Y  Y7  1  0.817881  0.716969  0.535223  1
  Y  Y8  1  0.181746  0.716969  0.899089  1
  Y  Y9  1  0.818254  0.283031  0.100911  1
  Y  Y10  1  0.314985  0.620007  0.305020  1
  Y  Y11  1  0.685015  0.379993  0.694980  1
  In  In12  1  0.500000  0.500000  0.000000  1
  Co  Co13  1  0.379427  0.000000  0.379427  1
  Co  Co14  1  0.620573  0.000000  0.620573  1
  Co  Co15  1  0.110589  0.611363  0.500775  1
  Co  Co16  1  0.889411  0.388637  0.499225  1
  Os  Os17  1  0.000000  0.000000  0.000000  1
