# generated using pymatgen
data_Li4LuNi9As7
_symmetry_space_group_name_H-M   'P 1'
_cell_length_a   9.39833000
_cell_length_b   9.39832954
_cell_length_c   3.82182600
_cell_angle_alpha   90.00000000
_cell_angle_beta   90.00000000
_cell_angle_gamma   120.00000163
_symmetry_Int_Tables_number   1
_chemical_formula_structural   Li4LuNi9As7
_chemical_formula_sum   'Li4 Lu1 Ni9 As7'
_cell_volume   292.34986270
_cell_formula_units_Z   1
loop_
 _symmetry_equiv_pos_site_id
 _symmetry_equiv_pos_as_xyz
  1  'x, y, z'
loop_
 _atom_site_type_symbol
 _atom_site_label
 _atom_site_symmetry_multiplicity
 _atom_site_fract_x
 _atom_site_fract_y
 _atom_site_fract_z
 _atom_site_occupancy
  Li  Li0  1  0.773536  0.544561  0.500000  1
  Li  Li1  1  0.455439  0.228975  0.500000  1
  Li  Li2  1  0.771025  0.226464  0.500000  1
  Li  Li3  1  0.000000  0.000000  0.500000  1
  Lu  Lu4  1  0.333333  0.666667  0.000000  1
  Ni  Ni5  1  0.274443  0.376782  0.500000  1
  Ni  Ni6  1  0.623218  0.897660  0.500000  1
  Ni  Ni7  1  0.102340  0.725557  0.500000  1
  Ni  Ni8  1  0.494999  0.452545  0.000000  1
  Ni  Ni9  1  0.547455  0.042453  0.000000  1
  Ni  Ni10  1  0.957547  0.505001  0.000000  1
  Ni  Ni11  1  0.716395  0.761771  0.000000  1
  Ni  Ni12  1  0.238229  0.954624  0.000000  1
  Ni  Ni13  1  0.045376  0.283605  0.000000  1
  As  As14  1  0.963331  0.756453  0.000000  1
  As  As15  1  0.243547  0.206878  0.000000  1
  As  As16  1  0.793122  0.036669  0.000000  1
  As  As17  1  0.666667  0.333333  0.000000  1
  As  As18  1  0.543343  0.618922  0.500000  1
  As  As19  1  0.381078  0.924421  0.500000  1
  As  As20  1  0.075579  0.456657  0.500000  1
