# generated using pymatgen
data_Hf9Re3NiW
_symmetry_space_group_name_H-M   'P 1'
_cell_length_a   8.63949500
_cell_length_b   8.63949512
_cell_length_c   8.44293600
_cell_angle_alpha   90.00000000
_cell_angle_beta   90.00000000
_cell_angle_gamma   120.00000336
_symmetry_Int_Tables_number   1
_chemical_formula_structural   Hf9Re3NiW
_chemical_formula_sum   'Hf18 Re6 Ni2 W2'
_cell_volume   545.75891126
_cell_formula_units_Z   2
loop_
 _symmetry_equiv_pos_site_id
 _symmetry_equiv_pos_as_xyz
  1  'x, y, z'
loop_
 _atom_site_type_symbol
 _atom_site_label
 _atom_site_symmetry_multiplicity
 _atom_site_fract_x
 _atom_site_fract_y
 _atom_site_fract_z
 _atom_site_occupancy
  Hf  Hf0  1  0.198638  0.801362  0.444110  1
  Hf  Hf1  1  0.198638  0.397275  0.444110  1
  Hf  Hf2  1  0.602725  0.801362  0.444110  1
  Hf  Hf3  1  0.801362  0.198638  0.555890  1
  Hf  Hf4  1  0.801362  0.602725  0.555890  1
  Hf  Hf5  1  0.397275  0.198638  0.555890  1
  Hf  Hf6  1  0.801362  0.198638  0.944110  1
  Hf  Hf7  1  0.801362  0.602725  0.944110  1
  Hf  Hf8  1  0.397275  0.198638  0.944110  1
  Hf  Hf9  1  0.198638  0.801362  0.055890  1
  Hf  Hf10  1  0.198638  0.397275  0.055890  1
  Hf  Hf11  1  0.602725  0.801362  0.055890  1
  Hf  Hf12  1  0.540887  0.459113  0.250000  1
  Hf  Hf13  1  0.540887  0.081774  0.250000  1
  Hf  Hf14  1  0.918226  0.459113  0.250000  1
  Hf  Hf15  1  0.459113  0.540887  0.750000  1
  Hf  Hf16  1  0.459113  0.918226  0.750000  1
  Hf  Hf17  1  0.081774  0.540887  0.750000  1
  Re  Re18  1  0.888673  0.111327  0.250000  1
  Re  Re19  1  0.888673  0.777344  0.250000  1
  Re  Re20  1  0.222656  0.111327  0.250000  1
  Re  Re21  1  0.111327  0.888673  0.750000  1
  Re  Re22  1  0.111327  0.222656  0.750000  1
  Re  Re23  1  0.777344  0.888673  0.750000  1
  Ni  Ni24  1  0.333333  0.666667  0.250000  1
  Ni  Ni25  1  0.666667  0.333333  0.750000  1
  W  W26  1  0.000000  0.000000  0.500000  1
  W  W27  1  0.000000  0.000000  0.000000  1
