# generated using pymatgen
data_Lu2Mn2Fe10P7
_symmetry_space_group_name_H-M   'P 1'
_cell_length_a   8.97619195
_cell_length_b   8.96886273
_cell_length_c   3.61098600
_cell_angle_alpha   90.00000000
_cell_angle_beta   90.00000000
_cell_angle_gamma   120.07925282
_symmetry_Int_Tables_number   1
_chemical_formula_structural   Lu2Mn2Fe10P7
_chemical_formula_sum   'Lu2 Mn2 Fe10 P7'
_cell_volume   251.55824762
_cell_formula_units_Z   1
loop_
 _symmetry_equiv_pos_site_id
 _symmetry_equiv_pos_as_xyz
  1  'x, y, z'
loop_
 _atom_site_type_symbol
 _atom_site_label
 _atom_site_symmetry_multiplicity
 _atom_site_fract_x
 _atom_site_fract_y
 _atom_site_fract_z
 _atom_site_occupancy
  Lu  Lu0  1  0.667477  0.335479  0.000000  1
  Lu  Lu1  1  0.998493  0.998757  0.500000  1
  Mn  Mn2  1  0.233885  0.786279  0.500000  1
  Mn  Mn3  1  0.217663  0.446949  0.500000  1
  Fe  Fe4  1  0.758893  0.723659  0.000000  1
  Fe  Fe5  1  0.277270  0.036623  0.000000  1
  Fe  Fe6  1  0.962589  0.239032  0.000000  1
  Fe  Fe7  1  0.488903  0.941419  0.000000  1
  Fe  Fe8  1  0.059878  0.547439  0.000000  1
  Fe  Fe9  1  0.452247  0.510202  0.000000  1
  Fe  Fe10  1  0.718285  0.101238  0.500000  1
  Fe  Fe11  1  0.897498  0.616891  0.500000  1
  Fe  Fe12  1  0.383779  0.282081  0.500000  1
  Fe  Fe13  1  0.549225  0.763371  0.500000  1
  P  P14  1  0.454681  0.077010  0.500000  1
  P  P15  1  0.925115  0.376975  0.500000  1
  P  P16  1  0.622960  0.554703  0.500000  1
  P  P17  1  0.744928  0.964172  0.000000  1
  P  P18  1  0.031394  0.779861  0.000000  1
  P  P19  1  0.218199  0.250373  0.000000  1
  P  P20  1  0.336639  0.667491  0.000000  1
