# generated using pymatgen
data_Lu3Mg3Hg2Rh
_symmetry_space_group_name_H-M   'P 1'
_cell_length_a   7.91896900
_cell_length_b   7.91896774
_cell_length_c   3.76487100
_cell_angle_alpha   90.00000000
_cell_angle_beta   90.00000000
_cell_angle_gamma   120.00000334
_symmetry_Int_Tables_number   1
_chemical_formula_structural   Lu3Mg3Hg2Rh
_chemical_formula_sum   'Lu3 Mg3 Hg2 Rh1'
_cell_volume   204.46450880
_cell_formula_units_Z   1
loop_
 _symmetry_equiv_pos_site_id
 _symmetry_equiv_pos_as_xyz
  1  'x, y, z'
loop_
 _atom_site_type_symbol
 _atom_site_label
 _atom_site_symmetry_multiplicity
 _atom_site_fract_x
 _atom_site_fract_y
 _atom_site_fract_z
 _atom_site_occupancy
  Lu  Lu0  1  0.609189  0.039364  0.000000  1
  Lu  Lu1  1  0.960636  0.569823  0.000000  1
  Lu  Lu2  1  0.430177  0.390811  0.000000  1
  Mg  Mg3  1  0.264856  0.996494  0.500000  1
  Mg  Mg4  1  0.003506  0.268361  0.500000  1
  Mg  Mg5  1  0.731639  0.735144  0.500000  1
  Hg  Hg6  1  0.333333  0.666667  0.500000  1
  Hg  Hg7  1  0.000000  0.000000  0.000000  1
  Rh  Rh8  1  0.666667  0.333333  0.500000  1
