# generated using pymatgen
data_ErTmV2F14
_symmetry_space_group_name_H-M   'P 1'
_cell_length_a   5.46438900
_cell_length_b   8.73147353
_cell_length_c   11.70504885
_cell_angle_alpha   63.53318681
_cell_angle_beta   90.00000000
_cell_angle_gamma   90.00000000
_symmetry_Int_Tables_number   1
_chemical_formula_structural   ErTmV2F14
_chemical_formula_sum   'Er2 Tm2 V4 F28'
_cell_volume   499.94115856
_cell_formula_units_Z   2
loop_
 _symmetry_equiv_pos_site_id
 _symmetry_equiv_pos_as_xyz
  1  'x, y, z'
loop_
 _atom_site_type_symbol
 _atom_site_label
 _atom_site_symmetry_multiplicity
 _atom_site_fract_x
 _atom_site_fract_y
 _atom_site_fract_z
 _atom_site_occupancy
  Er  Er0  1  0.241702  0.191853  0.229488  1
  Er  Er1  1  0.741702  0.808147  0.270512  1
  Tm  Tm2  1  0.758399  0.808994  0.770446  1
  Tm  Tm3  1  0.258399  0.191006  0.729554  1
  V  V4  1  0.754511  0.273657  0.953862  1
  V  V5  1  0.254511  0.726343  0.546138  1
  V  V6  1  0.245497  0.727070  0.044790  1
  V  V7  1  0.745497  0.272930  0.455210  1
  F  F8  1  0.451845  0.705810  0.922686  1
  F  F9  1  0.951845  0.294190  0.577314  1
  F  F10  1  0.549542  0.294693  0.076459  1
  F  F11  1  0.049542  0.705307  0.423541  1
  F  F12  1  0.458175  0.282410  0.546291  1
  F  F13  1  0.958175  0.717590  0.953709  1
  F  F14  1  0.540903  0.716807  0.455023  1
  F  F15  1  0.040903  0.283193  0.044977  1
  F  F16  1  0.768903  0.508437  0.861630  1
  F  F17  1  0.268903  0.491563  0.638370  1
  F  F18  1  0.230832  0.492481  0.137880  1
  F  F19  1  0.730832  0.507519  0.362120  1
  F  F20  1  0.756353  0.041481  0.045264  1
  F  F21  1  0.256353  0.958519  0.454736  1
  F  F22  1  0.243661  0.959165  0.954070  1
  F  F23  1  0.743661  0.040835  0.545930  1
  F  F24  1  0.976951  0.731329  0.642526  1
  F  F25  1  0.476951  0.268671  0.857474  1
  F  F26  1  0.022282  0.269213  0.358399  1
  F  F27  1  0.522282  0.730787  0.141601  1
  F  F28  1  0.042040  0.748128  0.170265  1
  F  F29  1  0.542040  0.251872  0.329735  1
  F  F30  1  0.959780  0.251462  0.829062  1
  F  F31  1  0.459780  0.748538  0.670938  1
  F  F32  1  0.422232  0.973189  0.231485  1
  F  F33  1  0.922232  0.026811  0.268515  1
  F  F34  1  0.576391  0.026081  0.768152  1
  F  F35  1  0.076391  0.973919  0.731848  1
