# generated using pymatgen
data_YEr3(Si4Tc3)2
_symmetry_space_group_name_H-M   'P 1'
_cell_length_a   6.78029972
_cell_length_b   6.75551207
_cell_length_c   6.77355470
_cell_angle_alpha   69.82530222
_cell_angle_beta   90.04144811
_cell_angle_gamma   89.98352393
_symmetry_Int_Tables_number   1
_chemical_formula_structural   YEr3(Si4Tc3)2
_chemical_formula_sum   'Y1 Er3 Si8 Tc6'
_cell_volume   291.22267564
_cell_formula_units_Z   1
loop_
 _symmetry_equiv_pos_site_id
 _symmetry_equiv_pos_as_xyz
  1  'x, y, z'
loop_
 _atom_site_type_symbol
 _atom_site_label
 _atom_site_symmetry_multiplicity
 _atom_site_fract_x
 _atom_site_fract_y
 _atom_site_fract_z
 _atom_site_occupancy
  Y  Y0  1  0.667632  0.441701  0.191215  1
  Er  Er1  1  0.167928  0.057917  0.808261  1
  Er  Er2  1  0.331766  0.558063  0.807900  1
  Er  Er3  1  0.832222  0.942019  0.191788  1
  Si  Si4  1  0.448904  0.122211  0.101799  1
  Si  Si5  1  0.949902  0.377028  0.897322  1
  Si  Si6  1  0.550451  0.877582  0.897528  1
  Si  Si7  1  0.051506  0.623368  0.101811  1
  Si  Si8  1  0.859378  0.130675  0.513153  1
  Si  Si9  1  0.358059  0.368344  0.488286  1
  Si  Si10  1  0.141135  0.868362  0.487798  1
  Si  Si11  1  0.641147  0.632057  0.513065  1
  Tc  Tc12  1  0.499704  0.999270  0.500447  1
  Tc  Tc13  1  0.000649  0.500139  0.500498  1
  Tc  Tc14  1  0.150342  0.242774  0.238576  1
  Tc  Tc15  1  0.650288  0.257102  0.760999  1
  Tc  Tc16  1  0.850075  0.757689  0.760861  1
  Tc  Tc17  1  0.348913  0.743699  0.238693  1
