# generated using pymatgen
data_Nd3Tl3Pt2Rh
_symmetry_space_group_name_H-M   'P 1'
_cell_length_a   7.72702600
_cell_length_b   7.72702530
_cell_length_c   4.04148800
_cell_angle_alpha   90.00000000
_cell_angle_beta   90.00000000
_cell_angle_gamma   120.00000301
_symmetry_Int_Tables_number   1
_chemical_formula_structural   Nd3Tl3Pt2Rh
_chemical_formula_sum   'Nd3 Tl3 Pt2 Rh1'
_cell_volume   208.97609993
_cell_formula_units_Z   1
loop_
 _symmetry_equiv_pos_site_id
 _symmetry_equiv_pos_as_xyz
  1  'x, y, z'
loop_
 _atom_site_type_symbol
 _atom_site_label
 _atom_site_symmetry_multiplicity
 _atom_site_fract_x
 _atom_site_fract_y
 _atom_site_fract_z
 _atom_site_occupancy
  Nd  Nd0  1  0.000000  0.596511  0.000000  1
  Nd  Nd1  1  0.403489  0.403489  0.000000  1
  Nd  Nd2  1  0.596511  0.000000  0.000000  1
  Tl  Tl3  1  0.743744  0.743744  0.500000  1
  Tl  Tl4  1  0.000000  0.256256  0.500000  1
  Tl  Tl5  1  0.256256  0.000000  0.500000  1
  Pt  Pt6  1  0.666667  0.333333  0.500000  1
  Pt  Pt7  1  0.333333  0.666667  0.500000  1
  Rh  Rh8  1  0.000000  0.000000  0.000000  1
