# generated using pymatgen
data_Lu2PuGa2Co9B4
_symmetry_space_group_name_H-M   'P 1'
_cell_length_a   5.09856600
_cell_length_b   5.10280036
_cell_length_c   9.50017300
_cell_angle_alpha   90.00015011
_cell_angle_beta   89.99971077
_cell_angle_gamma   119.97254089
_symmetry_Int_Tables_number   1
_chemical_formula_structural   Lu2PuGa2Co9B4
_chemical_formula_sum   'Lu2 Pu1 Ga2 Co9 B4'
_cell_volume   214.11094586
_cell_formula_units_Z   1
loop_
 _symmetry_equiv_pos_site_id
 _symmetry_equiv_pos_as_xyz
  1  'x, y, z'
loop_
 _atom_site_type_symbol
 _atom_site_label
 _atom_site_symmetry_multiplicity
 _atom_site_fract_x
 _atom_site_fract_y
 _atom_site_fract_z
 _atom_site_occupancy
  Lu  Lu0  1  0.999988  0.000000  0.340874  1
  Lu  Lu1  1  0.999990  0.000000  0.659129  1
  Pu  Pu2  1  0.000000  0.000000  0.999999  1
  Ga  Ga3  1  0.333604  0.667207  0.999997  1
  Ga  Ga4  1  0.666396  0.332793  0.999997  1
  Co  Co5  1  0.499994  0.000000  0.499993  1
  Co  Co6  1  0.499994  0.500000  0.499991  1
  Co  Co7  1  0.999994  0.500000  0.499991  1
  Co  Co8  1  0.500002  0.000000  0.208924  1
  Co  Co9  1  0.499977  0.499987  0.208947  1
  Co  Co10  1  0.999990  0.500013  0.208947  1
  Co  Co11  1  0.499984  0.000000  0.791070  1
  Co  Co12  1  0.500009  0.500010  0.791050  1
  Co  Co13  1  0.999999  0.499990  0.791050  1
  B  B14  1  0.333347  0.666709  0.350455  1
  B  B15  1  0.666638  0.333291  0.350455  1
  B  B16  1  0.666639  0.333283  0.649565  1
  B  B17  1  0.333355  0.666717  0.649565  1
