# generated using pymatgen
data_Y8Zn4Ag3Ru
_symmetry_space_group_name_H-M   'P 1'
_cell_length_a   7.19335643
_cell_length_b   7.13975900
_cell_length_c   7.19332942
_cell_angle_alpha   90.00000000
_cell_angle_beta   90.07220374
_cell_angle_gamma   90.00000000
_symmetry_Int_Tables_number   1
_chemical_formula_structural   Y8Zn4Ag3Ru
_chemical_formula_sum   'Y8 Zn4 Ag3 Ru1'
_cell_volume   369.44069920
_cell_formula_units_Z   1
loop_
 _symmetry_equiv_pos_site_id
 _symmetry_equiv_pos_as_xyz
  1  'x, y, z'
loop_
 _atom_site_type_symbol
 _atom_site_label
 _atom_site_symmetry_multiplicity
 _atom_site_fract_x
 _atom_site_fract_y
 _atom_site_fract_z
 _atom_site_occupancy
  Y  Y0  1  0.756383  0.493274  0.256406  1
  Y  Y1  1  0.756383  0.006726  0.256406  1
  Y  Y2  1  0.242359  0.007188  0.257641  1
  Y  Y3  1  0.242359  0.492811  0.257641  1
  Y  Y4  1  0.757638  0.492998  0.742349  1
  Y  Y5  1  0.757638  0.007002  0.742349  1
  Y  Y6  1  0.243606  0.006910  0.743616  1
  Y  Y7  1  0.243606  0.493090  0.743616  1
  Zn  Zn8  1  0.999785  0.250000  0.000006  1
  Zn  Zn9  1  0.000188  0.750001  0.000013  1
  Zn  Zn10  1  0.500188  0.250000  0.500000  1
  Zn  Zn11  1  0.499779  0.750001  0.500006  1
  Ag  Ag12  1  0.500214  0.250000  0.999973  1
  Ag  Ag13  1  0.499744  0.750001  0.000039  1
  Ag  Ag14  1  0.000230  0.750001  0.499968  1
  Ru  Ru15  1  0.999900  0.250000  0.499966  1
