# generated using pymatgen
data_Pr3Ho3TcBi2
_symmetry_space_group_name_H-M   'P 1'
_cell_length_a   8.47827800
_cell_length_b   8.47827825
_cell_length_c   4.37910900
_cell_angle_alpha   90.00000000
_cell_angle_beta   90.00000000
_cell_angle_gamma   119.99999120
_symmetry_Int_Tables_number   1
_chemical_formula_structural   Pr3Ho3TcBi2
_chemical_formula_sum   'Pr3 Ho3 Tc1 Bi2'
_cell_volume   272.60369881
_cell_formula_units_Z   1
loop_
 _symmetry_equiv_pos_site_id
 _symmetry_equiv_pos_as_xyz
  1  'x, y, z'
loop_
 _atom_site_type_symbol
 _atom_site_label
 _atom_site_symmetry_multiplicity
 _atom_site_fract_x
 _atom_site_fract_y
 _atom_site_fract_z
 _atom_site_occupancy
  Pr  Pr0  1  0.000000  0.605779  0.500000  1
  Pr  Pr1  1  0.394221  0.394221  0.500000  1
  Pr  Pr2  1  0.605779  0.000000  0.500000  1
  Ho  Ho3  1  0.227115  0.000000  0.000000  1
  Ho  Ho4  1  0.772885  0.772885  0.000000  1
  Ho  Ho5  1  0.000000  0.227115  0.000000  1
  Tc  Tc6  1  0.000000  0.000000  0.500000  1
  Bi  Bi7  1  0.333333  0.666667  0.000000  1
  Bi  Bi8  1  0.666667  0.333333  0.000000  1
