# generated using pymatgen
data_Ti5Nb5(ZnSn3)2
_symmetry_space_group_name_H-M   'P 1'
_cell_length_a   8.27362000
_cell_length_b   8.28014714
_cell_length_c   5.64415600
_cell_angle_alpha   90.00000000
_cell_angle_beta   90.00000000
_cell_angle_gamma   119.97392708
_symmetry_Int_Tables_number   1
_chemical_formula_structural   Ti5Nb5(ZnSn3)2
_chemical_formula_sum   'Ti5 Nb5 Zn2 Sn6'
_cell_volume   334.94793631
_cell_formula_units_Z   1
loop_
 _symmetry_equiv_pos_site_id
 _symmetry_equiv_pos_as_xyz
  1  'x, y, z'
loop_
 _atom_site_type_symbol
 _atom_site_label
 _atom_site_symmetry_multiplicity
 _atom_site_fract_x
 _atom_site_fract_y
 _atom_site_fract_z
 _atom_site_occupancy
  Ti  Ti0  1  0.726561  0.000000  0.250000  1
  Ti  Ti1  1  0.001213  0.274216  0.750000  1
  Ti  Ti2  1  0.999191  0.725769  0.250000  1
  Ti  Ti3  1  0.726999  0.725784  0.750000  1
  Ti  Ti4  1  0.273422  0.274231  0.250000  1
  Nb  Nb5  1  0.273289  0.000000  0.750000  1
  Nb  Nb6  1  0.333825  0.667954  0.499260  1
  Nb  Nb7  1  0.665872  0.332046  0.499260  1
  Nb  Nb8  1  0.665872  0.332046  0.000740  1
  Nb  Nb9  1  0.333825  0.667954  0.000740  1
  Zn  Zn10  1  0.997897  0.000000  0.497074  1
  Zn  Zn11  1  0.997897  0.000000  0.002926  1
  Sn  Sn12  1  0.623080  0.000000  0.750000  1
  Sn  Sn13  1  0.381560  0.000000  0.250000  1
  Sn  Sn14  1  0.997722  0.615483  0.750000  1
  Sn  Sn15  1  0.000074  0.380612  0.250000  1
  Sn  Sn16  1  0.382238  0.384517  0.750000  1
  Sn  Sn17  1  0.619461  0.619388  0.250000  1
