# generated using pymatgen
data_LuHf5(Co5B2)2
_symmetry_space_group_name_H-M   'P 1'
_cell_length_a   8.83833605
_cell_length_b   8.83833562
_cell_length_c   3.14402300
_cell_angle_alpha   90.00000000
_cell_angle_beta   90.00000000
_cell_angle_gamma   89.49188696
_symmetry_Int_Tables_number   1
_chemical_formula_structural   LuHf5(Co5B2)2
_chemical_formula_sum   'Lu1 Hf5 Co10 B4'
_cell_volume   245.58941016
_cell_formula_units_Z   1
loop_
 _symmetry_equiv_pos_site_id
 _symmetry_equiv_pos_as_xyz
  1  'x, y, z'
loop_
 _atom_site_type_symbol
 _atom_site_label
 _atom_site_symmetry_multiplicity
 _atom_site_fract_x
 _atom_site_fract_y
 _atom_site_fract_z
 _atom_site_occupancy
  Lu  Lu0  1  0.825760  0.325760  0.000000  1
  Hf  Hf1  1  0.999024  0.001531  0.000000  1
  Hf  Hf2  1  0.501531  0.499024  0.000000  1
  Hf  Hf3  1  0.324961  0.173296  0.000000  1
  Hf  Hf4  1  0.673296  0.824961  0.000000  1
  Hf  Hf5  1  0.174953  0.674953  0.000000  1
  Co  Co6  1  0.495708  0.995708  0.500000  1
  Co  Co7  1  0.005160  0.505160  0.500000  1
  Co  Co8  1  0.079170  0.229483  0.500000  1
  Co  Co9  1  0.226073  0.927902  0.500000  1
  Co  Co10  1  0.765495  0.061917  0.500000  1
  Co  Co11  1  0.931444  0.775630  0.500000  1
  Co  Co12  1  0.427902  0.726073  0.500000  1
  Co  Co13  1  0.561917  0.265495  0.500000  1
  Co  Co14  1  0.729483  0.579170  0.500000  1
  Co  Co15  1  0.275630  0.431444  0.500000  1
  B  B16  1  0.614901  0.114901  0.000000  1
  B  B17  1  0.124411  0.384121  0.000000  1
  B  B18  1  0.884121  0.624411  0.000000  1
  B  B19  1  0.379058  0.879058  0.000000  1
