# generated using pymatgen
data_Hf2Zr4Sc8Al8Rh7
_symmetry_space_group_name_H-M   'P 1'
_cell_length_a   9.10001324
_cell_length_b   9.09013642
_cell_length_c   9.09013684
_cell_angle_alpha   60.07799886
_cell_angle_beta   59.96406024
_cell_angle_gamma   59.96405996
_symmetry_Int_Tables_number   1
_chemical_formula_structural   Hf2Zr4Sc8Al8Rh7
_chemical_formula_sum   'Hf2 Zr4 Sc8 Al8 Rh7'
_cell_volume   531.72463993
_cell_formula_units_Z   1
loop_
 _symmetry_equiv_pos_site_id
 _symmetry_equiv_pos_as_xyz
  1  'x, y, z'
loop_
 _atom_site_type_symbol
 _atom_site_label
 _atom_site_symmetry_multiplicity
 _atom_site_fract_x
 _atom_site_fract_y
 _atom_site_fract_z
 _atom_site_occupancy
  Hf  Hf0  1  0.675041  0.676412  0.323588  1
  Hf  Hf1  1  0.324959  0.676412  0.323588  1
  Zr  Zr2  1  0.676186  0.325163  0.322465  1
  Zr  Zr3  1  0.321589  0.322948  0.677052  1
  Zr  Zr4  1  0.678411  0.322948  0.677052  1
  Zr  Zr5  1  0.323814  0.677535  0.674837  1
  Sc  Sc6  1  0.877644  0.877314  0.367397  1
  Sc  Sc7  1  0.877412  0.367507  0.877669  1
  Sc  Sc8  1  0.367443  0.877244  0.877811  1
  Sc  Sc9  1  0.877501  0.877244  0.877811  1
  Sc  Sc10  1  0.122588  0.122331  0.632493  1
  Sc  Sc11  1  0.122356  0.632603  0.122686  1
  Sc  Sc12  1  0.632557  0.122189  0.122756  1
  Sc  Sc13  1  0.122499  0.122189  0.122756  1
  Al  Al14  1  0.661484  0.662170  0.014860  1
  Al  Al15  1  0.662266  0.013096  0.662371  1
  Al  Al16  1  0.013983  0.662159  0.661584  1
  Al  Al17  1  0.662273  0.662159  0.661584  1
  Al  Al18  1  0.337734  0.337629  0.986904  1
  Al  Al19  1  0.338516  0.985140  0.337830  1
  Al  Al20  1  0.986017  0.338416  0.337841  1
  Al  Al21  1  0.337727  0.338416  0.337841  1
  Rh  Rh22  1  0.000000  0.999881  0.000119  1
  Rh  Rh23  1  0.000277  0.999930  0.499595  1
  Rh  Rh24  1  0.500197  0.999930  0.499595  1
  Rh  Rh25  1  0.000000  0.500581  0.499419  1
  Rh  Rh26  1  0.499803  0.500405  0.000070  1
  Rh  Rh27  1  0.999723  0.500405  0.000070  1
  Rh  Rh28  1  0.500000  0.999645  0.000355  1
