# generated using pymatgen
data_Dy3HoAl18CuIr5
_symmetry_space_group_name_H-M   'P 1'
_cell_length_a   7.55652624
_cell_length_b   7.55656118
_cell_length_c   9.43983448
_cell_angle_alpha   90.07232890
_cell_angle_beta   90.07556092
_cell_angle_gamma   119.68815460
_symmetry_Int_Tables_number   1
_chemical_formula_structural   Dy3HoAl18CuIr5
_chemical_formula_sum   'Dy3 Ho1 Al18 Cu1 Ir5'
_cell_volume   468.26977537
_cell_formula_units_Z   1
loop_
 _symmetry_equiv_pos_site_id
 _symmetry_equiv_pos_as_xyz
  1  'x, y, z'
loop_
 _atom_site_type_symbol
 _atom_site_label
 _atom_site_symmetry_multiplicity
 _atom_site_fract_x
 _atom_site_fract_y
 _atom_site_fract_z
 _atom_site_occupancy
  Dy  Dy0  1  0.995352  0.670036  0.250255  1
  Dy  Dy1  1  0.004651  0.329961  0.749741  1
  Dy  Dy2  1  0.670028  0.995354  0.250257  1
  Ho  Ho3  1  0.329971  0.004626  0.749718  1
  Al  Al4  1  0.127588  0.127585  0.250519  1
  Al  Al5  1  0.872474  0.872437  0.749484  1
  Al  Al6  1  0.000757  0.337556  0.076877  1
  Al  Al7  1  0.999293  0.662501  0.923100  1
  Al  Al8  1  0.000040  0.666256  0.573936  1
  Al  Al9  1  0.333799  0.000012  0.426136  1
  Al  Al10  1  0.000012  0.333797  0.426092  1
  Al  Al11  1  0.666157  0.999991  0.573932  1
  Al  Al12  1  0.662395  0.999246  0.923095  1
  Al  Al13  1  0.337551  0.000756  0.076835  1
  Al  Al14  1  0.333234  0.333193  0.553194  1
  Al  Al15  1  0.666765  0.666764  0.446839  1
  Al  Al16  1  0.663836  0.663834  0.055895  1
  Al  Al17  1  0.336163  0.336120  0.944073  1
  Al  Al18  1  0.338394  0.547629  0.250393  1
  Al  Al19  1  0.661561  0.452306  0.749607  1
  Al  Al20  1  0.547629  0.338393  0.250392  1
  Al  Al21  1  0.452352  0.661638  0.749608  1
  Cu  Cu22  1  0.000012  0.000003  0.999993  1
  Ir  Ir23  1  0.671832  0.328118  0.999975  1
  Ir  Ir24  1  0.328145  0.671884  0.999977  1
  Ir  Ir25  1  0.328190  0.671831  0.500024  1
  Ir  Ir26  1  0.671787  0.328169  0.500027  1
  Ir  Ir27  1  0.000033  0.000007  0.500025  1
