# generated using pymatgen
data_K3Rb4Tl(WSe4)4
_symmetry_space_group_name_H-M   'P 1'
_cell_length_a   7.35227700
_cell_length_b   10.16767865
_cell_length_c   13.03880889
_cell_angle_alpha   90.47873507
_cell_angle_beta   90.00000000
_cell_angle_gamma   90.00000000
_symmetry_Int_Tables_number   1
_chemical_formula_structural   K3Rb4Tl(WSe4)4
_chemical_formula_sum   'K3 Rb4 Tl1 W4 Se16'
_cell_volume   974.68982532
_cell_formula_units_Z   1
loop_
 _symmetry_equiv_pos_site_id
 _symmetry_equiv_pos_as_xyz
  1  'x, y, z'
loop_
 _atom_site_type_symbol
 _atom_site_label
 _atom_site_symmetry_multiplicity
 _atom_site_fract_x
 _atom_site_fract_y
 _atom_site_fract_z
 _atom_site_occupancy
  K  K0  1  0.250000  0.953943  0.654037  1
  K  K1  1  0.750000  0.545344  0.155781  1
  K  K2  1  0.750000  0.047210  0.345645  1
  Rb  Rb3  1  0.250000  0.158645  0.113123  1
  Rb  Rb4  1  0.250000  0.656332  0.388375  1
  Rb  Rb5  1  0.750000  0.842105  0.884512  1
  Rb  Rb6  1  0.750000  0.344820  0.615299  1
  Tl  Tl7  1  0.250000  0.462582  0.859661  1
  W  W8  1  0.250000  0.245828  0.431621  1
  W  W9  1  0.250000  0.746218  0.067012  1
  W  W10  1  0.750000  0.754734  0.566528  1
  W  W11  1  0.750000  0.252081  0.932801  1
  Se  Se12  1  0.006818  0.153281  0.861263  1
  Se  Se13  1  0.494018  0.654628  0.637304  1
  Se  Se14  1  0.506013  0.845979  0.137927  1
  Se  Se15  1  0.993225  0.346302  0.361595  1
  Se  Se16  1  0.993987  0.845979  0.137927  1
  Se  Se17  1  0.506775  0.346302  0.361595  1
  Se  Se18  1  0.493182  0.153281  0.861263  1
  Se  Se19  1  0.005982  0.654628  0.637304  1
  Se  Se20  1  0.250000  0.019990  0.390179  1
  Se  Se21  1  0.250000  0.519113  0.101485  1
  Se  Se22  1  0.750000  0.980260  0.608777  1
  Se  Se23  1  0.750000  0.477817  0.892211  1
  Se  Se24  1  0.250000  0.279338  0.609532  1
  Se  Se25  1  0.250000  0.772211  0.888315  1
  Se  Se26  1  0.750000  0.720938  0.388190  1
  Se  Se27  1  0.750000  0.220111  0.110735  1
