# generated using pymatgen
data_Eu5CdHg4
_symmetry_space_group_name_H-M   'P 1'
_cell_length_a   3.94371500
_cell_length_b   3.94371500
_cell_length_c   19.41804000
_cell_angle_alpha   90.00000000
_cell_angle_beta   90.00000000
_cell_angle_gamma   90.00000000
_symmetry_Int_Tables_number   1
_chemical_formula_structural   Eu5CdHg4
_chemical_formula_sum   'Eu5 Cd1 Hg4'
_cell_volume   302.00660132
_cell_formula_units_Z   1
loop_
 _symmetry_equiv_pos_site_id
 _symmetry_equiv_pos_as_xyz
  1  'x, y, z'
loop_
 _atom_site_type_symbol
 _atom_site_label
 _atom_site_symmetry_multiplicity
 _atom_site_fract_x
 _atom_site_fract_y
 _atom_site_fract_z
 _atom_site_occupancy
  Eu  Eu0  1  0.500000  0.500000  0.102380  1
  Eu  Eu1  1  0.500000  0.500000  0.299715  1
  Eu  Eu2  1  0.500000  0.500000  0.500000  1
  Eu  Eu3  1  0.500000  0.500000  0.700285  1
  Eu  Eu4  1  0.500000  0.500000  0.897620  1
  Cd  Cd5  1  0.000000  0.000000  0.000000  1
  Hg  Hg6  1  0.000000  0.000000  0.199047  1
  Hg  Hg7  1  0.000000  0.000000  0.399937  1
  Hg  Hg8  1  0.000000  0.000000  0.600063  1
  Hg  Hg9  1  0.000000  0.000000  0.800953  1
