# generated using pymatgen
data_Cs4Al3GaH16
_symmetry_space_group_name_H-M   'P 1'
_cell_length_a   6.04929100
_cell_length_b   8.02604050
_cell_length_c   10.11644263
_cell_angle_alpha   90.04060396
_cell_angle_beta   90.00000000
_cell_angle_gamma   90.00000000
_symmetry_Int_Tables_number   1
_chemical_formula_structural   Cs4Al3GaH16
_chemical_formula_sum   'Cs4 Al3 Ga1 H16'
_cell_volume   491.17192840
_cell_formula_units_Z   1
loop_
 _symmetry_equiv_pos_site_id
 _symmetry_equiv_pos_as_xyz
  1  'x, y, z'
loop_
 _atom_site_type_symbol
 _atom_site_label
 _atom_site_symmetry_multiplicity
 _atom_site_fract_x
 _atom_site_fract_y
 _atom_site_fract_z
 _atom_site_occupancy
  Cs  Cs0  1  0.250000  0.335689  0.684455  1
  Cs  Cs1  1  0.250000  0.164114  0.184962  1
  Cs  Cs2  1  0.750000  0.663969  0.315597  1
  Cs  Cs3  1  0.750000  0.835609  0.815313  1
  Al  Al4  1  0.250000  0.696102  0.060126  1
  Al  Al5  1  0.250000  0.804043  0.559926  1
  Al  Al6  1  0.750000  0.304015  0.939893  1
  Ga  Ga7  1  0.750000  0.196318  0.440013  1
  H  H8  1  0.250000  0.617916  0.910940  1
  H  H9  1  0.250000  0.881751  0.410795  1
  H  H10  1  0.750000  0.382203  0.088974  1
  H  H11  1  0.750000  0.119577  0.585560  1
  H  H12  1  0.250000  0.553244  0.175252  1
  H  H13  1  0.250000  0.946753  0.675314  1
  H  H14  1  0.750000  0.446767  0.824792  1
  H  H15  1  0.750000  0.056345  0.327339  1
  H  H16  1  0.968756  0.185335  0.920148  1
  H  H17  1  0.535419  0.312453  0.420578  1
  H  H18  1  0.468831  0.814670  0.079826  1
  H  H19  1  0.031267  0.685334  0.579822  1
  H  H20  1  0.031169  0.814670  0.079826  1
  H  H21  1  0.468733  0.685334  0.579822  1
  H  H22  1  0.531244  0.185335  0.920148  1
  H  H23  1  0.964581  0.312453  0.420578  1
