# generated using pymatgen
data_Tb6Y9Th(CdPt)4
_symmetry_space_group_name_H-M   'P 1'
_cell_length_a   9.74762966
_cell_length_b   9.74220793
_cell_length_c   9.73902527
_cell_angle_alpha   60.05245756
_cell_angle_beta   60.05459333
_cell_angle_gamma   60.06738447
_symmetry_Int_Tables_number   1
_chemical_formula_structural   Tb6Y9Th(CdPt)4
_chemical_formula_sum   'Tb6 Y9 Th1 Cd4 Pt4'
_cell_volume   654.83040226
_cell_formula_units_Z   1
loop_
 _symmetry_equiv_pos_site_id
 _symmetry_equiv_pos_as_xyz
  1  'x, y, z'
loop_
 _atom_site_type_symbol
 _atom_site_label
 _atom_site_symmetry_multiplicity
 _atom_site_fract_x
 _atom_site_fract_y
 _atom_site_fract_z
 _atom_site_occupancy
  Tb  Tb0  1  0.353912  0.353156  0.939353  1
  Tb  Tb1  1  0.353967  0.939278  0.353249  1
  Tb  Tb2  1  0.939445  0.353920  0.354046  1
  Tb  Tb3  1  0.812651  0.189206  0.188997  1
  Tb  Tb4  1  0.190187  0.810898  0.810834  1
  Tb  Tb5  1  0.189106  0.812666  0.189215  1
  Y  Y6  1  0.810249  0.190824  0.810399  1
  Y  Y7  1  0.189424  0.189729  0.811960  1
  Y  Y8  1  0.810121  0.810428  0.190859  1
  Y  Y9  1  0.936446  0.565918  0.565935  1
  Y  Y10  1  0.564259  0.936458  0.936535  1
  Y  Y11  1  0.565759  0.936383  0.565809  1
  Y  Y12  1  0.936498  0.564224  0.936510  1
  Y  Y13  1  0.565782  0.565769  0.936345  1
  Y  Y14  1  0.936606  0.936575  0.564119  1
  Th  Th15  1  0.349057  0.349483  0.349555  1
  Cd  Cd16  1  0.582172  0.581702  0.581675  1
  Cd  Cd17  1  0.582469  0.582514  0.252572  1
  Cd  Cd18  1  0.582251  0.252440  0.582697  1
  Cd  Cd19  1  0.252471  0.582153  0.582579  1
  Pt  Pt20  1  0.143914  0.143820  0.144663  1
  Pt  Pt21  1  0.141760  0.141088  0.569418  1
  Pt  Pt22  1  0.141955  0.569497  0.141064  1
  Pt  Pt23  1  0.569535  0.141870  0.141610  1
