# generated using pymatgen
data_Ac3P6Ir5Ru
_symmetry_space_group_name_H-M   'P 1'
_cell_length_a   6.83997061
_cell_length_b   6.83997041
_cell_length_c   7.24421402
_cell_angle_alpha   90.33381226
_cell_angle_beta   89.66619052
_cell_angle_gamma   119.59633794
_symmetry_Int_Tables_number   1
_chemical_formula_structural   Ac3P6Ir5Ru
_chemical_formula_sum   'Ac3 P6 Ir5 Ru1'
_cell_volume   294.69494360
_cell_formula_units_Z   1
loop_
 _symmetry_equiv_pos_site_id
 _symmetry_equiv_pos_as_xyz
  1  'x, y, z'
loop_
 _atom_site_type_symbol
 _atom_site_label
 _atom_site_symmetry_multiplicity
 _atom_site_fract_x
 _atom_site_fract_y
 _atom_site_fract_z
 _atom_site_occupancy
  Ac  Ac0  1  0.396964  0.396964  0.500000  1
  Ac  Ac1  1  0.604544  0.002008  0.168127  1
  Ac  Ac2  1  0.002008  0.604544  0.831873  1
  P  P3  1  0.871407  0.209030  0.547519  1
  P  P4  1  0.209030  0.871407  0.452481  1
  P  P5  1  0.130439  0.342535  0.120563  1
  P  P6  1  0.788477  0.661346  0.214831  1
  P  P7  1  0.342535  0.130439  0.879437  1
  P  P8  1  0.661346  0.788477  0.785169  1
  Ir  Ir9  1  0.128637  0.999382  0.165567  1
  Ir  Ir10  1  0.504048  0.504048  0.000000  1
  Ir  Ir11  1  0.995396  0.498096  0.335286  1
  Ir  Ir12  1  0.498096  0.995396  0.664714  1
  Ir  Ir13  1  0.999382  0.128637  0.834433  1
  Ru  Ru14  1  0.867690  0.867690  0.500000  1
