# generated using pymatgen
data_Ta2BeSi2Ni
_symmetry_space_group_name_H-M   'P 1'
_cell_length_a   6.18543000
_cell_length_b   3.68117100
_cell_length_c   7.04232500
_cell_angle_alpha   90.00000000
_cell_angle_beta   90.00000000
_cell_angle_gamma   90.00000000
_symmetry_Int_Tables_number   1
_chemical_formula_structural   Ta2BeSi2Ni
_chemical_formula_sum   'Ta4 Be2 Si4 Ni2'
_cell_volume   160.35110317
_cell_formula_units_Z   2
loop_
 _symmetry_equiv_pos_site_id
 _symmetry_equiv_pos_as_xyz
  1  'x, y, z'
loop_
 _atom_site_type_symbol
 _atom_site_label
 _atom_site_symmetry_multiplicity
 _atom_site_fract_x
 _atom_site_fract_y
 _atom_site_fract_z
 _atom_site_occupancy
  Ta  Ta0  1  0.511049  0.750001  0.181576  1
  Ta  Ta1  1  0.011050  0.750001  0.318424  1
  Ta  Ta2  1  0.001346  0.250001  0.672884  1
  Ta  Ta3  1  0.501347  0.250001  0.827117  1
  Be  Be4  1  0.808904  0.250001  0.089216  1
  Be  Be5  1  0.308904  0.250001  0.410785  1
  Si  Si6  1  0.206006  0.250001  0.099413  1
  Si  Si7  1  0.706006  0.250001  0.400588  1
  Si  Si8  1  0.299905  0.750001  0.603697  1
  Si  Si9  1  0.799907  0.750001  0.896304  1
  Ni  Ni10  1  0.672789  0.750001  0.581320  1
  Ni  Ni11  1  0.172789  0.750001  0.918681  1
