# generated using pymatgen
data_Er5U(SnIr)6
_symmetry_space_group_name_H-M   'P 1'
_cell_length_a   7.48297191
_cell_length_b   7.56858364
_cell_length_c   7.74989700
_cell_angle_alpha   90.00000000
_cell_angle_beta   90.00000000
_cell_angle_gamma   120.39245124
_symmetry_Int_Tables_number   1
_chemical_formula_structural   Er5U(SnIr)6
_chemical_formula_sum   'Er5 U1 Sn6 Ir6'
_cell_volume   378.60314014
_cell_formula_units_Z   1
loop_
 _symmetry_equiv_pos_site_id
 _symmetry_equiv_pos_as_xyz
  1  'x, y, z'
loop_
 _atom_site_type_symbol
 _atom_site_label
 _atom_site_symmetry_multiplicity
 _atom_site_fract_x
 _atom_site_fract_y
 _atom_site_fract_z
 _atom_site_occupancy
  Er  Er0  1  0.401913  0.003001  0.250000  1
  Er  Er1  1  0.594407  0.592207  0.750000  1
  Er  Er2  1  0.598976  0.600111  0.250000  1
  Er  Er3  1  0.000969  0.403918  0.750000  1
  Er  Er4  1  0.405450  0.997124  0.750000  1
  U  U5  1  0.998545  0.413116  0.250000  1
  Sn  Sn6  1  0.268567  0.261667  0.500985  1
  Sn  Sn7  1  0.268567  0.261667  0.999015  1
  Sn  Sn8  1  0.731208  0.992623  0.998992  1
  Sn  Sn9  1  0.000281  0.746786  0.500013  1
  Sn  Sn10  1  0.731208  0.992623  0.501008  1
  Sn  Sn11  1  0.000281  0.746786  0.999987  1
  Ir  Ir12  1  0.686546  0.336393  0.487262  1
  Ir  Ir13  1  0.686546  0.336393  0.012738  1
  Ir  Ir14  1  0.313175  0.649703  0.015783  1
  Ir  Ir15  1  0.313175  0.649703  0.484217  1
  Ir  Ir16  1  0.000165  0.000239  0.750000  1
  Ir  Ir17  1  0.000021  0.015944  0.250000  1
