# generated using pymatgen
data_PrHo7Sc12Ga3Si13
_symmetry_space_group_name_H-M   'P 1'
_cell_length_a   7.14160970
_cell_length_b   7.41785621
_cell_length_c   14.13575852
_cell_angle_alpha   90.07158374
_cell_angle_beta   90.11572162
_cell_angle_gamma   90.09425170
_symmetry_Int_Tables_number   1
_chemical_formula_structural   PrHo7Sc12Ga3Si13
_chemical_formula_sum   'Pr1 Ho7 Sc12 Ga3 Si13'
_cell_volume   748.84481298
_cell_formula_units_Z   1
loop_
 _symmetry_equiv_pos_site_id
 _symmetry_equiv_pos_as_xyz
  1  'x, y, z'
loop_
 _atom_site_type_symbol
 _atom_site_label
 _atom_site_symmetry_multiplicity
 _atom_site_fract_x
 _atom_site_fract_y
 _atom_site_fract_z
 _atom_site_occupancy
  Pr  Pr0  1  0.010793  0.173075  0.097292  1
  Ho  Ho1  1  0.011940  0.174392  0.401331  1
  Ho  Ho2  1  0.513799  0.323962  0.402876  1
  Ho  Ho3  1  0.488835  0.675052  0.898649  1
  Ho  Ho4  1  0.489032  0.678310  0.598353  1
  Ho  Ho5  1  0.986134  0.825765  0.598382  1
  Ho  Ho6  1  0.987857  0.826021  0.898095  1
  Ho  Ho7  1  0.510523  0.324897  0.099103  1
  Sc  Sc8  1  0.332380  0.173977  0.625931  1
  Sc  Sc9  1  0.669606  0.823416  0.376198  1
  Sc  Sc10  1  0.662542  0.998193  0.749612  1
  Sc  Sc11  1  0.172527  0.676835  0.375665  1
  Sc  Sc12  1  0.829568  0.323593  0.873111  1
  Sc  Sc13  1  0.826967  0.323806  0.624917  1
  Sc  Sc14  1  0.837241  0.498327  0.252962  1
  Sc  Sc15  1  0.337542  0.001367  0.252508  1
  Sc  Sc16  1  0.330410  0.176401  0.873241  1
  Sc  Sc17  1  0.170818  0.673003  0.126129  1
  Sc  Sc18  1  0.669411  0.825740  0.126512  1
  Sc  Sc19  1  0.161776  0.501472  0.750866  1
  Ga  Ga20  1  0.159831  0.461011  0.539581  1
  Ga  Ga21  1  0.839243  0.543232  0.036982  1
  Ga  Ga22  1  0.345116  0.958286  0.037416  1
  Si  Si23  1  0.285438  0.871994  0.748654  1
  Si  Si24  1  0.467314  0.616974  0.251233  1
  Si  Si25  1  0.033016  0.118553  0.749356  1
  Si  Si26  1  0.531958  0.384250  0.748928  1
  Si  Si27  1  0.965522  0.878264  0.252370  1
  Si  Si28  1  0.711072  0.126315  0.253288  1
  Si  Si29  1  0.158953  0.467725  0.958524  1
  Si  Si30  1  0.656681  0.035898  0.538793  1
  Si  Si31  1  0.343029  0.964410  0.461529  1
  Si  Si32  1  0.842705  0.536148  0.461239  1
  Si  Si33  1  0.786628  0.628584  0.749052  1
  Si  Si34  1  0.217312  0.374772  0.252813  1
  Si  Si35  1  0.656482  0.035980  0.958509  1
