# generated using pymatgen
data_La21Fe8Hg7C12
_symmetry_space_group_name_H-M   'P 1'
_cell_length_a   11.66350607
_cell_length_b   11.66348676
_cell_length_c   11.66424800
_cell_angle_alpha   60.00289501
_cell_angle_beta   60.00274559
_cell_angle_gamma   60.00071501
_symmetry_Int_Tables_number   1
_chemical_formula_structural   La21Fe8Hg7C12
_chemical_formula_sum   'La21 Fe8 Hg7 C12'
_cell_volume   1122.07045320
_cell_formula_units_Z   1
loop_
 _symmetry_equiv_pos_site_id
 _symmetry_equiv_pos_as_xyz
  1  'x, y, z'
loop_
 _atom_site_type_symbol
 _atom_site_label
 _atom_site_symmetry_multiplicity
 _atom_site_fract_x
 _atom_site_fract_y
 _atom_site_fract_z
 _atom_site_occupancy
  La  La0  1  0.000038  0.999977  0.656004  1
  La  La1  1  0.999944  0.656112  0.344102  1
  La  La2  1  0.636628  0.636436  0.636313  1
  La  La3  1  0.000069  0.343880  0.656056  1
  La  La4  1  0.655978  0.000045  0.999998  1
  La  La5  1  0.363575  0.363491  0.909390  1
  La  La6  1  0.636732  0.090392  0.636442  1
  La  La7  1  0.655980  0.000001  0.344068  1
  La  La8  1  0.999918  0.999844  0.344130  1
  La  La9  1  0.909409  0.363570  0.363558  1
  La  La10  1  0.999990  0.656118  0.999917  1
  La  La11  1  0.363528  0.909515  0.363490  1
  La  La12  1  0.656020  0.343921  0.000037  1
  La  La13  1  0.000048  0.343901  0.999985  1
  La  La14  1  0.636654  0.636460  0.090524  1
  La  La15  1  0.363642  0.363453  0.363472  1
  La  La16  1  0.343918  0.656086  0.999991  1
  La  La17  1  0.343913  0.000037  0.999995  1
  La  La18  1  0.090418  0.636597  0.636518  1
  La  La19  1  0.343906  0.000022  0.656060  1
  La  La20  1  0.500062  0.499941  0.499895  1
  Fe  Fe21  1  0.196029  0.411922  0.195998  1
  Fe  Fe22  1  0.803874  0.588102  0.803982  1
  Fe  Fe23  1  0.195855  0.196050  0.196073  1
  Fe  Fe24  1  0.803841  0.803888  0.588276  1
  Fe  Fe25  1  0.196045  0.196104  0.411797  1
  Fe  Fe26  1  0.588236  0.803832  0.803975  1
  Fe  Fe27  1  0.803824  0.804103  0.803931  1
  Fe  Fe28  1  0.411679  0.196046  0.196133  1
  Hg  Hg29  1  0.288369  0.288260  0.711673  1
  Hg  Hg30  1  0.288344  0.711771  0.288152  1
  Hg  Hg31  1  0.288317  0.711786  0.711716  1
  Hg  Hg32  1  0.711844  0.288233  0.288184  1
  Hg  Hg33  1  0.000069  0.999939  0.000008  1
  Hg  Hg34  1  0.711839  0.288191  0.711762  1
  Hg  Hg35  1  0.711920  0.711915  0.288077  1
  C  C36  1  0.389880  0.389964  0.110074  1
  C  C37  1  0.389897  0.110069  0.390001  1
  C  C38  1  0.609976  0.889971  0.890035  1
  C  C39  1  0.389872  0.110095  0.110049  1
  C  C40  1  0.889994  0.889917  0.610105  1
  C  C41  1  0.889978  0.609955  0.610095  1
  C  C42  1  0.610000  0.610029  0.889992  1
  C  C43  1  0.889940  0.610041  0.889955  1
  C  C44  1  0.110032  0.390006  0.389982  1
  C  C45  1  0.609994  0.889930  0.610066  1
  C  C46  1  0.109979  0.110059  0.389945  1
  C  C47  1  0.110006  0.390022  0.110021  1
