# generated using pymatgen
data_TbHo11InCo4Pd
_symmetry_space_group_name_H-M   'P 1'
_cell_length_a   8.30809915
_cell_length_b   8.30809678
_cell_length_c   8.30604499
_cell_angle_alpha   110.94849658
_cell_angle_beta   110.48790701
_cell_angle_gamma   107.01586543
_symmetry_Int_Tables_number   1
_chemical_formula_structural   TbHo11InCo4Pd
_chemical_formula_sum   'Tb1 Ho11 In1 Co4 Pd1'
_cell_volume   440.67067516
_cell_formula_units_Z   1
loop_
 _symmetry_equiv_pos_site_id
 _symmetry_equiv_pos_as_xyz
  1  'x, y, z'
loop_
 _atom_site_type_symbol
 _atom_site_label
 _atom_site_symmetry_multiplicity
 _atom_site_fract_x
 _atom_site_fract_y
 _atom_site_fract_z
 _atom_site_occupancy
  Tb  Tb0  1  0.187754  0.294507  0.482263  1
  Ho  Ho1  1  0.812747  0.705868  0.518613  1
  Ho  Ho2  1  0.187888  0.706429  0.894317  1
  Ho  Ho3  1  0.811632  0.294570  0.106201  1
  Ho  Ho4  1  0.314355  0.618727  0.303850  1
  Ho  Ho5  1  0.686371  0.381677  0.696308  1
  Ho  Ho6  1  0.314631  0.009936  0.696308  1
  Ho  Ho7  1  0.685123  0.989495  0.303850  1
  Ho  Ho8  1  0.414619  0.214516  0.199829  1
  Ho  Ho9  1  0.587381  0.787196  0.800906  1
  Ho  Ho10  1  0.013710  0.213524  0.800906  1
  Ho  Ho11  1  0.985313  0.785211  0.199829  1
  In  In12  1  0.499860  0.499822  0.999682  1
  Co  Co13  1  0.111083  0.612711  0.499699  1
  Co  Co14  1  0.886989  0.388617  0.499699  1
  Co  Co15  1  0.380485  0.998973  0.379457  1
  Co  Co16  1  0.619258  0.000192  0.619449  1
  Pd  Pd17  1  0.000802  0.998033  0.998835  1
