# generated using pymatgen
data_TcPb3Cl2O5
_symmetry_space_group_name_H-M   'P 1'
_cell_length_a   7.34334109
_cell_length_b   7.34334035
_cell_length_c   11.09149300
_cell_angle_alpha   90.00000000
_cell_angle_beta   90.00000000
_cell_angle_gamma   134.72667753
_symmetry_Int_Tables_number   1
_chemical_formula_structural   TcPb3Cl2O5
_chemical_formula_sum   'Tc2 Pb6 Cl4 O10'
_cell_volume   424.93672579
_cell_formula_units_Z   2
loop_
 _symmetry_equiv_pos_site_id
 _symmetry_equiv_pos_as_xyz
  1  'x, y, z'
loop_
 _atom_site_type_symbol
 _atom_site_label
 _atom_site_symmetry_multiplicity
 _atom_site_fract_x
 _atom_site_fract_y
 _atom_site_fract_z
 _atom_site_occupancy
  Tc  Tc0  1  0.769055  0.230945  0.250000  1
  Tc  Tc1  1  0.230945  0.769055  0.750000  1
  Pb  Pb2  1  0.652340  0.347660  0.529551  1
  Pb  Pb3  1  0.347660  0.652340  0.029551  1
  Pb  Pb4  1  0.652340  0.347660  0.970449  1
  Pb  Pb5  1  0.892577  0.107423  0.750000  1
  Pb  Pb6  1  0.347660  0.652340  0.470449  1
  Pb  Pb7  1  0.107423  0.892577  0.250000  1
  Cl  Cl8  1  0.520325  0.479675  0.250000  1
  Cl  Cl9  1  0.000000  0.000000  0.500000  1
  Cl  Cl10  1  0.479675  0.520325  0.750000  1
  Cl  Cl11  1  0.000000  0.000000  0.000000  1
  O  O12  1  0.497425  0.041584  0.368956  1
  O  O13  1  0.041584  0.497425  0.631044  1
  O  O14  1  0.502575  0.958416  0.868956  1
  O  O15  1  0.502575  0.958416  0.631044  1
  O  O16  1  0.106239  0.893761  0.750000  1
  O  O17  1  0.041584  0.497425  0.868956  1
  O  O18  1  0.497425  0.041584  0.131044  1
  O  O19  1  0.958416  0.502575  0.368956  1
  O  O20  1  0.893761  0.106239  0.250000  1
  O  O21  1  0.958416  0.502575  0.131044  1
