# generated using pymatgen
data_SrLi4Sm3Si8
_symmetry_space_group_name_H-M   'P 1'
_cell_length_a   3.85346400
_cell_length_b   7.82968126
_cell_length_c   10.51834985
_cell_angle_alpha   89.57515290
_cell_angle_beta   90.00000000
_cell_angle_gamma   90.00000000
_symmetry_Int_Tables_number   1
_chemical_formula_structural   SrLi4Sm3Si8
_chemical_formula_sum   'Sr1 Li4 Sm3 Si8'
_cell_volume   317.34456231
_cell_formula_units_Z   1
loop_
 _symmetry_equiv_pos_site_id
 _symmetry_equiv_pos_as_xyz
  1  'x, y, z'
loop_
 _atom_site_type_symbol
 _atom_site_label
 _atom_site_symmetry_multiplicity
 _atom_site_fract_x
 _atom_site_fract_y
 _atom_site_fract_z
 _atom_site_occupancy
  Sr  Sr0  1  0.750000  0.361337  0.365167  1
  Li  Li1  1  0.250000  0.000220  0.392229  1
  Li  Li2  1  0.750000  0.007552  0.611479  1
  Li  Li3  1  0.250000  0.491192  0.108850  1
  Li  Li4  1  0.750000  0.506484  0.892440  1
  Sm  Sm5  1  0.250000  0.129085  0.863957  1
  Sm  Sm6  1  0.750000  0.865304  0.131694  1
  Sm  Sm7  1  0.250000  0.634449  0.635454  1
  Si  Si8  1  0.750000  0.262059  0.062196  1
  Si  Si9  1  0.250000  0.730412  0.930422  1
  Si  Si10  1  0.750000  0.777897  0.431612  1
  Si  Si11  1  0.250000  0.232077  0.578619  1
  Si  Si12  1  0.750000  0.834170  0.819012  1
  Si  Si13  1  0.250000  0.154619  0.169244  1
  Si  Si14  1  0.750000  0.337462  0.686211  1
  Si  Si15  1  0.250000  0.675681  0.321415  1
