# generated using pymatgen
data_Ca5Ge7As5Rh19
_symmetry_space_group_name_H-M   'P 1'
_cell_length_a   13.13718400
_cell_length_b   13.17298640
_cell_length_c   4.02806700
_cell_angle_alpha   90.00000000
_cell_angle_beta   90.00000000
_cell_angle_gamma   119.91012937
_symmetry_Int_Tables_number   1
_chemical_formula_structural   Ca5Ge7As5Rh19
_chemical_formula_sum   'Ca5 Ge7 As5 Rh19'
_cell_volume   604.23576414
_cell_formula_units_Z   1
loop_
 _symmetry_equiv_pos_site_id
 _symmetry_equiv_pos_as_xyz
  1  'x, y, z'
loop_
 _atom_site_type_symbol
 _atom_site_label
 _atom_site_symmetry_multiplicity
 _atom_site_fract_x
 _atom_site_fract_y
 _atom_site_fract_z
 _atom_site_occupancy
  Ca  Ca0  1  0.999338  0.183427  0.500000  1
  Ca  Ca1  1  0.815911  0.816573  0.500000  1
  Ca  Ca2  1  0.183930  0.000000  0.500000  1
  Ca  Ca3  1  0.666764  0.332941  0.000000  1
  Ca  Ca4  1  0.333822  0.667059  0.000000  1
  Ge  Ge5  1  0.482884  0.318496  0.500000  1
  Ge  Ge6  1  0.818903  0.000000  0.000000  1
  Ge  Ge7  1  0.682260  0.163951  0.500000  1
  Ge  Ge8  1  0.835812  0.517373  0.500000  1
  Ge  Ge9  1  0.518308  0.836049  0.500000  1
  Ge  Ge10  1  0.164388  0.681504  0.500000  1
  Ge  Ge11  1  0.318439  0.482627  0.500000  1
  As  As12  1  0.180892  0.181590  0.000000  1
  As  As13  1  0.999302  0.818410  0.000000  1
  As  As14  1  0.367987  0.000000  0.000000  1
  As  As15  1  0.999603  0.367561  0.000000  1
  As  As16  1  0.632042  0.632439  0.000000  1
  Rh  Rh17  1  0.805054  0.181984  0.000000  1
  Rh  Rh18  1  0.375354  0.194544  0.000000  1
  Rh  Rh19  1  0.644763  0.519227  0.500000  1
  Rh  Rh20  1  0.874768  0.355634  0.500000  1
  Rh  Rh21  1  0.355015  0.874253  0.500000  1
  Rh  Rh22  1  0.519134  0.644366  0.500000  1
  Rh  Rh23  1  0.125536  0.480773  0.500000  1
  Rh  Rh24  1  0.818952  0.624236  0.000000  1
  Rh  Rh25  1  0.623070  0.818016  0.000000  1
  Rh  Rh26  1  0.180811  0.805456  0.000000  1
  Rh  Rh27  1  0.194717  0.375764  0.000000  1
  Rh  Rh28  1  0.999800  0.717223  0.500000  1
  Rh  Rh29  1  0.282577  0.282777  0.500000  1
  Rh  Rh30  1  0.716853  0.000000  0.500000  1
  Rh  Rh31  1  0.000247  0.552100  0.000000  1
  Rh  Rh32  1  0.448147  0.447900  0.000000  1
  Rh  Rh33  1  0.551881  0.000000  0.000000  1
  Rh  Rh34  1  0.001976  0.000000  0.000000  1
  Rh  Rh35  1  0.480762  0.125747  0.500000  1
