# generated using pymatgen
data_Ho4HfMo3F28
_symmetry_space_group_name_H-M   'P 1'
_cell_length_a   5.72746815
_cell_length_b   9.13642262
_cell_length_c   12.26125900
_cell_angle_alpha   63.17279112
_cell_angle_beta   89.90949664
_cell_angle_gamma   89.95121647
_symmetry_Int_Tables_number   1
_chemical_formula_structural   Ho4HfMo3F28
_chemical_formula_sum   'Ho4 Hf1 Mo3 F28'
_cell_volume   572.55752090
_cell_formula_units_Z   1
loop_
 _symmetry_equiv_pos_site_id
 _symmetry_equiv_pos_as_xyz
  1  'x, y, z'
loop_
 _atom_site_type_symbol
 _atom_site_label
 _atom_site_symmetry_multiplicity
 _atom_site_fract_x
 _atom_site_fract_y
 _atom_site_fract_z
 _atom_site_occupancy
  Ho  Ho0  1  0.762281  0.811640  0.767010  1
  Ho  Ho1  1  0.259580  0.185106  0.731349  1
  Ho  Ho2  1  0.239103  0.186537  0.234466  1
  Ho  Ho3  1  0.737253  0.816639  0.264869  1
  Hf  Hf4  1  0.754305  0.273645  0.955399  1
  Mo  Mo5  1  0.257239  0.726871  0.544038  1
  Mo  Mo6  1  0.243516  0.726809  0.045048  1
  Mo  Mo7  1  0.744367  0.274075  0.454928  1
  F  F8  1  0.458570  0.708412  0.924868  1
  F  F9  1  0.959508  0.290581  0.575920  1
  F  F10  1  0.523825  0.289177  0.073527  1
  F  F11  1  0.041131  0.710339  0.424078  1
  F  F12  1  0.457008  0.281793  0.554329  1
  F  F13  1  0.957708  0.720904  0.944533  1
  F  F14  1  0.542268  0.718969  0.443559  1
  F  F15  1  0.031669  0.281525  0.055272  1
  F  F16  1  0.760743  0.519626  0.859668  1
  F  F17  1  0.260985  0.484000  0.641707  1
  F  F18  1  0.237198  0.483873  0.141059  1
  F  F19  1  0.743086  0.516300  0.358615  1
  F  F20  1  0.756425  0.029825  0.058484  1
  F  F21  1  0.256604  0.968116  0.447473  1
  F  F22  1  0.249284  0.967581  0.946987  1
  F  F23  1  0.746346  0.033417  0.551872  1
  F  F24  1  0.984749  0.736776  0.650462  1
  F  F25  1  0.495939  0.260118  0.847885  1
  F  F26  1  0.019466  0.264743  0.349964  1
  F  F27  1  0.515499  0.734642  0.152025  1
  F  F28  1  0.031870  0.750068  0.166517  1
  F  F29  1  0.532593  0.251141  0.333106  1
  F  F30  1  0.977330  0.248155  0.835290  1
  F  F31  1  0.470555  0.749153  0.665455  1
  F  F32  1  0.439143  0.982493  0.237430  1
  F  F33  1  0.941956  0.018886  0.265018  1
  F  F34  1  0.554599  0.015373  0.762225  1
  F  F35  1  0.056301  0.982692  0.735568  1
