# generated using pymatgen
data_GaSi7MoPt6W
_symmetry_space_group_name_H-M   'P 1'
_cell_length_a   3.53344600
_cell_length_b   5.56655000
_cell_length_c   24.78112300
_cell_angle_alpha   90.00000000
_cell_angle_beta   90.00000000
_cell_angle_gamma   90.00000000
_symmetry_Int_Tables_number   1
_chemical_formula_structural   GaSi7MoPt6W
_chemical_formula_sum   'Ga2 Si14 Mo2 Pt12 W2'
_cell_volume   487.42248134
_cell_formula_units_Z   2
loop_
 _symmetry_equiv_pos_site_id
 _symmetry_equiv_pos_as_xyz
  1  'x, y, z'
loop_
 _atom_site_type_symbol
 _atom_site_label
 _atom_site_symmetry_multiplicity
 _atom_site_fract_x
 _atom_site_fract_y
 _atom_site_fract_z
 _atom_site_occupancy
  Ga  Ga0  1  0.250000  0.182633  0.520102  1
  Ga  Ga1  1  0.750000  0.317367  0.020102  1
  Si  Si2  1  0.250000  0.677018  0.980959  1
  Si  Si3  1  0.750000  0.822982  0.480959  1
  Si  Si4  1  0.750000  0.319642  0.644813  1
  Si  Si5  1  0.250000  0.180358  0.144813  1
  Si  Si6  1  0.750000  0.819800  0.853704  1
  Si  Si7  1  0.250000  0.680200  0.353704  1
  Si  Si8  1  0.250000  0.664146  0.609811  1
  Si  Si9  1  0.750000  0.835854  0.109811  1
  Si  Si10  1  0.250000  0.164911  0.890076  1
  Si  Si11  1  0.750000  0.335089  0.390076  1
  Si  Si12  1  0.750000  0.829473  0.726584  1
  Si  Si13  1  0.250000  0.670527  0.226584  1
  Si  Si14  1  0.750000  0.329196  0.773870  1
  Si  Si15  1  0.250000  0.170804  0.273870  1
  Mo  Mo16  1  0.250000  0.003719  0.789526  1
  Mo  Mo17  1  0.750000  0.496281  0.289526  1
  Pt  Pt18  1  0.750000  0.991925  0.578118  1
  Pt  Pt19  1  0.250000  0.508075  0.078118  1
  Pt  Pt20  1  0.750000  0.500992  0.923439  1
  Pt  Pt21  1  0.250000  0.999008  0.423439  1
  Pt  Pt22  1  0.250000  0.003473  0.671734  1
  Pt  Pt23  1  0.750000  0.496527  0.171734  1
  Pt  Pt24  1  0.250000  0.504017  0.828904  1
  Pt  Pt25  1  0.750000  0.995983  0.328904  1
  Pt  Pt26  1  0.750000  0.506924  0.549751  1
  Pt  Pt27  1  0.250000  0.993076  0.049751  1
  Pt  Pt28  1  0.750000  0.995599  0.948584  1
  Pt  Pt29  1  0.250000  0.504401  0.448584  1
  W  W30  1  0.250000  0.502085  0.710026  1
  W  W31  1  0.750000  0.997915  0.210026  1
