# generated using pymatgen
data_Dy16MgCo3NiAg3
_symmetry_space_group_name_H-M   'P 1'
_cell_length_a   9.43896074
_cell_length_b   9.44735720
_cell_length_c   9.44735639
_cell_angle_alpha   60.28347521
_cell_angle_beta   60.39594818
_cell_angle_gamma   60.39594429
_symmetry_Int_Tables_number   1
_chemical_formula_structural   Dy16MgCo3NiAg3
_chemical_formula_sum   'Dy16 Mg1 Co3 Ni1 Ag3'
_cell_volume   600.53178506
_cell_formula_units_Z   1
loop_
 _symmetry_equiv_pos_site_id
 _symmetry_equiv_pos_as_xyz
  1  'x, y, z'
loop_
 _atom_site_type_symbol
 _atom_site_label
 _atom_site_symmetry_multiplicity
 _atom_site_fract_x
 _atom_site_fract_y
 _atom_site_fract_z
 _atom_site_occupancy
  Dy  Dy0  1  0.805428  0.189457  0.189457  1
  Dy  Dy1  1  0.184589  0.813747  0.813747  1
  Dy  Dy2  1  0.186627  0.809388  0.186881  1
  Dy  Dy3  1  0.809789  0.187907  0.811734  1
  Dy  Dy4  1  0.186627  0.186881  0.809388  1
  Dy  Dy5  1  0.809789  0.811734  0.187907  1
  Dy  Dy6  1  0.935430  0.563388  0.563388  1
  Dy  Dy7  1  0.564381  0.936900  0.936900  1
  Dy  Dy8  1  0.562446  0.937086  0.563314  1
  Dy  Dy9  1  0.935643  0.564590  0.938407  1
  Dy  Dy10  1  0.562446  0.563314  0.937086  1
  Dy  Dy11  1  0.935643  0.938407  0.564590  1
  Dy  Dy12  1  0.344386  0.344742  0.344742  1
  Dy  Dy13  1  0.348890  0.348189  0.959469  1
  Dy  Dy14  1  0.348890  0.959469  0.348189  1
  Dy  Dy15  1  0.947307  0.352916  0.352916  1
  Mg  Mg16  1  0.289869  0.569794  0.569794  1
  Co  Co17  1  0.139107  0.143140  0.575396  1
  Co  Co18  1  0.139107  0.575396  0.143140  1
  Co  Co19  1  0.574455  0.142261  0.142261  1
  Ni  Ni20  1  0.139116  0.143031  0.143031  1
  Ag  Ag21  1  0.583544  0.583646  0.583646  1
  Ag  Ag22  1  0.583242  0.583552  0.251065  1
  Ag  Ag23  1  0.583242  0.251065  0.583552  1
