# generated using pymatgen
data_AlGa(SiTc)2
_symmetry_space_group_name_H-M   'P 1'
_cell_length_a   3.20453500
_cell_length_b   3.20453500
_cell_length_c   8.08742600
_cell_angle_alpha   90.00000000
_cell_angle_beta   90.00000000
_cell_angle_gamma   90.00000000
_symmetry_Int_Tables_number   1
_chemical_formula_structural   AlGa(SiTc)2
_chemical_formula_sum   'Al1 Ga1 Si2 Tc2'
_cell_volume   83.05013802
_cell_formula_units_Z   1
loop_
 _symmetry_equiv_pos_site_id
 _symmetry_equiv_pos_as_xyz
  1  'x, y, z'
loop_
 _atom_site_type_symbol
 _atom_site_label
 _atom_site_symmetry_multiplicity
 _atom_site_fract_x
 _atom_site_fract_y
 _atom_site_fract_z
 _atom_site_occupancy
  Al  Al0  1  0.750001  0.750001  0.089135  1
  Ga  Ga1  1  0.250001  0.250001  0.913436  1
  Si  Si2  1  0.750001  0.750001  0.414869  1
  Si  Si3  1  0.250001  0.250001  0.584693  1
  Tc  Tc4  1  0.250001  0.250001  0.268648  1
  Tc  Tc5  1  0.750001  0.750001  0.729220  1
