# generated using pymatgen
data_SrPr6PtBr12
_symmetry_space_group_name_H-M   'P 1'
_cell_length_a   9.66677180
_cell_length_b   9.66479294
_cell_length_c   9.67106508
_cell_angle_alpha   106.26081456
_cell_angle_beta   106.37094698
_cell_angle_gamma   106.24487863
_symmetry_Int_Tables_number   1
_chemical_formula_structural   SrPr6PtBr12
_chemical_formula_sum   'Sr1 Pr6 Pt1 Br12'
_cell_volume   766.54225763
_cell_formula_units_Z   1
loop_
 _symmetry_equiv_pos_site_id
 _symmetry_equiv_pos_as_xyz
  1  'x, y, z'
loop_
 _atom_site_type_symbol
 _atom_site_label
 _atom_site_symmetry_multiplicity
 _atom_site_fract_x
 _atom_site_fract_y
 _atom_site_fract_z
 _atom_site_occupancy
  Sr  Sr0  1  0.500000  0.500000  0.500000  1
  Pr  Pr1  1  0.105075  0.314656  0.019973  1
  Pr  Pr2  1  0.315033  0.020139  0.105891  1
  Pr  Pr3  1  0.019912  0.105285  0.314552  1
  Pr  Pr4  1  0.980087  0.894715  0.685448  1
  Pr  Pr5  1  0.684967  0.979860  0.894108  1
  Pr  Pr6  1  0.894925  0.685344  0.980027  1
  Pt  Pt7  1  0.000000  0.000000  0.000000  1
  Br  Br8  1  0.216883  0.679993  0.072109  1
  Br  Br9  1  0.448574  0.366738  0.152914  1
  Br  Br10  1  0.679915  0.072005  0.216084  1
  Br  Br11  1  0.927931  0.783313  0.319794  1
  Br  Br12  1  0.152870  0.448901  0.366537  1
  Br  Br13  1  0.366431  0.152567  0.448871  1
  Br  Br14  1  0.633569  0.847433  0.551129  1
  Br  Br15  1  0.847129  0.551099  0.633463  1
  Br  Br16  1  0.072070  0.216688  0.680207  1
  Br  Br17  1  0.320086  0.927996  0.783916  1
  Br  Br18  1  0.551425  0.633261  0.847086  1
  Br  Br19  1  0.783117  0.320008  0.927891  1
