# generated using pymatgen
data_Pa14Au51
_symmetry_space_group_name_H-M   'P 1'
_cell_length_a   12.83232000
_cell_length_b   12.83231991
_cell_length_c   9.26647800
_cell_angle_alpha   90.00000000
_cell_angle_beta   90.00000000
_cell_angle_gamma   120.00000024
_symmetry_Int_Tables_number   1
_chemical_formula_structural   Pa14Au51
_chemical_formula_sum   'Pa14 Au51'
_cell_volume   1321.46507180
_cell_formula_units_Z   1
loop_
 _symmetry_equiv_pos_site_id
 _symmetry_equiv_pos_as_xyz
  1  'x, y, z'
loop_
 _atom_site_type_symbol
 _atom_site_label
 _atom_site_symmetry_multiplicity
 _atom_site_fract_x
 _atom_site_fract_y
 _atom_site_fract_z
 _atom_site_occupancy
  Pa  Pa0  1  0.463396  0.141881  0.500000  1
  Pa  Pa1  1  0.858119  0.321515  0.500000  1
  Pa  Pa2  1  0.678485  0.536604  0.500000  1
  Pa  Pa3  1  0.534547  0.858205  0.500000  1
  Pa  Pa4  1  0.141795  0.676342  0.500000  1
  Pa  Pa5  1  0.323658  0.465453  0.500000  1
  Pa  Pa6  1  0.111571  0.383869  0.000000  1
  Pa  Pa7  1  0.616131  0.727702  0.000000  1
  Pa  Pa8  1  0.272298  0.888429  0.000000  1
  Pa  Pa9  1  0.886084  0.600983  0.000000  1
  Pa  Pa10  1  0.399017  0.285100  0.000000  1
  Pa  Pa11  1  0.714900  0.113916  0.000000  1
  Pa  Pa12  1  0.000000  0.000000  0.300032  1
  Pa  Pa13  1  0.000000  0.000000  0.699968  1
  Au  Au14  1  0.492103  0.115324  0.151702  1
  Au  Au15  1  0.884676  0.376778  0.151702  1
  Au  Au16  1  0.623222  0.507897  0.151702  1
  Au  Au17  1  0.502992  0.884636  0.150767  1
  Au  Au18  1  0.115364  0.618358  0.150767  1
  Au  Au19  1  0.381642  0.497008  0.150767  1
  Au  Au20  1  0.502992  0.884636  0.849233  1
  Au  Au21  1  0.115364  0.618358  0.849233  1
  Au  Au22  1  0.381642  0.497008  0.849233  1
  Au  Au23  1  0.492103  0.115324  0.848298  1
  Au  Au24  1  0.884676  0.376778  0.848298  1
  Au  Au25  1  0.623222  0.507897  0.848298  1
  Au  Au26  1  0.666667  0.333333  0.000000  1
  Au  Au27  1  0.333333  0.666667  0.000000  1
  Au  Au28  1  0.102963  0.441435  0.339627  1
  Au  Au29  1  0.558565  0.661528  0.339627  1
  Au  Au30  1  0.338472  0.897037  0.339627  1
  Au  Au31  1  0.897062  0.556343  0.338128  1
  Au  Au32  1  0.443657  0.340720  0.338128  1
  Au  Au33  1  0.659280  0.102938  0.338128  1
  Au  Au34  1  0.897062  0.556343  0.661872  1
  Au  Au35  1  0.443657  0.340720  0.661872  1
  Au  Au36  1  0.659280  0.102938  0.661872  1
  Au  Au37  1  0.102963  0.441435  0.660373  1
  Au  Au38  1  0.558565  0.661528  0.660373  1
  Au  Au39  1  0.338472  0.897037  0.660373  1
  Au  Au40  1  0.192482  0.272648  0.232278  1
  Au  Au41  1  0.727352  0.919833  0.232278  1
  Au  Au42  1  0.080167  0.807518  0.232278  1
  Au  Au43  1  0.809443  0.734346  0.225356  1
  Au  Au44  1  0.265654  0.075096  0.225356  1
  Au  Au45  1  0.924904  0.190557  0.225356  1
  Au  Au46  1  0.809443  0.734346  0.774644  1
  Au  Au47  1  0.265654  0.075096  0.774644  1
  Au  Au48  1  0.924904  0.190557  0.774644  1
  Au  Au49  1  0.192482  0.272648  0.767722  1
  Au  Au50  1  0.727352  0.919833  0.767722  1
  Au  Au51  1  0.080167  0.807518  0.767722  1
  Au  Au52  1  0.666667  0.333333  0.318703  1
  Au  Au53  1  0.333333  0.666667  0.317827  1
  Au  Au54  1  0.333333  0.666667  0.682173  1
  Au  Au55  1  0.666667  0.333333  0.681297  1
  Au  Au56  1  0.058200  0.233767  0.500000  1
  Au  Au57  1  0.766233  0.824433  0.500000  1
  Au  Au58  1  0.175567  0.941800  0.500000  1
  Au  Au59  1  0.940003  0.761567  0.500000  1
  Au  Au60  1  0.238433  0.178438  0.500000  1
  Au  Au61  1  0.821562  0.059997  0.500000  1
  Au  Au62  1  0.136097  0.111480  0.000000  1
  Au  Au63  1  0.888520  0.024618  0.000000  1
  Au  Au64  1  0.975382  0.863903  0.000000  1
