# generated using pymatgen
data_La2Pr3Ta2BiO14
_symmetry_space_group_name_H-M   'P 1'
_cell_length_a   6.72920489
_cell_length_b   6.80593785
_cell_length_c   7.75673400
_cell_angle_alpha   90.00000000
_cell_angle_beta   90.00000000
_cell_angle_gamma   111.00216863
_symmetry_Int_Tables_number   1
_chemical_formula_structural   La2Pr3Ta2BiO14
_chemical_formula_sum   'La2 Pr3 Ta2 Bi1 O14'
_cell_volume   331.64698756
_cell_formula_units_Z   1
loop_
 _symmetry_equiv_pos_site_id
 _symmetry_equiv_pos_as_xyz
  1  'x, y, z'
loop_
 _atom_site_type_symbol
 _atom_site_label
 _atom_site_symmetry_multiplicity
 _atom_site_fract_x
 _atom_site_fract_y
 _atom_site_fract_z
 _atom_site_occupancy
  La  La0  1  0.992598  0.000938  0.001734  1
  La  La1  1  0.992598  0.000938  0.498266  1
  Pr  Pr2  1  0.517152  0.069466  0.250000  1
  Pr  Pr3  1  0.944918  0.486137  0.750000  1
  Pr  Pr4  1  0.070569  0.522055  0.250000  1
  Ta  Ta5  1  0.506372  0.507306  0.999520  1
  Ta  Ta6  1  0.506372  0.507306  0.500480  1
  Bi  Bi7  1  0.472080  0.971355  0.750000  1
  O  O8  1  0.574270  0.543946  0.750000  1
  O  O9  1  0.440404  0.423370  0.250000  1
  O  O10  1  0.834606  0.115906  0.750000  1
  O  O11  1  0.147577  0.889943  0.250000  1
  O  O12  1  0.097321  0.856524  0.750000  1
  O  O13  1  0.888067  0.157168  0.250000  1
  O  O14  1  0.437557  0.180551  0.965229  1
  O  O15  1  0.563512  0.804161  0.459269  1
  O  O16  1  0.192285  0.435456  0.968644  1
  O  O17  1  0.814194  0.553654  0.466029  1
  O  O18  1  0.437557  0.180551  0.534771  1
  O  O19  1  0.563512  0.804161  0.040731  1
  O  O20  1  0.814194  0.553654  0.033971  1
  O  O21  1  0.192285  0.435456  0.531356  1
