# generated using pymatgen
data_Tm5In4AgRh
_symmetry_space_group_name_H-M   'P 1'
_cell_length_a   3.55886500
_cell_length_b   8.16238063
_cell_length_c   18.26946821
_cell_angle_alpha   90.26756710
_cell_angle_beta   90.00000000
_cell_angle_gamma   90.00000000
_symmetry_Int_Tables_number   1
_chemical_formula_structural   Tm5In4AgRh
_chemical_formula_sum   'Tm10 In8 Ag2 Rh2'
_cell_volume   530.70053757
_cell_formula_units_Z   2
loop_
 _symmetry_equiv_pos_site_id
 _symmetry_equiv_pos_as_xyz
  1  'x, y, z'
loop_
 _atom_site_type_symbol
 _atom_site_label
 _atom_site_symmetry_multiplicity
 _atom_site_fract_x
 _atom_site_fract_y
 _atom_site_fract_z
 _atom_site_occupancy
  Tm  Tm0  1  0.000000  0.500000  0.500000  1
  Tm  Tm1  1  0.000000  0.000000  0.000000  1
  Tm  Tm2  1  0.000000  0.767392  0.282717  1
  Tm  Tm3  1  0.000000  0.232608  0.717283  1
  Tm  Tm4  1  0.000000  0.779646  0.776357  1
  Tm  Tm5  1  0.000000  0.220354  0.223643  1
  Tm  Tm6  1  0.000000  0.623604  0.078664  1
  Tm  Tm7  1  0.000000  0.376396  0.921336  1
  Tm  Tm8  1  0.000000  0.881760  0.584925  1
  Tm  Tm9  1  0.000000  0.118240  0.415075  1
  In  In10  1  0.500000  0.708397  0.931027  1
  In  In11  1  0.500000  0.291603  0.068973  1
  In  In12  1  0.500000  0.793261  0.433045  1
  In  In13  1  0.500000  0.206739  0.566955  1
  In  In14  1  0.500000  0.576428  0.648315  1
  In  In15  1  0.500000  0.423572  0.351685  1
  In  In16  1  0.500000  0.922995  0.148279  1
  In  In17  1  0.500000  0.077005  0.851721  1
  Ag  Ag18  1  0.500000  0.525197  0.198379  1
  Ag  Ag19  1  0.500000  0.474803  0.801621  1
  Rh  Rh20  1  0.500000  0.973081  0.694037  1
  Rh  Rh21  1  0.500000  0.026919  0.305963  1
