# generated using pymatgen
data_HoErCo9Mo3As7
_symmetry_space_group_name_H-M   'P 1'
_cell_length_a   9.38541500
_cell_length_b   9.38541591
_cell_length_c   3.84158500
_cell_angle_alpha   90.00000000
_cell_angle_beta   90.00000000
_cell_angle_gamma   120.00000737
_symmetry_Int_Tables_number   1
_chemical_formula_structural   HoErCo9Mo3As7
_chemical_formula_sum   'Ho1 Er1 Co9 Mo3 As7'
_cell_volume   293.05426759
_cell_formula_units_Z   1
loop_
 _symmetry_equiv_pos_site_id
 _symmetry_equiv_pos_as_xyz
  1  'x, y, z'
loop_
 _atom_site_type_symbol
 _atom_site_label
 _atom_site_symmetry_multiplicity
 _atom_site_fract_x
 _atom_site_fract_y
 _atom_site_fract_z
 _atom_site_occupancy
  Ho  Ho0  1  0.000000  0.000000  0.000000  1
  Er  Er1  1  0.333333  0.666667  0.500000  1
  Co  Co2  1  0.297335  0.903518  0.000000  1
  Co  Co3  1  0.606183  0.702665  0.000000  1
  Co  Co4  1  0.096482  0.393817  0.000000  1
  Co  Co5  1  0.790188  0.174225  0.000000  1
  Co  Co6  1  0.384038  0.209812  0.000000  1
  Co  Co7  1  0.825775  0.615962  0.000000  1
  Co  Co8  1  0.716521  0.948778  0.500000  1
  Co  Co9  1  0.232259  0.283479  0.500000  1
  Co  Co10  1  0.051222  0.767741  0.500000  1
  Mo  Mo11  1  0.545290  0.113993  0.500000  1
  Mo  Mo12  1  0.568703  0.454710  0.500000  1
  Mo  Mo13  1  0.886007  0.431297  0.500000  1
  As  As14  1  0.552461  0.917478  0.000000  1
  As  As15  1  0.365017  0.447539  0.000000  1
  As  As16  1  0.082522  0.634983  0.000000  1
  As  As17  1  0.958061  0.212403  0.500000  1
  As  As18  1  0.254342  0.041939  0.500000  1
  As  As19  1  0.787597  0.745658  0.500000  1
  As  As20  1  0.666667  0.333333  0.000000  1
