# generated using pymatgen
data_NiAg2RhF7
_symmetry_space_group_name_H-M   'P 1'
_cell_length_a   7.55459398
_cell_length_b   7.55456250
_cell_length_c   7.55456825
_cell_angle_alpha   120.63022918
_cell_angle_beta   117.92462858
_cell_angle_gamma   91.27225432
_symmetry_Int_Tables_number   1
_chemical_formula_structural   NiAg2RhF7
_chemical_formula_sum   'Ni2 Ag4 Rh2 F14'
_cell_volume   307.90752006
_cell_formula_units_Z   2
loop_
 _symmetry_equiv_pos_site_id
 _symmetry_equiv_pos_as_xyz
  1  'x, y, z'
loop_
 _atom_site_type_symbol
 _atom_site_label
 _atom_site_symmetry_multiplicity
 _atom_site_fract_x
 _atom_site_fract_y
 _atom_site_fract_z
 _atom_site_occupancy
  Ni  Ni0  1  0.500000  0.500000  0.500000  1
  Ni  Ni1  1  0.500000  0.000000  0.000000  1
  Ag  Ag2  1  0.500000  0.500000  0.000000  1
  Ag  Ag3  1  0.000000  0.000000  0.000000  1
  Ag  Ag4  1  0.000000  0.500000  0.000000  1
  Ag  Ag5  1  0.000000  0.000000  0.500000  1
  Rh  Rh6  1  0.000000  0.500000  0.500000  1
  Rh  Rh7  1  0.500000  0.000000  0.500000  1
  F  F8  1  0.873220  0.596858  0.276361  1
  F  F9  1  0.179504  0.903141  0.276362  1
  F  F10  1  0.181833  0.818814  0.768361  1
  F  F11  1  0.449547  0.681193  0.363028  1
  F  F12  1  0.449546  0.086532  0.768362  1
  F  F13  1  0.181835  0.413475  0.363028  1
  F  F14  1  0.818165  0.586525  0.636972  1
  F  F15  1  0.550454  0.913468  0.231638  1
  F  F16  1  0.550453  0.318807  0.636972  1
  F  F17  1  0.818167  0.181186  0.231639  1
  F  F18  1  0.415517  0.250001  0.165519  1
  F  F19  1  0.126780  0.403142  0.723639  1
  F  F20  1  0.820496  0.096859  0.723638  1
  F  F21  1  0.584483  0.749999  0.834481  1
