# generated using pymatgen
data_Pr3NbWC6
_symmetry_space_group_name_H-M   'P 1'
_cell_length_a   8.68040300
_cell_length_b   8.68040217
_cell_length_c   5.45307600
_cell_angle_alpha   90.00000000
_cell_angle_beta   90.00000000
_cell_angle_gamma   119.99998410
_symmetry_Int_Tables_number   1
_chemical_formula_structural   Pr3NbWC6
_chemical_formula_sum   'Pr6 Nb2 W2 C12'
_cell_volume   355.83772348
_cell_formula_units_Z   2
loop_
 _symmetry_equiv_pos_site_id
 _symmetry_equiv_pos_as_xyz
  1  'x, y, z'
loop_
 _atom_site_type_symbol
 _atom_site_label
 _atom_site_symmetry_multiplicity
 _atom_site_fract_x
 _atom_site_fract_y
 _atom_site_fract_z
 _atom_site_occupancy
  Pr  Pr0  1  0.614817  0.688597  0.750000  1
  Pr  Pr1  1  0.926219  0.614817  0.250000  1
  Pr  Pr2  1  0.688597  0.073781  0.250000  1
  Pr  Pr3  1  0.311403  0.926219  0.750000  1
  Pr  Pr4  1  0.073781  0.385183  0.750000  1
  Pr  Pr5  1  0.385183  0.311403  0.250000  1
  Nb  Nb6  1  0.000000  0.000000  0.500000  1
  Nb  Nb7  1  0.000000  0.000000  0.000000  1
  W  W8  1  0.666667  0.333333  0.750000  1
  W  W9  1  0.333333  0.666667  0.250000  1
  C  C10  1  0.957935  0.766904  0.750000  1
  C  C11  1  0.191031  0.957935  0.250000  1
  C  C12  1  0.766904  0.808969  0.250000  1
  C  C13  1  0.233096  0.191031  0.750000  1
  C  C14  1  0.808969  0.042065  0.750000  1
  C  C15  1  0.042065  0.233096  0.250000  1
  C  C16  1  0.861340  0.584324  0.750000  1
  C  C17  1  0.277016  0.861340  0.250000  1
  C  C18  1  0.584324  0.722984  0.250000  1
  C  C19  1  0.415676  0.277016  0.750000  1
  C  C20  1  0.138660  0.415676  0.250000  1
  C  C21  1  0.722984  0.138660  0.750000  1
