# generated using pymatgen
data_Tm3Lu2P12IrRu18
_symmetry_space_group_name_H-M   'P 1'
_cell_length_a   12.50147700
_cell_length_b   12.50157378
_cell_length_c   3.96628800
_cell_angle_alpha   90.00000000
_cell_angle_beta   90.00000000
_cell_angle_gamma   120.00025193
_symmetry_Int_Tables_number   1
_chemical_formula_structural   Tm3Lu2P12IrRu18
_chemical_formula_sum   'Tm3 Lu2 P12 Ir1 Ru18'
_cell_volume   536.83372319
_cell_formula_units_Z   1
loop_
 _symmetry_equiv_pos_site_id
 _symmetry_equiv_pos_as_xyz
  1  'x, y, z'
loop_
 _atom_site_type_symbol
 _atom_site_label
 _atom_site_symmetry_multiplicity
 _atom_site_fract_x
 _atom_site_fract_y
 _atom_site_fract_z
 _atom_site_occupancy
  Tm  Tm0  1  0.333327  0.666654  0.500000  1
  Tm  Tm1  1  0.666673  0.333326  0.500000  1
  Tm  Tm2  1  0.000000  0.813875  0.000000  1
  Lu  Lu3  1  0.186108  0.186105  0.000000  1
  Lu  Lu4  1  0.813892  0.999997  0.000000  1
  P  P5  1  0.307057  0.829109  0.000000  1
  P  P6  1  0.170881  0.477946  0.000000  1
  P  P7  1  0.522011  0.692916  0.000000  1
  P  P8  1  0.829119  0.307064  0.000000  1
  P  P9  1  0.477989  0.170905  0.000000  1
  P  P10  1  0.692943  0.522053  0.000000  1
  P  P11  1  0.372391  0.372389  0.500000  1
  P  P12  1  0.627609  0.999999  0.500000  1
  P  P13  1  0.000000  0.627525  0.500000  1
  P  P14  1  0.815312  0.815373  0.500000  1
  P  P15  1  0.184688  0.000061  0.500000  1
  P  P16  1  0.000000  0.184656  0.500000  1
  Ir  Ir17  1  0.000000  0.000316  0.500000  1
  Ru  Ru18  1  0.191682  0.814918  0.500000  1
  Ru  Ru19  1  0.185131  0.376523  0.500000  1
  Ru  Ru20  1  0.623477  0.808617  0.500000  1
  Ru  Ru21  1  0.814869  0.191392  0.500000  1
  Ru  Ru22  1  0.376523  0.185141  0.500000  1
  Ru  Ru23  1  0.808318  0.623236  0.500000  1
  Ru  Ru24  1  0.126777  0.634672  0.000000  1
  Ru  Ru25  1  0.365272  0.492043  0.000000  1
  Ru  Ru26  1  0.507941  0.873214  0.000000  1
  Ru  Ru27  1  0.634728  0.126772  0.000000  1
  Ru  Ru28  1  0.492059  0.365274  0.000000  1
  Ru  Ru29  1  0.873223  0.507896  0.000000  1
  Ru  Ru30  1  0.554861  0.554865  0.500000  1
  Ru  Ru31  1  0.445139  0.000004  0.500000  1
  Ru  Ru32  1  0.000000  0.445124  0.500000  1
  Ru  Ru33  1  0.718752  0.718875  0.000000  1
  Ru  Ru34  1  0.281248  0.000123  0.000000  1
  Ru  Ru35  1  0.000000  0.281038  0.000000  1
