# generated using pymatgen
data_Ce2Al20Tc3Rh
_symmetry_space_group_name_H-M   'P 1'
_cell_length_a   6.91597689
_cell_length_b   6.92828048
_cell_length_c   9.22221666
_cell_angle_alpha   90.20286614
_cell_angle_beta   90.34919422
_cell_angle_gamma   97.13352347
_symmetry_Int_Tables_number   1
_chemical_formula_structural   Ce2Al20Tc3Rh
_chemical_formula_sum   'Ce2 Al20 Tc3 Rh1'
_cell_volume   438.45741543
_cell_formula_units_Z   1
loop_
 _symmetry_equiv_pos_site_id
 _symmetry_equiv_pos_as_xyz
  1  'x, y, z'
loop_
 _atom_site_type_symbol
 _atom_site_label
 _atom_site_symmetry_multiplicity
 _atom_site_fract_x
 _atom_site_fract_y
 _atom_site_fract_z
 _atom_site_occupancy
  Ce  Ce0  1  0.879210  0.129824  0.748356  1
  Ce  Ce1  1  0.120790  0.870176  0.251644  1
  Al  Al2  1  0.590497  0.861920  0.250064  1
  Al  Al3  1  0.778461  0.520121  0.248258  1
  Al  Al4  1  0.157966  0.840737  0.899886  1
  Al  Al5  1  0.409503  0.138080  0.749936  1
  Al  Al6  1  0.623412  0.380172  0.949447  1
  Al  Al7  1  0.840422  0.158252  0.400043  1
  Al  Al8  1  0.773765  0.773246  0.000487  1
  Al  Al9  1  0.863776  0.593301  0.749672  1
  Al  Al10  1  0.842034  0.159263  0.100114  1
  Al  Al11  1  0.221539  0.479879  0.751742  1
  Al  Al12  1  0.159578  0.841748  0.599957  1
  Al  Al13  1  0.773235  0.772963  0.498744  1
  Al  Al14  1  0.476772  0.218267  0.253727  1
  Al  Al15  1  0.622974  0.377150  0.547911  1
  Al  Al16  1  0.226765  0.227037  0.501256  1
  Al  Al17  1  0.377026  0.622850  0.452089  1
  Al  Al18  1  0.136224  0.406699  0.250328  1
  Al  Al19  1  0.523228  0.781733  0.746273  1
  Al  Al20  1  0.376588  0.619828  0.050553  1
  Al  Al21  1  0.226235  0.226754  0.999513  1
  Tc  Tc22  1  0.500000  0.000000  0.500000  1
  Tc  Tc23  1  0.000000  0.500000  0.000000  1
  Tc  Tc24  1  0.000000  0.500000  0.500000  1
  Rh  Rh25  1  0.500000  0.000000  0.000000  1
