# generated using pymatgen
data_Tb5Ho(Si3Ru)8
_symmetry_space_group_name_H-M   'P 1'
_cell_length_a   10.12894060
_cell_length_b   10.12893999
_cell_length_c   8.15991758
_cell_angle_alpha   89.98255252
_cell_angle_beta   89.98254913
_cell_angle_gamma   132.52027032
_symmetry_Int_Tables_number   1
_chemical_formula_structural   Tb5Ho(Si3Ru)8
_chemical_formula_sum   'Tb5 Ho1 Si24 Ru8'
_cell_volume   617.02635400
_cell_formula_units_Z   1
loop_
 _symmetry_equiv_pos_site_id
 _symmetry_equiv_pos_as_xyz
  1  'x, y, z'
loop_
 _atom_site_type_symbol
 _atom_site_label
 _atom_site_symmetry_multiplicity
 _atom_site_fract_x
 _atom_site_fract_y
 _atom_site_fract_z
 _atom_site_occupancy
  Tb  Tb0  1  0.500000  0.500000  0.500000  1
  Tb  Tb1  1  0.502421  0.002649  0.750375  1
  Tb  Tb2  1  0.997351  0.497579  0.249625  1
  Tb  Tb3  1  0.497579  0.997351  0.249625  1
  Tb  Tb4  1  0.002649  0.502421  0.750375  1
  Ho  Ho5  1  0.000000  0.000000  0.000000  1
  Si  Si6  1  0.794799  0.205201  0.500000  1
  Si  Si7  1  0.294276  0.705724  0.000000  1
  Si  Si8  1  0.205201  0.794799  0.500000  1
  Si  Si9  1  0.705724  0.294276  0.000000  1
  Si  Si10  1  0.333161  0.333161  0.832647  1
  Si  Si11  1  0.666839  0.666839  0.167353  1
  Si  Si12  1  0.168144  0.168144  0.333583  1
  Si  Si13  1  0.831856  0.831856  0.666417  1
  Si  Si14  1  0.122642  0.888488  0.728581  1
  Si  Si15  1  0.111512  0.877358  0.271419  1
  Si  Si16  1  0.613019  0.378592  0.228158  1
  Si  Si17  1  0.621408  0.386981  0.771842  1
  Si  Si18  1  0.877358  0.111512  0.271419  1
  Si  Si19  1  0.888488  0.122642  0.728581  1
  Si  Si20  1  0.386981  0.621408  0.771842  1
  Si  Si21  1  0.378592  0.613019  0.228158  1
  Si  Si22  1  0.345355  0.112104  0.504998  1
  Si  Si23  1  0.887896  0.654645  0.495002  1
  Si  Si24  1  0.388859  0.155108  0.004881  1
  Si  Si25  1  0.844892  0.611141  0.995119  1
  Si  Si26  1  0.654645  0.887896  0.495002  1
  Si  Si27  1  0.112104  0.345355  0.504998  1
  Si  Si28  1  0.611141  0.844892  0.995119  1
  Si  Si29  1  0.155108  0.388859  0.004881  1
  Ru  Ru30  1  0.669091  0.330909  0.500000  1
  Ru  Ru31  1  0.168275  0.831725  0.000000  1
  Ru  Ru32  1  0.330909  0.669091  0.500000  1
  Ru  Ru33  1  0.831725  0.168275  0.000000  1
  Ru  Ru34  1  0.125072  0.125072  0.628272  1
  Ru  Ru35  1  0.874928  0.874928  0.371728  1
  Ru  Ru36  1  0.373213  0.373213  0.125378  1
  Ru  Ru37  1  0.626787  0.626787  0.874622  1
