# generated using pymatgen
data_NdSm3(AgTe)12
_symmetry_space_group_name_H-M   'P 1'
_cell_length_a   7.27803749
_cell_length_b   8.29054556
_cell_length_c   13.87070501
_cell_angle_alpha   89.99572487
_cell_angle_beta   90.00036617
_cell_angle_gamma   89.95815558
_symmetry_Int_Tables_number   1
_chemical_formula_structural   NdSm3(AgTe)12
_chemical_formula_sum   'Nd1 Sm3 Ag12 Te12'
_cell_volume   836.94287566
_cell_formula_units_Z   1
loop_
 _symmetry_equiv_pos_site_id
 _symmetry_equiv_pos_as_xyz
  1  'x, y, z'
loop_
 _atom_site_type_symbol
 _atom_site_label
 _atom_site_symmetry_multiplicity
 _atom_site_fract_x
 _atom_site_fract_y
 _atom_site_fract_z
 _atom_site_occupancy
  Nd  Nd0  1  0.243096  0.749313  0.834631  1
  Sm  Sm1  1  0.743044  0.250691  0.334905  1
  Sm  Sm2  1  0.743050  0.250695  0.665018  1
  Sm  Sm3  1  0.243043  0.749305  0.165136  1
  Ag  Ag4  1  0.381814  0.121770  0.831743  1
  Ag  Ag5  1  0.624634  0.608643  0.999995  1
  Ag  Ag6  1  0.881457  0.878711  0.668212  1
  Ag  Ag7  1  0.606141  0.624153  0.671111  1
  Ag  Ag8  1  0.868747  0.887216  0.000006  1
  Ag  Ag9  1  0.124668  0.391299  0.499956  1
  Ag  Ag10  1  0.606063  0.624202  0.328840  1
  Ag  Ag11  1  0.368755  0.112845  0.499958  1
  Ag  Ag12  1  0.881517  0.878671  0.331751  1
  Ag  Ag13  1  0.381567  0.121333  0.168260  1
  Ag  Ag14  1  0.105763  0.375376  0.828825  1
  Ag  Ag15  1  0.105999  0.375804  0.171158  1
  Te  Te16  1  0.008827  0.560839  0.332757  1
  Te  Te17  1  0.508801  0.439126  0.167283  1
  Te  Te18  1  0.977544  0.059003  0.167744  1
  Te  Te19  1  0.008099  0.560255  0.666833  1
  Te  Te20  1  0.019612  0.568404  0.000730  1
  Te  Te21  1  0.509801  0.438040  0.832679  1
  Te  Te22  1  0.477510  0.941029  0.332295  1
  Te  Te23  1  0.478173  0.941575  0.667292  1
  Te  Te24  1  0.970339  0.073874  0.499979  1
  Te  Te25  1  0.471087  0.926908  0.000713  1
  Te  Te26  1  0.976493  0.060127  0.832213  1
  Te  Te27  1  0.520354  0.430793  0.499977  1
