# generated using pymatgen
data_Ho4Al18MoPd5
_symmetry_space_group_name_H-M   'P 1'
_cell_length_a   7.63118715
_cell_length_b   7.63118718
_cell_length_c   9.52729390
_cell_angle_alpha   89.64904517
_cell_angle_beta   89.64904831
_cell_angle_gamma   118.94573001
_symmetry_Int_Tables_number   1
_chemical_formula_structural   Ho4Al18MoPd5
_chemical_formula_sum   'Ho4 Al18 Mo1 Pd5'
_cell_volume   485.47762485
_cell_formula_units_Z   1
loop_
 _symmetry_equiv_pos_site_id
 _symmetry_equiv_pos_as_xyz
  1  'x, y, z'
loop_
 _atom_site_type_symbol
 _atom_site_label
 _atom_site_symmetry_multiplicity
 _atom_site_fract_x
 _atom_site_fract_y
 _atom_site_fract_z
 _atom_site_occupancy
  Ho  Ho0  1  0.994995  0.676165  0.247644  1
  Ho  Ho1  1  0.005005  0.323835  0.752356  1
  Ho  Ho2  1  0.676165  0.994995  0.247644  1
  Ho  Ho3  1  0.323835  0.005005  0.752356  1
  Al  Al4  1  0.132340  0.132340  0.248530  1
  Al  Al5  1  0.867660  0.867660  0.751470  1
  Al  Al6  1  0.001757  0.333818  0.076024  1
  Al  Al7  1  0.998243  0.666182  0.923976  1
  Al  Al8  1  0.998674  0.661816  0.578347  1
  Al  Al9  1  0.338184  0.001326  0.421653  1
  Al  Al10  1  0.001326  0.338184  0.421653  1
  Al  Al11  1  0.661816  0.998674  0.578347  1
  Al  Al12  1  0.666182  0.998243  0.923976  1
  Al  Al13  1  0.333818  0.001757  0.076024  1
  Al  Al14  1  0.333434  0.333434  0.556061  1
  Al  Al15  1  0.666566  0.666567  0.443939  1
  Al  Al16  1  0.668218  0.668219  0.054285  1
  Al  Al17  1  0.331782  0.331782  0.945715  1
  Al  Al18  1  0.341427  0.549615  0.250118  1
  Al  Al19  1  0.658573  0.450385  0.749882  1
  Al  Al20  1  0.549615  0.341427  0.250118  1
  Al  Al21  1  0.450385  0.658573  0.749882  1
  Mo  Mo22  1  0.000000  0.000000  0.000000  1
  Pd  Pd23  1  0.672000  0.328000  0.000000  1
  Pd  Pd24  1  0.328000  0.672000  0.000000  1
  Pd  Pd25  1  0.327833  0.672167  0.500000  1
  Pd  Pd26  1  0.672167  0.327833  0.500000  1
  Pd  Pd27  1  0.000000  0.000000  0.500000  1
