# generated using pymatgen
data_Ho2Er3Lu11(In3Co)2
_symmetry_space_group_name_H-M   'P 1'
_cell_length_a   10.15165300
_cell_length_b   10.15165191
_cell_length_c   6.99226500
_cell_angle_alpha   90.00000000
_cell_angle_beta   90.00000000
_cell_angle_gamma   119.99999376
_symmetry_Int_Tables_number   1
_chemical_formula_structural   Ho2Er3Lu11(In3Co)2
_chemical_formula_sum   'Ho2 Er3 Lu11 In6 Co2'
_cell_volume   624.05378367
_cell_formula_units_Z   1
loop_
 _symmetry_equiv_pos_site_id
 _symmetry_equiv_pos_as_xyz
  1  'x, y, z'
loop_
 _atom_site_type_symbol
 _atom_site_label
 _atom_site_symmetry_multiplicity
 _atom_site_fract_x
 _atom_site_fract_y
 _atom_site_fract_z
 _atom_site_occupancy
  Ho  Ho0  1  0.000000  0.000000  0.227038  1
  Ho  Ho1  1  0.000000  0.000000  0.727535  1
  Er  Er2  1  0.535042  0.464958  0.713568  1
  Er  Er3  1  0.929917  0.464958  0.713568  1
  Er  Er4  1  0.535042  0.070083  0.713568  1
  Lu  Lu5  1  0.179294  0.820706  0.507256  1
  Lu  Lu6  1  0.641411  0.820706  0.507256  1
  Lu  Lu7  1  0.179294  0.358589  0.507256  1
  Lu  Lu8  1  0.820820  0.179180  0.009995  1
  Lu  Lu9  1  0.358360  0.179180  0.009995  1
  Lu  Lu10  1  0.820820  0.641640  0.009995  1
  Lu  Lu11  1  0.333333  0.666667  0.821095  1
  Lu  Lu12  1  0.666667  0.333333  0.320613  1
  Lu  Lu13  1  0.463761  0.536239  0.213020  1
  Lu  Lu14  1  0.072475  0.536239  0.213020  1
  Lu  Lu15  1  0.463761  0.927525  0.213020  1
  In  In16  1  0.163673  0.836327  0.961425  1
  In  In17  1  0.672654  0.836327  0.961425  1
  In  In18  1  0.163673  0.327346  0.961425  1
  In  In19  1  0.836617  0.163383  0.460216  1
  In  In20  1  0.326766  0.163383  0.460216  1
  In  In21  1  0.836617  0.673234  0.460216  1
  Co  Co22  1  0.333333  0.666667  0.440077  1
  Co  Co23  1  0.666667  0.333333  0.941245  1
