# generated using pymatgen
data_Nd4In2HgAu10
_symmetry_space_group_name_H-M   'P 1'
_cell_length_a   8.76009863
_cell_length_b   8.76009984
_cell_length_c   10.42724200
_cell_angle_alpha   90.00000000
_cell_angle_beta   90.00000000
_cell_angle_gamma   108.60389613
_symmetry_Int_Tables_number   1
_chemical_formula_structural   Nd4In2HgAu10
_chemical_formula_sum   'Nd8 In4 Hg2 Au20'
_cell_volume   758.36764149
_cell_formula_units_Z   2
loop_
 _symmetry_equiv_pos_site_id
 _symmetry_equiv_pos_as_xyz
  1  'x, y, z'
loop_
 _atom_site_type_symbol
 _atom_site_label
 _atom_site_symmetry_multiplicity
 _atom_site_fract_x
 _atom_site_fract_y
 _atom_site_fract_z
 _atom_site_occupancy
  Nd  Nd0  1  0.702421  0.297579  0.000000  1
  Nd  Nd1  1  0.201706  0.798294  0.500000  1
  Nd  Nd2  1  0.799323  0.801653  0.299171  1
  Nd  Nd3  1  0.301653  0.299323  0.200829  1
  Nd  Nd4  1  0.797579  0.202421  0.500000  1
  Nd  Nd5  1  0.298294  0.701706  0.000000  1
  Nd  Nd6  1  0.700677  0.698347  0.799171  1
  Nd  Nd7  1  0.198347  0.200677  0.700829  1
  In  In8  1  0.998697  0.001303  0.000000  1
  In  In9  1  0.018426  0.518426  0.250000  1
  In  In10  1  0.481574  0.981574  0.750000  1
  In  In11  1  0.501303  0.498697  0.500000  1
  Hg  Hg12  1  0.522040  0.022040  0.250000  1
  Hg  Hg13  1  0.977960  0.477960  0.750000  1
  Au  Au14  1  0.158224  0.429281  0.475879  1
  Au  Au15  1  0.904352  0.904622  0.594717  1
  Au  Au16  1  0.570719  0.841776  0.524121  1
  Au  Au17  1  0.893260  0.169833  0.210209  1
  Au  Au18  1  0.389136  0.664314  0.289939  1
  Au  Au19  1  0.669833  0.393260  0.289791  1
  Au  Au20  1  0.404622  0.404352  0.905283  1
  Au  Au21  1  0.929281  0.658224  0.024121  1
  Au  Au22  1  0.335686  0.610864  0.710061  1
  Au  Au23  1  0.341776  0.070719  0.975879  1
  Au  Au24  1  0.595648  0.595378  0.094717  1
  Au  Au25  1  0.656642  0.927624  0.021683  1
  Au  Au26  1  0.095378  0.095648  0.405283  1
  Au  Au27  1  0.606740  0.330167  0.710209  1
  Au  Au28  1  0.110864  0.835686  0.789939  1
  Au  Au29  1  0.072376  0.343358  0.978317  1
  Au  Au30  1  0.843358  0.572376  0.521683  1
  Au  Au31  1  0.164314  0.889136  0.210061  1
  Au  Au32  1  0.427624  0.156642  0.478317  1
  Au  Au33  1  0.830167  0.106740  0.789791  1
