# generated using pymatgen
data_Er4Sc4PtRh3
_symmetry_space_group_name_H-M   'P 1'
_cell_length_a   4.31964100
_cell_length_b   7.10112525
_cell_length_c   8.60828376
_cell_angle_alpha   89.84636217
_cell_angle_beta   90.00000000
_cell_angle_gamma   90.00000000
_symmetry_Int_Tables_number   1
_chemical_formula_structural   Er4Sc4PtRh3
_chemical_formula_sum   'Er4 Sc4 Pt1 Rh3'
_cell_volume   264.05223034
_cell_formula_units_Z   1
loop_
 _symmetry_equiv_pos_site_id
 _symmetry_equiv_pos_as_xyz
  1  'x, y, z'
loop_
 _atom_site_type_symbol
 _atom_site_label
 _atom_site_symmetry_multiplicity
 _atom_site_fract_x
 _atom_site_fract_y
 _atom_site_fract_z
 _atom_site_occupancy
  Er  Er0  1  0.250000  0.485624  0.174436  1
  Er  Er1  1  0.750000  0.519676  0.825002  1
  Er  Er2  1  0.750000  0.013811  0.671766  1
  Er  Er3  1  0.250000  0.983867  0.329168  1
  Sc  Sc4  1  0.250000  0.861410  0.931904  1
  Sc  Sc5  1  0.750000  0.140141  0.071763  1
  Sc  Sc6  1  0.750000  0.638540  0.430248  1
  Sc  Sc7  1  0.250000  0.358672  0.569662  1
  Pt  Pt8  1  0.250000  0.246387  0.899068  1
  Rh  Rh9  1  0.250000  0.744914  0.598547  1
  Rh  Rh10  1  0.750000  0.253400  0.401484  1
  Rh  Rh11  1  0.750000  0.753558  0.096955  1
