# generated using pymatgen
data_AlInNi20B6Sb
_symmetry_space_group_name_H-M   'P 1'
_cell_length_a   7.49063681
_cell_length_b   7.49063644
_cell_length_c   7.49063600
_cell_angle_alpha   60.00000196
_cell_angle_beta   60.00000357
_cell_angle_gamma   59.99999823
_symmetry_Int_Tables_number   1
_chemical_formula_structural   AlInNi20B6Sb
_chemical_formula_sum   'Al1 In1 Ni20 B6 Sb1'
_cell_volume   297.19477350
_cell_formula_units_Z   1
loop_
 _symmetry_equiv_pos_site_id
 _symmetry_equiv_pos_as_xyz
  1  'x, y, z'
loop_
 _atom_site_type_symbol
 _atom_site_label
 _atom_site_symmetry_multiplicity
 _atom_site_fract_x
 _atom_site_fract_y
 _atom_site_fract_z
 _atom_site_occupancy
  Al  Al0  1  0.000000  0.000000  0.000000  1
  In  In1  1  0.250000  0.250000  0.250000  1
  Ni  Ni2  1  0.000821  0.335391  0.662967  1
  Ni  Ni3  1  0.000821  0.000821  0.662967  1
  Ni  Ni4  1  0.662967  0.335391  0.000821  1
  Ni  Ni5  1  0.000821  0.335391  0.000821  1
  Ni  Ni6  1  0.335391  0.000821  0.662967  1
  Ni  Ni7  1  0.335391  0.000821  0.000821  1
  Ni  Ni8  1  0.662967  0.000821  0.000821  1
  Ni  Ni9  1  0.335391  0.662967  0.000821  1
  Ni  Ni10  1  0.662967  0.000821  0.335391  1
  Ni  Ni11  1  0.000821  0.000821  0.335391  1
  Ni  Ni12  1  0.000821  0.662967  0.000821  1
  Ni  Ni13  1  0.000821  0.662967  0.335391  1
  Ni  Ni14  1  0.616917  0.149247  0.616917  1
  Ni  Ni15  1  0.387604  0.387604  0.837189  1
  Ni  Ni16  1  0.837189  0.387604  0.387604  1
  Ni  Ni17  1  0.387604  0.387604  0.387604  1
  Ni  Ni18  1  0.149247  0.616917  0.616917  1
  Ni  Ni19  1  0.616917  0.616917  0.616917  1
  Ni  Ni20  1  0.616917  0.616917  0.149247  1
  Ni  Ni21  1  0.387604  0.837189  0.387604  1
  B  B22  1  0.727113  0.272887  0.727113  1
  B  B23  1  0.727113  0.272887  0.272887  1
  B  B24  1  0.272887  0.727113  0.727113  1
  B  B25  1  0.272887  0.272887  0.727113  1
  B  B26  1  0.727113  0.727113  0.272887  1
  B  B27  1  0.272887  0.727113  0.272887  1
  Sb  Sb28  1  0.750000  0.750000  0.750000  1
