# generated using pymatgen
data_Sm2Ga7Ni2Au
_symmetry_space_group_name_H-M   'P 1'
_cell_length_a   4.18866654
_cell_length_b   6.47979843
_cell_length_c   8.08200076
_cell_angle_alpha   90.97940055
_cell_angle_beta   105.01877036
_cell_angle_gamma   89.99999982
_symmetry_Int_Tables_number   1
_chemical_formula_structural   Sm2Ga7Ni2Au
_chemical_formula_sum   'Sm2 Ga7 Ni2 Au1'
_cell_volume   211.83307919
_cell_formula_units_Z   1
loop_
 _symmetry_equiv_pos_site_id
 _symmetry_equiv_pos_as_xyz
  1  'x, y, z'
loop_
 _atom_site_type_symbol
 _atom_site_label
 _atom_site_symmetry_multiplicity
 _atom_site_fract_x
 _atom_site_fract_y
 _atom_site_fract_z
 _atom_site_occupancy
  Sm  Sm0  1  0.879478  0.761974  0.758955  1
  Sm  Sm1  1  0.120522  0.238026  0.241045  1
  Ga  Ga2  1  0.500000  0.000000  0.000000  1
  Ga  Ga3  1  0.070985  0.737665  0.141970  1
  Ga  Ga4  1  0.929015  0.262335  0.858030  1
  Ga  Ga5  1  0.685879  0.546302  0.371758  1
  Ga  Ga6  1  0.314121  0.453698  0.628242  1
  Ga  Ga7  1  0.687488  0.945316  0.374976  1
  Ga  Ga8  1  0.312512  0.054684  0.625024  1
  Ni  Ni9  1  0.221528  0.749372  0.443056  1
  Ni  Ni10  1  0.778472  0.250628  0.556944  1
  Au  Au11  1  0.500000  0.500000  0.000000  1
