# generated using pymatgen
data_ErTm3(Zn4Ru)2
_symmetry_space_group_name_H-M   'P 1'
_cell_length_a   6.93094400
_cell_length_b   6.93094400
_cell_length_c   5.25632600
_cell_angle_alpha   90.00000000
_cell_angle_beta   90.00000000
_cell_angle_gamma   90.00000000
_symmetry_Int_Tables_number   1
_chemical_formula_structural   ErTm3(Zn4Ru)2
_chemical_formula_sum   'Er1 Tm3 Zn8 Ru2'
_cell_volume   252.50330813
_cell_formula_units_Z   1
loop_
 _symmetry_equiv_pos_site_id
 _symmetry_equiv_pos_as_xyz
  1  'x, y, z'
loop_
 _atom_site_type_symbol
 _atom_site_label
 _atom_site_symmetry_multiplicity
 _atom_site_fract_x
 _atom_site_fract_y
 _atom_site_fract_z
 _atom_site_occupancy
  Er  Er0  1  0.000000  0.500000  0.765874  1
  Tm  Tm1  1  0.000000  0.000000  0.000012  1
  Tm  Tm2  1  0.500000  0.000000  0.234222  1
  Tm  Tm3  1  0.500000  0.500000  0.000012  1
  Zn  Zn4  1  0.188271  0.688271  0.286789  1
  Zn  Zn5  1  0.811729  0.688271  0.286789  1
  Zn  Zn6  1  0.811729  0.311729  0.286789  1
  Zn  Zn7  1  0.311777  0.188223  0.713178  1
  Zn  Zn8  1  0.188271  0.311729  0.286789  1
  Zn  Zn9  1  0.688223  0.188223  0.713178  1
  Zn  Zn10  1  0.688223  0.811777  0.713178  1
  Zn  Zn11  1  0.311777  0.811777  0.713178  1
  Ru  Ru12  1  0.500000  0.500000  0.500006  1
  Ru  Ru13  1  0.000000  0.000000  0.500006  1
