# generated using pymatgen
data_Er8Tm4Zn(InFe)2
_symmetry_space_group_name_H-M   'P 1'
_cell_length_a   8.31362242
_cell_length_b   8.31362227
_cell_length_c   8.31362206
_cell_angle_alpha   109.77321871
_cell_angle_beta   109.77322809
_cell_angle_gamma   108.86889004
_symmetry_Int_Tables_number   1
_chemical_formula_structural   Er8Tm4Zn(InFe)2
_chemical_formula_sum   'Er8 Tm4 Zn1 In2 Fe2'
_cell_volume   442.29599991
_cell_formula_units_Z   1
loop_
 _symmetry_equiv_pos_site_id
 _symmetry_equiv_pos_as_xyz
  1  'x, y, z'
loop_
 _atom_site_type_symbol
 _atom_site_label
 _atom_site_symmetry_multiplicity
 _atom_site_fract_x
 _atom_site_fract_y
 _atom_site_fract_z
 _atom_site_occupancy
  Er  Er0  1  0.446553  0.203160  0.243393  1
  Er  Er1  1  0.553447  0.796840  0.756607  1
  Er  Er2  1  0.959767  0.203160  0.756607  1
  Er  Er3  1  0.203160  0.959767  0.756607  1
  Er  Er4  1  0.040233  0.796840  0.243393  1
  Er  Er5  1  0.796840  0.040233  0.243393  1
  Er  Er6  1  0.203160  0.446553  0.243393  1
  Er  Er7  1  0.796840  0.553447  0.756607  1
  Tm  Tm8  1  0.305504  0.305504  0.611007  1
  Tm  Tm9  1  0.694496  0.694496  0.388993  1
  Tm  Tm10  1  0.305504  0.694496  0.000000  1
  Tm  Tm11  1  0.694496  0.305504  0.000000  1
  Zn  Zn12  1  0.000000  0.000000  0.000000  1
  In  In13  1  0.500000  0.000000  0.500000  1
  In  In14  1  0.000000  0.500000  0.500000  1
  Fe  Fe15  1  0.386965  0.386965  0.000000  1
  Fe  Fe16  1  0.613035  0.613035  0.000000  1
