# generated using pymatgen
data_Dy2Si4W3
_symmetry_space_group_name_H-M   'P 1'
_cell_length_a   6.92728400
_cell_length_b   6.77686646
_cell_length_c   6.84630293
_cell_angle_alpha   70.95832081
_cell_angle_beta   90.00000000
_cell_angle_gamma   90.00000000
_symmetry_Int_Tables_number   1
_chemical_formula_structural   Dy2Si4W3
_chemical_formula_sum   'Dy4 Si8 W6'
_cell_volume   303.81498319
_cell_formula_units_Z   2
loop_
 _symmetry_equiv_pos_site_id
 _symmetry_equiv_pos_as_xyz
  1  'x, y, z'
loop_
 _atom_site_type_symbol
 _atom_site_label
 _atom_site_symmetry_multiplicity
 _atom_site_fract_x
 _atom_site_fract_y
 _atom_site_fract_z
 _atom_site_occupancy
  Dy  Dy0  1  0.668810  0.439035  0.189542  1
  Dy  Dy1  1  0.168810  0.060965  0.810458  1
  Dy  Dy2  1  0.331190  0.560965  0.810458  1
  Dy  Dy3  1  0.831190  0.939035  0.189542  1
  Si  Si4  1  0.455159  0.134227  0.089414  1
  Si  Si5  1  0.955159  0.365773  0.910586  1
  Si  Si6  1  0.544841  0.865773  0.910586  1
  Si  Si7  1  0.044841  0.634227  0.089414  1
  Si  Si8  1  0.868109  0.127844  0.504155  1
  Si  Si9  1  0.368109  0.372156  0.495845  1
  Si  Si10  1  0.131891  0.872156  0.495845  1
  Si  Si11  1  0.631891  0.627844  0.504155  1
  W  W12  1  0.500000  0.000000  0.500000  1
  W  W13  1  0.000000  0.500000  0.500000  1
  W  W14  1  0.159868  0.252089  0.250882  1
  W  W15  1  0.659868  0.247911  0.749118  1
  W  W16  1  0.840132  0.747911  0.749118  1
  W  W17  1  0.340132  0.752089  0.250882  1
