# generated using pymatgen
data_Yb2NbW7C8
_symmetry_space_group_name_H-M   'P 1'
_cell_length_a   8.43005200
_cell_length_b   8.38462389
_cell_length_c   3.26805500
_cell_angle_alpha   90.00000000
_cell_angle_beta   90.00000000
_cell_angle_gamma   89.47141088
_symmetry_Int_Tables_number   1
_chemical_formula_structural   Yb2NbW7C8
_chemical_formula_sum   'Yb2 Nb1 W7 C8'
_cell_volume   230.98549818
_cell_formula_units_Z   1
loop_
 _symmetry_equiv_pos_site_id
 _symmetry_equiv_pos_as_xyz
  1  'x, y, z'
loop_
 _atom_site_type_symbol
 _atom_site_label
 _atom_site_symmetry_multiplicity
 _atom_site_fract_x
 _atom_site_fract_y
 _atom_site_fract_z
 _atom_site_occupancy
  Yb  Yb0  1  0.998868  0.999895  0.000000  1
  Yb  Yb1  1  0.499957  0.498952  0.500000  1
  Nb  Nb2  1  0.382144  0.168545  0.000000  1
  W  W3  1  0.174320  0.621361  0.000000  1
  W  W4  1  0.312481  0.865536  0.500000  1
  W  W5  1  0.132524  0.317887  0.500000  1
  W  W6  1  0.618853  0.825448  0.000000  1
  W  W7  1  0.688879  0.135523  0.500000  1
  W  W8  1  0.866969  0.683268  0.500000  1
  W  W9  1  0.829349  0.381814  0.000000  1
  C  C10  1  0.764301  0.905485  0.500000  1
  C  C11  1  0.226544  0.092603  0.500000  1
  C  C12  1  0.907221  0.234002  0.500000  1
  C  C13  1  0.272663  0.396592  0.000000  1
  C  C14  1  0.395552  0.727013  0.000000  1
  C  C15  1  0.092003  0.766121  0.500000  1
  C  C16  1  0.610896  0.274899  0.000000  1
  C  C17  1  0.726475  0.605057  0.000000  1
