# generated using pymatgen
data_CePr4Nd(CI5)2
_symmetry_space_group_name_H-M   'P 1'
_cell_length_a   8.01883406
_cell_length_b   9.79994964
_cell_length_c   9.88422484
_cell_angle_alpha   107.02682379
_cell_angle_beta   97.02512202
_cell_angle_gamma   104.68520195
_symmetry_Int_Tables_number   1
_chemical_formula_structural   CePr4Nd(CI5)2
_chemical_formula_sum   'Ce1 Pr4 Nd1 C2 I10'
_cell_volume   702.02936403
_cell_formula_units_Z   1
loop_
 _symmetry_equiv_pos_site_id
 _symmetry_equiv_pos_as_xyz
  1  'x, y, z'
loop_
 _atom_site_type_symbol
 _atom_site_label
 _atom_site_symmetry_multiplicity
 _atom_site_fract_x
 _atom_site_fract_y
 _atom_site_fract_z
 _atom_site_occupancy
  Ce  Ce0  1  0.624879  0.865516  0.818261  1
  Pr  Pr1  1  0.108188  0.040854  0.776642  1
  Pr  Pr2  1  0.374131  0.134511  0.181013  1
  Pr  Pr3  1  0.892516  0.958713  0.223265  1
  Pr  Pr4  1  0.031909  0.735180  0.923991  1
  Nd  Nd5  1  0.969239  0.263285  0.075780  1
  C  C6  1  0.910718  0.969859  0.957864  1
  C  C7  1  0.084863  0.029727  0.040186  1
  I  I8  1  0.189487  0.733617  0.644124  1
  I  I9  1  0.087202  0.369863  0.822331  1
  I  I10  1  0.456617  0.809417  0.093295  1
  I  I11  1  0.254905  0.085376  0.462079  1
  I  I12  1  0.544859  0.192497  0.909511  1
  I  I13  1  0.813197  0.267101  0.354385  1
  I  I14  1  0.342986  0.456463  0.273512  1
  I  I15  1  0.912937  0.629519  0.179739  1
  I  I16  1  0.655140  0.543226  0.726059  1
  I  I17  1  0.746225  0.915274  0.537960  1
