# generated using pymatgen
data_Th2Rh2Au
_symmetry_space_group_name_H-M   'P 1'
_cell_length_a   7.72060400
_cell_length_b   7.72060400
_cell_length_c   3.73834300
_cell_angle_alpha   90.00000000
_cell_angle_beta   90.00000000
_cell_angle_gamma   90.00000000
_symmetry_Int_Tables_number   1
_chemical_formula_structural   Th2Rh2Au
_chemical_formula_sum   'Th4 Rh4 Au2'
_cell_volume   222.83412570
_cell_formula_units_Z   2
loop_
 _symmetry_equiv_pos_site_id
 _symmetry_equiv_pos_as_xyz
  1  'x, y, z'
loop_
 _atom_site_type_symbol
 _atom_site_label
 _atom_site_symmetry_multiplicity
 _atom_site_fract_x
 _atom_site_fract_y
 _atom_site_fract_z
 _atom_site_occupancy
  Th  Th0  1  0.326096  0.173904  0.500001  1
  Th  Th1  1  0.826096  0.326096  0.500001  1
  Th  Th2  1  0.173904  0.673905  0.500001  1
  Th  Th3  1  0.673905  0.826096  0.500001  1
  Rh  Rh4  1  0.632535  0.132536  0.000000  1
  Rh  Rh5  1  0.132536  0.367464  0.000000  1
  Rh  Rh6  1  0.867466  0.632535  0.000000  1
  Rh  Rh7  1  0.367464  0.867466  0.000000  1
  Au  Au8  1  0.000000  0.000000  0.000000  1
  Au  Au9  1  0.500000  0.500000  0.000000  1
