# generated using pymatgen
data_ErTm7Os3WC8
_symmetry_space_group_name_H-M   'P 1'
_cell_length_a   5.03222400
_cell_length_b   6.48820500
_cell_length_c   9.71152268
_cell_angle_alpha   89.61783657
_cell_angle_beta   90.00000000
_cell_angle_gamma   90.00000000
_symmetry_Int_Tables_number   1
_chemical_formula_structural   ErTm7Os3WC8
_chemical_formula_sum   'Er1 Tm7 Os3 W1 C8'
_cell_volume   317.07514201
_cell_formula_units_Z   1
loop_
 _symmetry_equiv_pos_site_id
 _symmetry_equiv_pos_as_xyz
  1  'x, y, z'
loop_
 _atom_site_type_symbol
 _atom_site_label
 _atom_site_symmetry_multiplicity
 _atom_site_fract_x
 _atom_site_fract_y
 _atom_site_fract_z
 _atom_site_occupancy
  Er  Er0  1  0.750000  0.968454  0.716540  1
  Tm  Tm1  1  0.250000  0.676547  0.555572  1
  Tm  Tm2  1  0.750000  0.324415  0.443412  1
  Tm  Tm3  1  0.750000  0.826180  0.056735  1
  Tm  Tm4  1  0.250000  0.178624  0.942980  1
  Tm  Tm5  1  0.250000  0.533328  0.214893  1
  Tm  Tm6  1  0.750000  0.465140  0.779755  1
  Tm  Tm7  1  0.250000  0.031303  0.284673  1
  Os  Os8  1  0.750000  0.282202  0.133287  1
  Os  Os9  1  0.750000  0.780412  0.365774  1
  Os  Os10  1  0.250000  0.221021  0.630179  1
  W  W11  1  0.250000  0.717966  0.870045  1
  C  C12  1  0.250000  0.450026  0.759749  1
  C  C13  1  0.750000  0.545983  0.242052  1
  C  C14  1  0.750000  0.047306  0.259214  1
  C  C15  1  0.250000  0.954633  0.740039  1
  C  C16  1  0.250000  0.827258  0.060349  1
  C  C17  1  0.750000  0.172645  0.947178  1
  C  C18  1  0.750000  0.669904  0.553537  1
  C  C19  1  0.250000  0.326650  0.444034  1
