# generated using pymatgen
data_Pr4Dy2Si3Ge
_symmetry_space_group_name_H-M   'P 1'
_cell_length_a   7.67320998
_cell_length_b   7.67320982
_cell_length_c   4.46545800
_cell_angle_alpha   90.00000000
_cell_angle_beta   90.00000000
_cell_angle_gamma   90.54768415
_symmetry_Int_Tables_number   1
_chemical_formula_structural   Pr4Dy2Si3Ge
_chemical_formula_sum   'Pr4 Dy2 Si3 Ge1'
_cell_volume   262.90589510
_cell_formula_units_Z   1
loop_
 _symmetry_equiv_pos_site_id
 _symmetry_equiv_pos_as_xyz
  1  'x, y, z'
loop_
 _atom_site_type_symbol
 _atom_site_label
 _atom_site_symmetry_multiplicity
 _atom_site_fract_x
 _atom_site_fract_y
 _atom_site_fract_z
 _atom_site_occupancy
  Pr  Pr0  1  0.320171  0.822942  0.500000  1
  Pr  Pr1  1  0.824501  0.675499  0.500000  1
  Pr  Pr2  1  0.176991  0.323009  0.500000  1
  Pr  Pr3  1  0.677058  0.179829  0.500000  1
  Dy  Dy4  1  0.002578  0.001093  0.000000  1
  Dy  Dy5  1  0.498907  0.497422  0.000000  1
  Si  Si6  1  0.384027  0.115973  0.000000  1
  Si  Si7  1  0.886944  0.387321  0.000000  1
  Si  Si8  1  0.112679  0.613056  0.000000  1
  Ge  Ge9  1  0.616144  0.883856  0.000000  1
