# generated using pymatgen
data_Sm2Hg3(SeCl4)2
_symmetry_space_group_name_H-M   'P 1'
_cell_length_a   7.70545617
_cell_length_b   7.70545592
_cell_length_c   9.86820329
_cell_angle_alpha   64.44802655
_cell_angle_beta   64.44802515
_cell_angle_gamma   58.74486372
_symmetry_Int_Tables_number   1
_chemical_formula_structural   Sm2Hg3(SeCl4)2
_chemical_formula_sum   'Sm2 Hg3 Se2 Cl8'
_cell_volume   435.22237502
_cell_formula_units_Z   1
loop_
 _symmetry_equiv_pos_site_id
 _symmetry_equiv_pos_as_xyz
  1  'x, y, z'
loop_
 _atom_site_type_symbol
 _atom_site_label
 _atom_site_symmetry_multiplicity
 _atom_site_fract_x
 _atom_site_fract_y
 _atom_site_fract_z
 _atom_site_occupancy
  Sm  Sm0  1  0.138402  0.138402  0.550966  1
  Sm  Sm1  1  0.861598  0.861598  0.449034  1
  Hg  Hg2  1  0.000000  0.500000  0.000000  1
  Hg  Hg3  1  0.500000  0.000000  0.000000  1
  Hg  Hg4  1  0.500000  0.500000  0.000000  1
  Se  Se5  1  0.611092  0.611092  0.146198  1
  Se  Se6  1  0.388908  0.388908  0.853802  1
  Cl  Cl7  1  0.226143  0.773857  0.500000  1
  Cl  Cl8  1  0.773857  0.226143  0.500000  1
  Cl  Cl9  1  0.931377  0.472406  0.691174  1
  Cl  Cl10  1  0.472406  0.931377  0.691174  1
  Cl  Cl11  1  0.068623  0.527594  0.308826  1
  Cl  Cl12  1  0.527594  0.068623  0.308826  1
  Cl  Cl13  1  0.957202  0.957202  0.845425  1
  Cl  Cl14  1  0.042798  0.042798  0.154575  1
