# generated using pymatgen
data_Ta6Al5V4BSb
_symmetry_space_group_name_H-M   'P 1'
_cell_length_a   7.74113780
_cell_length_b   7.79795312
_cell_length_c   5.10493387
_cell_angle_alpha   89.90355721
_cell_angle_beta   90.04335724
_cell_angle_gamma   120.24401756
_symmetry_Int_Tables_number   1
_chemical_formula_structural   Ta6Al5V4BSb
_chemical_formula_sum   'Ta6 Al5 V4 B1 Sb1'
_cell_volume   266.21493307
_cell_formula_units_Z   1
loop_
 _symmetry_equiv_pos_site_id
 _symmetry_equiv_pos_as_xyz
  1  'x, y, z'
loop_
 _atom_site_type_symbol
 _atom_site_label
 _atom_site_symmetry_multiplicity
 _atom_site_fract_x
 _atom_site_fract_y
 _atom_site_fract_z
 _atom_site_occupancy
  Ta  Ta0  1  0.000048  0.772883  0.239019  1
  Ta  Ta1  1  0.242103  0.231115  0.237872  1
  Ta  Ta2  1  0.757844  0.988913  0.237848  1
  Ta  Ta3  1  0.000030  0.233555  0.756240  1
  Ta  Ta4  1  0.761806  0.764431  0.763334  1
  Ta  Ta5  1  0.238106  0.002516  0.763366  1
  Al  Al6  1  0.589579  0.587444  0.255951  1
  Al  Al7  1  0.410485  0.998001  0.255958  1
  Al  Al8  1  0.999938  0.597254  0.747377  1
  Al  Al9  1  0.408136  0.409091  0.745227  1
  Al  Al10  1  0.591895  0.001063  0.745258  1
  V  V11  1  0.339526  0.670705  0.505610  1
  V  V12  1  0.660497  0.331167  0.505579  1
  V  V13  1  0.658776  0.330136  0.994116  1
  V  V14  1  0.341243  0.671381  0.994083  1
  B  B15  1  0.999989  0.000630  0.501725  1
  Sb  Sb16  1  0.999998  0.409713  0.251439  1
