# generated using pymatgen
data_Tb4Al6ReTc
_symmetry_space_group_name_H-M   'P 1'
_cell_length_a   5.54925400
_cell_length_b   5.54925356
_cell_length_c   8.95015500
_cell_angle_alpha   90.00000000
_cell_angle_beta   90.00000000
_cell_angle_gamma   119.99999073
_symmetry_Int_Tables_number   1
_chemical_formula_structural   Tb4Al6ReTc
_chemical_formula_sum   'Tb4 Al6 Re1 Tc1'
_cell_volume   238.68789892
_cell_formula_units_Z   1
loop_
 _symmetry_equiv_pos_site_id
 _symmetry_equiv_pos_as_xyz
  1  'x, y, z'
loop_
 _atom_site_type_symbol
 _atom_site_label
 _atom_site_symmetry_multiplicity
 _atom_site_fract_x
 _atom_site_fract_y
 _atom_site_fract_z
 _atom_site_occupancy
  Tb  Tb0  1  0.666665  0.333333  0.050977  1
  Tb  Tb1  1  0.666665  0.333333  0.449063  1
  Tb  Tb2  1  0.333334  0.666667  0.550937  1
  Tb  Tb3  1  0.333334  0.666667  0.949024  1
  Al  Al4  1  0.161634  0.323268  0.250062  1
  Al  Al5  1  0.161634  0.838366  0.250062  1
  Al  Al6  1  0.676732  0.838366  0.250062  1
  Al  Al7  1  0.323267  0.161634  0.749938  1
  Al  Al8  1  0.838367  0.161634  0.749938  1
  Al  Al9  1  0.838365  0.676732  0.749938  1
  Re  Re10  1  0.000000  0.000000  0.500000  1
  Tc  Tc11  1  0.000000  0.000000  0.000000  1
