# generated using pymatgen
data_Nd2Al9CoPd2
_symmetry_space_group_name_H-M   'P 1'
_cell_length_a   7.59890637
_cell_length_b   7.59890541
_cell_length_c   9.53641490
_cell_angle_alpha   89.72043111
_cell_angle_beta   89.72043929
_cell_angle_gamma   119.43925183
_symmetry_Int_Tables_number   1
_chemical_formula_structural   Nd2Al9CoPd2
_chemical_formula_sum   'Nd4 Al18 Co2 Pd4'
_cell_volume   479.53897047
_cell_formula_units_Z   2
loop_
 _symmetry_equiv_pos_site_id
 _symmetry_equiv_pos_as_xyz
  1  'x, y, z'
loop_
 _atom_site_type_symbol
 _atom_site_label
 _atom_site_symmetry_multiplicity
 _atom_site_fract_x
 _atom_site_fract_y
 _atom_site_fract_z
 _atom_site_occupancy
  Nd  Nd0  1  0.004400  0.330787  0.749947  1
  Nd  Nd1  1  0.334089  0.009034  0.749745  1
  Nd  Nd2  1  0.990966  0.665911  0.250255  1
  Nd  Nd3  1  0.669213  0.995600  0.250053  1
  Al  Al4  1  0.656889  0.989057  0.926885  1
  Al  Al5  1  0.999948  0.674753  0.572120  1
  Al  Al6  1  0.128633  0.127315  0.255949  1
  Al  Al7  1  0.659078  0.665862  0.048181  1
  Al  Al8  1  0.326388  0.326660  0.548195  1
  Al  Al9  1  0.334138  0.340922  0.951819  1
  Al  Al10  1  0.673340  0.673612  0.451805  1
  Al  Al11  1  0.333404  0.990497  0.072794  1
  Al  Al12  1  0.002213  0.326111  0.427448  1
  Al  Al13  1  0.339686  0.549750  0.242425  1
  Al  Al14  1  0.010943  0.343111  0.073115  1
  Al  Al15  1  0.541248  0.339508  0.249957  1
  Al  Al16  1  0.660492  0.458752  0.750043  1
  Al  Al17  1  0.872685  0.871367  0.744051  1
  Al  Al18  1  0.009503  0.666596  0.927206  1
  Al  Al19  1  0.673889  0.997787  0.572552  1
  Al  Al20  1  0.325247  0.000052  0.427880  1
  Al  Al21  1  0.450250  0.660314  0.757575  1
  Co  Co22  1  0.999961  0.000039  0.500000  1
  Co  Co23  1  0.330367  0.669633  0.000000  1
  Pd  Pd24  1  0.671437  0.328563  0.500000  1
  Pd  Pd25  1  0.672049  0.327951  0.000000  1
  Pd  Pd26  1  0.329229  0.670771  0.500000  1
  Pd  Pd27  1  0.000313  0.999687  0.000000  1
