# generated using pymatgen
data_La7Y(SiBr6)2
_symmetry_space_group_name_H-M   'P 1'
_cell_length_a   4.29088700
_cell_length_b   13.96198742
_cell_length_c   14.74574365
_cell_angle_alpha   90.89360509
_cell_angle_beta   90.00000000
_cell_angle_gamma   90.00000000
_symmetry_Int_Tables_number   1
_chemical_formula_structural   La7Y(SiBr6)2
_chemical_formula_sum   'La7 Y1 Si2 Br12'
_cell_volume   883.29989169
_cell_formula_units_Z   1
loop_
 _symmetry_equiv_pos_site_id
 _symmetry_equiv_pos_as_xyz
  1  'x, y, z'
loop_
 _atom_site_type_symbol
 _atom_site_label
 _atom_site_symmetry_multiplicity
 _atom_site_fract_x
 _atom_site_fract_y
 _atom_site_fract_z
 _atom_site_occupancy
  La  La0  1  0.500000  0.120080  0.339988  1
  La  La1  1  0.500000  0.881280  0.660988  1
  La  La2  1  0.500000  0.618719  0.159423  1
  La  La3  1  0.000000  0.124115  0.583471  1
  La  La4  1  0.000000  0.880052  0.419939  1
  La  La5  1  0.000000  0.618359  0.917844  1
  La  La6  1  0.000000  0.377683  0.076875  1
  Y  Y7  1  0.500000  0.383103  0.842781  1
  Si  Si8  1  0.500000  0.002057  0.501377  1
  Si  Si9  1  0.500000  0.498134  0.997481  1
  Br  Br10  1  0.500000  0.242200  0.160906  1
  Br  Br11  1  0.500000  0.755987  0.837177  1
  Br  Br12  1  0.500000  0.741881  0.337617  1
  Br  Br13  1  0.500000  0.261015  0.670806  1
  Br  Br14  1  0.000000  0.254862  0.413398  1
  Br  Br15  1  0.000000  0.746389  0.587630  1
  Br  Br16  1  0.000000  0.752914  0.088391  1
  Br  Br17  1  0.000000  0.254482  0.900275  1
  Br  Br18  1  0.000000  0.001051  0.244675  1
  Br  Br19  1  0.000000  0.999382  0.756643  1
  Br  Br20  1  0.000000  0.501475  0.253839  1
  Br  Br21  1  0.000000  0.484780  0.748477  1
