# generated using pymatgen
data_TbY3ReRuC4
_symmetry_space_group_name_H-M   'P 1'
_cell_length_a   5.12542600
_cell_length_b   6.54900000
_cell_length_c   9.86522300
_cell_angle_alpha   90.00000000
_cell_angle_beta   90.00000000
_cell_angle_gamma   90.00000000
_symmetry_Int_Tables_number   1
_chemical_formula_structural   TbY3ReRuC4
_chemical_formula_sum   'Tb2 Y6 Re2 Ru2 C8'
_cell_volume   331.14016804
_cell_formula_units_Z   2
loop_
 _symmetry_equiv_pos_site_id
 _symmetry_equiv_pos_as_xyz
  1  'x, y, z'
loop_
 _atom_site_type_symbol
 _atom_site_label
 _atom_site_symmetry_multiplicity
 _atom_site_fract_x
 _atom_site_fract_y
 _atom_site_fract_z
 _atom_site_occupancy
  Tb  Tb0  1  0.750000  0.970983  0.715095  1
  Tb  Tb1  1  0.250000  0.529017  0.215095  1
  Y  Y2  1  0.750000  0.823918  0.054496  1
  Y  Y3  1  0.250000  0.676082  0.554496  1
  Y  Y4  1  0.750000  0.317885  0.443369  1
  Y  Y5  1  0.250000  0.182115  0.943369  1
  Y  Y6  1  0.750000  0.468140  0.784335  1
  Y  Y7  1  0.250000  0.031860  0.284335  1
  Re  Re8  1  0.750000  0.777010  0.364402  1
  Re  Re9  1  0.250000  0.722990  0.864402  1
  Ru  Ru10  1  0.750000  0.276785  0.135057  1
  Ru  Ru11  1  0.250000  0.223215  0.635057  1
  C  C12  1  0.750000  0.177672  0.950470  1
  C  C13  1  0.250000  0.821770  0.050133  1
  C  C14  1  0.750000  0.678230  0.550133  1
  C  C15  1  0.250000  0.322328  0.450470  1
  C  C16  1  0.750000  0.042464  0.260358  1
  C  C17  1  0.250000  0.457536  0.760358  1
  C  C18  1  0.750000  0.544179  0.242285  1
  C  C19  1  0.250000  0.955821  0.742285  1
