# generated using pymatgen
data_Ca2Sc3Ni9As7
_symmetry_space_group_name_H-M   'P 1'
_cell_length_a   3.88383700
_cell_length_b   9.77025559
_cell_length_c   9.77025700
_cell_angle_alpha   119.99999462
_cell_angle_beta   90.00000000
_cell_angle_gamma   90.00000000
_symmetry_Int_Tables_number   1
_chemical_formula_structural   Ca2Sc3Ni9As7
_chemical_formula_sum   'Ca2 Sc3 Ni9 As7'
_cell_volume   321.07283493
_cell_formula_units_Z   1
loop_
 _symmetry_equiv_pos_site_id
 _symmetry_equiv_pos_as_xyz
  1  'x, y, z'
loop_
 _atom_site_type_symbol
 _atom_site_label
 _atom_site_symmetry_multiplicity
 _atom_site_fract_x
 _atom_site_fract_y
 _atom_site_fract_z
 _atom_site_occupancy
  Ca  Ca0  1  0.000000  0.666667  0.333333  1
  Ca  Ca1  1  0.500000  0.333333  0.666667  1
  Sc  Sc2  1  0.500000  0.769666  0.887972  1
  Sc  Sc3  1  0.500000  0.118307  0.230334  1
  Sc  Sc4  1  0.500000  0.112028  0.881693  1
  Ni  Ni5  1  0.000000  0.579752  0.936115  1
  Ni  Ni6  1  0.000000  0.356362  0.420248  1
  Ni  Ni7  1  0.000000  0.063885  0.643638  1
  Ni  Ni8  1  0.000000  0.871373  0.155818  1
  Ni  Ni9  1  0.000000  0.284446  0.128627  1
  Ni  Ni10  1  0.000000  0.844182  0.715554  1
  Ni  Ni11  1  0.500000  0.946325  0.387037  1
  Ni  Ni12  1  0.500000  0.440711  0.053675  1
  Ni  Ni13  1  0.500000  0.612963  0.559289  1
  As  As14  1  0.500000  0.710129  0.128471  1
  As  As15  1  0.500000  0.418344  0.289871  1
  As  As16  1  0.500000  0.871529  0.581656  1
  As  As17  1  0.000000  0.000000  0.000000  1
  As  As18  1  0.000000  0.577303  0.681242  1
  As  As19  1  0.000000  0.103939  0.422697  1
  As  As20  1  0.000000  0.318758  0.896061  1
