# generated using pymatgen
data_Eu3Bi(Pt2O7)2
_symmetry_space_group_name_H-M   'P 1'
_cell_length_a   7.41792735
_cell_length_b   7.38129505
_cell_length_c   7.38129500
_cell_angle_alpha   59.99999574
_cell_angle_beta   60.16322097
_cell_angle_gamma   60.16321954
_symmetry_Int_Tables_number   1
_chemical_formula_structural   Eu3Bi(Pt2O7)2
_chemical_formula_sum   'Eu3 Bi1 Pt4 O14'
_cell_volume   286.48357947
_cell_formula_units_Z   1
loop_
 _symmetry_equiv_pos_site_id
 _symmetry_equiv_pos_as_xyz
  1  'x, y, z'
loop_
 _atom_site_type_symbol
 _atom_site_label
 _atom_site_symmetry_multiplicity
 _atom_site_fract_x
 _atom_site_fract_y
 _atom_site_fract_z
 _atom_site_occupancy
  Eu  Eu0  1  0.125000  0.625000  0.125000  1
  Eu  Eu1  1  0.125000  0.125000  0.625000  1
  Eu  Eu2  1  0.125000  0.125000  0.125000  1
  Bi  Bi3  1  0.625000  0.125000  0.125000  1
  Pt  Pt4  1  0.125000  0.625000  0.625000  1
  Pt  Pt5  1  0.625000  0.125000  0.625000  1
  Pt  Pt6  1  0.625000  0.625000  0.125000  1
  Pt  Pt7  1  0.625000  0.625000  0.625000  1
  O  O8  1  0.249898  0.250034  0.250034  1
  O  O9  1  0.000102  0.999966  0.999966  1
  O  O10  1  0.709365  0.707833  0.291401  1
  O  O11  1  0.291016  0.290111  0.709436  1
  O  O12  1  0.709365  0.291401  0.707833  1
  O  O13  1  0.291016  0.709436  0.290111  1
  O  O14  1  0.291016  0.709436  0.709436  1
  O  O15  1  0.709365  0.291401  0.291401  1
  O  O16  1  0.540635  0.542167  0.958599  1
  O  O17  1  0.958984  0.959889  0.540564  1
  O  O18  1  0.540635  0.958599  0.542167  1
  O  O19  1  0.958984  0.540564  0.959889  1
  O  O20  1  0.958984  0.540564  0.540564  1
  O  O21  1  0.540635  0.958599  0.958599  1
