# generated using pymatgen
data_Nd3TmZn4Si3Ge
_symmetry_space_group_name_H-M   'P 1'
_cell_length_a   4.22635400
_cell_length_b   4.22635320
_cell_length_c   16.21430700
_cell_angle_alpha   90.00000000
_cell_angle_beta   90.00000000
_cell_angle_gamma   120.00000630
_symmetry_Int_Tables_number   1
_chemical_formula_structural   Nd3TmZn4Si3Ge
_chemical_formula_sum   'Nd3 Tm1 Zn4 Si3 Ge1'
_cell_volume   250.81912860
_cell_formula_units_Z   1
loop_
 _symmetry_equiv_pos_site_id
 _symmetry_equiv_pos_as_xyz
  1  'x, y, z'
loop_
 _atom_site_type_symbol
 _atom_site_label
 _atom_site_symmetry_multiplicity
 _atom_site_fract_x
 _atom_site_fract_y
 _atom_site_fract_z
 _atom_site_occupancy
  Nd  Nd0  1  0.000000  0.000000  0.748249  1
  Nd  Nd1  1  0.000000  0.000000  0.009220  1
  Nd  Nd2  1  0.000000  0.000000  0.491880  1
  Tm  Tm3  1  0.000000  0.000000  0.250734  1
  Zn  Zn4  1  0.333333  0.666667  0.153069  1
  Zn  Zn5  1  0.666667  0.333333  0.863395  1
  Zn  Zn6  1  0.666667  0.333333  0.631565  1
  Zn  Zn7  1  0.333333  0.666667  0.348374  1
  Si  Si8  1  0.333333  0.666667  0.615582  1
  Si  Si9  1  0.666667  0.333333  0.374467  1
  Si  Si10  1  0.666667  0.333333  0.126482  1
  Ge  Ge11  1  0.333333  0.666667  0.886983  1
