# generated using pymatgen
data_SmTh9(Sn3Se)2
_symmetry_space_group_name_H-M   'P 1'
_cell_length_a   9.49552529
_cell_length_b   9.51590298
_cell_length_c   6.68521000
_cell_angle_alpha   90.00000000
_cell_angle_beta   90.00000000
_cell_angle_gamma   120.07101653
_symmetry_Int_Tables_number   1
_chemical_formula_structural   SmTh9(Sn3Se)2
_chemical_formula_sum   'Sm1 Th9 Sn6 Se2'
_cell_volume   522.76133201
_cell_formula_units_Z   1
loop_
 _symmetry_equiv_pos_site_id
 _symmetry_equiv_pos_as_xyz
  1  'x, y, z'
loop_
 _atom_site_type_symbol
 _atom_site_label
 _atom_site_symmetry_multiplicity
 _atom_site_fract_x
 _atom_site_fract_y
 _atom_site_fract_z
 _atom_site_occupancy
  Sm  Sm0  1  0.000000  0.736414  0.750000  1
  Th  Th1  1  0.264276  0.264552  0.750000  1
  Th  Th2  1  0.333614  0.666276  0.499035  1
  Th  Th3  1  0.666386  0.332660  0.499035  1
  Th  Th4  1  0.736556  0.736440  0.250000  1
  Th  Th5  1  0.735724  0.000276  0.750000  1
  Th  Th6  1  0.000000  0.264022  0.250000  1
  Th  Th7  1  0.263444  0.999884  0.250000  1
  Th  Th8  1  0.333614  0.666276  0.000965  1
  Th  Th9  1  0.666386  0.332660  0.000965  1
  Sn  Sn10  1  0.614217  0.612884  0.750000  1
  Sn  Sn11  1  0.000000  0.389087  0.750000  1
  Sn  Sn12  1  0.385783  0.998667  0.750000  1
  Sn  Sn13  1  0.612341  0.000228  0.250000  1
  Sn  Sn14  1  0.387659  0.387887  0.250000  1
  Sn  Sn15  1  0.000000  0.612311  0.250000  1
  Se  Se16  1  0.000000  0.999738  0.999529  1
  Se  Se17  1  0.000000  0.999738  0.500471  1
