# generated using pymatgen
data_La5Ga2Rh3
_symmetry_space_group_name_H-M   'P 1'
_cell_length_a   8.69033450
_cell_length_b   8.69033494
_cell_length_c   8.69033500
_cell_angle_alpha   109.47121844
_cell_angle_beta   109.47121947
_cell_angle_gamma   109.47122077
_symmetry_Int_Tables_number   1
_chemical_formula_structural   La5Ga2Rh3
_chemical_formula_sum   'La10 Ga4 Rh6'
_cell_volume   505.22828149
_cell_formula_units_Z   2
loop_
 _symmetry_equiv_pos_site_id
 _symmetry_equiv_pos_as_xyz
  1  'x, y, z'
loop_
 _atom_site_type_symbol
 _atom_site_label
 _atom_site_symmetry_multiplicity
 _atom_site_fract_x
 _atom_site_fract_y
 _atom_site_fract_z
 _atom_site_occupancy
  La  La0  1  0.783746  0.783746  0.783746  1
  La  La1  1  0.306022  0.556022  0.750000  1
  La  La2  1  0.750000  0.306022  0.556022  1
  La  La3  1  0.556022  0.750000  0.306022  1
  La  La4  1  0.716254  0.500000  0.000000  1
  La  La5  1  0.000000  0.716254  0.500000  1
  La  La6  1  0.500000  0.000000  0.716254  1
  La  La7  1  0.250000  0.193978  0.943978  1
  La  La8  1  0.943978  0.250000  0.193978  1
  La  La9  1  0.193978  0.943978  0.250000  1
  Ga  Ga10  1  0.405175  0.405175  0.405175  1
  Ga  Ga11  1  0.094825  0.500000  0.000000  1
  Ga  Ga12  1  0.000000  0.094825  0.500000  1
  Ga  Ga13  1  0.500000  0.000000  0.094825  1
  Rh  Rh14  1  0.875294  0.125294  0.750000  1
  Rh  Rh15  1  0.750000  0.875294  0.125294  1
  Rh  Rh16  1  0.125294  0.750000  0.875294  1
  Rh  Rh17  1  0.250000  0.624706  0.374706  1
  Rh  Rh18  1  0.374706  0.250000  0.624706  1
  Rh  Rh19  1  0.624706  0.374706  0.250000  1
