# generated using pymatgen
data_Lu2SiCO7
_symmetry_space_group_name_H-M   'P 1'
_cell_length_a   6.53948800
_cell_length_b   6.56569881
_cell_length_c   6.40364506
_cell_angle_alpha   116.36238569
_cell_angle_beta   93.28493706
_cell_angle_gamma   95.42747574
_symmetry_Int_Tables_number   1
_chemical_formula_structural   Lu2SiCO7
_chemical_formula_sum   'Lu4 Si2 C2 O14'
_cell_volume   243.72615463
_cell_formula_units_Z   2
loop_
 _symmetry_equiv_pos_site_id
 _symmetry_equiv_pos_as_xyz
  1  'x, y, z'
loop_
 _atom_site_type_symbol
 _atom_site_label
 _atom_site_symmetry_multiplicity
 _atom_site_fract_x
 _atom_site_fract_y
 _atom_site_fract_z
 _atom_site_occupancy
  Lu  Lu0  1  0.912753  0.698379  0.250695  1
  Lu  Lu1  1  0.669241  0.185160  0.254349  1
  Lu  Lu2  1  0.330759  0.814838  0.745650  1
  Lu  Lu3  1  0.087248  0.301619  0.749300  1
  Si  Si4  1  0.158751  0.242625  0.263405  1
  Si  Si5  1  0.841250  0.757373  0.736594  1
  C  C6  1  0.411345  0.734023  0.194929  1
  C  C7  1  0.588654  0.265983  0.805072  1
  O  O8  1  0.647270  0.378028  0.027182  1
  O  O9  1  0.034990  0.343519  0.106891  1
  O  O10  1  0.336832  0.092547  0.127983  1
  O  O11  1  0.601480  0.836594  0.267775  1
  O  O12  1  0.980711  0.087098  0.331438  1
  O  O13  1  0.283418  0.749750  0.345107  1
  O  O14  1  0.752707  0.556557  0.472730  1
  O  O15  1  0.247291  0.443446  0.527269  1
  O  O16  1  0.716583  0.250251  0.654894  1
  O  O17  1  0.019291  0.912900  0.668563  1
  O  O18  1  0.398519  0.163407  0.732226  1
  O  O19  1  0.663173  0.907451  0.872022  1
  O  O20  1  0.965005  0.656471  0.893103  1
  O  O21  1  0.352726  0.621982  0.972818  1
