# generated using pymatgen
data_Zr6Ti4Ge6N
_symmetry_space_group_name_H-M   'P 1'
_cell_length_a   7.88761900
_cell_length_b   7.88761988
_cell_length_c   5.30426800
_cell_angle_alpha   90.00000000
_cell_angle_beta   90.00000000
_cell_angle_gamma   120.00001729
_symmetry_Int_Tables_number   1
_chemical_formula_structural   Zr6Ti4Ge6N
_chemical_formula_sum   'Zr6 Ti4 Ge6 N1'
_cell_volume   285.79058155
_cell_formula_units_Z   1
loop_
 _symmetry_equiv_pos_site_id
 _symmetry_equiv_pos_as_xyz
  1  'x, y, z'
loop_
 _atom_site_type_symbol
 _atom_site_label
 _atom_site_symmetry_multiplicity
 _atom_site_fract_x
 _atom_site_fract_y
 _atom_site_fract_z
 _atom_site_occupancy
  Zr  Zr0  1  0.000000  0.758219  0.254481  1
  Zr  Zr1  1  0.241781  0.241781  0.254481  1
  Zr  Zr2  1  0.758219  0.000000  0.254481  1
  Zr  Zr3  1  0.000000  0.241781  0.745519  1
  Zr  Zr4  1  0.758219  0.758219  0.745519  1
  Zr  Zr5  1  0.241781  0.000000  0.745519  1
  Ti  Ti6  1  0.333333  0.666667  0.500000  1
  Ti  Ti7  1  0.666667  0.333333  0.500000  1
  Ti  Ti8  1  0.666667  0.333333  0.000000  1
  Ti  Ti9  1  0.333333  0.666667  0.000000  1
  Ge  Ge10  1  0.000000  0.403361  0.245796  1
  Ge  Ge11  1  0.596639  0.596639  0.245796  1
  Ge  Ge12  1  0.403361  0.000000  0.245796  1
  Ge  Ge13  1  0.000000  0.596639  0.754204  1
  Ge  Ge14  1  0.403361  0.403361  0.754204  1
  Ge  Ge15  1  0.596639  0.000000  0.754204  1
  N  N16  1  0.000000  0.000000  0.500000  1
