# generated using pymatgen
data_NdEr3Ir3RhO14
_symmetry_space_group_name_H-M   'P 1'
_cell_length_a   7.29561134
_cell_length_b   7.20315035
_cell_length_c   7.21004499
_cell_angle_alpha   60.03163421
_cell_angle_beta   60.35318850
_cell_angle_gamma   60.41836584
_symmetry_Int_Tables_number   1
_chemical_formula_structural   NdEr3Ir3RhO14
_chemical_formula_sum   'Nd1 Er3 Ir3 Rh1 O14'
_cell_volume   269.53781366
_cell_formula_units_Z   1
loop_
 _symmetry_equiv_pos_site_id
 _symmetry_equiv_pos_as_xyz
  1  'x, y, z'
loop_
 _atom_site_type_symbol
 _atom_site_label
 _atom_site_symmetry_multiplicity
 _atom_site_fract_x
 _atom_site_fract_y
 _atom_site_fract_z
 _atom_site_occupancy
  Nd  Nd0  1  0.625000  0.125000  0.125000  1
  Er  Er1  1  0.125000  0.625000  0.125000  1
  Er  Er2  1  0.125000  0.125000  0.625000  1
  Er  Er3  1  0.125000  0.125000  0.125000  1
  Ir  Ir4  1  0.125000  0.625000  0.625000  1
  Ir  Ir5  1  0.625000  0.125000  0.625000  1
  Ir  Ir6  1  0.625000  0.625000  0.625000  1
  Rh  Rh7  1  0.625000  0.625000  0.125000  1
  O  O8  1  0.723614  0.703742  0.288884  1
  O  O9  1  0.288911  0.290138  0.706279  1
  O  O10  1  0.722804  0.290356  0.696483  1
  O  O11  1  0.282881  0.714144  0.288832  1
  O  O12  1  0.288911  0.714673  0.706279  1
  O  O13  1  0.723614  0.283759  0.288884  1
  O  O14  1  0.526386  0.546258  0.961116  1
  O  O15  1  0.961089  0.959862  0.543721  1
  O  O16  1  0.527196  0.959644  0.553517  1
  O  O17  1  0.967119  0.535856  0.961168  1
  O  O18  1  0.961089  0.535327  0.543721  1
  O  O19  1  0.526386  0.966241  0.961116  1
  O  O20  1  0.238029  0.253416  0.255141  1
  O  O21  1  0.011971  0.996584  0.994859  1
