# generated using pymatgen
data_SrSnPd2Pb
_symmetry_space_group_name_H-M   'P 1'
_cell_length_a   4.76793000
_cell_length_b   4.76793000
_cell_length_c   10.97734500
_cell_angle_alpha   90.00000000
_cell_angle_beta   90.00000000
_cell_angle_gamma   90.00000000
_symmetry_Int_Tables_number   1
_chemical_formula_structural   SrSnPd2Pb
_chemical_formula_sum   'Sr2 Sn2 Pd4 Pb2'
_cell_volume   249.54970167
_cell_formula_units_Z   2
loop_
 _symmetry_equiv_pos_site_id
 _symmetry_equiv_pos_as_xyz
  1  'x, y, z'
loop_
 _atom_site_type_symbol
 _atom_site_label
 _atom_site_symmetry_multiplicity
 _atom_site_fract_x
 _atom_site_fract_y
 _atom_site_fract_z
 _atom_site_occupancy
  Sr  Sr0  1  0.000000  0.500000  0.239306  1
  Sr  Sr1  1  0.500000  0.000000  0.760694  1
  Sn  Sn2  1  0.000000  0.500000  0.884873  1
  Sn  Sn3  1  0.500000  0.000000  0.115127  1
  Pd  Pd4  1  0.000000  0.500000  0.644097  1
  Pd  Pd5  1  0.500000  0.000000  0.355903  1
  Pd  Pd6  1  0.000000  0.000000  0.000000  1
  Pd  Pd7  1  0.500000  0.500000  0.000000  1
  Pb  Pb8  1  0.000000  0.000000  0.500000  1
  Pb  Pb9  1  0.500000  0.500000  0.500000  1
