# generated using pymatgen
data_Y6Tm10Cd4Ir3Pt
_symmetry_space_group_name_H-M   'P 1'
_cell_length_a   9.57963240
_cell_length_b   9.57963282
_cell_length_c   9.57963158
_cell_angle_alpha   60.10967314
_cell_angle_beta   60.10967263
_cell_angle_gamma   60.10967240
_symmetry_Int_Tables_number   1
_chemical_formula_structural   Y6Tm10Cd4Ir3Pt
_chemical_formula_sum   'Y6 Tm10 Cd4 Ir3 Pt1'
_cell_volume   623.17400115
_cell_formula_units_Z   1
loop_
 _symmetry_equiv_pos_site_id
 _symmetry_equiv_pos_as_xyz
  1  'x, y, z'
loop_
 _atom_site_type_symbol
 _atom_site_label
 _atom_site_symmetry_multiplicity
 _atom_site_fract_x
 _atom_site_fract_y
 _atom_site_fract_z
 _atom_site_occupancy
  Y  Y0  1  0.940360  0.560810  0.560810  1
  Y  Y1  1  0.562020  0.938973  0.938973  1
  Y  Y2  1  0.560810  0.940360  0.560810  1
  Y  Y3  1  0.938973  0.562020  0.938973  1
  Y  Y4  1  0.560810  0.560810  0.940360  1
  Y  Y5  1  0.938973  0.938973  0.562020  1
  Tm  Tm6  1  0.347886  0.347886  0.347886  1
  Tm  Tm7  1  0.351217  0.351217  0.951470  1
  Tm  Tm8  1  0.351217  0.951470  0.351217  1
  Tm  Tm9  1  0.951470  0.351217  0.351217  1
  Tm  Tm10  1  0.806721  0.189786  0.189786  1
  Tm  Tm11  1  0.187206  0.811157  0.811157  1
  Tm  Tm12  1  0.189786  0.806721  0.189786  1
  Tm  Tm13  1  0.811157  0.187206  0.811157  1
  Tm  Tm14  1  0.189786  0.189786  0.806721  1
  Tm  Tm15  1  0.811157  0.811157  0.187206  1
  Cd  Cd16  1  0.580117  0.580117  0.580117  1
  Cd  Cd17  1  0.580750  0.580750  0.257819  1
  Cd  Cd18  1  0.580750  0.257819  0.580750  1
  Cd  Cd19  1  0.257819  0.580750  0.580750  1
  Ir  Ir20  1  0.141988  0.141988  0.574768  1
  Ir  Ir21  1  0.141988  0.574768  0.141988  1
  Ir  Ir22  1  0.574768  0.141988  0.141988  1
  Pt  Pt23  1  0.142276  0.142276  0.142276  1
