# generated using pymatgen
data_KTaSe3
_symmetry_space_group_name_H-M   'P 1'
_cell_length_a   7.38764841
_cell_length_b   13.20036900
_cell_length_c   28.97419616
_cell_angle_alpha   90.00000000
_cell_angle_beta   90.06328203
_cell_angle_gamma   90.00000000
_symmetry_Int_Tables_number   1
_chemical_formula_structural   KTaSe3
_chemical_formula_sum   'K20 Ta20 Se60'
_cell_volume   2825.55276120
_cell_formula_units_Z   20
loop_
 _symmetry_equiv_pos_site_id
 _symmetry_equiv_pos_as_xyz
  1  'x, y, z'
loop_
 _atom_site_type_symbol
 _atom_site_label
 _atom_site_symmetry_multiplicity
 _atom_site_fract_x
 _atom_site_fract_y
 _atom_site_fract_z
 _atom_site_occupancy
  K  K0  1  0.725368  0.055036  0.548738  1
  K  K1  1  0.274632  0.944964  0.451262  1
  K  K2  1  0.725368  0.444964  0.048738  1
  K  K3  1  0.749840  0.081420  0.139179  1
  K  K4  1  0.785738  0.039172  0.352710  1
  K  K5  1  0.796002  0.110389  0.750231  1
  K  K6  1  0.274632  0.555036  0.951262  1
  K  K7  1  0.203998  0.610389  0.749769  1
  K  K8  1  0.777470  0.116261  0.950182  1
  K  K9  1  0.222530  0.883739  0.049818  1
  K  K10  1  0.250160  0.581420  0.360821  1
  K  K11  1  0.785738  0.460828  0.852710  1
  K  K12  1  0.214262  0.960828  0.647290  1
  K  K13  1  0.250160  0.918580  0.860821  1
  K  K14  1  0.222530  0.616261  0.549818  1
  K  K15  1  0.777470  0.383739  0.450182  1
  K  K16  1  0.203998  0.889611  0.249769  1
  K  K17  1  0.749840  0.418580  0.639179  1
  K  K18  1  0.214262  0.539172  0.147290  1
  K  K19  1  0.796002  0.389611  0.250231  1
  Ta  Ta20  1  0.217007  0.176179  0.195565  1
  Ta  Ta21  1  0.688064  0.744303  0.103252  1
  Ta  Ta22  1  0.223726  0.246042  0.092295  1
  Ta  Ta23  1  0.688064  0.755697  0.603252  1
  Ta  Ta24  1  0.311936  0.244303  0.396748  1
  Ta  Ta25  1  0.359035  0.210154  0.297722  1
  Ta  Ta26  1  0.359035  0.289846  0.797722  1
  Ta  Ta27  1  0.782993  0.676179  0.304435  1
  Ta  Ta28  1  0.281636  0.251810  0.493347  1
  Ta  Ta29  1  0.776274  0.753958  0.907705  1
  Ta  Ta30  1  0.718364  0.751810  0.006653  1
  Ta  Ta31  1  0.311936  0.255697  0.896748  1
  Ta  Ta32  1  0.223726  0.253958  0.592295  1
  Ta  Ta33  1  0.640965  0.789846  0.702278  1
  Ta  Ta34  1  0.640965  0.710154  0.202278  1
  Ta  Ta35  1  0.782993  0.823821  0.804435  1
  Ta  Ta36  1  0.776274  0.746042  0.407705  1
  Ta  Ta37  1  0.718364  0.748190  0.506653  1
  Ta  Ta38  1  0.217007  0.323821  0.695565  1
  Ta  Ta39  1  0.281636  0.248190  0.993347  1
  Se  Se40  1  0.466131  0.784314  0.942880  1
  Se  Se41  1  0.517407  0.385854  0.735481  1
  Se  Se42  1  0.670905  0.909601  0.057505  1
  Se  Se43  1  0.466097  0.308736  0.156377  1
  Se  Se44  1  0.721550  0.568232  0.150208  1
  Se  Se45  1  0.008271  0.796931  0.347055  1
  Se  Se46  1  0.324737  0.143198  0.732788  1
  Se  Se47  1  0.466131  0.715686  0.442880  1
  Se  Se48  1  0.139188  0.159033  0.830721  1
  Se  Se49  1  0.383881  0.729143  0.655850  1
  Se  Se50  1  0.012587  0.371150  0.755757  1
  Se  Se51  1  0.038347  0.177438  0.439383  1
  Se  Se52  1  0.329095  0.090399  0.942495  1
  Se  Se53  1  0.943827  0.869930  0.961200  1
  Se  Se54  1  0.172268  0.402768  0.046742  1
  Se  Se55  1  0.533869  0.284314  0.557120  1
  Se  Se56  1  0.827732  0.597232  0.953258  1
  Se  Se57  1  0.860812  0.840967  0.169279  1
  Se  Se58  1  0.991729  0.203069  0.652945  1
  Se  Se59  1  0.616119  0.229143  0.844150  1
  Se  Se60  1  0.987413  0.871150  0.744243  1
  Se  Se61  1  0.482593  0.614146  0.264519  1
  Se  Se62  1  0.616119  0.270857  0.344150  1
  Se  Se63  1  0.721550  0.931768  0.650208  1
  Se  Se64  1  0.324737  0.356802  0.232788  1
  Se  Se65  1  0.961653  0.822562  0.560617  1
  Se  Se66  1  0.961653  0.677438  0.060617  1
  Se  Se67  1  0.056173  0.130070  0.038800  1
  Se  Se68  1  0.670905  0.590399  0.557505  1
  Se  Se69  1  0.517407  0.114146  0.235481  1
  Se  Se70  1  0.827732  0.902768  0.453258  1
  Se  Se71  1  0.242208  0.449631  0.636036  1
  Se  Se72  1  0.008271  0.703069  0.847055  1
  Se  Se73  1  0.757792  0.949631  0.863964  1
  Se  Se74  1  0.482593  0.885854  0.764519  1
  Se  Se75  1  0.675263  0.856802  0.267212  1
  Se  Se76  1  0.860812  0.659033  0.669279  1
  Se  Se77  1  0.278450  0.068232  0.349792  1
  Se  Se78  1  0.012587  0.128850  0.255757  1
  Se  Se79  1  0.991729  0.296931  0.152945  1
  Se  Se80  1  0.056173  0.369930  0.538800  1
  Se  Se81  1  0.533903  0.691264  0.843623  1
  Se  Se82  1  0.383881  0.770857  0.155850  1
  Se  Se83  1  0.943827  0.630070  0.461200  1
  Se  Se84  1  0.462983  0.655959  0.048232  1
  Se  Se85  1  0.675263  0.643198  0.767212  1
  Se  Se86  1  0.987413  0.628850  0.244243  1
  Se  Se87  1  0.038347  0.322562  0.939383  1
  Se  Se88  1  0.757792  0.550369  0.363964  1
  Se  Se89  1  0.537017  0.155959  0.451768  1
  Se  Se90  1  0.462983  0.844041  0.548232  1
  Se  Se91  1  0.329095  0.409601  0.442495  1
  Se  Se92  1  0.537017  0.344041  0.951768  1
  Se  Se93  1  0.533869  0.215686  0.057120  1
  Se  Se94  1  0.466097  0.191264  0.656377  1
  Se  Se95  1  0.242208  0.050369  0.136036  1
  Se  Se96  1  0.172268  0.097232  0.546742  1
  Se  Se97  1  0.278450  0.431768  0.849792  1
  Se  Se98  1  0.533903  0.808736  0.343623  1
  Se  Se99  1  0.139188  0.340967  0.330721  1
