# generated using pymatgen
data_Eu2Mg2AgIr
_symmetry_space_group_name_H-M   'P 1'
_cell_length_a   4.39323900
_cell_length_b   7.53404671
_cell_length_c   8.80091079
_cell_angle_alpha   89.21175692
_cell_angle_beta   90.00000000
_cell_angle_gamma   90.00000000
_symmetry_Int_Tables_number   1
_chemical_formula_structural   Eu2Mg2AgIr
_chemical_formula_sum   'Eu4 Mg4 Ag2 Ir2'
_cell_volume   291.27261687
_cell_formula_units_Z   2
loop_
 _symmetry_equiv_pos_site_id
 _symmetry_equiv_pos_as_xyz
  1  'x, y, z'
loop_
 _atom_site_type_symbol
 _atom_site_label
 _atom_site_symmetry_multiplicity
 _atom_site_fract_x
 _atom_site_fract_y
 _atom_site_fract_z
 _atom_site_occupancy
  Eu  Eu0  1  0.250000  0.520300  0.162368  1
  Eu  Eu1  1  0.750000  0.479700  0.837632  1
  Eu  Eu2  1  0.750000  0.955615  0.692251  1
  Eu  Eu3  1  0.250000  0.044385  0.307749  1
  Mg  Mg4  1  0.250000  0.643971  0.571969  1
  Mg  Mg5  1  0.750000  0.356029  0.428031  1
  Mg  Mg6  1  0.750000  0.868089  0.052532  1
  Mg  Mg7  1  0.250000  0.131911  0.947468  1
  Ag  Ag8  1  0.750000  0.728985  0.374836  1
  Ag  Ag9  1  0.250000  0.271015  0.625164  1
  Ir  Ir10  1  0.250000  0.768066  0.871717  1
  Ir  Ir11  1  0.750000  0.231934  0.128283  1
