# generated using pymatgen
data_Na5AgSe12
_symmetry_space_group_name_H-M   'P 1'
_cell_length_a   17.27509900
_cell_length_b   7.22187571
_cell_length_c   8.48582055
_cell_angle_alpha   73.68201644
_cell_angle_beta   90.00000000
_cell_angle_gamma   90.00000000
_symmetry_Int_Tables_number   1
_chemical_formula_structural   Na5AgSe12
_chemical_formula_sum   'Na10 Ag2 Se24'
_cell_volume   1016.03262775
_cell_formula_units_Z   2
loop_
 _symmetry_equiv_pos_site_id
 _symmetry_equiv_pos_as_xyz
  1  'x, y, z'
loop_
 _atom_site_type_symbol
 _atom_site_label
 _atom_site_symmetry_multiplicity
 _atom_site_fract_x
 _atom_site_fract_y
 _atom_site_fract_z
 _atom_site_occupancy
  Na  Na0  1  0.353269  0.777323  0.348968  1
  Na  Na1  1  0.853269  0.222677  0.651032  1
  Na  Na2  1  0.937991  0.779724  0.017748  1
  Na  Na3  1  0.437991  0.220276  0.982252  1
  Na  Na4  1  0.070733  0.293093  0.441938  1
  Na  Na5  1  0.570733  0.706907  0.558062  1
  Na  Na6  1  0.761390  0.663458  0.286872  1
  Na  Na7  1  0.261390  0.336542  0.713128  1
  Na  Na8  1  0.139009  0.878660  0.102634  1
  Na  Na9  1  0.639009  0.121340  0.897366  1
  Ag  Ag10  1  0.850233  0.216090  0.159034  1
  Ag  Ag11  1  0.350233  0.783910  0.840966  1
  Se  Se12  1  0.786873  0.009278  0.425379  1
  Se  Se13  1  0.545762  0.951253  0.212270  1
  Se  Se14  1  0.719845  0.389794  0.080096  1
  Se  Se15  1  0.219845  0.610206  0.919904  1
  Se  Se16  1  0.981749  0.046246  0.247745  1
  Se  Se17  1  0.481749  0.953754  0.752255  1
  Se  Se18  1  0.912102  0.425762  0.892405  1
  Se  Se19  1  0.286873  0.990722  0.574621  1
  Se  Se20  1  0.448885  0.215854  0.518262  1
  Se  Se21  1  0.412102  0.574238  0.107595  1
  Se  Se22  1  0.751991  0.633742  0.832983  1
  Se  Se23  1  0.251991  0.366258  0.167017  1
  Se  Se24  1  0.948885  0.784146  0.481738  1
  Se  Se25  1  0.187718  0.605945  0.422116  1
  Se  Se26  1  0.662646  0.155433  0.435611  1
  Se  Se27  1  0.162646  0.844567  0.564389  1
  Se  Se28  1  0.043186  0.312280  0.904545  1
  Se  Se29  1  0.543186  0.687720  0.095455  1
  Se  Se30  1  0.780586  0.903630  0.934490  1
  Se  Se31  1  0.280586  0.096370  0.065510  1
  Se  Se32  1  0.927910  0.525497  0.363028  1
  Se  Se33  1  0.427910  0.474503  0.636972  1
  Se  Se34  1  0.687718  0.394055  0.577884  1
  Se  Se35  1  0.045762  0.048747  0.787730  1
