# generated using pymatgen
data_Pr3Ag(IO6)2
_symmetry_space_group_name_H-M   'P 1'
_cell_length_a   5.54802600
_cell_length_b   7.99672613
_cell_length_c   11.95153300
_cell_angle_alpha   76.50635628
_cell_angle_beta   90.00000000
_cell_angle_gamma   90.00000000
_symmetry_Int_Tables_number   1
_chemical_formula_structural   Pr3Ag(IO6)2
_chemical_formula_sum   'Pr6 Ag2 I4 O24'
_cell_volume   515.60533822
_cell_formula_units_Z   2
loop_
 _symmetry_equiv_pos_site_id
 _symmetry_equiv_pos_as_xyz
  1  'x, y, z'
loop_
 _atom_site_type_symbol
 _atom_site_label
 _atom_site_symmetry_multiplicity
 _atom_site_fract_x
 _atom_site_fract_y
 _atom_site_fract_z
 _atom_site_occupancy
  Pr  Pr0  1  0.257475  0.000000  0.750000  1
  Pr  Pr1  1  0.750942  0.000000  0.250000  1
  Pr  Pr2  1  0.316581  0.500000  0.750000  1
  Pr  Pr3  1  0.684605  0.500000  0.250000  1
  Pr  Pr4  1  0.811355  0.212546  0.926447  1
  Pr  Pr5  1  0.811355  0.787454  0.573553  1
  Ag  Ag6  1  0.194853  0.780943  0.079817  1
  Ag  Ag7  1  0.194853  0.219057  0.420183  1
  I  I8  1  0.742096  0.731368  0.884922  1
  I  I9  1  0.258352  0.731850  0.383637  1
  I  I10  1  0.742096  0.268632  0.615078  1
  I  I11  1  0.258352  0.268150  0.116363  1
  O  O12  1  0.857339  0.349145  0.466275  1
  O  O13  1  0.463173  0.832611  0.928674  1
  O  O14  1  0.857339  0.650855  0.033725  1
  O  O15  1  0.009758  0.295636  0.718968  1
  O  O16  1  0.966855  0.306148  0.196541  1
  O  O17  1  0.171594  0.347923  0.954724  1
  O  O18  1  0.640550  0.504290  0.884282  1
  O  O19  1  0.535882  0.157013  0.070567  1
  O  O20  1  0.171594  0.652077  0.545276  1
  O  O21  1  0.009758  0.704364  0.781032  1
  O  O22  1  0.430305  0.202049  0.264389  1
  O  O23  1  0.076394  0.937015  0.393534  1
  O  O24  1  0.463173  0.167389  0.571326  1
  O  O25  1  0.966855  0.693852  0.303459  1
  O  O26  1  0.908425  0.052345  0.623687  1
  O  O27  1  0.549226  0.217217  0.768230  1
  O  O28  1  0.549226  0.782783  0.731770  1
  O  O29  1  0.076394  0.062985  0.106466  1
  O  O30  1  0.640550  0.495710  0.615718  1
  O  O31  1  0.379040  0.486640  0.110038  1
  O  O32  1  0.430305  0.797951  0.235611  1
  O  O33  1  0.379040  0.513360  0.389962  1
  O  O34  1  0.535882  0.842987  0.429433  1
  O  O35  1  0.908425  0.947655  0.876313  1
