# generated using pymatgen
data_Tb(Ag3O4)2
_symmetry_space_group_name_H-M   'P 1'
_cell_length_a   7.16780643
_cell_length_b   7.16780714
_cell_length_c   7.16780700
_cell_angle_alpha   59.99999602
_cell_angle_beta   59.99999274
_cell_angle_gamma   60.00000110
_symmetry_Int_Tables_number   1
_chemical_formula_structural   Tb(Ag3O4)2
_chemical_formula_sum   'Tb1 Ag6 O8'
_cell_volume   260.40172178
_cell_formula_units_Z   1
loop_
 _symmetry_equiv_pos_site_id
 _symmetry_equiv_pos_as_xyz
  1  'x, y, z'
loop_
 _atom_site_type_symbol
 _atom_site_label
 _atom_site_symmetry_multiplicity
 _atom_site_fract_x
 _atom_site_fract_y
 _atom_site_fract_z
 _atom_site_occupancy
  Tb  Tb0  1  0.000000  0.000000  0.000000  1
  Ag  Ag1  1  0.500000  0.000000  0.500000  1
  Ag  Ag2  1  0.500000  0.000000  0.000000  1
  Ag  Ag3  1  0.000000  0.000000  0.500000  1
  Ag  Ag4  1  0.000000  0.500000  0.000000  1
  Ag  Ag5  1  0.000000  0.500000  0.500000  1
  Ag  Ag6  1  0.500000  0.500000  0.000000  1
  O  O7  1  0.861968  0.414094  0.861968  1
  O  O8  1  0.138032  0.138032  0.138032  1
  O  O9  1  0.861968  0.861968  0.861968  1
  O  O10  1  0.585906  0.138032  0.138032  1
  O  O11  1  0.861968  0.861968  0.414094  1
  O  O12  1  0.414094  0.861968  0.861968  1
  O  O13  1  0.138032  0.138032  0.585906  1
  O  O14  1  0.138032  0.585906  0.138032  1
