# generated using pymatgen
data_Tb11CeCo4
_symmetry_space_group_name_H-M   'P 1'
_cell_length_a   6.28436486
_cell_length_b   6.89384137
_cell_length_c   9.51877100
_cell_angle_alpha   90.00000000
_cell_angle_beta   90.00000000
_cell_angle_gamma   92.00061647
_symmetry_Int_Tables_number   1
_chemical_formula_structural   Tb11CeCo4
_chemical_formula_sum   'Tb11 Ce1 Co4'
_cell_volume   412.13429226
_cell_formula_units_Z   1
loop_
 _symmetry_equiv_pos_site_id
 _symmetry_equiv_pos_as_xyz
  1  'x, y, z'
loop_
 _atom_site_type_symbol
 _atom_site_label
 _atom_site_symmetry_multiplicity
 _atom_site_fract_x
 _atom_site_fract_y
 _atom_site_fract_z
 _atom_site_occupancy
  Tb  Tb0  1  0.327516  0.672862  0.064886  1
  Tb  Tb1  1  0.171431  0.176006  0.430439  1
  Tb  Tb2  1  0.678933  0.326104  0.566261  1
  Tb  Tb3  1  0.825254  0.826863  0.931305  1
  Tb  Tb4  1  0.678933  0.326104  0.933739  1
  Tb  Tb5  1  0.825254  0.826863  0.568695  1
  Tb  Tb6  1  0.327516  0.672862  0.435114  1
  Tb  Tb7  1  0.171431  0.176006  0.069561  1
  Tb  Tb8  1  0.634445  0.048602  0.250000  1
  Tb  Tb9  1  0.141181  0.453182  0.750000  1
  Tb  Tb10  1  0.363231  0.956510  0.750000  1
  Ce  Ce11  1  0.854821  0.565158  0.250000  1
  Co  Co12  1  0.030038  0.857365  0.250000  1
  Co  Co13  1  0.475835  0.397911  0.250000  1
  Co  Co14  1  0.948320  0.109619  0.750000  1
  Co  Co15  1  0.545863  0.607982  0.750000  1
