# generated using pymatgen
data_Mn2Pb2SeO9
_symmetry_space_group_name_H-M   'P 1'
_cell_length_a   5.10452273
_cell_length_b   7.77996366
_cell_length_c   10.66454927
_cell_angle_alpha   91.15737125
_cell_angle_beta   99.02631801
_cell_angle_gamma   109.10287883
_symmetry_Int_Tables_number   1
_chemical_formula_structural   Mn2Pb2SeO9
_chemical_formula_sum   'Mn4 Pb4 Se2 O18'
_cell_volume   394.07995599
_cell_formula_units_Z   2
loop_
 _symmetry_equiv_pos_site_id
 _symmetry_equiv_pos_as_xyz
  1  'x, y, z'
loop_
 _atom_site_type_symbol
 _atom_site_label
 _atom_site_symmetry_multiplicity
 _atom_site_fract_x
 _atom_site_fract_y
 _atom_site_fract_z
 _atom_site_occupancy
  Mn  Mn0  1  0.401760  0.804250  0.502773  1
  Mn  Mn1  1  0.598240  0.195750  0.497227  1
  Mn  Mn2  1  0.802530  0.603592  0.507659  1
  Mn  Mn3  1  0.197470  0.396408  0.492341  1
  Pb  Pb4  1  0.906439  0.964663  0.268378  1
  Pb  Pb5  1  0.093561  0.035337  0.731622  1
  Pb  Pb6  1  0.513402  0.403915  0.179816  1
  Pb  Pb7  1  0.486598  0.596085  0.820184  1
  Se  Se8  1  0.183744  0.766342  0.049440  1
  Se  Se9  1  0.816256  0.233658  0.950560  1
  O  O10  1  0.450322  0.678720  0.059897  1
  O  O11  1  0.549678  0.321280  0.940103  1
  O  O12  1  0.957594  0.650510  0.139716  1
  O  O13  1  0.042406  0.349490  0.860284  1
  O  O14  1  0.039658  0.738601  0.892976  1
  O  O15  1  0.960342  0.261399  0.107024  1
  O  O16  1  0.307591  0.983815  0.105466  1
  O  O17  1  0.692409  0.016185  0.894534  1
  O  O18  1  0.171076  0.607573  0.596743  1
  O  O19  1  0.828924  0.392427  0.403257  1
  O  O20  1  0.553998  0.404985  0.593888  1
  O  O21  1  0.446002  0.595015  0.406112  1
  O  O22  1  0.576710  0.985777  0.397670  1
  O  O23  1  0.423290  0.014223  0.602330  1
  O  O24  1  0.738293  0.782171  0.610680  1
  O  O25  1  0.261707  0.217829  0.389320  1
  O  O26  1  0.031760  0.771238  0.413129  1
  O  O27  1  0.968240  0.228762  0.586871  1
