# generated using pymatgen
data_Er4TcMo3N8
_symmetry_space_group_name_H-M   'P 1'
_cell_length_a   3.17328600
_cell_length_b   5.66261871
_cell_length_c   10.56710406
_cell_angle_alpha   89.88786025
_cell_angle_beta   90.00000000
_cell_angle_gamma   90.00000000
_symmetry_Int_Tables_number   1
_chemical_formula_structural   Er4TcMo3N8
_chemical_formula_sum   'Er4 Tc1 Mo3 N8'
_cell_volume   189.88107760
_cell_formula_units_Z   1
loop_
 _symmetry_equiv_pos_site_id
 _symmetry_equiv_pos_as_xyz
  1  'x, y, z'
loop_
 _atom_site_type_symbol
 _atom_site_label
 _atom_site_symmetry_multiplicity
 _atom_site_fract_x
 _atom_site_fract_y
 _atom_site_fract_z
 _atom_site_occupancy
  Er  Er0  1  0.250000  0.079652  0.852686  1
  Er  Er1  1  0.250000  0.579044  0.646431  1
  Er  Er2  1  0.750000  0.919142  0.147004  1
  Er  Er3  1  0.750000  0.419933  0.351814  1
  Tc  Tc4  1  0.250000  0.433553  0.095300  1
  Mo  Mo5  1  0.250000  0.933161  0.407357  1
  Mo  Mo6  1  0.750000  0.567259  0.906186  1
  Mo  Mo7  1  0.750000  0.067341  0.592792  1
  N  N8  1  0.250000  0.163357  0.248420  1
  N  N9  1  0.250000  0.663881  0.250849  1
  N  N10  1  0.750000  0.835710  0.753399  1
  N  N11  1  0.750000  0.335446  0.747915  1
  N  N12  1  0.250000  0.758354  0.994652  1
  N  N13  1  0.250000  0.262329  0.505438  1
  N  N14  1  0.750000  0.244426  0.005332  1
  N  N15  1  0.750000  0.737410  0.494425  1
