# generated using pymatgen
data_NaPu3(NCl)3
_symmetry_space_group_name_H-M   'P 1'
_cell_length_a   6.61026332
_cell_length_b   6.61026381
_cell_length_c   10.68452064
_cell_angle_alpha   84.08084598
_cell_angle_beta   84.08084383
_cell_angle_gamma   119.95704985
_symmetry_Int_Tables_number   1
_chemical_formula_structural   NaPu3(NCl)3
_chemical_formula_sum   'Na2 Pu6 N6 Cl6'
_cell_volume   395.80753112
_cell_formula_units_Z   2
loop_
 _symmetry_equiv_pos_site_id
 _symmetry_equiv_pos_as_xyz
  1  'x, y, z'
loop_
 _atom_site_type_symbol
 _atom_site_label
 _atom_site_symmetry_multiplicity
 _atom_site_fract_x
 _atom_site_fract_y
 _atom_site_fract_z
 _atom_site_occupancy
  Na  Na0  1  0.666612  0.333388  0.000000  1
  Na  Na1  1  0.333388  0.666612  0.000000  1
  Pu  Pu2  1  0.210542  0.210542  0.367931  1
  Pu  Pu3  1  0.544533  0.877813  0.368188  1
  Pu  Pu4  1  0.877813  0.544533  0.368188  1
  Pu  Pu5  1  0.122187  0.455467  0.631812  1
  Pu  Pu6  1  0.455467  0.122187  0.631812  1
  Pu  Pu7  1  0.789458  0.789458  0.632069  1
  N  N8  1  0.138406  0.138406  0.583465  1
  N  N9  1  0.472925  0.805564  0.582366  1
  N  N10  1  0.805564  0.472925  0.582366  1
  N  N11  1  0.194436  0.527075  0.417634  1
  N  N12  1  0.527075  0.194436  0.417634  1
  N  N13  1  0.861594  0.861594  0.416535  1
  Cl  Cl14  1  0.056579  0.717020  0.829521  1
  Cl  Cl15  1  0.396286  0.396286  0.829400  1
  Cl  Cl16  1  0.717020  0.056579  0.829521  1
  Cl  Cl17  1  0.282980  0.943421  0.170479  1
  Cl  Cl18  1  0.603714  0.603714  0.170600  1
  Cl  Cl19  1  0.943421  0.282980  0.170479  1
