# generated using pymatgen
data_Na12CrMo(WN6)2
_symmetry_space_group_name_H-M   'P 1'
_cell_length_a   8.78014068
_cell_length_b   8.82423585
_cell_length_c   6.38740841
_cell_angle_alpha   68.92439315
_cell_angle_beta   68.76835207
_cell_angle_gamma   76.82015334
_symmetry_Int_Tables_number   1
_chemical_formula_structural   Na12CrMo(WN6)2
_chemical_formula_sum   'Na12 Cr1 Mo1 W2 N12'
_cell_volume   427.70682335
_cell_formula_units_Z   1
loop_
 _symmetry_equiv_pos_site_id
 _symmetry_equiv_pos_as_xyz
  1  'x, y, z'
loop_
 _atom_site_type_symbol
 _atom_site_label
 _atom_site_symmetry_multiplicity
 _atom_site_fract_x
 _atom_site_fract_y
 _atom_site_fract_z
 _atom_site_occupancy
  Na  Na0  1  0.731349  0.295143  0.019536  1
  Na  Na1  1  0.292830  0.719155  0.528949  1
  Na  Na2  1  0.644494  0.600223  0.569285  1
  Na  Na3  1  0.604827  0.635502  0.071143  1
  Na  Na4  1  0.394550  0.358644  0.806857  1
  Na  Na5  1  0.348285  0.397902  0.312325  1
  Na  Na6  1  0.006065  0.528086  0.036015  1
  Na  Na7  1  0.525726  0.009088  0.537879  1
  Na  Na8  1  0.921977  0.851370  0.606072  1
  Na  Na9  1  0.855135  0.914872  0.118231  1
  Na  Na10  1  0.124018  0.147411  0.114109  1
  Na  Na11  1  0.139863  0.124199  0.620197  1
  Cr  Cr12  1  0.005983  0.492944  0.582346  1
  Mo  Mo13  1  0.491900  0.006623  0.081226  1
  W  W14  1  0.237768  0.758527  0.011669  1
  W  W15  1  0.765440  0.244282  0.505787  1
  N  N16  1  0.390159  0.598472  0.907114  1
  N  N17  1  0.599252  0.389509  0.406867  1
  N  N18  1  0.096749  0.833929  0.830956  1
  N  N19  1  0.845080  0.103041  0.324497  1
  N  N20  1  0.138410  0.374450  0.730435  1
  N  N21  1  0.363335  0.145983  0.244443  1
  N  N22  1  0.844122  0.574886  0.765778  1
  N  N23  1  0.578047  0.832842  0.279763  1
  N  N24  1  0.675106  0.118560  0.829709  1
  N  N25  1  0.112570  0.663213  0.335192  1
  N  N26  1  0.939095  0.364044  0.469134  1
  N  N27  1  0.351982  0.941217  0.960889  1
