# generated using pymatgen
data_Ho6Er2B24OsRu3
_symmetry_space_group_name_H-M   'P 1'
_cell_length_a   3.64388600
_cell_length_b   9.11719918
_cell_length_c   11.49238712
_cell_angle_alpha   90.05622594
_cell_angle_beta   90.00000000
_cell_angle_gamma   90.00000000
_symmetry_Int_Tables_number   1
_chemical_formula_structural   Ho6Er2B24OsRu3
_chemical_formula_sum   'Ho6 Er2 B24 Os1 Ru3'
_cell_volume   381.80029697
_cell_formula_units_Z   1
loop_
 _symmetry_equiv_pos_site_id
 _symmetry_equiv_pos_as_xyz
  1  'x, y, z'
loop_
 _atom_site_type_symbol
 _atom_site_label
 _atom_site_symmetry_multiplicity
 _atom_site_fract_x
 _atom_site_fract_y
 _atom_site_fract_z
 _atom_site_occupancy
  Ho  Ho0  1  0.000000  0.322668  0.414228  1
  Ho  Ho1  1  0.000000  0.678064  0.586201  1
  Ho  Ho2  1  0.000000  0.821793  0.085585  1
  Ho  Ho3  1  0.000000  0.177861  0.914254  1
  Ho  Ho4  1  0.000000  0.943533  0.371955  1
  Ho  Ho5  1  0.000000  0.056820  0.627192  1
  Er  Er6  1  0.000000  0.443346  0.127778  1
  Er  Er7  1  0.000000  0.555957  0.872835  1
  B  B8  1  0.500000  0.553971  0.433142  1
  B  B9  1  0.500000  0.446395  0.566949  1
  B  B10  1  0.500000  0.054095  0.066779  1
  B  B11  1  0.500000  0.946010  0.933354  1
  B  B12  1  0.500000  0.747934  0.419730  1
  B  B13  1  0.500000  0.252474  0.580132  1
  B  B14  1  0.500000  0.248498  0.080167  1
  B  B15  1  0.500000  0.751276  0.919865  1
  B  B16  1  0.500000  0.790565  0.265758  1
  B  B17  1  0.500000  0.209387  0.734075  1
  B  B18  1  0.500000  0.291138  0.233881  1
  B  B19  1  0.500000  0.708533  0.766216  1
  B  B20  1  0.500000  0.631008  0.184781  1
  B  B21  1  0.500000  0.368726  0.815311  1
  B  B22  1  0.500000  0.131761  0.314852  1
  B  B23  1  0.500000  0.868423  0.685198  1
  B  B24  1  0.500000  0.983151  0.212600  1
  B  B25  1  0.500000  0.017072  0.787272  1
  B  B26  1  0.500000  0.482827  0.287061  1
  B  B27  1  0.500000  0.517146  0.713121  1
  B  B28  1  0.500000  0.606061  0.029549  1
  B  B29  1  0.500000  0.393332  0.970726  1
  B  B30  1  0.500000  0.108223  0.469967  1
  B  B31  1  0.500000  0.892326  0.529596  1
  Os  Os32  1  0.000000  0.862115  0.821391  1
  Ru  Ru33  1  0.000000  0.637215  0.320954  1
  Ru  Ru34  1  0.000000  0.362751  0.679103  1
  Ru  Ru35  1  0.000000  0.137547  0.178442  1
