# generated using pymatgen
data_Sc10Cd2RuPt
_symmetry_space_group_name_H-M   'P 1'
_cell_length_a   8.89078686
_cell_length_b   8.82107558
_cell_length_c   9.06215800
_cell_angle_alpha   90.00000000
_cell_angle_beta   90.00000000
_cell_angle_gamma   119.74096056
_symmetry_Int_Tables_number   1
_chemical_formula_structural   Sc10Cd2RuPt
_chemical_formula_sum   'Sc20 Cd4 Ru2 Pt2'
_cell_volume   617.09455538
_cell_formula_units_Z   2
loop_
 _symmetry_equiv_pos_site_id
 _symmetry_equiv_pos_as_xyz
  1  'x, y, z'
loop_
 _atom_site_type_symbol
 _atom_site_label
 _atom_site_symmetry_multiplicity
 _atom_site_fract_x
 _atom_site_fract_y
 _atom_site_fract_z
 _atom_site_occupancy
  Sc  Sc0  1  0.986208  0.993104  0.477342  1
  Sc  Sc1  1  0.986208  0.993104  0.022658  1
  Sc  Sc2  1  0.204195  0.790747  0.439460  1
  Sc  Sc3  1  0.204195  0.413450  0.439460  1
  Sc  Sc4  1  0.585986  0.792994  0.439224  1
  Sc  Sc5  1  0.793724  0.209099  0.551560  1
  Sc  Sc6  1  0.793724  0.584623  0.551560  1
  Sc  Sc7  1  0.419076  0.209537  0.557071  1
  Sc  Sc8  1  0.793724  0.209099  0.948440  1
  Sc  Sc9  1  0.793724  0.584623  0.948440  1
  Sc  Sc10  1  0.419076  0.209537  0.942929  1
  Sc  Sc11  1  0.204195  0.790747  0.060540  1
  Sc  Sc12  1  0.204195  0.413450  0.060540  1
  Sc  Sc13  1  0.585986  0.792994  0.060776  1
  Sc  Sc14  1  0.553982  0.473191  0.250000  1
  Sc  Sc15  1  0.553982  0.080791  0.250000  1
  Sc  Sc16  1  0.921696  0.460848  0.250000  1
  Sc  Sc17  1  0.460987  0.539380  0.750000  1
  Sc  Sc18  1  0.460987  0.921607  0.750000  1
  Sc  Sc19  1  0.076593  0.538297  0.750000  1
  Cd  Cd20  1  0.239666  0.119834  0.250000  1
  Cd  Cd21  1  0.112460  0.887738  0.750000  1
  Cd  Cd22  1  0.112460  0.224721  0.750000  1
  Cd  Cd23  1  0.772442  0.886221  0.750000  1
  Ru  Ru24  1  0.335780  0.667890  0.250000  1
  Ru  Ru25  1  0.667623  0.333811  0.750000  1
  Pt  Pt26  1  0.878563  0.125835  0.250000  1
  Pt  Pt27  1  0.878563  0.752729  0.250000  1
