# generated using pymatgen
data_Dy16In4CoRu3
_symmetry_space_group_name_H-M   'P 1'
_cell_length_a   9.62646891
_cell_length_b   9.62646778
_cell_length_c   9.62646939
_cell_angle_alpha   60.02648949
_cell_angle_beta   60.02649348
_cell_angle_gamma   60.02649066
_symmetry_Int_Tables_number   1
_chemical_formula_structural   Dy16In4CoRu3
_chemical_formula_sum   'Dy16 In4 Co1 Ru3'
_cell_volume   631.17056277
_cell_formula_units_Z   1
loop_
 _symmetry_equiv_pos_site_id
 _symmetry_equiv_pos_as_xyz
  1  'x, y, z'
loop_
 _atom_site_type_symbol
 _atom_site_label
 _atom_site_symmetry_multiplicity
 _atom_site_fract_x
 _atom_site_fract_y
 _atom_site_fract_z
 _atom_site_occupancy
  Dy  Dy0  1  0.153977  0.541622  0.153977  1
  Dy  Dy1  1  0.692367  0.310087  0.692367  1
  Dy  Dy2  1  0.688481  0.309185  0.309185  1
  Dy  Dy3  1  0.939305  0.559656  0.559656  1
  Dy  Dy4  1  0.541622  0.153977  0.153977  1
  Dy  Dy5  1  0.153977  0.153977  0.541622  1
  Dy  Dy6  1  0.941803  0.941803  0.558968  1
  Dy  Dy7  1  0.309185  0.688481  0.309185  1
  Dy  Dy8  1  0.558968  0.941803  0.941803  1
  Dy  Dy9  1  0.559656  0.939305  0.559656  1
  Dy  Dy10  1  0.692367  0.692367  0.310087  1
  Dy  Dy11  1  0.559656  0.559656  0.939305  1
  Dy  Dy12  1  0.941803  0.558968  0.941803  1
  Dy  Dy13  1  0.310087  0.692367  0.692367  1
  Dy  Dy14  1  0.151407  0.151407  0.151407  1
  Dy  Dy15  1  0.309185  0.309185  0.688481  1
  In  In16  1  0.916959  0.247822  0.916959  1
  In  In17  1  0.918017  0.918017  0.918017  1
  In  In18  1  0.916959  0.916959  0.247822  1
  In  In19  1  0.247822  0.916959  0.916959  1
  Co  Co20  1  0.360488  0.360488  0.360488  1
  Ru  Ru21  1  0.359323  0.359323  0.917266  1
  Ru  Ru22  1  0.359323  0.917266  0.359323  1
  Ru  Ru23  1  0.917266  0.359323  0.359323  1
