# generated using pymatgen
data_Ho3Al12NiOs3
_symmetry_space_group_name_H-M   'P 1'
_cell_length_a   8.83023400
_cell_length_b   8.76913112
_cell_length_c   9.47953063
_cell_angle_alpha   90.41097440
_cell_angle_beta   90.00000000
_cell_angle_gamma   120.23076693
_symmetry_Int_Tables_number   1
_chemical_formula_structural   Ho3Al12NiOs3
_chemical_formula_sum   'Ho6 Al24 Ni2 Os6'
_cell_volume   634.18604380
_cell_formula_units_Z   2
loop_
 _symmetry_equiv_pos_site_id
 _symmetry_equiv_pos_as_xyz
  1  'x, y, z'
loop_
 _atom_site_type_symbol
 _atom_site_label
 _atom_site_symmetry_multiplicity
 _atom_site_fract_x
 _atom_site_fract_y
 _atom_site_fract_z
 _atom_site_occupancy
  Ho  Ho0  1  0.195558  0.391117  0.250264  1
  Ho  Ho1  1  0.804442  0.608883  0.749736  1
  Ho  Ho2  1  0.612438  0.803032  0.251799  1
  Ho  Ho3  1  0.387562  0.196968  0.748201  1
  Ho  Ho4  1  0.190594  0.803032  0.251799  1
  Ho  Ho5  1  0.809406  0.196968  0.748201  1
  Al  Al6  1  0.334865  0.669731  0.018785  1
  Al  Al7  1  0.665135  0.330269  0.981215  1
  Al  Al8  1  0.666812  0.333622  0.517330  1
  Al  Al9  1  0.333188  0.666378  0.482670  1
  Al  Al10  1  0.162908  0.325817  0.576482  1
  Al  Al11  1  0.837092  0.674183  0.423518  1
  Al  Al12  1  0.675526  0.838652  0.578133  1
  Al  Al13  1  0.836984  0.673969  0.076286  1
  Al  Al14  1  0.324474  0.161348  0.421867  1
  Al  Al15  1  0.163016  0.326031  0.923714  1
  Al  Al16  1  0.163126  0.838652  0.578133  1
  Al  Al17  1  0.323715  0.162041  0.077310  1
  Al  Al18  1  0.836874  0.161348  0.421867  1
  Al  Al19  1  0.676285  0.837959  0.922690  1
  Al  Al20  1  0.838325  0.162041  0.077310  1
  Al  Al21  1  0.161675  0.837959  0.922690  1
  Al  Al22  1  0.559486  0.118972  0.246462  1
  Al  Al23  1  0.440514  0.881028  0.753538  1
  Al  Al24  1  0.877231  0.437841  0.249458  1
  Al  Al25  1  0.122769  0.562159  0.750542  1
  Al  Al26  1  0.560610  0.437841  0.249458  1
  Al  Al27  1  0.439390  0.562159  0.750542  1
  Al  Al28  1  0.999510  0.999021  0.243533  1
  Al  Al29  1  0.000490  0.000979  0.756467  1
  Ni  Ni30  1  0.500000  0.000000  0.000000  1
  Ni  Ni31  1  0.000000  0.000000  0.000000  1
  Os  Os32  1  0.000000  0.500000  0.000000  1
  Os  Os33  1  0.500000  0.000000  0.500000  1
  Os  Os34  1  0.500000  0.500000  0.000000  1
  Os  Os35  1  0.000000  0.500000  0.500000  1
  Os  Os36  1  0.500000  0.500000  0.500000  1
  Os  Os37  1  0.000000  0.000000  0.500000  1
