# generated using pymatgen
data_Zr8Si14OsRh7
_symmetry_space_group_name_H-M   'P 1'
_cell_length_a   9.72877219
_cell_length_b   9.72127318
_cell_length_c   9.75100985
_cell_angle_alpha   94.38875265
_cell_angle_beta   94.42939558
_cell_angle_gamma   147.76065221
_symmetry_Int_Tables_number   1
_chemical_formula_structural   Zr8Si14OsRh7
_chemical_formula_sum   'Zr8 Si14 Os1 Rh7'
_cell_volume   472.72584164
_cell_formula_units_Z   1
loop_
 _symmetry_equiv_pos_site_id
 _symmetry_equiv_pos_as_xyz
  1  'x, y, z'
loop_
 _atom_site_type_symbol
 _atom_site_label
 _atom_site_symmetry_multiplicity
 _atom_site_fract_x
 _atom_site_fract_y
 _atom_site_fract_z
 _atom_site_occupancy
  Zr  Zr0  1  0.135476  0.135474  0.270958  1
  Zr  Zr1  1  0.864316  0.864311  0.728637  1
  Zr  Zr2  1  0.863065  0.135308  0.999796  1
  Zr  Zr3  1  0.136715  0.864466  0.999801  1
  Zr  Zr4  1  0.500836  0.307387  0.807389  1
  Zr  Zr5  1  0.501121  0.693348  0.192389  1
  Zr  Zr6  1  0.691256  0.499033  0.192398  1
  Zr  Zr7  1  0.306528  0.499974  0.807383  1
  Si  Si8  1  0.483914  0.070825  0.589382  1
  Si  Si9  1  0.493031  0.903845  0.410143  1
  Si  Si10  1  0.917081  0.506290  0.410139  1
  Si  Si11  1  0.105515  0.518613  0.589364  1
  Si  Si12  1  0.748678  0.748923  0.999597  1
  Si  Si13  1  0.250897  0.250641  0.999609  1
  Si  Si14  1  0.294538  0.294548  0.589132  1
  Si  Si15  1  0.705830  0.705832  0.411623  1
  Si  Si16  1  0.707367  0.295677  0.000183  1
  Si  Si17  1  0.292813  0.704503  0.000183  1
  Si  Si18  1  0.000898  0.291995  0.291336  1
  Si  Si19  1  0.006451  0.714691  0.708900  1
  Si  Si20  1  0.702493  0.994248  0.708896  1
  Si  Si21  1  0.290459  0.999348  0.291330  1
  Os  Os22  1  0.400731  0.900724  0.801421  1
  Rh  Rh23  1  0.100500  0.600488  0.200912  1
  Rh  Rh24  1  0.099448  0.899214  0.498495  1
  Rh  Rh25  1  0.399029  0.599248  0.498514  1
  Rh  Rh26  1  0.605289  0.395936  0.502155  1
  Rh  Rh27  1  0.896879  0.106269  0.502132  1
  Rh  Rh28  1  0.894592  0.394590  0.789232  1
  Rh  Rh29  1  0.604258  0.104256  0.208571  1
