# generated using pymatgen
data_Y20Cd3Hg3OsRu
_symmetry_space_group_name_H-M   'P 1'
_cell_length_a   9.63591200
_cell_length_b   9.63591150
_cell_length_c   9.83587200
_cell_angle_alpha   90.00000000
_cell_angle_beta   90.00000000
_cell_angle_gamma   120.00000173
_symmetry_Int_Tables_number   1
_chemical_formula_structural   Y20Cd3Hg3OsRu
_chemical_formula_sum   'Y20 Cd3 Hg3 Os1 Ru1'
_cell_volume   790.91373971
_cell_formula_units_Z   1
loop_
 _symmetry_equiv_pos_site_id
 _symmetry_equiv_pos_as_xyz
  1  'x, y, z'
loop_
 _atom_site_type_symbol
 _atom_site_label
 _atom_site_symmetry_multiplicity
 _atom_site_fract_x
 _atom_site_fract_y
 _atom_site_fract_z
 _atom_site_occupancy
  Y  Y0  1  0.000000  0.000000  0.491553  1
  Y  Y1  1  0.000000  0.000000  0.008447  1
  Y  Y2  1  0.209293  0.790707  0.439879  1
  Y  Y3  1  0.209293  0.418588  0.439879  1
  Y  Y4  1  0.581412  0.790707  0.439879  1
  Y  Y5  1  0.790375  0.209625  0.559769  1
  Y  Y6  1  0.790375  0.580749  0.559769  1
  Y  Y7  1  0.419251  0.209625  0.559769  1
  Y  Y8  1  0.790375  0.209625  0.940231  1
  Y  Y9  1  0.790375  0.580749  0.940231  1
  Y  Y10  1  0.419251  0.209625  0.940231  1
  Y  Y11  1  0.209293  0.790707  0.060121  1
  Y  Y12  1  0.209293  0.418588  0.060121  1
  Y  Y13  1  0.581412  0.790707  0.060121  1
  Y  Y14  1  0.540108  0.459892  0.250000  1
  Y  Y15  1  0.540108  0.080216  0.250000  1
  Y  Y16  1  0.919784  0.459892  0.250000  1
  Y  Y17  1  0.458796  0.541204  0.750000  1
  Y  Y18  1  0.458796  0.917593  0.750000  1
  Y  Y19  1  0.082407  0.541204  0.750000  1
  Cd  Cd20  1  0.113361  0.886639  0.750000  1
  Cd  Cd21  1  0.113361  0.226721  0.750000  1
  Cd  Cd22  1  0.773279  0.886639  0.750000  1
  Hg  Hg23  1  0.880120  0.119880  0.250000  1
  Hg  Hg24  1  0.880120  0.760242  0.250000  1
  Hg  Hg25  1  0.239758  0.119880  0.250000  1
  Os  Os26  1  0.333333  0.666667  0.250000  1
  Ru  Ru27  1  0.666667  0.333333  0.750000  1
