# generated using pymatgen
data_Tb8Hf5Zr6Si16Mo
_symmetry_space_group_name_H-M   'P 1'
_cell_length_a   7.30169807
_cell_length_b   7.30087990
_cell_length_c   13.40883871
_cell_angle_alpha   89.96177946
_cell_angle_beta   90.00197319
_cell_angle_gamma   90.07946647
_symmetry_Int_Tables_number   1
_chemical_formula_structural   Tb8Hf5Zr6Si16Mo
_chemical_formula_sum   'Tb8 Hf5 Zr6 Si16 Mo1'
_cell_volume   714.80853118
_cell_formula_units_Z   1
loop_
 _symmetry_equiv_pos_site_id
 _symmetry_equiv_pos_as_xyz
  1  'x, y, z'
loop_
 _atom_site_type_symbol
 _atom_site_label
 _atom_site_symmetry_multiplicity
 _atom_site_fract_x
 _atom_site_fract_y
 _atom_site_fract_z
 _atom_site_occupancy
  Tb  Tb0  1  0.998955  0.343743  0.211682  1
  Tb  Tb1  1  0.003979  0.656167  0.716540  1
  Tb  Tb2  1  0.156206  0.496003  0.464740  1
  Tb  Tb3  1  0.501246  0.846034  0.034611  1
  Tb  Tb4  1  0.845991  0.500757  0.965589  1
  Tb  Tb5  1  0.495592  0.155716  0.535149  1
  Tb  Tb6  1  0.344075  0.998645  0.788336  1
  Tb  Tb7  1  0.655516  0.004502  0.283435  1
  Hf  Hf8  1  0.350132  0.492413  0.877416  1
  Hf  Hf9  1  0.492840  0.350380  0.122818  1
  Hf  Hf10  1  0.648356  0.504540  0.374841  1
  Hf  Hf11  1  0.996535  0.147742  0.626519  1
  Hf  Hf12  1  0.005628  0.853562  0.122136  1
  Zr  Zr13  1  0.825153  0.825217  0.499805  1
  Zr  Zr14  1  0.324497  0.674994  0.248253  1
  Zr  Zr15  1  0.674682  0.324096  0.751447  1
  Zr  Zr16  1  0.147588  0.997419  0.373283  1
  Zr  Zr17  1  0.853637  0.004946  0.878151  1
  Zr  Zr18  1  0.503638  0.647479  0.625146  1
  Si  Si19  1  0.363771  0.295460  0.315329  1
  Si  Si20  1  0.636259  0.705348  0.818122  1
  Si  Si21  1  0.205240  0.863551  0.567177  1
  Si  Si22  1  0.138613  0.795172  0.933515  1
  Si  Si23  1  0.795886  0.137672  0.067514  1
  Si  Si24  1  0.861654  0.207107  0.433424  1
  Si  Si25  1  0.293048  0.361369  0.684664  1
  Si  Si26  1  0.706232  0.636352  0.182166  1
  Si  Si27  1  0.293653  0.053296  0.181774  1
  Si  Si28  1  0.704722  0.951127  0.686977  1
  Si  Si29  1  0.450010  0.795421  0.435599  1
  Si  Si30  1  0.204048  0.546980  0.062848  1
  Si  Si31  1  0.545624  0.204478  0.937485  1
  Si  Si32  1  0.796478  0.448388  0.563598  1
  Si  Si33  1  0.053663  0.294006  0.817298  1
  Si  Si34  1  0.949871  0.703282  0.312326  1
  Mo  Mo35  1  0.176983  0.176636  0.000288  1
