# generated using pymatgen
data_Ti16Cr4Si15Ge
_symmetry_space_group_name_H-M   'P 1'
_cell_length_a   6.58225893
_cell_length_b   6.57195391
_cell_length_c   12.09824248
_cell_angle_alpha   90.52068942
_cell_angle_beta   90.06863785
_cell_angle_gamma   90.00920282
_symmetry_Int_Tables_number   1
_chemical_formula_structural   Ti16Cr4Si15Ge
_chemical_formula_sum   'Ti16 Cr4 Si15 Ge1'
_cell_volume   523.32743722
_cell_formula_units_Z   1
loop_
 _symmetry_equiv_pos_site_id
 _symmetry_equiv_pos_as_xyz
  1  'x, y, z'
loop_
 _atom_site_type_symbol
 _atom_site_label
 _atom_site_symmetry_multiplicity
 _atom_site_fract_x
 _atom_site_fract_y
 _atom_site_fract_z
 _atom_site_occupancy
  Ti  Ti0  1  0.498881  0.652497  0.628288  1
  Ti  Ti1  1  0.004819  0.842460  0.120613  1
  Ti  Ti2  1  0.156687  0.000519  0.377191  1
  Ti  Ti3  1  0.843993  0.998998  0.883084  1
  Ti  Ti4  1  0.010034  0.341861  0.220624  1
  Ti  Ti5  1  0.158595  0.504762  0.469095  1
  Ti  Ti6  1  0.839726  0.497534  0.972301  1
  Ti  Ti7  1  0.505288  0.157487  0.529885  1
  Ti  Ti8  1  0.499770  0.840974  0.030734  1
  Ti  Ti9  1  0.994299  0.660358  0.718845  1
  Ti  Ti10  1  0.345440  0.004895  0.779813  1
  Ti  Ti11  1  0.660095  0.994680  0.280361  1
  Ti  Ti12  1  0.170121  0.166882  0.000717  1
  Ti  Ti13  1  0.335113  0.665972  0.249109  1
  Ti  Ti14  1  0.660047  0.331897  0.749601  1
  Ti  Ti15  1  0.830934  0.834589  0.500159  1
  Cr  Cr16  1  0.985373  0.158060  0.618588  1
  Cr  Cr17  1  0.349392  0.489177  0.868636  1
  Cr  Cr18  1  0.658570  0.508224  0.373719  1
  Cr  Cr19  1  0.493946  0.346455  0.128857  1
  Si  Si20  1  0.209544  0.537496  0.059989  1
  Si  Si21  1  0.798675  0.457246  0.562639  1
  Si  Si22  1  0.539865  0.207786  0.939813  1
  Si  Si23  1  0.458593  0.795330  0.436629  1
  Si  Si24  1  0.955064  0.698939  0.313531  1
  Si  Si25  1  0.303920  0.047049  0.186393  1
  Si  Si26  1  0.704713  0.958033  0.688010  1
  Si  Si27  1  0.285184  0.357648  0.668885  1
  Si  Si28  1  0.143964  0.784637  0.919852  1
  Si  Si29  1  0.860418  0.212748  0.422138  1
  Si  Si30  1  0.787907  0.141302  0.080697  1
  Si  Si31  1  0.202268  0.874726  0.578116  1
  Si  Si32  1  0.704686  0.626845  0.174691  1
  Si  Si33  1  0.375979  0.298950  0.326638  1
  Si  Si34  1  0.628991  0.703688  0.828273  1
  Ge  Ge35  1  0.039103  0.299289  0.813485  1
