# generated using pymatgen
data_Ba5Pr3(In4Au3)4
_symmetry_space_group_name_H-M   'P 1'
_cell_length_a   15.20977900
_cell_length_b   15.20977838
_cell_length_c   4.75656700
_cell_angle_alpha   90.00000000
_cell_angle_beta   90.00000000
_cell_angle_gamma   120.00000351
_symmetry_Int_Tables_number   1
_chemical_formula_structural   Ba5Pr3(In4Au3)4
_chemical_formula_sum   'Ba5 Pr3 In16 Au12'
_cell_volume   952.94980325
_cell_formula_units_Z   1
loop_
 _symmetry_equiv_pos_site_id
 _symmetry_equiv_pos_as_xyz
  1  'x, y, z'
loop_
 _atom_site_type_symbol
 _atom_site_label
 _atom_site_symmetry_multiplicity
 _atom_site_fract_x
 _atom_site_fract_y
 _atom_site_fract_z
 _atom_site_occupancy
  Ba  Ba0  1  0.333333  0.666667  0.000000  1
  Ba  Ba1  1  0.666667  0.333333  0.000000  1
  Ba  Ba2  1  0.815369  0.000000  0.500000  1
  Ba  Ba3  1  0.000000  0.815369  0.500000  1
  Ba  Ba4  1  0.184631  0.184631  0.500000  1
  Pr  Pr5  1  0.445677  0.000000  0.000000  1
  Pr  Pr6  1  0.000000  0.445677  0.000000  1
  Pr  Pr7  1  0.554323  0.554323  0.000000  1
  In  In8  1  0.185049  0.381310  0.000000  1
  In  In9  1  0.618690  0.803741  0.000000  1
  In  In10  1  0.381310  0.185049  0.000000  1
  In  In11  1  0.196259  0.814951  0.000000  1
  In  In12  1  0.803741  0.618690  0.000000  1
  In  In13  1  0.814951  0.196259  0.000000  1
  In  In14  1  0.280319  0.000000  0.500000  1
  In  In15  1  0.000000  0.280319  0.500000  1
  In  In16  1  0.719681  0.719681  0.500000  1
  In  In17  1  0.353946  0.477779  0.500000  1
  In  In18  1  0.522221  0.876167  0.500000  1
  In  In19  1  0.477779  0.353946  0.500000  1
  In  In20  1  0.123833  0.646054  0.500000  1
  In  In21  1  0.876167  0.522221  0.500000  1
  In  In22  1  0.646054  0.123833  0.500000  1
  In  In23  1  0.000000  0.000000  0.000000  1
  Au  Au24  1  0.167380  0.483891  0.500000  1
  Au  Au25  1  0.516109  0.683489  0.500000  1
  Au  Au26  1  0.483891  0.167380  0.500000  1
  Au  Au27  1  0.316511  0.832620  0.500000  1
  Au  Au28  1  0.683489  0.516109  0.500000  1
  Au  Au29  1  0.832620  0.316511  0.500000  1
  Au  Au30  1  0.181006  0.000000  0.000000  1
  Au  Au31  1  0.000000  0.181006  0.000000  1
  Au  Au32  1  0.818994  0.818994  0.000000  1
  Au  Au33  1  0.646673  0.000000  0.000000  1
  Au  Au34  1  0.000000  0.646673  0.000000  1
  Au  Au35  1  0.353327  0.353327  0.000000  1
