# generated using pymatgen
data_Eu6TcO12
_symmetry_space_group_name_H-M   'P 1'
_cell_length_a   6.64221076
_cell_length_b   6.64221224
_cell_length_c   6.64221226
_cell_angle_alpha   98.21811982
_cell_angle_beta   98.21812686
_cell_angle_gamma   98.21811029
_symmetry_Int_Tables_number   1
_chemical_formula_structural   Eu6TcO12
_chemical_formula_sum   'Eu6 Tc1 O12'
_cell_volume   283.03929950
_cell_formula_units_Z   1
loop_
 _symmetry_equiv_pos_site_id
 _symmetry_equiv_pos_as_xyz
  1  'x, y, z'
loop_
 _atom_site_type_symbol
 _atom_site_label
 _atom_site_symmetry_multiplicity
 _atom_site_fract_x
 _atom_site_fract_y
 _atom_site_fract_z
 _atom_site_occupancy
  Eu  Eu0  1  0.141417  0.306927  0.606247  1
  Eu  Eu1  1  0.393753  0.858583  0.693073  1
  Eu  Eu2  1  0.693073  0.393753  0.858583  1
  Eu  Eu3  1  0.306927  0.606247  0.141417  1
  Eu  Eu4  1  0.606247  0.141417  0.306927  1
  Eu  Eu5  1  0.858583  0.693073  0.393753  1
  Tc  Tc6  1  0.000000  0.000000  0.000000  1
  O  O7  1  0.070614  0.286224  0.970196  1
  O  O8  1  0.029804  0.929386  0.713776  1
  O  O9  1  0.406736  0.565626  0.823926  1
  O  O10  1  0.176074  0.593264  0.434374  1
  O  O11  1  0.713776  0.029804  0.929386  1
  O  O12  1  0.434374  0.176074  0.593264  1
  O  O13  1  0.565626  0.823926  0.406736  1
  O  O14  1  0.286224  0.970196  0.070614  1
  O  O15  1  0.823926  0.406736  0.565626  1
  O  O16  1  0.593264  0.434374  0.176074  1
  O  O17  1  0.970196  0.070614  0.286224  1
  O  O18  1  0.929386  0.713776  0.029804  1
