# generated using pymatgen
data_Pr7Nd9Cd4CoPd3
_symmetry_space_group_name_H-M   'P 1'
_cell_length_a   10.02637518
_cell_length_b   10.02636499
_cell_length_c   10.03004003
_cell_angle_alpha   59.78641232
_cell_angle_beta   59.78643492
_cell_angle_gamma   59.82875171
_symmetry_Int_Tables_number   1
_chemical_formula_structural   Pr7Nd9Cd4CoPd3
_chemical_formula_sum   'Pr7 Nd9 Cd4 Co1 Pd3'
_cell_volume   709.74770184
_cell_formula_units_Z   1
loop_
 _symmetry_equiv_pos_site_id
 _symmetry_equiv_pos_as_xyz
  1  'x, y, z'
loop_
 _atom_site_type_symbol
 _atom_site_label
 _atom_site_symmetry_multiplicity
 _atom_site_fract_x
 _atom_site_fract_y
 _atom_site_fract_z
 _atom_site_occupancy
  Pr  Pr0  1  0.808206  0.808206  0.189365  1
  Pr  Pr1  1  0.938804  0.561912  0.562380  1
  Pr  Pr2  1  0.560995  0.935931  0.935604  1
  Pr  Pr3  1  0.561912  0.938804  0.562380  1
  Pr  Pr4  1  0.935930  0.560994  0.935605  1
  Pr  Pr5  1  0.561963  0.561964  0.938664  1
  Pr  Pr6  1  0.935495  0.935496  0.561405  1
  Nd  Nd7  1  0.352139  0.352138  0.352503  1
  Nd  Nd8  1  0.344624  0.344623  0.951904  1
  Nd  Nd9  1  0.344222  0.952510  0.344778  1
  Nd  Nd10  1  0.952510  0.344221  0.344778  1
  Nd  Nd11  1  0.821604  0.189631  0.189056  1
  Nd  Nd12  1  0.189780  0.808285  0.807981  1
  Nd  Nd13  1  0.189631  0.821605  0.189055  1
  Nd  Nd14  1  0.808285  0.189781  0.807980  1
  Nd  Nd15  1  0.189154  0.189153  0.821630  1
  Cd  Cd16  1  0.579376  0.579377  0.579982  1
  Cd  Cd17  1  0.581196  0.581196  0.259297  1
  Cd  Cd18  1  0.581544  0.259128  0.581285  1
  Cd  Cd19  1  0.259129  0.581544  0.581285  1
  Co  Co20  1  0.143023  0.143023  0.143334  1
  Pd  Pd21  1  0.144682  0.144681  0.570793  1
  Pd  Pd22  1  0.146034  0.569761  0.144477  1
  Pd  Pd23  1  0.569761  0.146033  0.144477  1
