# generated using pymatgen
data_Al12TcIr6Rh5
_symmetry_space_group_name_H-M   'P 1'
_cell_length_a   4.27065900
_cell_length_b   6.00027900
_cell_length_c   12.85080800
_cell_angle_alpha   89.99998153
_cell_angle_beta   90.00035275
_cell_angle_gamma   89.99997704
_symmetry_Int_Tables_number   1
_chemical_formula_structural   Al12TcIr6Rh5
_chemical_formula_sum   'Al12 Tc1 Ir6 Rh5'
_cell_volume   329.30382497
_cell_formula_units_Z   1
loop_
 _symmetry_equiv_pos_site_id
 _symmetry_equiv_pos_as_xyz
  1  'x, y, z'
loop_
 _atom_site_type_symbol
 _atom_site_label
 _atom_site_symmetry_multiplicity
 _atom_site_fract_x
 _atom_site_fract_y
 _atom_site_fract_z
 _atom_site_occupancy
  Al  Al0  1  0.500000  0.253025  0.000000  1
  Al  Al1  1  0.500000  0.746975  0.000000  1
  Al  Al2  1  0.000103  0.252477  0.164045  1
  Al  Al3  1  0.000103  0.747524  0.164045  1
  Al  Al4  1  0.500122  0.250456  0.332574  1
  Al  Al5  1  0.500122  0.749544  0.332574  1
  Al  Al6  1  0.000000  0.249313  0.500000  1
  Al  Al7  1  0.000000  0.750688  0.500000  1
  Al  Al8  1  0.499878  0.250456  0.667426  1
  Al  Al9  1  0.499878  0.749544  0.667426  1
  Al  Al10  1  0.999897  0.252477  0.835955  1
  Al  Al11  1  0.999897  0.747524  0.835955  1
  Tc  Tc12  1  0.000002  0.500001  0.000000  1
  Ir  Ir13  1  0.000001  0.999999  0.000000  1
  Ir  Ir14  1  0.500092  0.500001  0.170339  1
  Ir  Ir15  1  0.000103  0.000000  0.333489  1
  Ir  Ir16  1  0.500000  0.499999  0.500000  1
  Ir  Ir17  1  0.999898  0.000000  0.666510  1
  Ir  Ir18  1  0.499905  0.500000  0.829661  1
  Rh  Rh19  1  0.500099  0.000000  0.168897  1
  Rh  Rh20  1  0.000099  0.500001  0.335613  1
  Rh  Rh21  1  0.500000  0.000001  0.500000  1
  Rh  Rh22  1  0.999900  0.500000  0.664386  1
  Rh  Rh23  1  0.499903  0.999999  0.831104  1
