# generated using pymatgen
data_Ho2Er2PdPt3
_symmetry_space_group_name_H-M   'P 1'
_cell_length_a   4.50093900
_cell_length_b   5.58429941
_cell_length_c   6.97271398
_cell_angle_alpha   90.13645214
_cell_angle_beta   89.99727917
_cell_angle_gamma   90.00229011
_symmetry_Int_Tables_number   1
_chemical_formula_structural   Ho2Er2PdPt3
_chemical_formula_sum   'Ho2 Er2 Pd1 Pt3'
_cell_volume   175.25581694
_cell_formula_units_Z   1
loop_
 _symmetry_equiv_pos_site_id
 _symmetry_equiv_pos_as_xyz
  1  'x, y, z'
loop_
 _atom_site_type_symbol
 _atom_site_label
 _atom_site_symmetry_multiplicity
 _atom_site_fract_x
 _atom_site_fract_y
 _atom_site_fract_z
 _atom_site_occupancy
  Ho  Ho0  1  0.250004  0.642832  0.182163  1
  Ho  Ho1  1  0.749989  0.359759  0.815564  1
  Er  Er2  1  0.749992  0.139888  0.321702  1
  Er  Er3  1  0.250018  0.857027  0.680889  1
  Pd  Pd4  1  0.250005  0.155116  0.043979  1
  Pt  Pt5  1  0.749980  0.846912  0.956621  1
  Pt  Pt6  1  0.750000  0.656756  0.454719  1
  Pt  Pt7  1  0.250013  0.341711  0.544364  1
