# generated using pymatgen
data_Tb10Bi5P2Pb
_symmetry_space_group_name_H-M   'P 1'
_cell_length_a   9.26571192
_cell_length_b   9.27844258
_cell_length_c   6.72560900
_cell_angle_alpha   90.00000000
_cell_angle_beta   90.00000000
_cell_angle_gamma   120.04547426
_symmetry_Int_Tables_number   1
_chemical_formula_structural   Tb10Bi5P2Pb
_chemical_formula_sum   'Tb10 Bi5 P2 Pb1'
_cell_volume   500.51481454
_cell_formula_units_Z   1
loop_
 _symmetry_equiv_pos_site_id
 _symmetry_equiv_pos_as_xyz
  1  'x, y, z'
loop_
 _atom_site_type_symbol
 _atom_site_label
 _atom_site_symmetry_multiplicity
 _atom_site_fract_x
 _atom_site_fract_y
 _atom_site_fract_z
 _atom_site_occupancy
  Tb  Tb0  1  0.763242  0.763415  0.750000  1
  Tb  Tb1  1  0.236758  0.000172  0.750000  1
  Tb  Tb2  1  0.000000  0.237383  0.750000  1
  Tb  Tb3  1  0.235770  0.237975  0.250000  1
  Tb  Tb4  1  0.764230  0.002204  0.250000  1
  Tb  Tb5  1  0.000000  0.762495  0.250000  1
  Tb  Tb6  1  0.667772  0.333426  0.000875  1
  Tb  Tb7  1  0.332228  0.665655  0.000875  1
  Tb  Tb8  1  0.332228  0.665655  0.499125  1
  Tb  Tb9  1  0.667772  0.333426  0.499125  1
  Bi  Bi10  1  0.399473  0.399259  0.750000  1
  Bi  Bi11  1  0.600527  0.999786  0.750000  1
  Bi  Bi12  1  0.000000  0.599506  0.750000  1
  Bi  Bi13  1  0.600960  0.600828  0.250000  1
  Bi  Bi14  1  0.399040  0.999868  0.250000  1
  P  P15  1  0.000000  0.999548  0.999857  1
  P  P16  1  0.000000  0.999548  0.500143  1
  Pb  Pb17  1  0.000000  0.399851  0.250000  1
