# generated using pymatgen
data_La2RuI
_symmetry_space_group_name_H-M   'P 1'
_cell_length_a   4.22817500
_cell_length_b   4.22817478
_cell_length_c   16.44586300
_cell_angle_alpha   90.00000000
_cell_angle_beta   90.00000000
_cell_angle_gamma   119.99999387
_symmetry_Int_Tables_number   1
_chemical_formula_structural   La2RuI
_chemical_formula_sum   'La4 Ru2 I2'
_cell_volume   254.62040958
_cell_formula_units_Z   2
loop_
 _symmetry_equiv_pos_site_id
 _symmetry_equiv_pos_as_xyz
  1  'x, y, z'
loop_
 _atom_site_type_symbol
 _atom_site_label
 _atom_site_symmetry_multiplicity
 _atom_site_fract_x
 _atom_site_fract_y
 _atom_site_fract_z
 _atom_site_occupancy
  La  La0  1  0.666666  0.333333  0.092153  1
  La  La1  1  0.666666  0.333333  0.407847  1
  La  La2  1  0.333333  0.666666  0.592152  1
  La  La3  1  0.333333  0.666666  0.907848  1
  Ru  Ru4  1  0.000000  0.000000  0.000000  1
  Ru  Ru5  1  0.000000  0.000000  0.500000  1
  I  I6  1  0.333333  0.666666  0.250000  1
  I  I7  1  0.666666  0.333333  0.750000  1
