# generated using pymatgen
data_EuTc(PO4)2
_symmetry_space_group_name_H-M   'P 1'
_cell_length_a   8.94758187
_cell_length_b   8.94758289
_cell_length_c   8.38394600
_cell_angle_alpha   64.73615906
_cell_angle_beta   64.73615595
_cell_angle_gamma   34.05527510
_symmetry_Int_Tables_number   1
_chemical_formula_structural   EuTc(PO4)2
_chemical_formula_sum   'Eu2 Tc2 P4 O16'
_cell_volume   336.35314071
_cell_formula_units_Z   2
loop_
 _symmetry_equiv_pos_site_id
 _symmetry_equiv_pos_as_xyz
  1  'x, y, z'
loop_
 _atom_site_type_symbol
 _atom_site_label
 _atom_site_symmetry_multiplicity
 _atom_site_fract_x
 _atom_site_fract_y
 _atom_site_fract_z
 _atom_site_occupancy
  Eu  Eu0  1  0.660372  0.339628  0.750000  1
  Eu  Eu1  1  0.339628  0.660372  0.250000  1
  Tc  Tc2  1  0.000000  0.500000  0.500000  1
  Tc  Tc3  1  0.500000  0.000000  0.000000  1
  P  P4  1  0.622713  0.093969  0.251996  1
  P  P5  1  0.906031  0.377287  0.248004  1
  P  P6  1  0.377287  0.906031  0.748004  1
  P  P7  1  0.093969  0.622713  0.751996  1
  O  O8  1  0.384428  0.296368  0.392682  1
  O  O9  1  0.703632  0.615572  0.107318  1
  O  O10  1  0.615572  0.703632  0.607318  1
  O  O11  1  0.296368  0.384428  0.892682  1
  O  O12  1  0.662248  0.237081  0.100313  1
  O  O13  1  0.762919  0.337752  0.399687  1
  O  O14  1  0.337752  0.762919  0.899687  1
  O  O15  1  0.237081  0.662248  0.600313  1
  O  O16  1  0.888007  0.831067  0.341552  1
  O  O17  1  0.168933  0.111993  0.158448  1
  O  O18  1  0.111993  0.168933  0.658448  1
  O  O19  1  0.831067  0.888007  0.841552  1
  O  O20  1  0.555648  0.011595  0.198040  1
  O  O21  1  0.988405  0.444352  0.301960  1
  O  O22  1  0.444352  0.988405  0.801960  1
  O  O23  1  0.011595  0.555648  0.698040  1
