# generated using pymatgen
data_PrLu9(AlSb)3
_symmetry_space_group_name_H-M   'P 1'
_cell_length_a   8.64690600
_cell_length_b   8.67319892
_cell_length_c   6.31404200
_cell_angle_alpha   90.00000000
_cell_angle_beta   90.00000000
_cell_angle_gamma   119.68420847
_symmetry_Int_Tables_number   1
_chemical_formula_structural   PrLu9(AlSb)3
_chemical_formula_sum   'Pr1 Lu9 Al3 Sb3'
_cell_volume   411.38774068
_cell_formula_units_Z   1
loop_
 _symmetry_equiv_pos_site_id
 _symmetry_equiv_pos_as_xyz
  1  'x, y, z'
loop_
 _atom_site_type_symbol
 _atom_site_label
 _atom_site_symmetry_multiplicity
 _atom_site_fract_x
 _atom_site_fract_y
 _atom_site_fract_z
 _atom_site_occupancy
  Pr  Pr0  1  0.765395  0.766468  0.250000  1
  Lu  Lu1  1  0.332037  0.678985  0.002547  1
  Lu  Lu2  1  0.666003  0.324819  0.497583  1
  Lu  Lu3  1  0.666003  0.324819  0.002417  1
  Lu  Lu4  1  0.332037  0.678985  0.497453  1
  Lu  Lu5  1  0.235033  0.989779  0.250000  1
  Lu  Lu6  1  0.759945  0.004558  0.750000  1
  Lu  Lu7  1  0.987554  0.234335  0.250000  1
  Lu  Lu8  1  0.240330  0.228739  0.750000  1
  Lu  Lu9  1  0.016525  0.771502  0.750000  1
  Al  Al10  1  0.596020  0.002577  0.250000  1
  Al  Al11  1  0.405255  0.004792  0.750000  1
  Al  Al12  1  0.998382  0.596059  0.250000  1
  Sb  Sb13  1  0.384595  0.388801  0.250000  1
  Sb  Sb14  1  0.609255  0.607248  0.750000  1
  Sb  Sb15  1  0.005631  0.397535  0.750000  1
