# generated using pymatgen
data_Ho20Al2Bi9Te
_symmetry_space_group_name_H-M   'P 1'
_cell_length_a   8.21004628
_cell_length_b   9.51964900
_cell_length_c   12.00359700
_cell_angle_alpha   90.00000000
_cell_angle_beta   90.15561214
_cell_angle_gamma   90.00000000
_symmetry_Int_Tables_number   1
_chemical_formula_structural   Ho20Al2Bi9Te
_chemical_formula_sum   'Ho20 Al2 Bi9 Te1'
_cell_volume   938.15877608
_cell_formula_units_Z   1
loop_
 _symmetry_equiv_pos_site_id
 _symmetry_equiv_pos_as_xyz
  1  'x, y, z'
loop_
 _atom_site_type_symbol
 _atom_site_label
 _atom_site_symmetry_multiplicity
 _atom_site_fract_x
 _atom_site_fract_y
 _atom_site_fract_z
 _atom_site_occupancy
  Ho  Ho0  1  0.032547  0.250000  0.508193  1
  Ho  Ho1  1  0.977910  0.750000  0.489572  1
  Ho  Ho2  1  0.464241  0.750000  0.010175  1
  Ho  Ho3  1  0.523198  0.250000  0.990599  1
  Ho  Ho4  1  0.349530  0.250000  0.292596  1
  Ho  Ho5  1  0.650638  0.750000  0.713308  1
  Ho  Ho6  1  0.149917  0.750000  0.790742  1
  Ho  Ho7  1  0.847867  0.250000  0.216208  1
  Ho  Ho8  1  0.192594  0.250000  0.776218  1
  Ho  Ho9  1  0.820526  0.750000  0.211990  1
  Ho  Ho10  1  0.313387  0.750000  0.281077  1
  Ho  Ho11  1  0.679829  0.250000  0.712469  1
  Ho  Ho12  1  0.191791  0.052330  0.060136  1
  Ho  Ho13  1  0.813236  0.930947  0.944275  1
  Ho  Ho14  1  0.309231  0.945255  0.558703  1
  Ho  Ho15  1  0.813236  0.569053  0.944275  1
  Ho  Ho16  1  0.683821  0.067285  0.445636  1
  Ho  Ho17  1  0.191791  0.447670  0.060136  1
  Ho  Ho18  1  0.683821  0.432715  0.445636  1
  Ho  Ho19  1  0.309231  0.554745  0.558703  1
  Al  Al20  1  0.405196  0.250000  0.540534  1
  Al  Al21  1  0.092414  0.750000  0.040409  1
  Bi  Bi22  1  0.908277  0.250000  0.955284  1
  Bi  Bi23  1  0.059766  0.001651  0.322643  1
  Bi  Bi24  1  0.938256  0.997042  0.674584  1
  Bi  Bi25  1  0.440824  0.997308  0.823388  1
  Bi  Bi26  1  0.938256  0.502958  0.674584  1
  Bi  Bi27  1  0.561535  0.002490  0.176916  1
  Bi  Bi28  1  0.059766  0.498349  0.322643  1
  Bi  Bi29  1  0.561535  0.497510  0.176916  1
  Bi  Bi30  1  0.440824  0.502692  0.823388  1
  Te  Te31  1  0.595010  0.750000  0.458062  1
