# generated using pymatgen
data_Y8Tm
_symmetry_space_group_name_H-M   'P 1'
_cell_length_a   6.24611868
_cell_length_b   6.24753071
_cell_length_c   8.84311312
_cell_angle_alpha   76.50380756
_cell_angle_beta   96.81013910
_cell_angle_gamma   120.23898835
_symmetry_Int_Tables_number   1
_chemical_formula_structural   Y8Tm
_chemical_formula_sum   'Y8 Tm1'
_cell_volume   289.89560717
_cell_formula_units_Z   1
loop_
 _symmetry_equiv_pos_site_id
 _symmetry_equiv_pos_as_xyz
  1  'x, y, z'
loop_
 _atom_site_type_symbol
 _atom_site_label
 _atom_site_symmetry_multiplicity
 _atom_site_fract_x
 _atom_site_fract_y
 _atom_site_fract_z
 _atom_site_occupancy
  Y  Y0  1  0.540926  0.353999  0.249495  1
  Y  Y1  1  0.873031  0.016848  0.250404  1
  Y  Y2  1  0.208383  0.904211  0.585748  1
  Y  Y3  1  0.200212  0.119510  0.919344  1
  Y  Y4  1  0.873251  0.237373  0.584664  1
  Y  Y5  1  0.868088  0.452743  0.918841  1
  Y  Y6  1  0.540259  0.571000  0.586728  1
  Y  Y7  1  0.209101  0.685396  0.249424  1
  Tm  Tm8  1  0.534505  0.787379  0.918131  1
