# generated using pymatgen
data_Dy2HoLu17Bi12
_symmetry_space_group_name_H-M   'P 1'
_cell_length_a   8.15248239
_cell_length_b   9.39844000
_cell_length_c   11.81659000
_cell_angle_alpha   90.00000000
_cell_angle_beta   90.03342525
_cell_angle_gamma   90.00000000
_symmetry_Int_Tables_number   1
_chemical_formula_structural   Dy2HoLu17Bi12
_chemical_formula_sum   'Dy2 Ho1 Lu17 Bi12'
_cell_volume   905.39425746
_cell_formula_units_Z   1
loop_
 _symmetry_equiv_pos_site_id
 _symmetry_equiv_pos_as_xyz
  1  'x, y, z'
loop_
 _atom_site_type_symbol
 _atom_site_label
 _atom_site_symmetry_multiplicity
 _atom_site_fract_x
 _atom_site_fract_y
 _atom_site_fract_z
 _atom_site_occupancy
  Dy  Dy0  1  0.812844  0.250000  0.282765  1
  Dy  Dy1  1  0.686956  0.750000  0.782611  1
  Ho  Ho2  1  0.186926  0.750000  0.717139  1
  Lu  Lu3  1  0.352470  0.750000  0.218286  1
  Lu  Lu4  1  0.852496  0.750000  0.281763  1
  Lu  Lu5  1  0.647311  0.250000  0.781968  1
  Lu  Lu6  1  0.147812  0.250000  0.718307  1
  Lu  Lu7  1  0.692065  0.567395  0.059504  1
  Lu  Lu8  1  0.191695  0.932581  0.440479  1
  Lu  Lu9  1  0.308044  0.067365  0.940734  1
  Lu  Lu10  1  0.808338  0.432662  0.559379  1
  Lu  Lu11  1  0.308044  0.432635  0.940734  1
  Lu  Lu12  1  0.808338  0.067338  0.559379  1
  Lu  Lu13  1  0.692065  0.932605  0.059504  1
  Lu  Lu14  1  0.191695  0.567419  0.440479  1
  Lu  Lu15  1  0.477429  0.250000  0.489146  1
  Lu  Lu16  1  0.977987  0.250000  0.010818  1
  Lu  Lu17  1  0.522079  0.750000  0.510365  1
  Lu  Lu18  1  0.022501  0.750000  0.989748  1
  Lu  Lu19  1  0.312603  0.250000  0.216415  1
  Bi  Bi20  1  0.402052  0.750000  0.958625  1
  Bi  Bi21  1  0.902264  0.750000  0.541547  1
  Bi  Bi22  1  0.596826  0.250000  0.042440  1
  Bi  Bi23  1  0.098752  0.250000  0.458234  1
  Bi  Bi24  1  0.564231  0.995303  0.325051  1
  Bi  Bi25  1  0.066632  0.504479  0.174568  1
  Bi  Bi26  1  0.434507  0.494882  0.674552  1
  Bi  Bi27  1  0.934838  0.005293  0.825645  1
  Bi  Bi28  1  0.434507  0.005118  0.674552  1
  Bi  Bi29  1  0.934838  0.494707  0.825645  1
  Bi  Bi30  1  0.564231  0.504697  0.325051  1
  Bi  Bi31  1  0.066632  0.995521  0.174568  1
