# generated using pymatgen
data_Sr5Si2Pb
_symmetry_space_group_name_H-M   'P 1'
_cell_length_a   9.99094358
_cell_length_b   9.99094312
_cell_length_c   9.99094280
_cell_angle_alpha   131.01721371
_cell_angle_beta   131.01720493
_cell_angle_gamma   71.78573047
_symmetry_Int_Tables_number   1
_chemical_formula_structural   Sr5Si2Pb
_chemical_formula_sum   'Sr10 Si4 Pb2'
_cell_volume   555.38426382
_cell_formula_units_Z   2
loop_
 _symmetry_equiv_pos_site_id
 _symmetry_equiv_pos_as_xyz
  1  'x, y, z'
loop_
 _atom_site_type_symbol
 _atom_site_label
 _atom_site_symmetry_multiplicity
 _atom_site_fract_x
 _atom_site_fract_y
 _atom_site_fract_z
 _atom_site_occupancy
  Sr  Sr0  1  0.542860  0.043892  0.855896  1
  Sr  Sr1  1  0.187996  0.686963  0.144104  1
  Sr  Sr2  1  0.043892  0.187996  0.501033  1
  Sr  Sr3  1  0.686963  0.542860  0.498967  1
  Sr  Sr4  1  0.457140  0.956108  0.144104  1
  Sr  Sr5  1  0.812004  0.313037  0.855896  1
  Sr  Sr6  1  0.956108  0.812004  0.498967  1
  Sr  Sr7  1  0.313037  0.457140  0.501033  1
  Sr  Sr8  1  0.000000  0.000000  0.000000  1
  Sr  Sr9  1  0.500000  0.500000  0.000000  1
  Si  Si10  1  0.891810  0.393190  0.285000  1
  Si  Si11  1  0.108190  0.606810  0.715000  1
  Si  Si12  1  0.393190  0.108190  0.501379  1
  Si  Si13  1  0.606810  0.891810  0.498621  1
  Pb  Pb14  1  0.249028  0.249028  0.000000  1
  Pb  Pb15  1  0.750972  0.750972  0.000000  1
