# generated using pymatgen
data_DyHo5(Ga2Si3)2
_symmetry_space_group_name_H-M   'P 1'
_cell_length_a   5.90085118
_cell_length_b   5.90085173
_cell_length_c   9.36955103
_cell_angle_alpha   90.00591668
_cell_angle_beta   90.00591931
_cell_angle_gamma   102.63139581
_symmetry_Int_Tables_number   1
_chemical_formula_structural   DyHo5(Ga2Si3)2
_chemical_formula_sum   'Dy1 Ho5 Ga4 Si6'
_cell_volume   318.35205264
_cell_formula_units_Z   1
loop_
 _symmetry_equiv_pos_site_id
 _symmetry_equiv_pos_as_xyz
  1  'x, y, z'
loop_
 _atom_site_type_symbol
 _atom_site_label
 _atom_site_symmetry_multiplicity
 _atom_site_fract_x
 _atom_site_fract_y
 _atom_site_fract_z
 _atom_site_occupancy
  Dy  Dy0  1  0.801558  0.198442  0.000000  1
  Ho  Ho1  1  0.660060  0.660073  0.250094  1
  Ho  Ho2  1  0.339927  0.339940  0.749906  1
  Ho  Ho3  1  0.198427  0.801573  0.000000  1
  Ho  Ho4  1  0.198315  0.801685  0.500000  1
  Ho  Ho5  1  0.801636  0.198364  0.500000  1
  Ga  Ga6  1  0.320763  0.320730  0.054282  1
  Ga  Ga7  1  0.679270  0.679237  0.945718  1
  Ga  Ga8  1  0.679313  0.679330  0.554197  1
  Ga  Ga9  1  0.320670  0.320687  0.445803  1
  Si  Si10  1  0.093918  0.486845  0.250117  1
  Si  Si11  1  0.906385  0.513649  0.749762  1
  Si  Si12  1  0.486351  0.093615  0.250238  1
  Si  Si13  1  0.513155  0.906082  0.749883  1
  Si  Si14  1  0.054488  0.054237  0.250217  1
  Si  Si15  1  0.945763  0.945512  0.749783  1
