# generated using pymatgen
data_CdSnTeO6
_symmetry_space_group_name_H-M   'P 1'
_cell_length_a   5.35766100
_cell_length_b   5.35766116
_cell_length_c   4.90463600
_cell_angle_alpha   90.00000000
_cell_angle_beta   90.00000000
_cell_angle_gamma   119.99999286
_symmetry_Int_Tables_number   1
_chemical_formula_structural   CdSnTeO6
_chemical_formula_sum   'Cd1 Sn1 Te1 O6'
_cell_volume   121.92363957
_cell_formula_units_Z   1
loop_
 _symmetry_equiv_pos_site_id
 _symmetry_equiv_pos_as_xyz
  1  'x, y, z'
loop_
 _atom_site_type_symbol
 _atom_site_label
 _atom_site_symmetry_multiplicity
 _atom_site_fract_x
 _atom_site_fract_y
 _atom_site_fract_z
 _atom_site_occupancy
  Cd  Cd0  1  0.666667  0.333334  0.000000  1
  Sn  Sn1  1  0.000000  0.000000  0.500001  1
  Te  Te2  1  0.333333  0.666666  0.500001  1
  O  O3  1  0.311369  0.351444  0.277107  1
  O  O4  1  0.040075  0.688631  0.277107  1
  O  O5  1  0.648555  0.959925  0.277107  1
  O  O6  1  0.040075  0.351444  0.722893  1
  O  O7  1  0.648556  0.688631  0.722893  1
  O  O8  1  0.311369  0.959925  0.722893  1
