# generated using pymatgen
data_Tb2U(AlCo)3
_symmetry_space_group_name_H-M   'P 1'
_cell_length_a   7.11881558
_cell_length_b   7.11881519
_cell_length_c   3.59139500
_cell_angle_alpha   90.00000000
_cell_angle_beta   90.00000000
_cell_angle_gamma   119.17542407
_symmetry_Int_Tables_number   1
_chemical_formula_structural   Tb2U(AlCo)3
_chemical_formula_sum   'Tb2 U1 Al3 Co3'
_cell_volume   158.91253997
_cell_formula_units_Z   1
loop_
 _symmetry_equiv_pos_site_id
 _symmetry_equiv_pos_as_xyz
  1  'x, y, z'
loop_
 _atom_site_type_symbol
 _atom_site_label
 _atom_site_symmetry_multiplicity
 _atom_site_fract_x
 _atom_site_fract_y
 _atom_site_fract_z
 _atom_site_occupancy
  Tb  Tb0  1  0.418414  0.001142  0.500000  1
  Tb  Tb1  1  0.001142  0.418414  0.500000  1
  U  U2  1  0.569942  0.569942  0.500000  1
  Al  Al3  1  0.759141  0.993299  0.000000  1
  Al  Al4  1  0.993299  0.759141  0.000000  1
  Al  Al5  1  0.228018  0.228018  0.000000  1
  Co  Co6  1  0.381935  0.657358  0.000000  1
  Co  Co7  1  0.657358  0.381935  0.000000  1
  Co  Co8  1  0.990751  0.990751  0.500000  1
