# generated using pymatgen
data_Yb7SnN4
_symmetry_space_group_name_H-M   'P 1'
_cell_length_a   3.45064100
_cell_length_b   11.63666523
_cell_length_c   11.13689000
_cell_angle_alpha   90.32502198
_cell_angle_beta   90.00000000
_cell_angle_gamma   90.00000000
_symmetry_Int_Tables_number   1
_chemical_formula_structural   Yb7SnN4
_chemical_formula_sum   'Yb14 Sn2 N8'
_cell_volume   447.18297525
_cell_formula_units_Z   2
loop_
 _symmetry_equiv_pos_site_id
 _symmetry_equiv_pos_as_xyz
  1  'x, y, z'
loop_
 _atom_site_type_symbol
 _atom_site_label
 _atom_site_symmetry_multiplicity
 _atom_site_fract_x
 _atom_site_fract_y
 _atom_site_fract_z
 _atom_site_occupancy
  Yb  Yb0  1  0.499830  0.656580  0.252847  1
  Yb  Yb1  1  0.499830  0.343420  0.747153  1
  Yb  Yb2  1  0.500423  0.156567  0.246937  1
  Yb  Yb3  1  0.500423  0.843433  0.753063  1
  Yb  Yb4  1  0.499890  0.500000  0.000000  1
  Yb  Yb5  1  0.499919  0.000000  0.500000  1
  Yb  Yb6  1  0.000136  0.920885  0.259487  1
  Yb  Yb7  1  0.000136  0.079115  0.740513  1
  Yb  Yb8  1  0.999556  0.421182  0.239749  1
  Yb  Yb9  1  0.999556  0.578818  0.760251  1
  Yb  Yb10  1  0.999285  0.762518  0.488460  1
  Yb  Yb11  1  0.999285  0.237482  0.511540  1
  Yb  Yb12  1  0.000284  0.261911  0.010636  1
  Yb  Yb13  1  0.000284  0.738089  0.989364  1
  Sn  Sn14  1  0.505147  0.000000  0.000000  1
  Sn  Sn15  1  0.496281  0.500000  0.500000  1
  N  N16  1  0.999860  0.597135  0.133775  1
  N  N17  1  0.999860  0.402865  0.866225  1
  N  N18  1  0.000517  0.096972  0.365507  1
  N  N19  1  0.000517  0.903028  0.634493  1
  N  N20  1  0.499712  0.829191  0.362133  1
  N  N21  1  0.499712  0.170809  0.637867  1
  N  N22  1  0.499776  0.328592  0.137365  1
  N  N23  1  0.499776  0.671408  0.862635  1
