# generated using pymatgen
data_Yb2HoPaPt4
_symmetry_space_group_name_H-M   'P 1'
_cell_length_a   4.40278600
_cell_length_b   5.66201201
_cell_length_c   7.21081144
_cell_angle_alpha   88.49152419
_cell_angle_beta   90.00000000
_cell_angle_gamma   90.00000000
_symmetry_Int_Tables_number   1
_chemical_formula_structural   Yb2HoPaPt4
_chemical_formula_sum   'Yb2 Ho1 Pa1 Pt4'
_cell_volume   179.69333459
_cell_formula_units_Z   1
loop_
 _symmetry_equiv_pos_site_id
 _symmetry_equiv_pos_as_xyz
  1  'x, y, z'
loop_
 _atom_site_type_symbol
 _atom_site_label
 _atom_site_symmetry_multiplicity
 _atom_site_fract_x
 _atom_site_fract_y
 _atom_site_fract_z
 _atom_site_occupancy
  Yb  Yb0  1  0.750000  0.855341  0.815404  1
  Yb  Yb1  1  0.250000  0.356586  0.683562  1
  Ho  Ho2  1  0.750000  0.641952  0.322512  1
  Pa  Pa3  1  0.250000  0.142255  0.182538  1
  Pt  Pt4  1  0.750000  0.156100  0.435576  1
  Pt  Pt5  1  0.250000  0.849412  0.528334  1
  Pt  Pt6  1  0.250000  0.664501  0.058821  1
  Pt  Pt7  1  0.750000  0.333851  0.973254  1
