# generated using pymatgen
data_LaYbPaIr3
_symmetry_space_group_name_H-M   'P 1'
_cell_length_a   5.40461915
_cell_length_b   5.40461730
_cell_length_c   5.40461718
_cell_angle_alpha   66.18685802
_cell_angle_beta   66.18686028
_cell_angle_gamma   66.18685081
_symmetry_Int_Tables_number   1
_chemical_formula_structural   LaYbPaIr3
_chemical_formula_sum   'La1 Yb1 Pa1 Ir3'
_cell_volume   126.54937299
_cell_formula_units_Z   1
loop_
 _symmetry_equiv_pos_site_id
 _symmetry_equiv_pos_as_xyz
  1  'x, y, z'
loop_
 _atom_site_type_symbol
 _atom_site_label
 _atom_site_symmetry_multiplicity
 _atom_site_fract_x
 _atom_site_fract_y
 _atom_site_fract_z
 _atom_site_occupancy
  La  La0  1  0.242742  0.242742  0.242742  1
  Yb  Yb1  1  0.997818  0.997818  0.997818  1
  Pa  Pa2  1  0.627621  0.627621  0.627621  1
  Ir  Ir3  1  0.627611  0.627611  0.126599  1
  Ir  Ir4  1  0.627611  0.126599  0.627611  1
  Ir  Ir5  1  0.126599  0.627611  0.627611  1
