# generated using pymatgen
data_SmErNpO6
_symmetry_space_group_name_H-M   'P 1'
_cell_length_a   5.59437700
_cell_length_b   7.88424369
_cell_length_c   11.82884705
_cell_angle_alpha   74.29135318
_cell_angle_beta   90.00000000
_cell_angle_gamma   90.00000000
_symmetry_Int_Tables_number   1
_chemical_formula_structural   SmErNpO6
_chemical_formula_sum   'Sm4 Er4 Np4 O24'
_cell_volume   502.25353878
_cell_formula_units_Z   4
loop_
 _symmetry_equiv_pos_site_id
 _symmetry_equiv_pos_as_xyz
  1  'x, y, z'
loop_
 _atom_site_type_symbol
 _atom_site_label
 _atom_site_symmetry_multiplicity
 _atom_site_fract_x
 _atom_site_fract_y
 _atom_site_fract_z
 _atom_site_occupancy
  Sm  Sm0  1  0.746157  0.000000  0.750000  1
  Sm  Sm1  1  0.253843  0.000000  0.250000  1
  Sm  Sm2  1  0.694708  0.500000  0.750000  1
  Sm  Sm3  1  0.305292  0.500000  0.250000  1
  Er  Er4  1  0.186232  0.793615  0.580083  1
  Er  Er5  1  0.813768  0.793615  0.080083  1
  Er  Er6  1  0.186232  0.206385  0.919917  1
  Er  Er7  1  0.813768  0.206385  0.419917  1
  Np  Np8  1  0.255161  0.721656  0.887660  1
  Np  Np9  1  0.744839  0.721656  0.387660  1
  Np  Np10  1  0.255161  0.278344  0.612340  1
  Np  Np11  1  0.744839  0.278344  0.112340  1
  O  O12  1  0.050285  0.944702  0.898960  1
  O  O13  1  0.553147  0.844989  0.935017  1
  O  O14  1  0.949715  0.944702  0.398960  1
  O  O15  1  0.445300  0.797555  0.726824  1
  O  O16  1  0.446853  0.844989  0.435017  1
  O  O17  1  0.969171  0.715526  0.766659  1
  O  O18  1  0.554700  0.797555  0.226824  1
  O  O19  1  0.878675  0.630128  0.553909  1
  O  O20  1  0.380116  0.481228  0.886137  1
  O  O21  1  0.030829  0.715526  0.266659  1
  O  O22  1  0.380116  0.518772  0.613863  1
  O  O23  1  0.878675  0.369872  0.946091  1
  O  O24  1  0.121325  0.630128  0.053909  1
  O  O25  1  0.619884  0.481228  0.386137  1
  O  O26  1  0.969171  0.284474  0.733341  1
  O  O27  1  0.619884  0.518772  0.113863  1
  O  O28  1  0.121325  0.369872  0.446091  1
  O  O29  1  0.445300  0.202445  0.773176  1
  O  O30  1  0.030829  0.284474  0.233341  1
  O  O31  1  0.553147  0.155011  0.564983  1
  O  O32  1  0.554700  0.202445  0.273176  1
  O  O33  1  0.050285  0.055298  0.601040  1
  O  O34  1  0.446853  0.155011  0.064983  1
  O  O35  1  0.949715  0.055298  0.101040  1
