# generated using pymatgen
data_Sc8Cr(CoB8)3
_symmetry_space_group_name_H-M   'P 1'
_cell_length_a   3.34902100
_cell_length_b   8.84515498
_cell_length_c   11.15083969
_cell_angle_alpha   89.78965162
_cell_angle_beta   90.00000000
_cell_angle_gamma   90.00000000
_symmetry_Int_Tables_number   1
_chemical_formula_structural   Sc8Cr(CoB8)3
_chemical_formula_sum   'Sc8 Cr1 Co3 B24'
_cell_volume   330.31474674
_cell_formula_units_Z   1
loop_
 _symmetry_equiv_pos_site_id
 _symmetry_equiv_pos_as_xyz
  1  'x, y, z'
loop_
 _atom_site_type_symbol
 _atom_site_label
 _atom_site_symmetry_multiplicity
 _atom_site_fract_x
 _atom_site_fract_y
 _atom_site_fract_z
 _atom_site_occupancy
  Sc  Sc0  1  0.000000  0.820992  0.084969  1
  Sc  Sc1  1  0.000000  0.180916  0.913157  1
  Sc  Sc2  1  0.000000  0.320571  0.416426  1
  Sc  Sc3  1  0.000000  0.677329  0.585278  1
  Sc  Sc4  1  0.000000  0.443552  0.129517  1
  Sc  Sc5  1  0.000000  0.555786  0.871950  1
  Sc  Sc6  1  0.000000  0.943163  0.370428  1
  Sc  Sc7  1  0.000000  0.055703  0.627734  1
  Cr  Cr8  1  0.000000  0.359919  0.680454  1
  Co  Co9  1  0.000000  0.140799  0.180922  1
  Co  Co10  1  0.000000  0.859331  0.819236  1
  Co  Co11  1  0.000000  0.640806  0.319334  1
  B  B12  1  0.500000  0.054230  0.065252  1
  B  B13  1  0.500000  0.946345  0.934963  1
  B  B14  1  0.500000  0.554062  0.433643  1
  B  B15  1  0.500000  0.447412  0.564361  1
  B  B16  1  0.500000  0.250460  0.080715  1
  B  B17  1  0.500000  0.750214  0.919967  1
  B  B18  1  0.500000  0.750139  0.419324  1
  B  B19  1  0.500000  0.248271  0.579188  1
  B  B20  1  0.500000  0.293899  0.237345  1
  B  B21  1  0.500000  0.706728  0.764258  1
  B  B22  1  0.500000  0.794539  0.262935  1
  B  B23  1  0.500000  0.204051  0.737055  1
  B  B24  1  0.500000  0.131061  0.317104  1
  B  B25  1  0.500000  0.868277  0.682923  1
  B  B26  1  0.500000  0.632154  0.182803  1
  B  B27  1  0.500000  0.368736  0.817777  1
  B  B28  1  0.500000  0.482528  0.288039  1
  B  B29  1  0.500000  0.520587  0.712394  1
  B  B30  1  0.500000  0.982532  0.211454  1
  B  B31  1  0.500000  0.016825  0.788573  1
  B  B32  1  0.500000  0.101298  0.471150  1
  B  B33  1  0.500000  0.895705  0.527278  1
  B  B34  1  0.500000  0.603605  0.028495  1
  B  B35  1  0.500000  0.397476  0.973600  1
