# generated using pymatgen
data_CaGd6GeI12
_symmetry_space_group_name_H-M   'P 1'
_cell_length_a   9.83624454
_cell_length_b   9.83624376
_cell_length_c   9.83624500
_cell_angle_alpha   107.18883270
_cell_angle_beta   107.18881910
_cell_angle_gamma   107.18881985
_symmetry_Int_Tables_number   1
_chemical_formula_structural   CaGd6GeI12
_chemical_formula_sum   'Ca1 Gd6 Ge1 I12'
_cell_volume   788.44469333
_cell_formula_units_Z   1
loop_
 _symmetry_equiv_pos_site_id
 _symmetry_equiv_pos_as_xyz
  1  'x, y, z'
loop_
 _atom_site_type_symbol
 _atom_site_label
 _atom_site_symmetry_multiplicity
 _atom_site_fract_x
 _atom_site_fract_y
 _atom_site_fract_z
 _atom_site_occupancy
  Ca  Ca0  1  0.500000  0.500000  0.500000  1
  Gd  Gd1  1  0.972192  0.898411  0.689303  1
  Gd  Gd2  1  0.027808  0.101589  0.310697  1
  Gd  Gd3  1  0.101589  0.310697  0.027808  1
  Gd  Gd4  1  0.310697  0.027808  0.101589  1
  Gd  Gd5  1  0.898411  0.689303  0.972192  1
  Gd  Gd6  1  0.689303  0.972192  0.898411  1
  Ge  Ge7  1  0.000000  0.000000  0.000000  1
  I  I8  1  0.538792  0.618705  0.847600  1
  I  I9  1  0.461208  0.381295  0.152400  1
  I  I10  1  0.318421  0.925997  0.773429  1
  I  I11  1  0.381295  0.152400  0.461208  1
  I  I12  1  0.925997  0.773429  0.318421  1
  I  I13  1  0.681579  0.074003  0.226571  1
  I  I14  1  0.074003  0.226571  0.681579  1
  I  I15  1  0.773429  0.318421  0.925997  1
  I  I16  1  0.226571  0.681579  0.074003  1
  I  I17  1  0.847600  0.538792  0.618705  1
  I  I18  1  0.152400  0.461208  0.381295  1
  I  I19  1  0.618705  0.847600  0.538792  1
