# generated using pymatgen
data_Yb2In3Ni2Sn
_symmetry_space_group_name_H-M   'P 1'
_cell_length_a   5.63366044
_cell_length_b   5.63365974
_cell_length_c   7.60203796
_cell_angle_alpha   89.70264194
_cell_angle_beta   90.29735985
_cell_angle_gamma   135.19419651
_symmetry_Int_Tables_number   1
_chemical_formula_structural   Yb2In3Ni2Sn
_chemical_formula_sum   'Yb2 In3 Ni2 Sn1'
_cell_volume   170.02488478
_cell_formula_units_Z   1
loop_
 _symmetry_equiv_pos_site_id
 _symmetry_equiv_pos_as_xyz
  1  'x, y, z'
loop_
 _atom_site_type_symbol
 _atom_site_label
 _atom_site_symmetry_multiplicity
 _atom_site_fract_x
 _atom_site_fract_y
 _atom_site_fract_z
 _atom_site_occupancy
  Yb  Yb0  1  0.062921  0.937079  0.251452  1
  Yb  Yb1  1  0.938058  0.061942  0.750744  1
  In  In2  1  0.355088  0.644912  0.447846  1
  In  In3  1  0.647371  0.352629  0.950250  1
  In  In4  1  0.351691  0.648309  0.049980  1
  Ni  Ni5  1  0.215816  0.784184  0.743743  1
  Ni  Ni6  1  0.780989  0.219011  0.254445  1
  Sn  Sn7  1  0.648066  0.351934  0.551540  1
