# generated using pymatgen
data_PrNd2In3Ga2Pt
_symmetry_space_group_name_H-M   'P 1'
_cell_length_a   7.49227901
_cell_length_b   7.49227748
_cell_length_c   4.49909300
_cell_angle_alpha   90.00000000
_cell_angle_beta   90.00000000
_cell_angle_gamma   120.00649438
_symmetry_Int_Tables_number   1
_chemical_formula_structural   PrNd2In3Ga2Pt
_chemical_formula_sum   'Pr1 Nd2 In3 Ga2 Pt1'
_cell_volume   218.70311706
_cell_formula_units_Z   1
loop_
 _symmetry_equiv_pos_site_id
 _symmetry_equiv_pos_as_xyz
  1  'x, y, z'
loop_
 _atom_site_type_symbol
 _atom_site_label
 _atom_site_symmetry_multiplicity
 _atom_site_fract_x
 _atom_site_fract_y
 _atom_site_fract_z
 _atom_site_occupancy
  Pr  Pr0  1  0.407427  0.407427  0.000000  1
  Nd  Nd1  1  0.593125  0.000103  0.000000  1
  Nd  Nd2  1  0.000103  0.593125  0.000000  1
  In  In3  1  0.246248  0.999675  0.500000  1
  In  In4  1  0.999675  0.246248  0.500000  1
  In  In5  1  0.754023  0.754023  0.500000  1
  Ga  Ga6  1  0.333106  0.667048  0.500000  1
  Ga  Ga7  1  0.667048  0.333106  0.500000  1
  Pt  Pt8  1  0.999244  0.999244  0.000000  1
