# generated using pymatgen
data_Y5P12Ru16Pt3
_symmetry_space_group_name_H-M   'P 1'
_cell_length_a   12.60077800
_cell_length_b   12.60077849
_cell_length_c   3.99139700
_cell_angle_alpha   90.00000000
_cell_angle_beta   90.00000000
_cell_angle_gamma   119.99999346
_symmetry_Int_Tables_number   1
_chemical_formula_structural   Y5P12Ru16Pt3
_chemical_formula_sum   'Y5 P12 Ru16 Pt3'
_cell_volume   548.84577367
_cell_formula_units_Z   1
loop_
 _symmetry_equiv_pos_site_id
 _symmetry_equiv_pos_as_xyz
  1  'x, y, z'
loop_
 _atom_site_type_symbol
 _atom_site_label
 _atom_site_symmetry_multiplicity
 _atom_site_fract_x
 _atom_site_fract_y
 _atom_site_fract_z
 _atom_site_occupancy
  Y  Y0  1  0.000000  0.182188  0.500000  1
  Y  Y1  1  0.817812  0.817812  0.500000  1
  Y  Y2  1  0.182188  0.000000  0.500000  1
  Y  Y3  1  0.666667  0.333333  0.000000  1
  Y  Y4  1  0.333333  0.666667  0.000000  1
  P  P5  1  0.000000  0.815050  0.000000  1
  P  P6  1  0.184950  0.184950  0.000000  1
  P  P7  1  0.815050  0.000000  0.000000  1
  P  P8  1  0.700022  0.180217  0.500000  1
  P  P9  1  0.819783  0.519805  0.500000  1
  P  P10  1  0.480195  0.299978  0.500000  1
  P  P11  1  0.180217  0.700022  0.500000  1
  P  P12  1  0.519805  0.819783  0.500000  1
  P  P13  1  0.299978  0.480195  0.500000  1
  P  P14  1  0.000000  0.365394  0.000000  1
  P  P15  1  0.634606  0.634606  0.000000  1
  P  P16  1  0.365394  0.000000  0.000000  1
  Ru  Ru17  1  0.000000  0.710971  0.500000  1
  Ru  Ru18  1  0.289029  0.289029  0.500000  1
  Ru  Ru19  1  0.710971  0.000000  0.500000  1
  Ru  Ru20  1  0.806399  0.184937  0.000000  1
  Ru  Ru21  1  0.815063  0.621464  0.000000  1
  Ru  Ru22  1  0.378536  0.193601  0.000000  1
  Ru  Ru23  1  0.184937  0.806399  0.000000  1
  Ru  Ru24  1  0.621464  0.815063  0.000000  1
  Ru  Ru25  1  0.193601  0.378536  0.000000  1
  Ru  Ru26  1  0.875351  0.369301  0.500000  1
  Ru  Ru27  1  0.630699  0.506050  0.500000  1
  Ru  Ru28  1  0.493950  0.124649  0.500000  1
  Ru  Ru29  1  0.369301  0.875351  0.500000  1
  Ru  Ru30  1  0.506050  0.630699  0.500000  1
  Ru  Ru31  1  0.124649  0.493950  0.500000  1
  Ru  Ru32  1  0.000000  0.000000  0.000000  1
  Pt  Pt33  1  0.000000  0.551470  0.000000  1
  Pt  Pt34  1  0.448530  0.448530  0.000000  1
  Pt  Pt35  1  0.551470  0.000000  0.000000  1
