# generated using pymatgen
data_Nd2Fe14(SiC)3
_symmetry_space_group_name_H-M   'P 1'
_cell_length_a   6.49023280
_cell_length_b   6.49023336
_cell_length_c   6.49023363
_cell_angle_alpha   84.27001972
_cell_angle_beta   84.27001939
_cell_angle_gamma   84.27001674
_symmetry_Int_Tables_number   1
_chemical_formula_structural   Nd2Fe14(SiC)3
_chemical_formula_sum   'Nd2 Fe14 Si3 C3'
_cell_volume   269.54624499
_cell_formula_units_Z   1
loop_
 _symmetry_equiv_pos_site_id
 _symmetry_equiv_pos_as_xyz
  1  'x, y, z'
loop_
 _atom_site_type_symbol
 _atom_site_label
 _atom_site_symmetry_multiplicity
 _atom_site_fract_x
 _atom_site_fract_y
 _atom_site_fract_z
 _atom_site_occupancy
  Nd  Nd0  1  0.649367  0.649367  0.649367  1
  Nd  Nd1  1  0.350633  0.350633  0.350633  1
  Fe  Fe2  1  0.714899  0.285101  0.000000  1
  Fe  Fe3  1  0.000000  0.714899  0.285101  1
  Fe  Fe4  1  0.285101  0.000000  0.714899  1
  Fe  Fe5  1  0.000000  0.285101  0.714899  1
  Fe  Fe6  1  0.714899  0.000000  0.285101  1
  Fe  Fe7  1  0.285101  0.714899  0.000000  1
  Fe  Fe8  1  0.337420  0.867354  0.337420  1
  Fe  Fe9  1  0.337420  0.337420  0.867354  1
  Fe  Fe10  1  0.867354  0.337420  0.337420  1
  Fe  Fe11  1  0.662580  0.132646  0.662580  1
  Fe  Fe12  1  0.662580  0.662580  0.132646  1
  Fe  Fe13  1  0.132646  0.662580  0.662580  1
  Fe  Fe14  1  0.903727  0.903727  0.903727  1
  Fe  Fe15  1  0.096273  0.096273  0.096273  1
  Si  Si16  1  0.000000  0.000000  0.500000  1
  Si  Si17  1  0.500000  0.000000  0.000000  1
  Si  Si18  1  0.000000  0.500000  0.000000  1
  C  C19  1  0.500000  0.500000  0.000000  1
  C  C20  1  0.000000  0.500000  0.500000  1
  C  C21  1  0.500000  0.000000  0.500000  1
