# generated using pymatgen
data_ErTm4(In2Rh)2
_symmetry_space_group_name_H-M   'P 1'
_cell_length_a   3.55739300
_cell_length_b   7.97195300
_cell_length_c   18.16476600
_cell_angle_alpha   90.00000000
_cell_angle_beta   90.00000000
_cell_angle_gamma   90.00000000
_symmetry_Int_Tables_number   1
_chemical_formula_structural   ErTm4(In2Rh)2
_chemical_formula_sum   'Er2 Tm8 In8 Rh4'
_cell_volume   515.14131630
_cell_formula_units_Z   2
loop_
 _symmetry_equiv_pos_site_id
 _symmetry_equiv_pos_as_xyz
  1  'x, y, z'
loop_
 _atom_site_type_symbol
 _atom_site_label
 _atom_site_symmetry_multiplicity
 _atom_site_fract_x
 _atom_site_fract_y
 _atom_site_fract_z
 _atom_site_occupancy
  Er  Er0  1  0.000000  0.000000  0.000000  1
  Er  Er1  1  0.000000  0.500000  0.500000  1
  Tm  Tm2  1  0.000000  0.116251  0.412823  1
  Tm  Tm3  1  0.000000  0.883749  0.587177  1
  Tm  Tm4  1  0.000000  0.383749  0.912823  1
  Tm  Tm5  1  0.000000  0.616251  0.087177  1
  Tm  Tm6  1  0.000000  0.244217  0.221034  1
  Tm  Tm7  1  0.000000  0.755783  0.778966  1
  Tm  Tm8  1  0.000000  0.255783  0.721034  1
  Tm  Tm9  1  0.000000  0.744217  0.278966  1
  In  In10  1  0.500000  0.425654  0.350267  1
  In  In11  1  0.500000  0.574346  0.649733  1
  In  In12  1  0.500000  0.074346  0.850267  1
  In  In13  1  0.500000  0.925654  0.149733  1
  In  In14  1  0.500000  0.292831  0.067335  1
  In  In15  1  0.500000  0.707169  0.932665  1
  In  In16  1  0.500000  0.207169  0.567335  1
  In  In17  1  0.500000  0.792831  0.432665  1
  Rh  Rh18  1  0.500000  0.024397  0.304242  1
  Rh  Rh19  1  0.500000  0.975603  0.695758  1
  Rh  Rh20  1  0.500000  0.475603  0.804242  1
  Rh  Rh21  1  0.500000  0.524397  0.195758  1
