# generated using pymatgen
data_HoU3TaNb3N8
_symmetry_space_group_name_H-M   'P 1'
_cell_length_a   3.26274000
_cell_length_b   5.68319961
_cell_length_c   10.94689831
_cell_angle_alpha   90.09948588
_cell_angle_beta   90.00000000
_cell_angle_gamma   90.00000000
_symmetry_Int_Tables_number   1
_chemical_formula_structural   HoU3TaNb3N8
_chemical_formula_sum   'Ho1 U3 Ta1 Nb3 N8'
_cell_volume   202.98586957
_cell_formula_units_Z   1
loop_
 _symmetry_equiv_pos_site_id
 _symmetry_equiv_pos_as_xyz
  1  'x, y, z'
loop_
 _atom_site_type_symbol
 _atom_site_label
 _atom_site_symmetry_multiplicity
 _atom_site_fract_x
 _atom_site_fract_y
 _atom_site_fract_z
 _atom_site_occupancy
  Ho  Ho0  1  0.250000  0.577838  0.855826  1
  U  U1  1  0.750000  0.424784  0.140054  1
  U  U2  1  0.750000  0.924265  0.356654  1
  U  U3  1  0.250000  0.081031  0.644857  1
  Ta  Ta4  1  0.750000  0.577823  0.601868  1
  Nb  Nb5  1  0.250000  0.922332  0.099397  1
  Nb  Nb6  1  0.750000  0.072594  0.902324  1
  Nb  Nb7  1  0.250000  0.423938  0.399578  1
  N  N8  1  0.250000  0.660192  0.245119  1
  N  N9  1  0.750000  0.335249  0.750830  1
  N  N10  1  0.750000  0.841138  0.741691  1
  N  N11  1  0.250000  0.159439  0.255366  1
  N  N12  1  0.250000  0.763460  0.507273  1
  N  N13  1  0.750000  0.237364  0.497550  1
  N  N14  1  0.750000  0.732456  0.003660  1
  N  N15  1  0.250000  0.266092  0.997952  1
