# generated using pymatgen
data_Lu2Th(CoSn)3
_symmetry_space_group_name_H-M   'P 1'
_cell_length_a   7.41155600
_cell_length_b   7.22061151
_cell_length_c   3.86101500
_cell_angle_alpha   90.00000000
_cell_angle_beta   90.00000000
_cell_angle_gamma   120.87870631
_symmetry_Int_Tables_number   1
_chemical_formula_structural   Lu2Th(CoSn)3
_chemical_formula_sum   'Lu2 Th1 Co3 Sn3'
_cell_volume   177.33789944
_cell_formula_units_Z   1
loop_
 _symmetry_equiv_pos_site_id
 _symmetry_equiv_pos_as_xyz
  1  'x, y, z'
loop_
 _atom_site_type_symbol
 _atom_site_label
 _atom_site_symmetry_multiplicity
 _atom_site_fract_x
 _atom_site_fract_y
 _atom_site_fract_z
 _atom_site_occupancy
  Lu  Lu0  1  0.998023  0.593584  0.500000  1
  Lu  Lu1  1  0.404440  0.406416  0.500000  1
  Th  Th2  1  0.583285  0.000000  0.500000  1
  Co  Co3  1  0.352121  0.685107  0.000000  1
  Co  Co4  1  0.995765  0.000000  0.500000  1
  Co  Co5  1  0.667015  0.314893  0.000000  1
  Sn  Sn6  1  0.743649  0.730386  0.000000  1
  Sn  Sn7  1  0.013263  0.269614  0.000000  1
  Sn  Sn8  1  0.242439  0.000000  0.000000  1
