# generated using pymatgen
data_TmPa3(GePt)4
_symmetry_space_group_name_H-M   'P 1'
_cell_length_a   4.40162300
_cell_length_b   7.01837903
_cell_length_c   7.65777909
_cell_angle_alpha   90.06160786
_cell_angle_beta   90.00000000
_cell_angle_gamma   90.00000000
_symmetry_Int_Tables_number   1
_chemical_formula_structural   TmPa3(GePt)4
_chemical_formula_sum   'Tm1 Pa3 Ge4 Pt4'
_cell_volume   236.56595489
_cell_formula_units_Z   1
loop_
 _symmetry_equiv_pos_site_id
 _symmetry_equiv_pos_as_xyz
  1  'x, y, z'
loop_
 _atom_site_type_symbol
 _atom_site_label
 _atom_site_symmetry_multiplicity
 _atom_site_fract_x
 _atom_site_fract_y
 _atom_site_fract_z
 _atom_site_occupancy
  Tm  Tm0  1  0.750000  0.504682  0.796071  1
  Pa  Pa1  1  0.250000  0.992740  0.294384  1
  Pa  Pa2  1  0.250000  0.495064  0.206417  1
  Pa  Pa3  1  0.750000  0.003795  0.703909  1
  Ge  Ge4  1  0.250000  0.304689  0.591250  1
  Ge  Ge5  1  0.250000  0.809187  0.907701  1
  Ge  Ge6  1  0.750000  0.693168  0.413358  1
  Ge  Ge7  1  0.750000  0.191392  0.087020  1
  Pt  Pt8  1  0.250000  0.220464  0.917450  1
  Pt  Pt9  1  0.250000  0.708377  0.583453  1
  Pt  Pt10  1  0.750000  0.789136  0.082607  1
  Pt  Pt11  1  0.750000  0.287305  0.416381  1
