# generated using pymatgen
data_Dy11Y5Cd4Ir3Os
_symmetry_space_group_name_H-M   'P 1'
_cell_length_a   9.69461584
_cell_length_b   9.69381464
_cell_length_c   9.69381275
_cell_angle_alpha   59.61781234
_cell_angle_beta   59.59506220
_cell_angle_gamma   59.59511033
_symmetry_Int_Tables_number   1
_chemical_formula_structural   Dy11Y5Cd4Ir3Os
_chemical_formula_sum   'Dy11 Y5 Cd4 Ir3 Os1'
_cell_volume   638.35904204
_cell_formula_units_Z   1
loop_
 _symmetry_equiv_pos_site_id
 _symmetry_equiv_pos_as_xyz
  1  'x, y, z'
loop_
 _atom_site_type_symbol
 _atom_site_label
 _atom_site_symmetry_multiplicity
 _atom_site_fract_x
 _atom_site_fract_y
 _atom_site_fract_z
 _atom_site_occupancy
  Dy  Dy0  1  0.349001  0.349119  0.349118  1
  Dy  Dy1  1  0.348404  0.348391  0.957239  1
  Dy  Dy2  1  0.348405  0.957239  0.348391  1
  Dy  Dy3  1  0.957356  0.348396  0.348394  1
  Dy  Dy4  1  0.811226  0.189217  0.189215  1
  Dy  Dy5  1  0.187681  0.809445  0.809446  1
  Dy  Dy6  1  0.189017  0.811273  0.189298  1
  Dy  Dy7  1  0.809420  0.187847  0.809409  1
  Dy  Dy8  1  0.189014  0.189299  0.811275  1
  Dy  Dy9  1  0.809422  0.809409  0.187846  1
  Dy  Dy10  1  0.939258  0.560858  0.560857  1
  Y  Y11  1  0.557291  0.939279  0.939279  1
  Y  Y12  1  0.561363  0.938838  0.561089  1
  Y  Y13  1  0.939162  0.557333  0.939087  1
  Y  Y14  1  0.561362  0.561088  0.938838  1
  Y  Y15  1  0.939164  0.939086  0.557331  1
  Cd  Cd16  1  0.579757  0.579793  0.579792  1
  Cd  Cd17  1  0.580520  0.580483  0.257063  1
  Cd  Cd18  1  0.580521  0.257063  0.580482  1
  Cd  Cd19  1  0.256960  0.580520  0.580519  1
  Ir  Ir20  1  0.143383  0.143622  0.577480  1
  Ir  Ir21  1  0.143384  0.577479  0.143622  1
  Ir  Ir22  1  0.577441  0.143470  0.143470  1
  Os  Os23  1  0.141488  0.141456  0.141458  1
