# generated using pymatgen
data_CePaInRh2
_symmetry_space_group_name_H-M   'P 1'
_cell_length_a   7.72898383
_cell_length_b   7.72898383
_cell_length_c   3.64318200
_cell_angle_alpha   90.00000000
_cell_angle_beta   90.00000000
_cell_angle_gamma   92.46616021
_symmetry_Int_Tables_number   1
_chemical_formula_structural   CePaInRh2
_chemical_formula_sum   'Ce2 Pa2 In2 Rh4'
_cell_volume   217.43188940
_cell_formula_units_Z   2
loop_
 _symmetry_equiv_pos_site_id
 _symmetry_equiv_pos_as_xyz
  1  'x, y, z'
loop_
 _atom_site_type_symbol
 _atom_site_label
 _atom_site_symmetry_multiplicity
 _atom_site_fract_x
 _atom_site_fract_y
 _atom_site_fract_z
 _atom_site_occupancy
  Ce  Ce0  1  0.170504  0.329496  0.500000  1
  Ce  Ce1  1  0.829496  0.670504  0.500000  1
  Pa  Pa2  1  0.668168  0.168168  0.500000  1
  Pa  Pa3  1  0.331832  0.831832  0.500000  1
  In  In4  1  0.000000  0.000000  0.000000  1
  In  In5  1  0.500000  0.500000  0.000000  1
  Rh  Rh6  1  0.144489  0.644489  0.000000  1
  Rh  Rh7  1  0.855511  0.355511  0.000000  1
  Rh  Rh8  1  0.627775  0.872225  0.000000  1
  Rh  Rh9  1  0.372225  0.127775  0.000000  1
