# generated using pymatgen
data_K3ErBi2
_symmetry_space_group_name_H-M   'P 1'
_cell_length_a   10.11072587
_cell_length_b   10.11072582
_cell_length_c   10.11072583
_cell_angle_alpha   129.01201366
_cell_angle_beta   69.97338650
_cell_angle_gamma   135.47735048
_symmetry_Int_Tables_number   1
_chemical_formula_structural   K3ErBi2
_chemical_formula_sum   'K6 Er2 Bi4'
_cell_volume   552.30266492
_cell_formula_units_Z   2
loop_
 _symmetry_equiv_pos_site_id
 _symmetry_equiv_pos_as_xyz
  1  'x, y, z'
loop_
 _atom_site_type_symbol
 _atom_site_label
 _atom_site_symmetry_multiplicity
 _atom_site_fract_x
 _atom_site_fract_y
 _atom_site_fract_z
 _atom_site_occupancy
  K  K0  1  0.250000  0.250000  0.000000  1
  K  K1  1  0.750000  0.750000  0.000000  1
  K  K2  1  0.313344  0.805909  0.119251  1
  K  K3  1  0.186656  0.305908  0.492565  1
  K  K4  1  0.813344  0.694092  0.507436  1
  K  K5  1  0.686656  0.194091  0.880748  1
  Er  Er6  1  0.750000  0.250000  0.500000  1
  Er  Er7  1  0.250000  0.749999  0.499999  1
  Bi  Bi8  1  0.897852  0.297730  0.195580  1
  Bi  Bi9  1  0.602148  0.797730  0.399879  1
  Bi  Bi10  1  0.397852  0.202270  0.600121  1
  Bi  Bi11  1  0.102148  0.702270  0.804419  1
