# generated using pymatgen
data_Dy4Zn10SnGe
_symmetry_space_group_name_H-M   'P 1'
_cell_length_a   8.28999693
_cell_length_b   8.28999731
_cell_length_c   8.90537700
_cell_angle_alpha   90.00000000
_cell_angle_beta   90.00000000
_cell_angle_gamma   149.67403645
_symmetry_Int_Tables_number   1
_chemical_formula_structural   Dy4Zn10SnGe
_chemical_formula_sum   'Dy4 Zn10 Sn1 Ge1'
_cell_volume   309.01718157
_cell_formula_units_Z   1
loop_
 _symmetry_equiv_pos_site_id
 _symmetry_equiv_pos_as_xyz
  1  'x, y, z'
loop_
 _atom_site_type_symbol
 _atom_site_label
 _atom_site_symmetry_multiplicity
 _atom_site_fract_x
 _atom_site_fract_y
 _atom_site_fract_z
 _atom_site_occupancy
  Dy  Dy0  1  0.199532  0.800468  0.250000  1
  Dy  Dy1  1  0.798050  0.201950  0.750000  1
  Dy  Dy2  1  0.000415  0.999585  0.485848  1
  Dy  Dy3  1  0.000415  0.999585  0.014152  1
  Zn  Zn4  1  0.812530  0.187470  0.391044  1
  Zn  Zn5  1  0.186624  0.813376  0.606932  1
  Zn  Zn6  1  0.812530  0.187470  0.108956  1
  Zn  Zn7  1  0.186624  0.813376  0.893068  1
  Zn  Zn8  1  0.651273  0.348727  0.475049  1
  Zn  Zn9  1  0.344847  0.655153  0.517684  1
  Zn  Zn10  1  0.651273  0.348727  0.024951  1
  Zn  Zn11  1  0.344847  0.655153  0.982316  1
  Zn  Zn12  1  0.398824  0.601176  0.250000  1
  Zn  Zn13  1  0.609434  0.390566  0.750000  1
  Sn  Sn14  1  0.448290  0.551710  0.750000  1
  Ge  Ge15  1  0.554492  0.445508  0.250000  1
