# generated using pymatgen
data_Tb5GeRhO12
_symmetry_space_group_name_H-M   'P 1'
_cell_length_a   6.85157219
_cell_length_b   6.85157341
_cell_length_c   7.29761200
_cell_angle_alpha   74.48543365
_cell_angle_beta   74.48543331
_cell_angle_gamma   50.98208760
_symmetry_Int_Tables_number   1
_chemical_formula_structural   Tb5GeRhO12
_chemical_formula_sum   'Tb5 Ge1 Rh1 O12'
_cell_volume   254.21208230
_cell_formula_units_Z   1
loop_
 _symmetry_equiv_pos_site_id
 _symmetry_equiv_pos_as_xyz
  1  'x, y, z'
loop_
 _atom_site_type_symbol
 _atom_site_label
 _atom_site_symmetry_multiplicity
 _atom_site_fract_x
 _atom_site_fract_y
 _atom_site_fract_z
 _atom_site_occupancy
  Tb  Tb0  1  0.309887  0.296543  0.359476  1
  Tb  Tb1  1  0.703457  0.690113  0.640524  1
  Tb  Tb2  1  0.305972  0.308670  0.831828  1
  Tb  Tb3  1  0.691330  0.694028  0.168172  1
  Tb  Tb4  1  0.002212  0.997788  0.500000  1
  Ge  Ge5  1  0.751553  0.248447  0.000000  1
  Rh  Rh6  1  0.240778  0.759222  0.000000  1
  O  O7  1  0.899096  0.422797  0.919450  1
  O  O8  1  0.423981  0.902518  0.918116  1
  O  O9  1  0.097482  0.576019  0.081884  1
  O  O10  1  0.577203  0.100904  0.080550  1
  O  O11  1  0.100179  0.596426  0.574304  1
  O  O12  1  0.598563  0.092560  0.576776  1
  O  O13  1  0.907440  0.401437  0.423224  1
  O  O14  1  0.403574  0.899821  0.425696  1
  O  O15  1  0.988698  0.012214  0.820667  1
  O  O16  1  0.987786  0.011302  0.179333  1
  O  O17  1  0.505321  0.494514  0.818462  1
  O  O18  1  0.505486  0.494679  0.181538  1
