# generated using pymatgen
data_NdEr2Hf(Co4P3)2
_symmetry_space_group_name_H-M   'P 1'
_cell_length_a   3.73052700
_cell_length_b   10.70945900
_cell_length_c   12.42062700
_cell_angle_alpha   90.00000000
_cell_angle_beta   90.00000000
_cell_angle_gamma   90.00000000
_symmetry_Int_Tables_number   1
_chemical_formula_structural   NdEr2Hf(Co4P3)2
_chemical_formula_sum   'Nd2 Er4 Hf2 Co16 P12'
_cell_volume   496.22797022
_cell_formula_units_Z   2
loop_
 _symmetry_equiv_pos_site_id
 _symmetry_equiv_pos_as_xyz
  1  'x, y, z'
loop_
 _atom_site_type_symbol
 _atom_site_label
 _atom_site_symmetry_multiplicity
 _atom_site_fract_x
 _atom_site_fract_y
 _atom_site_fract_z
 _atom_site_occupancy
  Nd  Nd0  1  0.750000  0.250000  0.469975  1
  Nd  Nd1  1  0.250000  0.750000  0.530025  1
  Er  Er2  1  0.250000  0.928206  0.796588  1
  Er  Er3  1  0.250000  0.571794  0.796588  1
  Er  Er4  1  0.750000  0.071794  0.203412  1
  Er  Er5  1  0.750000  0.428206  0.203412  1
  Hf  Hf6  1  0.250000  0.250000  0.844968  1
  Hf  Hf7  1  0.750000  0.750000  0.155032  1
  Co  Co8  1  0.250000  0.250000  0.292270  1
  Co  Co9  1  0.750000  0.750000  0.707730  1
  Co  Co10  1  0.750000  0.250000  0.013041  1
  Co  Co11  1  0.250000  0.750000  0.986959  1
  Co  Co12  1  0.250000  0.418447  0.006396  1
  Co  Co13  1  0.250000  0.081553  0.006396  1
  Co  Co14  1  0.750000  0.581553  0.993604  1
  Co  Co15  1  0.750000  0.918447  0.993604  1
  Co  Co16  1  0.250000  0.454932  0.568309  1
  Co  Co17  1  0.250000  0.045068  0.568309  1
  Co  Co18  1  0.750000  0.545068  0.431691  1
  Co  Co19  1  0.750000  0.954932  0.431691  1
  Co  Co20  1  0.250000  0.871988  0.294258  1
  Co  Co21  1  0.250000  0.628012  0.294258  1
  Co  Co22  1  0.750000  0.128012  0.705742  1
  Co  Co23  1  0.750000  0.371988  0.705742  1
  P  P24  1  0.250000  0.250000  0.115312  1
  P  P25  1  0.750000  0.750000  0.884688  1
  P  P26  1  0.250000  0.250000  0.641935  1
  P  P27  1  0.750000  0.750000  0.358065  1
  P  P28  1  0.250000  0.442941  0.382280  1
  P  P29  1  0.250000  0.057059  0.382280  1
  P  P30  1  0.750000  0.557059  0.617720  1
  P  P31  1  0.750000  0.942941  0.617720  1
  P  P32  1  0.250000  0.911912  0.106959  1
  P  P33  1  0.250000  0.588088  0.106959  1
  P  P34  1  0.750000  0.088088  0.893041  1
  P  P35  1  0.750000  0.411912  0.893041  1
