# generated using pymatgen
data_YbMg3Co16(MoP3)4
_symmetry_space_group_name_H-M   'P 1'
_cell_length_a   3.62995700
_cell_length_b   10.30698772
_cell_length_c   11.79546600
_cell_angle_alpha   89.89079484
_cell_angle_beta   90.00000000
_cell_angle_gamma   90.00000000
_symmetry_Int_Tables_number   1
_chemical_formula_structural   YbMg3Co16(MoP3)4
_chemical_formula_sum   'Yb1 Mg3 Co16 Mo4 P12'
_cell_volume   441.31384597
_cell_formula_units_Z   1
loop_
 _symmetry_equiv_pos_site_id
 _symmetry_equiv_pos_as_xyz
  1  'x, y, z'
loop_
 _atom_site_type_symbol
 _atom_site_label
 _atom_site_symmetry_multiplicity
 _atom_site_fract_x
 _atom_site_fract_y
 _atom_site_fract_z
 _atom_site_occupancy
  Yb  Yb0  1  0.750000  0.082701  0.793944  1
  Mg  Mg1  1  0.250000  0.578593  0.703732  1
  Mg  Mg2  1  0.250000  0.920764  0.203306  1
  Mg  Mg3  1  0.750000  0.420662  0.296494  1
  Co  Co4  1  0.250000  0.406997  0.484154  1
  Co  Co5  1  0.250000  0.092372  0.988867  1
  Co  Co6  1  0.750000  0.592267  0.516435  1
  Co  Co7  1  0.750000  0.906781  0.016041  1
  Co  Co8  1  0.250000  0.221903  0.177941  1
  Co  Co9  1  0.250000  0.281039  0.676712  1
  Co  Co10  1  0.750000  0.779223  0.822974  1
  Co  Co11  1  0.750000  0.720174  0.322531  1
  Co  Co12  1  0.250000  0.884387  0.700062  1
  Co  Co13  1  0.250000  0.610627  0.203352  1
  Co  Co14  1  0.750000  0.110545  0.296583  1
  Co  Co15  1  0.750000  0.391216  0.797890  1
  Co  Co16  1  0.250000  0.466988  0.934058  1
  Co  Co17  1  0.250000  0.033947  0.431141  1
  Co  Co18  1  0.750000  0.535424  0.067684  1
  Co  Co19  1  0.750000  0.963694  0.564584  1
  Mo  Mo20  1  0.250000  0.709328  0.990844  1
  Mo  Mo21  1  0.250000  0.789690  0.488355  1
  Mo  Mo22  1  0.750000  0.291802  0.011713  1
  Mo  Mo23  1  0.750000  0.208866  0.510537  1
  P  P24  1  0.250000  0.420038  0.119192  1
  P  P25  1  0.250000  0.079433  0.615223  1
  P  P26  1  0.750000  0.581658  0.882256  1
  P  P27  1  0.750000  0.918767  0.380292  1
  P  P28  1  0.250000  0.268503  0.863981  1
  P  P29  1  0.250000  0.235666  0.362298  1
  P  P30  1  0.750000  0.735691  0.138103  1
  P  P31  1  0.750000  0.763810  0.637651  1
  P  P32  1  0.250000  0.591633  0.389649  1
  P  P33  1  0.250000  0.905650  0.890337  1
  P  P34  1  0.750000  0.406842  0.610907  1
  P  P35  1  0.750000  0.092320  0.110178  1
