# generated using pymatgen
data_Rb2Zr3SnS8
_symmetry_space_group_name_H-M   'P 1'
_cell_length_a   6.50816800
_cell_length_b   7.56136300
_cell_length_c   16.05750400
_cell_angle_alpha   90.00000000
_cell_angle_beta   90.00000000
_cell_angle_gamma   90.00000000
_symmetry_Int_Tables_number   1
_chemical_formula_structural   Rb2Zr3SnS8
_chemical_formula_sum   'Rb4 Zr6 Sn2 S16'
_cell_volume   790.19973894
_cell_formula_units_Z   2
loop_
 _symmetry_equiv_pos_site_id
 _symmetry_equiv_pos_as_xyz
  1  'x, y, z'
loop_
 _atom_site_type_symbol
 _atom_site_label
 _atom_site_symmetry_multiplicity
 _atom_site_fract_x
 _atom_site_fract_y
 _atom_site_fract_z
 _atom_site_occupancy
  Rb  Rb0  1  0.329938  0.000000  0.000000  1
  Rb  Rb1  1  0.642233  0.500000  0.500000  1
  Rb  Rb2  1  0.021919  0.000000  0.500000  1
  Rb  Rb3  1  0.974713  0.500000  0.000000  1
  Zr  Zr4  1  0.998615  0.500000  0.253414  1
  Zr  Zr5  1  0.998615  0.500000  0.746586  1
  Zr  Zr6  1  0.500569  0.249183  0.250703  1
  Zr  Zr7  1  0.500569  0.750817  0.749297  1
  Zr  Zr8  1  0.500569  0.750817  0.250703  1
  Zr  Zr9  1  0.500569  0.249183  0.749297  1
  Sn  Sn10  1  0.003973  0.000000  0.246794  1
  Sn  Sn11  1  0.003973  0.000000  0.753206  1
  S  S12  1  0.825431  0.262345  0.342139  1
  S  S13  1  0.825431  0.737655  0.657861  1
  S  S14  1  0.178110  0.731845  0.158484  1
  S  S15  1  0.178110  0.268155  0.841516  1
  S  S16  1  0.178110  0.268155  0.158484  1
  S  S17  1  0.178110  0.731845  0.841516  1
  S  S18  1  0.825431  0.737655  0.342139  1
  S  S19  1  0.825431  0.262345  0.657861  1
  S  S20  1  0.644672  0.000000  0.158920  1
  S  S21  1  0.644672  0.000000  0.841080  1
  S  S22  1  0.329903  0.500000  0.341230  1
  S  S23  1  0.329903  0.500000  0.658770  1
  S  S24  1  0.360419  0.000000  0.342462  1
  S  S25  1  0.360419  0.000000  0.657538  1
  S  S26  1  0.669797  0.500000  0.161341  1
  S  S27  1  0.669797  0.500000  0.838659  1
