# generated using pymatgen
data_CaMnFe4(AsO4)4
_symmetry_space_group_name_H-M   'P 1'
_cell_length_a   8.92239150
_cell_length_b   5.47059743
_cell_length_c   9.41749267
_cell_angle_alpha   59.87022291
_cell_angle_beta   90.04414754
_cell_angle_gamma   90.06041556
_symmetry_Int_Tables_number   1
_chemical_formula_structural   CaMnFe4(AsO4)4
_chemical_formula_sum   'Ca1 Mn1 Fe4 As4 O16'
_cell_volume   397.56878178
_cell_formula_units_Z   1
loop_
 _symmetry_equiv_pos_site_id
 _symmetry_equiv_pos_as_xyz
  1  'x, y, z'
loop_
 _atom_site_type_symbol
 _atom_site_label
 _atom_site_symmetry_multiplicity
 _atom_site_fract_x
 _atom_site_fract_y
 _atom_site_fract_z
 _atom_site_occupancy
  Ca  Ca0  1  0.000000  0.000000  0.000000  1
  Mn  Mn1  1  0.500000  0.000000  0.500000  1
  Fe  Fe2  1  0.359387  0.990136  0.109499  1
  Fe  Fe3  1  0.640613  0.009864  0.890501  1
  Fe  Fe4  1  0.854322  0.018892  0.391788  1
  Fe  Fe5  1  0.145678  0.981108  0.608212  1
  As  As6  1  0.691435  0.660514  0.302821  1
  As  As7  1  0.308565  0.339486  0.697179  1
  As  As8  1  0.203198  0.335939  0.208621  1
  As  As9  1  0.796802  0.664061  0.791379  1
  O  O10  1  0.643534  0.731282  0.455382  1
  O  O11  1  0.356466  0.268718  0.544618  1
  O  O12  1  0.160045  0.277036  0.050570  1
  O  O13  1  0.839955  0.722964  0.949430  1
  O  O14  1  0.570265  0.810099  0.137089  1
  O  O15  1  0.429735  0.189901  0.862911  1
  O  O16  1  0.071865  0.186577  0.364839  1
  O  O17  1  0.928135  0.813423  0.635161  1
  O  O18  1  0.865127  0.825994  0.248354  1
  O  O19  1  0.134873  0.174006  0.751646  1
  O  O20  1  0.374509  0.162716  0.266941  1
  O  O21  1  0.625491  0.837284  0.733059  1
  O  O22  1  0.699196  0.302765  0.375136  1
  O  O23  1  0.300804  0.697235  0.624864  1
  O  O24  1  0.208827  0.692212  0.138366  1
  O  O25  1  0.791173  0.307788  0.861634  1
