# generated using pymatgen
data_Pr3MgCd2Ag2Ru
_symmetry_space_group_name_H-M   'P 1'
_cell_length_a   7.99829540
_cell_length_b   7.89950990
_cell_length_c   4.07180100
_cell_angle_alpha   90.00000000
_cell_angle_beta   90.00000000
_cell_angle_gamma   120.21915708
_symmetry_Int_Tables_number   1
_chemical_formula_structural   Pr3MgCd2Ag2Ru
_chemical_formula_sum   'Pr3 Mg1 Cd2 Ag2 Ru1'
_cell_volume   222.30612961
_cell_formula_units_Z   1
loop_
 _symmetry_equiv_pos_site_id
 _symmetry_equiv_pos_as_xyz
  1  'x, y, z'
loop_
 _atom_site_type_symbol
 _atom_site_label
 _atom_site_symmetry_multiplicity
 _atom_site_fract_x
 _atom_site_fract_y
 _atom_site_fract_z
 _atom_site_occupancy
  Pr  Pr0  1  0.434989  0.400322  0.500000  1
  Pr  Pr1  1  0.596590  0.024803  0.500000  1
  Pr  Pr2  1  0.968534  0.575947  0.500000  1
  Mg  Mg3  1  0.996717  0.250452  0.000000  1
  Cd  Cd4  1  0.744260  0.745426  0.000000  1
  Cd  Cd5  1  0.257589  0.003420  0.000000  1
  Ag  Ag6  1  0.326954  0.659659  0.000000  1
  Ag  Ag7  1  0.001027  0.009736  0.500000  1
  Ru  Ru8  1  0.673340  0.330236  0.000000  1
