# generated using pymatgen
data_La4Zn4Ir3Rh
_symmetry_space_group_name_H-M   'P 1'
_cell_length_a   4.08158900
_cell_length_b   7.42902617
_cell_length_c   16.68183499
_cell_angle_alpha   90.09240760
_cell_angle_beta   90.00000000
_cell_angle_gamma   90.00000000
_symmetry_Int_Tables_number   1
_chemical_formula_structural   La4Zn4Ir3Rh
_chemical_formula_sum   'La8 Zn8 Ir6 Rh2'
_cell_volume   505.82980456
_cell_formula_units_Z   2
loop_
 _symmetry_equiv_pos_site_id
 _symmetry_equiv_pos_as_xyz
  1  'x, y, z'
loop_
 _atom_site_type_symbol
 _atom_site_label
 _atom_site_symmetry_multiplicity
 _atom_site_fract_x
 _atom_site_fract_y
 _atom_site_fract_z
 _atom_site_occupancy
  La  La0  1  0.250000  0.169910  0.939417  1
  La  La1  1  0.250000  0.669013  0.559970  1
  La  La2  1  0.750000  0.330987  0.440030  1
  La  La3  1  0.750000  0.953078  0.283748  1
  La  La4  1  0.750000  0.830090  0.060583  1
  La  La5  1  0.750000  0.453391  0.217195  1
  La  La6  1  0.250000  0.046922  0.716252  1
  La  La7  1  0.250000  0.546609  0.782805  1
  Zn  Zn8  1  0.750000  0.001805  0.559590  1
  Zn  Zn9  1  0.250000  0.626969  0.350480  1
  Zn  Zn10  1  0.750000  0.373031  0.649520  1
  Zn  Zn11  1  0.250000  0.497220  0.060079  1
  Zn  Zn12  1  0.750000  0.502780  0.939921  1
  Zn  Zn13  1  0.250000  0.998195  0.440410  1
  Zn  Zn14  1  0.250000  0.126517  0.150244  1
  Zn  Zn15  1  0.750000  0.873483  0.849756  1
  Ir  Ir16  1  0.750000  0.758861  0.434805  1
  Ir  Ir17  1  0.250000  0.244459  0.312584  1
  Ir  Ir18  1  0.750000  0.256251  0.814891  1
  Ir  Ir19  1  0.750000  0.755541  0.687416  1
  Ir  Ir20  1  0.250000  0.241139  0.565195  1
  Ir  Ir21  1  0.250000  0.743749  0.185109  1
  Rh  Rh22  1  0.750000  0.256896  0.064592  1
  Rh  Rh23  1  0.250000  0.743104  0.935408  1
