# generated using pymatgen
data_Dy6VCo16P12Os
_symmetry_space_group_name_H-M   'P 1'
_cell_length_a   3.71304300
_cell_length_b   10.53021800
_cell_length_c   12.24096900
_cell_angle_alpha   90.00000000
_cell_angle_beta   90.00000000
_cell_angle_gamma   90.00000000
_symmetry_Int_Tables_number   1
_chemical_formula_structural   Dy6VCo16P12Os
_chemical_formula_sum   'Dy6 V1 Co16 P12 Os1'
_cell_volume   478.61151042
_cell_formula_units_Z   1
loop_
 _symmetry_equiv_pos_site_id
 _symmetry_equiv_pos_as_xyz
  1  'x, y, z'
loop_
 _atom_site_type_symbol
 _atom_site_label
 _atom_site_symmetry_multiplicity
 _atom_site_fract_x
 _atom_site_fract_y
 _atom_site_fract_z
 _atom_site_occupancy
  Dy  Dy0  1  0.000000  0.500000  0.525115  1
  Dy  Dy1  1  0.500000  0.000000  0.477285  1
  Dy  Dy2  1  0.500000  0.818415  0.204951  1
  Dy  Dy3  1  0.500000  0.181585  0.204951  1
  Dy  Dy4  1  0.000000  0.682093  0.793993  1
  Dy  Dy5  1  0.000000  0.317907  0.793993  1
  V  V6  1  0.000000  0.000000  0.845340  1
  Co  Co7  1  0.500000  0.500000  0.702808  1
  Co  Co8  1  0.000000  0.000000  0.297551  1
  Co  Co9  1  0.000000  0.500000  0.987056  1
  Co  Co10  1  0.500000  0.000000  0.013192  1
  Co  Co11  1  0.500000  0.333123  0.990289  1
  Co  Co12  1  0.500000  0.666877  0.990289  1
  Co  Co13  1  0.000000  0.167986  0.008017  1
  Co  Co14  1  0.000000  0.832014  0.008017  1
  Co  Co15  1  0.500000  0.297443  0.430428  1
  Co  Co16  1  0.500000  0.702557  0.430428  1
  Co  Co17  1  0.000000  0.204114  0.568100  1
  Co  Co18  1  0.000000  0.795886  0.568100  1
  Co  Co19  1  0.500000  0.878398  0.708026  1
  Co  Co20  1  0.500000  0.121602  0.708026  1
  Co  Co21  1  0.000000  0.620502  0.291752  1
  Co  Co22  1  0.000000  0.379498  0.291752  1
  P  P23  1  0.500000  0.500000  0.881054  1
  P  P24  1  0.000000  0.000000  0.117888  1
  P  P25  1  0.500000  0.500000  0.350019  1
  P  P26  1  0.000000  0.000000  0.653986  1
  P  P27  1  0.500000  0.310896  0.615653  1
  P  P28  1  0.500000  0.689104  0.615653  1
  P  P29  1  0.000000  0.188438  0.383912  1
  P  P30  1  0.000000  0.811562  0.383912  1
  P  P31  1  0.500000  0.846814  0.892616  1
  P  P32  1  0.500000  0.153186  0.892616  1
  P  P33  1  0.000000  0.653892  0.107017  1
  P  P34  1  0.000000  0.346108  0.107017  1
  Os  Os35  1  0.500000  0.500000  0.159200  1
