# generated using pymatgen
data_Er4B16Mo3W
_symmetry_space_group_name_H-M   'P 1'
_cell_length_a   3.60872100
_cell_length_b   6.00952103
_cell_length_c   11.61639005
_cell_angle_alpha   90.01115101
_cell_angle_beta   90.00000000
_cell_angle_gamma   90.00000000
_symmetry_Int_Tables_number   1
_chemical_formula_structural   Er4B16Mo3W
_chemical_formula_sum   'Er4 B16 Mo3 W1'
_cell_volume   251.92098411
_cell_formula_units_Z   1
loop_
 _symmetry_equiv_pos_site_id
 _symmetry_equiv_pos_as_xyz
  1  'x, y, z'
loop_
 _atom_site_type_symbol
 _atom_site_label
 _atom_site_symmetry_multiplicity
 _atom_site_fract_x
 _atom_site_fract_y
 _atom_site_fract_z
 _atom_site_occupancy
  Er  Er0  1  0.000000  0.627140  0.350510  1
  Er  Er1  1  0.000000  0.372891  0.649757  1
  Er  Er2  1  0.000000  0.127286  0.149584  1
  Er  Er3  1  0.000000  0.873171  0.850211  1
  B  B4  1  0.500000  0.787869  0.186985  1
  B  B5  1  0.500000  0.212798  0.813429  1
  B  B6  1  0.500000  0.287096  0.313476  1
  B  B7  1  0.500000  0.712776  0.686684  1
  B  B8  1  0.500000  0.867641  0.031726  1
  B  B9  1  0.500000  0.133000  0.967835  1
  B  B10  1  0.500000  0.367376  0.468075  1
  B  B11  1  0.500000  0.632593  0.531990  1
  B  B12  1  0.500000  0.885346  0.452310  1
  B  B13  1  0.500000  0.114603  0.547768  1
  B  B14  1  0.500000  0.385152  0.047427  1
  B  B15  1  0.500000  0.614221  0.952097  1
  B  B16  1  0.500000  0.976042  0.306202  1
  B  B17  1  0.500000  0.024189  0.693951  1
  B  B18  1  0.500000  0.475380  0.193903  1
  B  B19  1  0.500000  0.523846  0.806198  1
  Mo  Mo20  1  0.000000  0.369210  0.915526  1
  Mo  Mo21  1  0.000000  0.130102  0.415919  1
  Mo  Mo22  1  0.000000  0.869801  0.584035  1
  W  W23  1  0.000000  0.630471  0.084400  1
