# generated using pymatgen
data_Tb2Dy3Si9P3Ir19
_symmetry_space_group_name_H-M   'P 1'
_cell_length_a   12.83693500
_cell_length_b   12.83761215
_cell_length_c   3.95235700
_cell_angle_alpha   90.00000000
_cell_angle_beta   90.00000000
_cell_angle_gamma   119.99825258
_symmetry_Int_Tables_number   1
_chemical_formula_structural   Tb2Dy3Si9P3Ir19
_chemical_formula_sum   'Tb2 Dy3 Si9 P3 Ir19'
_cell_volume   564.07913662
_cell_formula_units_Z   1
loop_
 _symmetry_equiv_pos_site_id
 _symmetry_equiv_pos_as_xyz
  1  'x, y, z'
loop_
 _atom_site_type_symbol
 _atom_site_label
 _atom_site_symmetry_multiplicity
 _atom_site_fract_x
 _atom_site_fract_y
 _atom_site_fract_z
 _atom_site_occupancy
  Tb  Tb0  1  0.999908  0.814391  0.000000  1
  Tb  Tb1  1  0.185517  0.185609  0.000000  1
  Dy  Dy2  1  0.333858  0.667079  0.500000  1
  Dy  Dy3  1  0.666781  0.332921  0.500000  1
  Dy  Dy4  1  0.815572  0.000000  0.000000  1
  Si  Si5  1  0.999576  0.632615  0.500000  1
  Si  Si6  1  0.366962  0.367385  0.500000  1
  Si  Si7  1  0.633348  0.000000  0.500000  1
  Si  Si8  1  0.519124  0.686586  0.000000  1
  Si  Si9  1  0.313604  0.832472  0.000000  1
  Si  Si10  1  0.167563  0.481443  0.000000  1
  Si  Si11  1  0.481132  0.167528  0.000000  1
  Si  Si12  1  0.686118  0.518557  0.000000  1
  Si  Si13  1  0.832537  0.313414  0.000000  1
  P  P14  1  0.000216  0.178870  0.500000  1
  P  P15  1  0.821346  0.821130  0.500000  1
  P  P16  1  0.178872  0.000000  0.500000  1
  Ir  Ir17  1  0.512914  0.872607  0.000000  1
  Ir  Ir18  1  0.127118  0.640071  0.000000  1
  Ir  Ir19  1  0.359711  0.487549  0.000000  1
  Ir  Ir20  1  0.487047  0.359929  0.000000  1
  Ir  Ir21  1  0.872161  0.512451  0.000000  1
  Ir  Ir22  1  0.640307  0.127393  0.000000  1
  Ir  Ir23  1  0.998927  0.446568  0.500000  1
  Ir  Ir24  1  0.552360  0.553432  0.500000  1
  Ir  Ir25  1  0.447332  0.000000  0.500000  1
  Ir  Ir26  1  0.000056  0.278527  0.000000  1
  Ir  Ir27  1  0.721529  0.721473  0.000000  1
  Ir  Ir28  1  0.278579  0.000000  0.000000  1
  Ir  Ir29  1  0.627575  0.807165  0.500000  1
  Ir  Ir30  1  0.193379  0.820199  0.500000  1
  Ir  Ir31  1  0.179562  0.373705  0.500000  1
  Ir  Ir32  1  0.373181  0.179801  0.500000  1
  Ir  Ir33  1  0.805857  0.626295  0.500000  1
  Ir  Ir34  1  0.820410  0.192835  0.500000  1
  Ir  Ir35  1  0.999957  0.000000  0.500000  1
