# generated using pymatgen
data_La8Tb9Lu3Sn16
_symmetry_space_group_name_H-M   'P 1'
_cell_length_a   8.10183800
_cell_length_b   8.33499373
_cell_length_c   15.72679500
_cell_angle_alpha   90.00000000
_cell_angle_beta   90.00000000
_cell_angle_gamma   89.96312032
_symmetry_Int_Tables_number   1
_chemical_formula_structural   La8Tb9Lu3Sn16
_chemical_formula_sum   'La8 Tb9 Lu3 Sn16'
_cell_volume   1062.01088516
_cell_formula_units_Z   1
loop_
 _symmetry_equiv_pos_site_id
 _symmetry_equiv_pos_as_xyz
  1  'x, y, z'
loop_
 _atom_site_type_symbol
 _atom_site_label
 _atom_site_symmetry_multiplicity
 _atom_site_fract_x
 _atom_site_fract_y
 _atom_site_fract_z
 _atom_site_occupancy
  La  La0  1  0.508302  0.323800  0.904111  1
  La  La1  1  0.008197  0.175556  0.596058  1
  La  La2  1  0.491738  0.675706  0.403633  1
  La  La3  1  0.991940  0.824399  0.096427  1
  La  La4  1  0.491738  0.675706  0.096367  1
  La  La5  1  0.991940  0.824399  0.403573  1
  La  La6  1  0.508302  0.323800  0.595889  1
  La  La7  1  0.008197  0.175556  0.903942  1
  Tb  Tb8  1  0.349275  0.835211  0.875806  1
  Tb  Tb9  1  0.848313  0.665125  0.624037  1
  Tb  Tb10  1  0.651070  0.164840  0.375551  1
  Tb  Tb11  1  0.151421  0.335353  0.124640  1
  Tb  Tb12  1  0.651070  0.164840  0.124449  1
  Tb  Tb13  1  0.151421  0.335353  0.375360  1
  Tb  Tb14  1  0.349275  0.835211  0.624194  1
  Tb  Tb15  1  0.848313  0.665125  0.875963  1
  Tb  Tb16  1  0.181527  0.501037  0.750000  1
  Lu  Lu17  1  0.681995  0.998295  0.750000  1
  Lu  Lu18  1  0.818107  0.498739  0.250000  1
  Lu  Lu19  1  0.318306  0.001343  0.250000  1
  Sn  Sn20  1  0.314483  0.040793  0.042999  1
  Sn  Sn21  1  0.814516  0.459324  0.456917  1
  Sn  Sn22  1  0.684993  0.959420  0.542582  1
  Sn  Sn23  1  0.185268  0.541229  0.958323  1
  Sn  Sn24  1  0.684993  0.959420  0.957418  1
  Sn  Sn25  1  0.185268  0.541229  0.541677  1
  Sn  Sn26  1  0.314483  0.040793  0.457001  1
  Sn  Sn27  1  0.814516  0.459324  0.043083  1
  Sn  Sn28  1  0.547375  0.624111  0.750000  1
  Sn  Sn29  1  0.044332  0.877339  0.750000  1
  Sn  Sn30  1  0.455598  0.376984  0.250000  1
  Sn  Sn31  1  0.955225  0.123052  0.250000  1
  Sn  Sn32  1  0.315312  0.141854  0.750000  1
  Sn  Sn33  1  0.814028  0.355458  0.750000  1
  Sn  Sn34  1  0.684602  0.855744  0.250000  1
  Sn  Sn35  1  0.184555  0.644538  0.250000  1
