# generated using pymatgen
data_Tm3In4CoRu
_symmetry_space_group_name_H-M   'P 1'
_cell_length_a   7.88952800
_cell_length_b   7.88952828
_cell_length_c   3.62860400
_cell_angle_alpha   90.00000000
_cell_angle_beta   90.00000000
_cell_angle_gamma   119.99999881
_symmetry_Int_Tables_number   1
_chemical_formula_structural   Tm3In4CoRu
_chemical_formula_sum   'Tm3 In4 Co1 Ru1'
_cell_volume   195.60154065
_cell_formula_units_Z   1
loop_
 _symmetry_equiv_pos_site_id
 _symmetry_equiv_pos_as_xyz
  1  'x, y, z'
loop_
 _atom_site_type_symbol
 _atom_site_label
 _atom_site_symmetry_multiplicity
 _atom_site_fract_x
 _atom_site_fract_y
 _atom_site_fract_z
 _atom_site_occupancy
  Tm  Tm0  1  0.293865  0.250560  0.500000  1
  Tm  Tm1  1  0.749440  0.043304  0.500000  1
  Tm  Tm2  1  0.956696  0.706135  0.500000  1
  In  In3  1  0.078110  0.413273  0.000000  1
  In  In4  1  0.586727  0.664836  0.000000  1
  In  In5  1  0.335164  0.921890  0.000000  1
  In  In6  1  0.666667  0.333333  0.000000  1
  Co  Co7  1  0.333333  0.666667  0.500000  1
  Ru  Ru8  1  0.000000  0.000000  0.000000  1
