# generated using pymatgen
data_LaNd15(HgRh)4
_symmetry_space_group_name_H-M   'P 1'
_cell_length_a   9.93345405
_cell_length_b   9.93345490
_cell_length_c   9.93345535
_cell_angle_alpha   60.02468487
_cell_angle_beta   60.02468316
_cell_angle_gamma   60.02468585
_symmetry_Int_Tables_number   1
_chemical_formula_structural   LaNd15(HgRh)4
_chemical_formula_sum   'La1 Nd15 Hg4 Rh4'
_cell_volume   693.47196734
_cell_formula_units_Z   1
loop_
 _symmetry_equiv_pos_site_id
 _symmetry_equiv_pos_as_xyz
  1  'x, y, z'
loop_
 _atom_site_type_symbol
 _atom_site_label
 _atom_site_symmetry_multiplicity
 _atom_site_fract_x
 _atom_site_fract_y
 _atom_site_fract_z
 _atom_site_occupancy
  La  La0  1  0.598779  0.598779  0.598779  1
  Nd  Nd1  1  0.600116  0.600116  0.198457  1
  Nd  Nd2  1  0.600116  0.198457  0.600116  1
  Nd  Nd3  1  0.198457  0.600116  0.600116  1
  Nd  Nd4  1  0.060732  0.439955  0.439955  1
  Nd  Nd5  1  0.439884  0.059776  0.059776  1
  Nd  Nd6  1  0.439955  0.060732  0.439955  1
  Nd  Nd7  1  0.059776  0.439884  0.059776  1
  Nd  Nd8  1  0.439955  0.439955  0.060732  1
  Nd  Nd9  1  0.059776  0.059776  0.439884  1
  Nd  Nd10  1  0.186914  0.813162  0.813162  1
  Nd  Nd11  1  0.812068  0.187774  0.187774  1
  Nd  Nd12  1  0.813162  0.186914  0.813162  1
  Nd  Nd13  1  0.187774  0.812068  0.187774  1
  Nd  Nd14  1  0.813162  0.813162  0.186914  1
  Nd  Nd15  1  0.187774  0.187774  0.812068  1
  Hg  Hg16  1  0.833553  0.833553  0.833553  1
  Hg  Hg17  1  0.834423  0.834423  0.498668  1
  Hg  Hg18  1  0.834423  0.498668  0.834423  1
  Hg  Hg19  1  0.498668  0.834423  0.834423  1
  Rh  Rh20  1  0.392034  0.392034  0.392034  1
  Rh  Rh21  1  0.392842  0.392842  0.822817  1
  Rh  Rh22  1  0.392842  0.822817  0.392842  1
  Rh  Rh23  1  0.822817  0.392842  0.392842  1
