# generated using pymatgen
data_Tb9Y(Bi2Os)2
_symmetry_space_group_name_H-M   'P 1'
_cell_length_a   7.98931741
_cell_length_b   9.05960800
_cell_length_c   12.56636686
_cell_angle_alpha   90.00000000
_cell_angle_beta   89.87988226
_cell_angle_gamma   90.00000000
_symmetry_Int_Tables_number   1
_chemical_formula_structural   Tb9Y(Bi2Os)2
_chemical_formula_sum   'Tb18 Y2 Bi8 Os4'
_cell_volume   909.55268995
_cell_formula_units_Z   2
loop_
 _symmetry_equiv_pos_site_id
 _symmetry_equiv_pos_as_xyz
  1  'x, y, z'
loop_
 _atom_site_type_symbol
 _atom_site_label
 _atom_site_symmetry_multiplicity
 _atom_site_fract_x
 _atom_site_fract_y
 _atom_site_fract_z
 _atom_site_occupancy
  Tb  Tb0  1  0.341549  0.250000  0.707877  1
  Tb  Tb1  1  0.658451  0.750000  0.292123  1
  Tb  Tb2  1  0.375317  0.750000  0.693854  1
  Tb  Tb3  1  0.624683  0.250000  0.306146  1
  Tb  Tb4  1  0.875478  0.250000  0.806248  1
  Tb  Tb5  1  0.124522  0.750000  0.193752  1
  Tb  Tb6  1  0.942626  0.750000  0.504285  1
  Tb  Tb7  1  0.057374  0.250000  0.495715  1
  Tb  Tb8  1  0.442017  0.250000  0.995836  1
  Tb  Tb9  1  0.557983  0.750000  0.004164  1
  Tb  Tb10  1  0.674987  0.042263  0.563846  1
  Tb  Tb11  1  0.325013  0.957737  0.436154  1
  Tb  Tb12  1  0.174474  0.957725  0.936407  1
  Tb  Tb13  1  0.325013  0.542263  0.436154  1
  Tb  Tb14  1  0.825526  0.042275  0.063593  1
  Tb  Tb15  1  0.674987  0.457737  0.563846  1
  Tb  Tb16  1  0.825526  0.457725  0.063593  1
  Tb  Tb17  1  0.174474  0.542275  0.936407  1
  Y  Y18  1  0.841325  0.750000  0.791283  1
  Y  Y19  1  0.158675  0.250000  0.208717  1
  Bi  Bi20  1  0.569746  0.493005  0.827808  1
  Bi  Bi21  1  0.430254  0.506995  0.172192  1
  Bi  Bi22  1  0.069169  0.507722  0.672254  1
  Bi  Bi23  1  0.430254  0.993005  0.172192  1
  Bi  Bi24  1  0.930831  0.492278  0.327746  1
  Bi  Bi25  1  0.569746  0.006995  0.827808  1
  Bi  Bi26  1  0.930831  0.007722  0.327746  1
  Bi  Bi27  1  0.069169  0.992278  0.672254  1
  Os  Os28  1  0.575995  0.750000  0.511112  1
  Os  Os29  1  0.424005  0.250000  0.488888  1
  Os  Os30  1  0.075644  0.250000  0.988135  1
  Os  Os31  1  0.924356  0.750000  0.011865  1
