# generated using pymatgen
data_CePa(B4Os)2
_symmetry_space_group_name_H-M   'P 1'
_cell_length_a   3.61377200
_cell_length_b   6.00737417
_cell_length_c   11.65591000
_cell_angle_alpha   90.11066000
_cell_angle_beta   90.00000000
_cell_angle_gamma   90.00000000
_symmetry_Int_Tables_number   1
_chemical_formula_structural   CePa(B4Os)2
_chemical_formula_sum   'Ce2 Pa2 B16 Os4'
_cell_volume   253.04094855
_cell_formula_units_Z   2
loop_
 _symmetry_equiv_pos_site_id
 _symmetry_equiv_pos_as_xyz
  1  'x, y, z'
loop_
 _atom_site_type_symbol
 _atom_site_label
 _atom_site_symmetry_multiplicity
 _atom_site_fract_x
 _atom_site_fract_y
 _atom_site_fract_z
 _atom_site_occupancy
  Ce  Ce0  1  0.000000  0.128506  0.649462  1
  Ce  Ce1  1  0.000000  0.871494  0.350538  1
  Pa  Pa2  1  0.000000  0.628181  0.850181  1
  Pa  Pa3  1  0.000000  0.371819  0.149819  1
  B  B4  1  0.500000  0.473217  0.691452  1
  B  B5  1  0.500000  0.526783  0.308548  1
  B  B6  1  0.500000  0.972118  0.809979  1
  B  B7  1  0.500000  0.027882  0.190021  1
  B  B8  1  0.500000  0.289513  0.813292  1
  B  B9  1  0.500000  0.710487  0.186708  1
  B  B10  1  0.500000  0.786162  0.688260  1
  B  B11  1  0.500000  0.213838  0.311740  1
  B  B12  1  0.500000  0.365762  0.967979  1
  B  B13  1  0.500000  0.634238  0.032021  1
  B  B14  1  0.500000  0.861931  0.531609  1
  B  B15  1  0.500000  0.138069  0.468391  1
  B  B16  1  0.500000  0.387828  0.545715  1
  B  B17  1  0.500000  0.612172  0.454285  1
  B  B18  1  0.500000  0.886793  0.954306  1
  B  B19  1  0.500000  0.113207  0.045694  1
  Os  Os20  1  0.000000  0.143710  0.905456  1
  Os  Os21  1  0.000000  0.856290  0.094544  1
  Os  Os22  1  0.000000  0.640214  0.596350  1
  Os  Os23  1  0.000000  0.359786  0.403650  1
