# generated using pymatgen
data_Sr2CdIClO2
_symmetry_space_group_name_H-M   'P 1'
_cell_length_a   6.52512732
_cell_length_b   6.52512626
_cell_length_c   8.01592016
_cell_angle_alpha   119.79825724
_cell_angle_beta   119.79825167
_cell_angle_gamma   37.17115834
_symmetry_Int_Tables_number   1
_chemical_formula_structural   Sr2CdIClO2
_chemical_formula_sum   'Sr2 Cd1 I1 Cl1 O2'
_cell_volume   175.59639293
_cell_formula_units_Z   1
loop_
 _symmetry_equiv_pos_site_id
 _symmetry_equiv_pos_as_xyz
  1  'x, y, z'
loop_
 _atom_site_type_symbol
 _atom_site_label
 _atom_site_symmetry_multiplicity
 _atom_site_fract_x
 _atom_site_fract_y
 _atom_site_fract_z
 _atom_site_occupancy
  Sr  Sr0  1  0.797494  0.797494  0.219527  1
  Sr  Sr1  1  0.206745  0.206745  0.778752  1
  Cd  Cd2  1  0.996175  0.996175  0.976629  1
  I  I3  1  0.570537  0.570537  0.361145  1
  Cl  Cl4  1  0.427508  0.427508  0.668003  1
  O  O5  1  0.187032  0.187032  0.067035  1
  O  O6  1  0.814509  0.814509  0.928908  1
