# generated using pymatgen
data_CeHo2Co2Si7
_symmetry_space_group_name_H-M   'P 1'
_cell_length_a   12.37825165
_cell_length_b   12.37825144
_cell_length_c   4.00965400
_cell_angle_alpha   90.00000000
_cell_angle_beta   90.00000000
_cell_angle_gamma   161.08500411
_symmetry_Int_Tables_number   1
_chemical_formula_structural   CeHo2Co2Si7
_chemical_formula_sum   'Ce1 Ho2 Co2 Si7'
_cell_volume   199.15520460
_cell_formula_units_Z   1
loop_
 _symmetry_equiv_pos_site_id
 _symmetry_equiv_pos_as_xyz
  1  'x, y, z'
loop_
 _atom_site_type_symbol
 _atom_site_label
 _atom_site_symmetry_multiplicity
 _atom_site_fract_x
 _atom_site_fract_y
 _atom_site_fract_z
 _atom_site_occupancy
  Ce  Ce0  1  0.217906  0.782094  0.000000  1
  Ho  Ho1  1  0.902594  0.097406  0.500000  1
  Ho  Ho2  1  0.533441  0.466559  0.500000  1
  Co  Co3  1  0.348559  0.651441  0.000000  1
  Co  Co4  1  0.087815  0.912185  0.000000  1
  Si  Si5  1  0.628776  0.371224  0.000000  1
  Si  Si6  1  0.441077  0.558923  0.000000  1
  Si  Si7  1  0.129838  0.870162  0.500000  1
  Si  Si8  1  0.994787  0.005213  0.000000  1
  Si  Si9  1  0.806728  0.193272  0.000000  1
  Si  Si10  1  0.705298  0.294702  0.500000  1
  Si  Si11  1  0.306480  0.693520  0.500000  1
