# generated using pymatgen
data_Li4Ca2TbLuSi8
_symmetry_space_group_name_H-M   'P 1'
_cell_length_a   3.78054800
_cell_length_b   7.78285603
_cell_length_c   10.39086941
_cell_angle_alpha   89.36137258
_cell_angle_beta   90.00000000
_cell_angle_gamma   90.00000000
_symmetry_Int_Tables_number   1
_chemical_formula_structural   Li4Ca2TbLuSi8
_chemical_formula_sum   'Li4 Ca2 Tb1 Lu1 Si8'
_cell_volume   305.71634704
_cell_formula_units_Z   1
loop_
 _symmetry_equiv_pos_site_id
 _symmetry_equiv_pos_as_xyz
  1  'x, y, z'
loop_
 _atom_site_type_symbol
 _atom_site_label
 _atom_site_symmetry_multiplicity
 _atom_site_fract_x
 _atom_site_fract_y
 _atom_site_fract_z
 _atom_site_occupancy
  Li  Li0  1  0.250000  0.998981  0.389780  1
  Li  Li1  1  0.750000  0.000840  0.609618  1
  Li  Li2  1  0.250000  0.488420  0.108888  1
  Li  Li3  1  0.750000  0.510919  0.891758  1
  Ca  Ca4  1  0.250000  0.637496  0.634419  1
  Ca  Ca5  1  0.750000  0.363004  0.365140  1
  Tb  Tb6  1  0.250000  0.130841  0.864976  1
  Lu  Lu7  1  0.750000  0.871443  0.135372  1
  Si  Si8  1  0.750000  0.259595  0.063084  1
  Si  Si9  1  0.250000  0.739599  0.941687  1
  Si  Si10  1  0.750000  0.773764  0.423736  1
  Si  Si11  1  0.250000  0.228231  0.573175  1
  Si  Si12  1  0.750000  0.841871  0.827960  1
  Si  Si13  1  0.250000  0.152767  0.173809  1
  Si  Si14  1  0.750000  0.333384  0.683761  1
  Si  Si15  1  0.250000  0.668844  0.312836  1
