# generated using pymatgen
data_Al4InAg3Br16
_symmetry_space_group_name_H-M   'P 1'
_cell_length_a   7.75328300
_cell_length_b   7.65037875
_cell_length_c   14.98461700
_cell_angle_alpha   92.02523669
_cell_angle_beta   90.00000000
_cell_angle_gamma   90.00000000
_symmetry_Int_Tables_number   1
_chemical_formula_structural   Al4InAg3Br16
_chemical_formula_sum   'Al4 In1 Ag3 Br16'
_cell_volume   888.26562640
_cell_formula_units_Z   1
loop_
 _symmetry_equiv_pos_site_id
 _symmetry_equiv_pos_as_xyz
  1  'x, y, z'
loop_
 _atom_site_type_symbol
 _atom_site_label
 _atom_site_symmetry_multiplicity
 _atom_site_fract_x
 _atom_site_fract_y
 _atom_site_fract_z
 _atom_site_occupancy
  Al  Al0  1  0.250000  0.364580  0.896147  1
  Al  Al1  1  0.750000  0.820721  0.597025  1
  Al  Al2  1  0.750000  0.622526  0.113908  1
  Al  Al3  1  0.250000  0.168736  0.387929  1
  In  In4  1  0.250000  0.058261  0.640527  1
  Ag  Ag5  1  0.250000  0.570486  0.099257  1
  Ag  Ag6  1  0.750000  0.046852  0.397462  1
  Ag  Ag7  1  0.750000  0.441186  0.903423  1
  Br  Br8  1  0.250000  0.229735  0.032758  1
  Br  Br9  1  0.750000  0.704796  0.450567  1
  Br  Br10  1  0.750000  0.768714  0.978896  1
  Br  Br11  1  0.250000  0.379006  0.502204  1
  Br  Br12  1  0.250000  0.890618  0.445559  1
  Br  Br13  1  0.750000  0.323764  0.079453  1
  Br  Br14  1  0.750000  0.127241  0.584149  1
  Br  Br15  1  0.250000  0.666276  0.919374  1
  Br  Br16  1  0.989385  0.702820  0.199798  1
  Br  Br17  1  0.005515  0.195031  0.298158  1
  Br  Br18  1  0.490999  0.276932  0.811717  1
  Br  Br19  1  0.509943  0.733467  0.676009  1
  Br  Br20  1  0.009001  0.276932  0.811717  1
  Br  Br21  1  0.990057  0.733467  0.676009  1
  Br  Br22  1  0.510615  0.702820  0.199798  1
  Br  Br23  1  0.494485  0.195031  0.298158  1
