# generated using pymatgen
data_La17Tb2CdIr12
_symmetry_space_group_name_H-M   'P 1'
_cell_length_a   11.40481500
_cell_length_b   11.40481500
_cell_length_c   6.50994200
_cell_angle_alpha   90.00000000
_cell_angle_beta   90.00000000
_cell_angle_gamma   90.00000000
_symmetry_Int_Tables_number   1
_chemical_formula_structural   La17Tb2CdIr12
_chemical_formula_sum   'La17 Tb2 Cd1 Ir12'
_cell_volume   846.74688770
_cell_formula_units_Z   1
loop_
 _symmetry_equiv_pos_site_id
 _symmetry_equiv_pos_as_xyz
  1  'x, y, z'
loop_
 _atom_site_type_symbol
 _atom_site_label
 _atom_site_symmetry_multiplicity
 _atom_site_fract_x
 _atom_site_fract_y
 _atom_site_fract_z
 _atom_site_occupancy
  La  La0  1  0.279470  0.085822  0.388465  1
  La  La1  1  0.290981  0.910405  0.884623  1
  La  La2  1  0.709019  0.089595  0.884623  1
  La  La3  1  0.720530  0.914178  0.388465  1
  La  La4  1  0.589264  0.789742  0.888658  1
  La  La5  1  0.586868  0.210077  0.383975  1
  La  La6  1  0.413132  0.789923  0.383975  1
  La  La7  1  0.410736  0.210258  0.888658  1
  La  La8  1  0.210077  0.413132  0.616025  1
  La  La9  1  0.210258  0.589264  0.111342  1
  La  La10  1  0.789742  0.410736  0.111342  1
  La  La11  1  0.789923  0.586868  0.616025  1
  La  La12  1  0.910405  0.709019  0.115377  1
  La  La13  1  0.914178  0.279470  0.611535  1
  La  La14  1  0.085822  0.720530  0.611535  1
  La  La15  1  0.089595  0.290981  0.115377  1
  La  La16  1  0.000000  0.000000  0.000000  1
  Tb  Tb17  1  0.500000  0.500000  0.000000  1
  Tb  Tb18  1  0.500000  0.500000  0.500000  1
  Cd  Cd19  1  0.000000  0.000000  0.500000  1
  Ir  Ir20  1  0.844556  0.156837  0.241612  1
  Ir  Ir21  1  0.843163  0.844556  0.758388  1
  Ir  Ir22  1  0.156837  0.155444  0.758388  1
  Ir  Ir23  1  0.155444  0.843163  0.241612  1
  Ir  Ir24  1  0.649913  0.351635  0.746847  1
  Ir  Ir25  1  0.648365  0.649913  0.253153  1
  Ir  Ir26  1  0.351635  0.350087  0.253153  1
  Ir  Ir27  1  0.350087  0.648365  0.746847  1
  Ir  Ir28  1  0.500000  0.000000  0.119640  1
  Ir  Ir29  1  0.500000  0.000000  0.614014  1
  Ir  Ir30  1  0.000000  0.500000  0.880360  1
  Ir  Ir31  1  0.000000  0.500000  0.385986  1
