# generated using pymatgen
data_Dy7Y13Sn16
_symmetry_space_group_name_H-M   'P 1'
_cell_length_a   8.05828000
_cell_length_b   8.19932701
_cell_length_c   15.51212801
_cell_angle_alpha   89.99704442
_cell_angle_beta   89.99984426
_cell_angle_gamma   90.00317892
_symmetry_Int_Tables_number   1
_chemical_formula_structural   Dy7Y13Sn16
_chemical_formula_sum   'Dy7 Y13 Sn16'
_cell_volume   1024.92465353
_cell_formula_units_Z   1
loop_
 _symmetry_equiv_pos_site_id
 _symmetry_equiv_pos_as_xyz
  1  'x, y, z'
loop_
 _atom_site_type_symbol
 _atom_site_label
 _atom_site_symmetry_multiplicity
 _atom_site_fract_x
 _atom_site_fract_y
 _atom_site_fract_z
 _atom_site_occupancy
  Dy  Dy0  1  0.367406  0.836206  0.878117  1
  Dy  Dy1  1  0.867339  0.663785  0.621869  1
  Dy  Dy2  1  0.632688  0.163794  0.378134  1
  Dy  Dy3  1  0.132693  0.336177  0.121875  1
  Dy  Dy4  1  0.632670  0.163786  0.121882  1
  Dy  Dy5  1  0.132681  0.336215  0.378138  1
  Dy  Dy6  1  0.367321  0.836237  0.621878  1
  Y  Y7  1  0.867187  0.663638  0.878094  1
  Y  Y8  1  0.522384  0.320808  0.902095  1
  Y  Y9  1  0.022397  0.179136  0.597914  1
  Y  Y10  1  0.477610  0.679139  0.402110  1
  Y  Y11  1  0.977638  0.820908  0.097941  1
  Y  Y12  1  0.477660  0.679171  0.097899  1
  Y  Y13  1  0.977648  0.820832  0.402122  1
  Y  Y14  1  0.522359  0.320854  0.597908  1
  Y  Y15  1  0.022369  0.179214  0.902113  1
  Y  Y16  1  0.198764  0.502668  0.749940  1
  Y  Y17  1  0.698663  0.997351  0.749999  1
  Y  Y18  1  0.801336  0.497304  0.249989  1
  Y  Y19  1  0.301321  0.002717  0.249999  1
  Sn  Sn20  1  0.292272  0.034878  0.041856  1
  Sn  Sn21  1  0.792284  0.465128  0.458147  1
  Sn  Sn22  1  0.707703  0.965118  0.541852  1
  Sn  Sn23  1  0.207864  0.534798  0.958196  1
  Sn  Sn24  1  0.707634  0.965375  0.958210  1
  Sn  Sn25  1  0.207731  0.534905  0.541849  1
  Sn  Sn26  1  0.292272  0.034890  0.458162  1
  Sn  Sn27  1  0.792228  0.465016  0.041954  1
  Sn  Sn28  1  0.565201  0.619438  0.749910  1
  Sn  Sn29  1  0.065446  0.880603  0.749860  1
  Sn  Sn30  1  0.434633  0.380512  0.250016  1
  Sn  Sn31  1  0.934628  0.119459  0.249992  1
  Sn  Sn32  1  0.330263  0.146815  0.750024  1
  Sn  Sn33  1  0.830254  0.353099  0.749952  1
  Sn  Sn34  1  0.669716  0.853205  0.250004  1
  Sn  Sn35  1  0.169736  0.646821  0.250002  1
