# generated using pymatgen
data_Ho3ThCdFe
_symmetry_space_group_name_H-M   'P 1'
_cell_length_a   9.53329195
_cell_length_b   9.53329163
_cell_length_c   9.53329200
_cell_angle_alpha   59.99999873
_cell_angle_beta   59.99999984
_cell_angle_gamma   60.00000079
_symmetry_Int_Tables_number   1
_chemical_formula_structural   Ho3ThCdFe
_chemical_formula_sum   'Ho12 Th4 Cd4 Fe4'
_cell_volume   612.65173489
_cell_formula_units_Z   4
loop_
 _symmetry_equiv_pos_site_id
 _symmetry_equiv_pos_as_xyz
  1  'x, y, z'
loop_
 _atom_site_type_symbol
 _atom_site_label
 _atom_site_symmetry_multiplicity
 _atom_site_fract_x
 _atom_site_fract_y
 _atom_site_fract_z
 _atom_site_occupancy
  Ho  Ho0  1  0.812306  0.187694  0.187694  1
  Ho  Ho1  1  0.187694  0.812306  0.812306  1
  Ho  Ho2  1  0.187694  0.812306  0.187694  1
  Ho  Ho3  1  0.812306  0.187694  0.812306  1
  Ho  Ho4  1  0.187694  0.187694  0.812306  1
  Ho  Ho5  1  0.812306  0.812306  0.187694  1
  Ho  Ho6  1  0.937351  0.562649  0.562649  1
  Ho  Ho7  1  0.562649  0.937351  0.937351  1
  Ho  Ho8  1  0.562649  0.937351  0.562649  1
  Ho  Ho9  1  0.937351  0.562649  0.937351  1
  Ho  Ho10  1  0.562649  0.562649  0.937351  1
  Ho  Ho11  1  0.937351  0.937351  0.562649  1
  Th  Th12  1  0.344387  0.344387  0.344387  1
  Th  Th13  1  0.344387  0.344387  0.966840  1
  Th  Th14  1  0.344387  0.966840  0.344387  1
  Th  Th15  1  0.966840  0.344387  0.344387  1
  Cd  Cd16  1  0.580841  0.580841  0.580841  1
  Cd  Cd17  1  0.580841  0.580841  0.257476  1
  Cd  Cd18  1  0.580841  0.257476  0.580841  1
  Cd  Cd19  1  0.257476  0.580841  0.580841  1
  Fe  Fe20  1  0.143714  0.143714  0.143714  1
  Fe  Fe21  1  0.143714  0.143714  0.568856  1
  Fe  Fe22  1  0.143714  0.568856  0.143714  1
  Fe  Fe23  1  0.568856  0.143714  0.143714  1
