# generated using pymatgen
data_Lu2Al9NiOs2
_symmetry_space_group_name_H-M   'P 1'
_cell_length_a   7.51469489
_cell_length_b   7.51469456
_cell_length_c   9.42606100
_cell_angle_alpha   90.00000000
_cell_angle_beta   90.00000000
_cell_angle_gamma   120.54334146
_symmetry_Int_Tables_number   1
_chemical_formula_structural   Lu2Al9NiOs2
_chemical_formula_sum   'Lu4 Al18 Ni2 Os4'
_cell_volume   458.43697447
_cell_formula_units_Z   2
loop_
 _symmetry_equiv_pos_site_id
 _symmetry_equiv_pos_as_xyz
  1  'x, y, z'
loop_
 _atom_site_type_symbol
 _atom_site_label
 _atom_site_symmetry_multiplicity
 _atom_site_fract_x
 _atom_site_fract_y
 _atom_site_fract_z
 _atom_site_occupancy
  Lu  Lu0  1  0.996042  0.657247  0.250000  1
  Lu  Lu1  1  0.003958  0.342753  0.750000  1
  Lu  Lu2  1  0.657247  0.996042  0.250000  1
  Lu  Lu3  1  0.342753  0.003958  0.750000  1
  Al  Al4  1  0.112152  0.112152  0.250000  1
  Al  Al5  1  0.887848  0.887848  0.750000  1
  Al  Al6  1  0.999743  0.328566  0.072095  1
  Al  Al7  1  0.000257  0.671434  0.927905  1
  Al  Al8  1  0.000257  0.671434  0.572095  1
  Al  Al9  1  0.328566  0.999743  0.427905  1
  Al  Al10  1  0.999743  0.328566  0.427905  1
  Al  Al11  1  0.671434  0.000257  0.572095  1
  Al  Al12  1  0.671434  0.000257  0.927905  1
  Al  Al13  1  0.328566  0.999743  0.072095  1
  Al  Al14  1  0.331758  0.331758  0.548399  1
  Al  Al15  1  0.668242  0.668242  0.451601  1
  Al  Al16  1  0.668242  0.668242  0.048399  1
  Al  Al17  1  0.331758  0.331758  0.951601  1
  Al  Al18  1  0.334959  0.542997  0.250000  1
  Al  Al19  1  0.665041  0.457003  0.750000  1
  Al  Al20  1  0.542997  0.334959  0.250000  1
  Al  Al21  1  0.457003  0.665041  0.750000  1
  Ni  Ni22  1  0.000000  0.000000  0.000000  1
  Ni  Ni23  1  0.000000  0.000000  0.500000  1
  Os  Os24  1  0.672881  0.327119  0.000000  1
  Os  Os25  1  0.327119  0.672881  0.000000  1
  Os  Os26  1  0.327119  0.672881  0.500000  1
  Os  Os27  1  0.672881  0.327119  0.500000  1
