# generated using pymatgen
data_Y12Ho4Cd4TcPd3
_symmetry_space_group_name_H-M   'P 1'
_cell_length_a   9.74983742
_cell_length_b   9.74983824
_cell_length_c   9.74983708
_cell_angle_alpha   59.35820630
_cell_angle_beta   59.35820554
_cell_angle_gamma   59.35820598
_symmetry_Int_Tables_number   1
_chemical_formula_structural   Y12Ho4Cd4TcPd3
_chemical_formula_sum   'Y12 Ho4 Cd4 Tc1 Pd3'
_cell_volume   645.78195778
_cell_formula_units_Z   1
loop_
 _symmetry_equiv_pos_site_id
 _symmetry_equiv_pos_as_xyz
  1  'x, y, z'
loop_
 _atom_site_type_symbol
 _atom_site_label
 _atom_site_symmetry_multiplicity
 _atom_site_fract_x
 _atom_site_fract_y
 _atom_site_fract_z
 _atom_site_occupancy
  Y  Y0  1  0.816810  0.187945  0.187945  1
  Y  Y1  1  0.189293  0.809822  0.809822  1
  Y  Y2  1  0.187945  0.816810  0.187945  1
  Y  Y3  1  0.809822  0.189293  0.809822  1
  Y  Y4  1  0.187945  0.187945  0.816810  1
  Y  Y5  1  0.809822  0.809822  0.189293  1
  Y  Y6  1  0.935195  0.565314  0.565314  1
  Y  Y7  1  0.556832  0.937662  0.937662  1
  Y  Y8  1  0.565314  0.935195  0.565314  1
  Y  Y9  1  0.937662  0.556832  0.937662  1
  Y  Y10  1  0.565314  0.565314  0.935195  1
  Y  Y11  1  0.937662  0.937662  0.556832  1
  Ho  Ho12  1  0.352942  0.352942  0.352942  1
  Ho  Ho13  1  0.351244  0.351244  0.944946  1
  Ho  Ho14  1  0.351244  0.944946  0.351244  1
  Ho  Ho15  1  0.944946  0.351244  0.351244  1
  Cd  Cd16  1  0.579954  0.579954  0.579954  1
  Cd  Cd17  1  0.580856  0.580856  0.254333  1
  Cd  Cd18  1  0.580856  0.254333  0.580856  1
  Cd  Cd19  1  0.254333  0.580856  0.580856  1
  Tc  Tc20  1  0.145820  0.145820  0.145820  1
  Pd  Pd21  1  0.145953  0.145953  0.566281  1
  Pd  Pd22  1  0.145953  0.566281  0.145953  1
  Pd  Pd23  1  0.566281  0.145953  0.145953  1
