# generated using pymatgen
data_Yb4Al5Ni9
_symmetry_space_group_name_H-M   'P 1'
_cell_length_a   5.19671175
_cell_length_b   5.19671208
_cell_length_c   11.94803008
_cell_angle_alpha   77.43944004
_cell_angle_beta   77.43943854
_cell_angle_gamma   59.99998927
_symmetry_Int_Tables_number   1
_chemical_formula_structural   Yb4Al5Ni9
_chemical_formula_sum   'Yb4 Al5 Ni9'
_cell_volume   270.48328511
_cell_formula_units_Z   1
loop_
 _symmetry_equiv_pos_site_id
 _symmetry_equiv_pos_as_xyz
  1  'x, y, z'
loop_
 _atom_site_type_symbol
 _atom_site_label
 _atom_site_symmetry_multiplicity
 _atom_site_fract_x
 _atom_site_fract_y
 _atom_site_fract_z
 _atom_site_occupancy
  Yb  Yb0  1  0.952955  0.952955  0.141137  1
  Yb  Yb1  1  0.047045  0.047045  0.858863  1
  Yb  Yb2  1  0.856880  0.856880  0.429359  1
  Yb  Yb3  1  0.143120  0.143120  0.570641  1
  Al  Al4  1  0.500000  0.500000  0.500000  1
  Al  Al5  1  0.722612  0.722612  0.832162  1
  Al  Al6  1  0.277388  0.277388  0.167838  1
  Al  Al7  1  0.610117  0.610117  0.169649  1
  Al  Al8  1  0.389883  0.389883  0.830351  1
  Ni  Ni9  1  0.000000  0.500000  0.000000  1
  Ni  Ni10  1  0.500000  0.000000  0.000000  1
  Ni  Ni11  1  0.500000  0.500000  0.000000  1
  Ni  Ni12  1  0.385991  0.385991  0.334378  1
  Ni  Ni13  1  0.893640  0.385991  0.334378  1
  Ni  Ni14  1  0.385991  0.893640  0.334378  1
  Ni  Ni15  1  0.614009  0.614009  0.665622  1
  Ni  Ni16  1  0.106360  0.614009  0.665622  1
  Ni  Ni17  1  0.614009  0.106360  0.665622  1
