# generated using pymatgen
data_Ho3Si6(Pd9Pt)2
_symmetry_space_group_name_H-M   'P 1'
_cell_length_a   8.73086572
_cell_length_b   8.73086649
_cell_length_c   8.73086652
_cell_angle_alpha   59.67534341
_cell_angle_beta   59.67534097
_cell_angle_gamma   59.67534134
_symmetry_Int_Tables_number   1
_chemical_formula_structural   Ho3Si6(Pd9Pt)2
_chemical_formula_sum   'Ho3 Si6 Pd18 Pt2'
_cell_volume   467.13446704
_cell_formula_units_Z   1
loop_
 _symmetry_equiv_pos_site_id
 _symmetry_equiv_pos_as_xyz
  1  'x, y, z'
loop_
 _atom_site_type_symbol
 _atom_site_label
 _atom_site_symmetry_multiplicity
 _atom_site_fract_x
 _atom_site_fract_y
 _atom_site_fract_z
 _atom_site_occupancy
  Ho  Ho0  1  0.250572  0.250572  0.250572  1
  Ho  Ho1  1  0.749428  0.749428  0.749428  1
  Ho  Ho2  1  0.000000  0.000000  0.000000  1
  Si  Si3  1  0.730656  0.267999  0.267999  1
  Si  Si4  1  0.269344  0.732001  0.732001  1
  Si  Si5  1  0.267999  0.730656  0.267999  1
  Si  Si6  1  0.732001  0.269344  0.732001  1
  Si  Si7  1  0.267999  0.267999  0.730656  1
  Si  Si8  1  0.732001  0.732001  0.269344  1
  Pd  Pd9  1  0.381778  0.381778  0.851280  1
  Pd  Pd10  1  0.381778  0.851280  0.381778  1
  Pd  Pd11  1  0.618222  0.618222  0.148720  1
  Pd  Pd12  1  0.618222  0.148720  0.618222  1
  Pd  Pd13  1  0.851280  0.381778  0.381778  1
  Pd  Pd14  1  0.148720  0.618222  0.618222  1
  Pd  Pd15  1  0.345016  0.000157  0.000157  1
  Pd  Pd16  1  0.654984  0.999843  0.999843  1
  Pd  Pd17  1  0.000000  0.344951  0.655049  1
  Pd  Pd18  1  0.000000  0.655049  0.344951  1
  Pd  Pd19  1  0.000157  0.345016  0.000157  1
  Pd  Pd20  1  0.655049  0.000000  0.344951  1
  Pd  Pd21  1  0.999843  0.654984  0.999843  1
  Pd  Pd22  1  0.344951  0.000000  0.655049  1
  Pd  Pd23  1  0.000157  0.000157  0.345016  1
  Pd  Pd24  1  0.999843  0.999843  0.654984  1
  Pd  Pd25  1  0.655049  0.344951  0.000000  1
  Pd  Pd26  1  0.344951  0.655049  0.000000  1
  Pt  Pt27  1  0.383958  0.383958  0.383958  1
  Pt  Pt28  1  0.616042  0.616042  0.616042  1
