# generated using pymatgen
data_Nb6Al4FeCuC2
_symmetry_space_group_name_H-M   'P 1'
_cell_length_a   8.30158680
_cell_length_b   8.26794544
_cell_length_c   8.26794764
_cell_angle_alpha   59.97823492
_cell_angle_beta   59.86531692
_cell_angle_gamma   59.86531097
_symmetry_Int_Tables_number   1
_chemical_formula_structural   Nb6Al4FeCuC2
_chemical_formula_sum   'Nb12 Al8 Fe2 Cu2 C4'
_cell_volume   400.38989271
_cell_formula_units_Z   2
loop_
 _symmetry_equiv_pos_site_id
 _symmetry_equiv_pos_as_xyz
  1  'x, y, z'
loop_
 _atom_site_type_symbol
 _atom_site_label
 _atom_site_symmetry_multiplicity
 _atom_site_fract_x
 _atom_site_fract_y
 _atom_site_fract_z
 _atom_site_occupancy
  Nb  Nb0  1  0.682137  0.310713  0.694114  1
  Nb  Nb1  1  0.933387  0.566613  0.566613  1
  Nb  Nb2  1  0.558342  0.941658  0.941658  1
  Nb  Nb3  1  0.936965  0.555886  0.939287  1
  Nb  Nb4  1  0.567863  0.555886  0.939287  1
  Nb  Nb5  1  0.936965  0.939287  0.555886  1
  Nb  Nb6  1  0.682137  0.694114  0.310713  1
  Nb  Nb7  1  0.316613  0.683387  0.683387  1
  Nb  Nb8  1  0.691658  0.308342  0.308342  1
  Nb  Nb9  1  0.313035  0.310713  0.694114  1
  Nb  Nb10  1  0.567863  0.939287  0.555886  1
  Nb  Nb11  1  0.313035  0.694114  0.310713  1
  Al  Al12  1  0.336736  0.332712  0.332712  1
  Al  Al13  1  0.252158  0.917288  0.917288  1
  Al  Al14  1  0.917512  0.243681  0.921293  1
  Al  Al15  1  0.917512  0.921293  0.243681  1
  Al  Al16  1  0.332488  0.006319  0.328707  1
  Al  Al17  1  0.332488  0.328707  0.006319  1
  Al  Al18  1  0.997842  0.332712  0.332712  1
  Al  Al19  1  0.913264  0.917288  0.917288  1
  Fe  Fe20  1  0.125000  0.125000  0.125000  1
  Fe  Fe21  1  0.625000  0.125000  0.125000  1
  Cu  Cu22  1  0.125000  0.625000  0.125000  1
  Cu  Cu23  1  0.125000  0.125000  0.625000  1
  C  C24  1  0.625000  0.625000  0.625000  1
  C  C25  1  0.125000  0.625000  0.625000  1
  C  C26  1  0.625000  0.125000  0.625000  1
  C  C27  1  0.625000  0.625000  0.125000  1
