# generated using pymatgen
data_Li4Ho4Sn3Sb
_symmetry_space_group_name_H-M   'P 1'
_cell_length_a   9.37178987
_cell_length_b   9.37225309
_cell_length_c   7.19412827
_cell_angle_alpha   89.99999842
_cell_angle_beta   90.14946881
_cell_angle_gamma   120.00163837
_symmetry_Int_Tables_number   1
_chemical_formula_structural   Li4Ho4Sn3Sb
_chemical_formula_sum   'Li8 Ho8 Sn6 Sb2'
_cell_volume   547.22536326
_cell_formula_units_Z   2
loop_
 _symmetry_equiv_pos_site_id
 _symmetry_equiv_pos_as_xyz
  1  'x, y, z'
loop_
 _atom_site_type_symbol
 _atom_site_label
 _atom_site_symmetry_multiplicity
 _atom_site_fract_x
 _atom_site_fract_y
 _atom_site_fract_z
 _atom_site_occupancy
  Li  Li0  1  0.167335  0.334089  0.285851  1
  Li  Li1  1  0.167335  0.833247  0.285851  1
  Li  Li2  1  0.665991  0.832996  0.286063  1
  Li  Li3  1  0.832131  0.665899  0.786344  1
  Li  Li4  1  0.832131  0.166231  0.786344  1
  Li  Li5  1  0.334411  0.167205  0.787448  1
  Li  Li6  1  0.334357  0.667179  0.672970  1
  Li  Li7  1  0.666498  0.333249  0.175120  1
  Ho  Ho8  1  0.513889  0.024061  0.491900  1
  Ho  Ho9  1  0.513889  0.489827  0.491900  1
  Ho  Ho10  1  0.975359  0.487679  0.490730  1
  Ho  Ho11  1  0.490336  0.978204  0.995213  1
  Ho  Ho12  1  0.490336  0.512133  0.995213  1
  Ho  Ho13  1  0.020018  0.510010  0.996452  1
  Ho  Ho14  1  0.998098  0.999049  0.496935  1
  Ho  Ho15  1  0.997984  0.998992  0.002761  1
  Sn  Sn16  1  0.666789  0.833395  0.731947  1
  Sn  Sn17  1  0.833904  0.666613  0.232086  1
  Sn  Sn18  1  0.833904  0.167290  0.232086  1
  Sn  Sn19  1  0.333328  0.166663  0.232002  1
  Sn  Sn20  1  0.332632  0.666317  0.259853  1
  Sn  Sn21  1  0.667158  0.333578  0.760263  1
  Sb  Sb22  1  0.166093  0.333318  0.733318  1
  Sb  Sb23  1  0.166093  0.832776  0.733318  1
