# generated using pymatgen
data_Ca12Cu12Si11Ag
_symmetry_space_group_name_H-M   'P 1'
_cell_length_a   4.28767600
_cell_length_b   7.38889152
_cell_length_c   21.24644068
_cell_angle_alpha   89.86805420
_cell_angle_beta   90.00000000
_cell_angle_gamma   90.00000000
_symmetry_Int_Tables_number   1
_chemical_formula_structural   Ca12Cu12Si11Ag
_chemical_formula_sum   'Ca12 Cu12 Si11 Ag1'
_cell_volume   673.11037500
_cell_formula_units_Z   1
loop_
 _symmetry_equiv_pos_site_id
 _symmetry_equiv_pos_as_xyz
  1  'x, y, z'
loop_
 _atom_site_type_symbol
 _atom_site_label
 _atom_site_symmetry_multiplicity
 _atom_site_fract_x
 _atom_site_fract_y
 _atom_site_fract_z
 _atom_site_occupancy
  Ca  Ca0  1  0.250000  0.698095  0.005289  1
  Ca  Ca1  1  0.750000  0.296506  0.999776  1
  Ca  Ca2  1  0.750000  0.205665  0.497195  1
  Ca  Ca3  1  0.250000  0.793520  0.501046  1
  Ca  Ca4  1  0.250000  0.797917  0.167510  1
  Ca  Ca5  1  0.750000  0.200961  0.831314  1
  Ca  Ca6  1  0.750000  0.298406  0.334069  1
  Ca  Ca7  1  0.250000  0.697676  0.664205  1
  Ca  Ca8  1  0.250000  0.700677  0.333260  1
  Ca  Ca9  1  0.750000  0.303080  0.663652  1
  Ca  Ca10  1  0.750000  0.199912  0.168149  1
  Ca  Ca11  1  0.250000  0.799771  0.830475  1
  Cu  Cu12  1  0.250000  0.411498  0.101804  1
  Cu  Cu13  1  0.750000  0.618536  0.902233  1
  Cu  Cu14  1  0.750000  0.913470  0.401089  1
  Cu  Cu15  1  0.250000  0.085333  0.597275  1
  Cu  Cu16  1  0.250000  0.413295  0.235427  1
  Cu  Cu17  1  0.750000  0.579562  0.766008  1
  Cu  Cu18  1  0.750000  0.913626  0.266039  1
  Cu  Cu19  1  0.250000  0.087794  0.732024  1
  Cu  Cu20  1  0.250000  0.421418  0.438845  1
  Cu  Cu21  1  0.750000  0.579229  0.558468  1
  Cu  Cu22  1  0.750000  0.921802  0.062106  1
  Cu  Cu23  1  0.250000  0.060844  0.950299  1
  Si  Si24  1  0.250000  0.090808  0.069441  1
  Si  Si25  1  0.750000  0.920104  0.936141  1
  Si  Si26  1  0.750000  0.591259  0.432424  1
  Si  Si27  1  0.250000  0.410466  0.562119  1
  Si  Si28  1  0.250000  0.080382  0.273953  1
  Si  Si29  1  0.750000  0.917262  0.724940  1
  Si  Si30  1  0.750000  0.579771  0.227228  1
  Si  Si31  1  0.250000  0.412352  0.764674  1
  Si  Si32  1  0.250000  0.083011  0.394358  1
  Si  Si33  1  0.750000  0.918356  0.605493  1
  Si  Si34  1  0.750000  0.581325  0.107198  1
  Ag  Ag35  1  0.250000  0.416315  0.894474  1
