# generated using pymatgen
data_Yb2BPdPt5
_symmetry_space_group_name_H-M   'P 1'
_cell_length_a   5.82966973
_cell_length_b   5.90600615
_cell_length_c   5.90600609
_cell_angle_alpha   59.14668126
_cell_angle_beta   60.42665164
_cell_angle_gamma   60.42665485
_symmetry_Int_Tables_number   1
_chemical_formula_structural   Yb2BPdPt5
_chemical_formula_sum   'Yb2 B1 Pd1 Pt5'
_cell_volume   143.73859917
_cell_formula_units_Z   1
loop_
 _symmetry_equiv_pos_site_id
 _symmetry_equiv_pos_as_xyz
  1  'x, y, z'
loop_
 _atom_site_type_symbol
 _atom_site_label
 _atom_site_symmetry_multiplicity
 _atom_site_fract_x
 _atom_site_fract_y
 _atom_site_fract_z
 _atom_site_occupancy
  Yb  Yb0  1  0.250511  0.249489  0.249489  1
  Yb  Yb1  1  0.750511  0.749489  0.749489  1
  B  B2  1  0.997158  0.002842  0.002842  1
  Pd  Pd3  1  0.255359  0.744641  0.744641  1
  Pt  Pt4  1  0.742822  0.257178  0.257178  1
  Pt  Pt5  1  0.258461  0.741539  0.256642  1
  Pt  Pt6  1  0.743358  0.741539  0.256642  1
  Pt  Pt7  1  0.258461  0.256642  0.741539  1
  Pt  Pt8  1  0.743358  0.256642  0.741539  1
