# generated using pymatgen
data_Tb16In2Hg2IrRh3
_symmetry_space_group_name_H-M   'P 1'
_cell_length_a   9.66122387
_cell_length_b   9.67938903
_cell_length_c   9.66824700
_cell_angle_alpha   60.03807450
_cell_angle_beta   59.97595353
_cell_angle_gamma   59.99872450
_symmetry_Int_Tables_number   1
_chemical_formula_structural   Tb16In2Hg2IrRh3
_chemical_formula_sum   'Tb16 In2 Hg2 Ir1 Rh3'
_cell_volume   639.37319045
_cell_formula_units_Z   1
loop_
 _symmetry_equiv_pos_site_id
 _symmetry_equiv_pos_as_xyz
  1  'x, y, z'
loop_
 _atom_site_type_symbol
 _atom_site_label
 _atom_site_symmetry_multiplicity
 _atom_site_fract_x
 _atom_site_fract_y
 _atom_site_fract_z
 _atom_site_occupancy
  Tb  Tb0  1  0.809308  0.808996  0.190848  1
  Tb  Tb1  1  0.811567  0.190605  0.808114  1
  Tb  Tb2  1  0.189184  0.189815  0.810500  1
  Tb  Tb3  1  0.648299  0.052138  0.649781  1
  Tb  Tb4  1  0.063086  0.062979  0.436967  1
  Tb  Tb5  1  0.439075  0.437280  0.061823  1
  Tb  Tb6  1  0.650268  0.649749  0.650973  1
  Tb  Tb7  1  0.811567  0.190605  0.189714  1
  Tb  Tb8  1  0.190188  0.811572  0.808452  1
  Tb  Tb9  1  0.051532  0.648110  0.650178  1
  Tb  Tb10  1  0.437687  0.064898  0.061155  1
  Tb  Tb11  1  0.437687  0.064898  0.436260  1
  Tb  Tb12  1  0.064223  0.437721  0.060359  1
  Tb  Tb13  1  0.650268  0.649749  0.049010  1
  Tb  Tb14  1  0.190188  0.811572  0.189789  1
  Tb  Tb15  1  0.064223  0.437721  0.437698  1
  In  In16  1  0.418195  0.744685  0.418560  1
  In  In17  1  0.744644  0.418022  0.418667  1
  Hg  Hg18  1  0.415019  0.414849  0.414247  1
  Hg  Hg19  1  0.415019  0.414849  0.755884  1
  Ir  Ir20  1  0.857673  0.426181  0.858073  1
  Rh  Rh21  1  0.857434  0.857569  0.857563  1
  Rh  Rh22  1  0.857434  0.857569  0.427435  1
  Rh  Rh23  1  0.426233  0.857866  0.857951  1
