# generated using pymatgen
data_Ho3LuReRu7
_symmetry_space_group_name_H-M   'P 1'
_cell_length_a   5.16969946
_cell_length_b   5.44293004
_cell_length_c   8.97062802
_cell_angle_alpha   90.00219067
_cell_angle_beta   90.00592563
_cell_angle_gamma   121.61711770
_symmetry_Int_Tables_number   1
_chemical_formula_structural   Ho3LuReRu7
_chemical_formula_sum   'Ho3 Lu1 Re1 Ru7'
_cell_volume   214.95196719
_cell_formula_units_Z   1
loop_
 _symmetry_equiv_pos_site_id
 _symmetry_equiv_pos_as_xyz
  1  'x, y, z'
loop_
 _atom_site_type_symbol
 _atom_site_label
 _atom_site_symmetry_multiplicity
 _atom_site_fract_x
 _atom_site_fract_y
 _atom_site_fract_z
 _atom_site_occupancy
  Ho  Ho0  1  0.669868  0.334211  0.567265  1
  Ho  Ho1  1  0.343201  0.671756  0.434871  1
  Ho  Ho2  1  0.343243  0.671748  0.064582  1
  Lu  Lu3  1  0.668703  0.333600  0.932801  1
  Re  Re4  1  0.318312  0.159016  0.249068  1
  Ru  Ru5  1  0.022559  0.011508  0.500414  1
  Ru  Ru6  1  0.023461  0.011925  0.999439  1
  Ru  Ru7  1  0.166187  0.334920  0.750991  1
  Ru  Ru8  1  0.162487  0.832247  0.751041  1
  Ru  Ru9  1  0.647349  0.823695  0.750910  1
  Ru  Ru10  1  0.816993  0.646317  0.249318  1
  Ru  Ru11  1  0.817637  0.169060  0.249300  1
