# generated using pymatgen
data_NaAc7(Nd3Sn4)4
_symmetry_space_group_name_H-M   'P 1'
_cell_length_a   8.40753076
_cell_length_b   16.14603434
_cell_length_c   8.48107700
_cell_angle_alpha   90.08878950
_cell_angle_beta   89.77339313
_cell_angle_gamma   90.14144600
_symmetry_Int_Tables_number   1
_chemical_formula_structural   NaAc7(Nd3Sn4)4
_chemical_formula_sum   'Na1 Ac7 Nd12 Sn16'
_cell_volume   1151.27774056
_cell_formula_units_Z   1
loop_
 _symmetry_equiv_pos_site_id
 _symmetry_equiv_pos_as_xyz
  1  'x, y, z'
loop_
 _atom_site_type_symbol
 _atom_site_label
 _atom_site_symmetry_multiplicity
 _atom_site_fract_x
 _atom_site_fract_y
 _atom_site_fract_z
 _atom_site_occupancy
  Na  Na0  1  0.684475  0.250790  0.999608  1
  Ac  Ac1  1  0.993620  0.901840  0.822875  1
  Ac  Ac2  1  0.506990  0.098927  0.312720  1
  Ac  Ac3  1  0.997042  0.406414  0.174978  1
  Ac  Ac4  1  0.509466  0.401983  0.314502  1
  Ac  Ac5  1  0.000008  0.095232  0.173895  1
  Ac  Ac6  1  0.494509  0.903407  0.676796  1
  Ac  Ac7  1  0.996588  0.596114  0.820576  1
  Nd  Nd8  1  0.649108  0.624772  0.171776  1
  Nd  Nd9  1  0.152717  0.877429  0.335543  1
  Nd  Nd10  1  0.356774  0.125187  0.834955  1
  Nd  Nd11  1  0.850404  0.377852  0.668396  1
  Nd  Nd12  1  0.358506  0.374719  0.834546  1
  Nd  Nd13  1  0.847611  0.123814  0.671501  1
  Nd  Nd14  1  0.649132  0.873993  0.170121  1
  Nd  Nd15  1  0.151460  0.619311  0.337725  1
  Nd  Nd16  1  0.492089  0.599210  0.678712  1
  Nd  Nd17  1  0.814546  0.748318  0.503516  1
  Nd  Nd18  1  0.316013  0.749443  0.001139  1
  Nd  Nd19  1  0.183070  0.251349  0.500256  1
  Sn  Sn20  1  0.676702  0.468125  0.947696  1
  Sn  Sn21  1  0.183775  0.043952  0.540593  1
  Sn  Sn22  1  0.319688  0.958676  0.040887  1
  Sn  Sn23  1  0.803734  0.544028  0.467867  1
  Sn  Sn24  1  0.323112  0.541699  0.036346  1
  Sn  Sn25  1  0.817056  0.958203  0.460526  1
  Sn  Sn26  1  0.681770  0.034952  0.954820  1
  Sn  Sn27  1  0.194926  0.457124  0.542832  1
  Sn  Sn28  1  0.448084  0.748255  0.382298  1
  Sn  Sn29  1  0.952890  0.748278  0.126822  1
  Sn  Sn30  1  0.552129  0.249667  0.612324  1
  Sn  Sn31  1  0.051980  0.251434  0.879621  1
  Sn  Sn32  1  0.686894  0.746671  0.861475  1
  Sn  Sn33  1  0.193191  0.747816  0.637253  1
  Sn  Sn34  1  0.296799  0.250550  0.136665  1
  Sn  Sn35  1  0.813139  0.250462  0.367843  1
