# generated using pymatgen
data_LaNd10Dy(Si2Ni)4
_symmetry_space_group_name_H-M   'P 1'
_cell_length_a   4.23393800
_cell_length_b   11.62613994
_cell_length_c   11.62497316
_cell_angle_alpha   89.58801656
_cell_angle_beta   90.00000000
_cell_angle_gamma   90.00000000
_symmetry_Int_Tables_number   1
_chemical_formula_structural   LaNd10Dy(Si2Ni)4
_chemical_formula_sum   'La1 Nd10 Dy1 Si8 Ni4'
_cell_volume   572.21702099
_cell_formula_units_Z   1
loop_
 _symmetry_equiv_pos_site_id
 _symmetry_equiv_pos_as_xyz
  1  'x, y, z'
loop_
 _atom_site_type_symbol
 _atom_site_label
 _atom_site_symmetry_multiplicity
 _atom_site_fract_x
 _atom_site_fract_y
 _atom_site_fract_z
 _atom_site_occupancy
  La  La0  1  0.750000  0.940693  0.114859  1
  Nd  Nd1  1  0.250000  0.061072  0.881835  1
  Nd  Nd2  1  0.250000  0.441201  0.387680  1
  Nd  Nd3  1  0.750000  0.559138  0.616432  1
  Nd  Nd4  1  0.250000  0.122778  0.562221  1
  Nd  Nd5  1  0.250000  0.376865  0.058963  1
  Nd  Nd6  1  0.750000  0.878399  0.439583  1
  Nd  Nd7  1  0.750000  0.618994  0.938843  1
  Nd  Nd8  1  0.250000  0.802714  0.708565  1
  Nd  Nd9  1  0.250000  0.694666  0.208644  1
  Nd  Nd10  1  0.750000  0.201830  0.288493  1
  Dy  Dy11  1  0.750000  0.307335  0.789399  1
  Si  Si12  1  0.250000  0.809801  0.966203  1
  Si  Si13  1  0.250000  0.687286  0.468097  1
  Si  Si14  1  0.750000  0.190506  0.025529  1
  Si  Si15  1  0.750000  0.313022  0.536300  1
  Si  Si16  1  0.250000  0.486422  0.800745  1
  Si  Si17  1  0.250000  0.016319  0.303267  1
  Si  Si18  1  0.750000  0.507023  0.201577  1
  Si  Si19  1  0.750000  0.988602  0.699820  1
  Ni  Ni20  1  0.250000  0.360542  0.636086  1
  Ni  Ni21  1  0.250000  0.136321  0.127788  1
  Ni  Ni22  1  0.750000  0.636236  0.369249  1
  Ni  Ni23  1  0.750000  0.862235  0.869821  1
