# generated using pymatgen
data_Eu2AuO5
_symmetry_space_group_name_H-M   'P 1'
_cell_length_a   8.68194800
_cell_length_b   8.68194800
_cell_length_c   5.93639100
_cell_angle_alpha   90.00000000
_cell_angle_beta   90.00000000
_cell_angle_gamma   90.00000000
_symmetry_Int_Tables_number   1
_chemical_formula_structural   Eu2AuO5
_chemical_formula_sum   'Eu8 Au4 O20'
_cell_volume   447.46272040
_cell_formula_units_Z   4
loop_
 _symmetry_equiv_pos_site_id
 _symmetry_equiv_pos_as_xyz
  1  'x, y, z'
loop_
 _atom_site_type_symbol
 _atom_site_label
 _atom_site_symmetry_multiplicity
 _atom_site_fract_x
 _atom_site_fract_y
 _atom_site_fract_z
 _atom_site_occupancy
  Eu  Eu0  1  0.350534  0.649466  0.250000  1
  Eu  Eu1  1  0.850534  0.149466  0.750000  1
  Eu  Eu2  1  0.649466  0.649466  0.750000  1
  Eu  Eu3  1  0.649466  0.350534  0.250000  1
  Eu  Eu4  1  0.850534  0.850534  0.250000  1
  Eu  Eu5  1  0.149466  0.850534  0.750000  1
  Eu  Eu6  1  0.350534  0.350534  0.750000  1
  Eu  Eu7  1  0.149466  0.149466  0.250000  1
  Au  Au8  1  0.500000  0.000000  0.410390  1
  Au  Au9  1  0.500000  0.000000  0.910390  1
  Au  Au10  1  0.000000  0.500000  0.089610  1
  Au  Au11  1  0.000000  0.500000  0.589610  1
  O  O12  1  0.090963  0.287128  0.600602  1
  O  O13  1  0.909037  0.287128  0.100602  1
  O  O14  1  0.909037  0.712872  0.600602  1
  O  O15  1  0.712872  0.909037  0.899398  1
  O  O16  1  0.212872  0.590963  0.600602  1
  O  O17  1  0.409037  0.787128  0.899398  1
  O  O18  1  0.409037  0.212872  0.399398  1
  O  O19  1  0.787128  0.590963  0.100602  1
  O  O20  1  0.287128  0.909037  0.399398  1
  O  O21  1  0.590963  0.212872  0.899398  1
  O  O22  1  0.500000  0.500000  0.000000  1
  O  O23  1  0.500000  0.500000  0.500000  1
  O  O24  1  0.787128  0.409037  0.600602  1
  O  O25  1  0.090963  0.712872  0.100602  1
  O  O26  1  0.287128  0.090963  0.899398  1
  O  O27  1  0.590963  0.787128  0.399398  1
  O  O28  1  0.212872  0.409037  0.100602  1
  O  O29  1  0.000000  0.000000  0.000000  1
  O  O30  1  0.000000  0.000000  0.500000  1
  O  O31  1  0.712872  0.090963  0.399398  1
