# generated using pymatgen
data_Dy2Al9Rh2Au
_symmetry_space_group_name_H-M   'P 1'
_cell_length_a   7.62993929
_cell_length_b   7.62994006
_cell_length_c   9.46474500
_cell_angle_alpha   90.00000000
_cell_angle_beta   90.00000000
_cell_angle_gamma   119.47225944
_symmetry_Int_Tables_number   1
_chemical_formula_structural   Dy2Al9Rh2Au
_chemical_formula_sum   'Dy4 Al18 Rh4 Au2'
_cell_volume   479.69677617
_cell_formula_units_Z   2
loop_
 _symmetry_equiv_pos_site_id
 _symmetry_equiv_pos_as_xyz
  1  'x, y, z'
loop_
 _atom_site_type_symbol
 _atom_site_label
 _atom_site_symmetry_multiplicity
 _atom_site_fract_x
 _atom_site_fract_y
 _atom_site_fract_z
 _atom_site_occupancy
  Dy  Dy0  1  0.995107  0.677659  0.750000  1
  Dy  Dy1  1  0.004893  0.322341  0.250000  1
  Dy  Dy2  1  0.677659  0.995107  0.750000  1
  Dy  Dy3  1  0.322341  0.004893  0.250000  1
  Al  Al4  1  0.142449  0.142449  0.750000  1
  Al  Al5  1  0.857551  0.857551  0.250000  1
  Al  Al6  1  0.999910  0.345464  0.577509  1
  Al  Al7  1  0.000090  0.654536  0.422491  1
  Al  Al8  1  0.000090  0.654536  0.077509  1
  Al  Al9  1  0.345464  0.999910  0.922491  1
  Al  Al10  1  0.999910  0.345464  0.922491  1
  Al  Al11  1  0.654536  0.000090  0.077509  1
  Al  Al12  1  0.654536  0.000090  0.422491  1
  Al  Al13  1  0.345464  0.999910  0.577509  1
  Al  Al14  1  0.342093  0.342093  0.058354  1
  Al  Al15  1  0.657907  0.657907  0.941646  1
  Al  Al16  1  0.657907  0.657907  0.558354  1
  Al  Al17  1  0.342093  0.342093  0.441646  1
  Al  Al18  1  0.336892  0.553117  0.750000  1
  Al  Al19  1  0.663108  0.446883  0.250000  1
  Al  Al20  1  0.553117  0.336892  0.750000  1
  Al  Al21  1  0.446883  0.663108  0.250000  1
  Rh  Rh22  1  0.671638  0.328362  0.500000  1
  Rh  Rh23  1  0.328362  0.671638  0.500000  1
  Rh  Rh24  1  0.328362  0.671638  0.000000  1
  Rh  Rh25  1  0.671638  0.328362  0.000000  1
  Au  Au26  1  0.000000  0.000000  0.500000  1
  Au  Au27  1  0.000000  0.000000  0.000000  1
