# generated using pymatgen
data_Tb9Pr(InSi2)2
_symmetry_space_group_name_H-M   'P 1'
_cell_length_a   7.71305239
_cell_length_b   7.71305249
_cell_length_c   8.99196025
_cell_angle_alpha   115.30054096
_cell_angle_beta   115.30054246
_cell_angle_gamma   90.34439559
_symmetry_Int_Tables_number   1
_chemical_formula_structural   Tb9Pr(InSi2)2
_chemical_formula_sum   'Tb9 Pr1 In2 Si4'
_cell_volume   425.43357375
_cell_formula_units_Z   1
loop_
 _symmetry_equiv_pos_site_id
 _symmetry_equiv_pos_as_xyz
  1  'x, y, z'
loop_
 _atom_site_type_symbol
 _atom_site_label
 _atom_site_symmetry_multiplicity
 _atom_site_fract_x
 _atom_site_fract_y
 _atom_site_fract_z
 _atom_site_occupancy
  Tb  Tb0  1  0.502802  0.499826  0.002298  1
  Tb  Tb1  1  0.999826  0.002802  0.002298  1
  Tb  Tb2  1  0.967347  0.811342  0.278433  1
  Tb  Tb3  1  0.311342  0.467347  0.278433  1
  Tb  Tb4  1  0.807728  0.307728  0.276940  1
  Tb  Tb5  1  0.467630  0.967630  0.276073  1
  Tb  Tb6  1  0.031948  0.191233  0.723495  1
  Tb  Tb7  1  0.691233  0.531948  0.723495  1
  Tb  Tb8  1  0.190791  0.690791  0.724403  1
  Pr  Pr9  1  0.528657  0.028657  0.712510  1
  In  In10  1  0.753200  0.744629  0.496039  1
  In  In11  1  0.244629  0.253200  0.496039  1
  Si  Si12  1  0.624274  0.874013  0.002274  1
  Si  Si13  1  0.374013  0.124274  0.002274  1
  Si  Si14  1  0.879955  0.379955  0.003308  1
  Si  Si15  1  0.124625  0.624625  0.001687  1
