# generated using pymatgen
data_Ho2Th(CoSn)3
_symmetry_space_group_name_H-M   'P 1'
_cell_length_a   7.41255000
_cell_length_b   7.22204446
_cell_length_c   3.93975800
_cell_angle_alpha   90.00000000
_cell_angle_beta   90.00000000
_cell_angle_gamma   120.87649319
_symmetry_Int_Tables_number   1
_chemical_formula_structural   Ho2Th(CoSn)3
_chemical_formula_sum   'Ho2 Th1 Co3 Sn3'
_cell_volume   181.01896094
_cell_formula_units_Z   1
loop_
 _symmetry_equiv_pos_site_id
 _symmetry_equiv_pos_as_xyz
  1  'x, y, z'
loop_
 _atom_site_type_symbol
 _atom_site_label
 _atom_site_symmetry_multiplicity
 _atom_site_fract_x
 _atom_site_fract_y
 _atom_site_fract_z
 _atom_site_occupancy
  Ho  Ho0  1  0.998542  0.591908  0.500000  1
  Ho  Ho1  1  0.406634  0.408092  0.500000  1
  Th  Th2  1  0.582804  0.000000  0.500000  1
  Co  Co3  1  0.352430  0.686624  0.000000  1
  Co  Co4  1  0.994373  0.000000  0.500000  1
  Co  Co5  1  0.665808  0.313376  0.000000  1
  Sn  Sn6  1  0.746462  0.735069  0.000000  1
  Sn  Sn7  1  0.011393  0.264931  0.000000  1
  Sn  Sn8  1  0.241553  0.000000  0.000000  1
