# generated using pymatgen
data_Yb2YEr(SiPt2)4
_symmetry_space_group_name_H-M   'P 1'
_cell_length_a   5.51942333
_cell_length_b   6.96203700
_cell_length_c   7.32570104
_cell_angle_alpha   90.00000000
_cell_angle_beta   90.02590374
_cell_angle_gamma   90.00000000
_symmetry_Int_Tables_number   1
_chemical_formula_structural   Yb2YEr(SiPt2)4
_chemical_formula_sum   'Yb2 Y1 Er1 Si4 Pt8'
_cell_volume   281.50050558
_cell_formula_units_Z   1
loop_
 _symmetry_equiv_pos_site_id
 _symmetry_equiv_pos_as_xyz
  1  'x, y, z'
loop_
 _atom_site_type_symbol
 _atom_site_label
 _atom_site_symmetry_multiplicity
 _atom_site_fract_x
 _atom_site_fract_y
 _atom_site_fract_z
 _atom_site_occupancy
  Yb  Yb0  1  0.135103  0.750000  0.523343  1
  Yb  Yb1  1  0.634870  0.250000  0.976813  1
  Y  Y2  1  0.866354  0.250000  0.474601  1
  Er  Er3  1  0.363777  0.750000  0.025670  1
  Si  Si4  1  0.633770  0.750000  0.378534  1
  Si  Si5  1  0.865795  0.750000  0.877355  1
  Si  Si6  1  0.367247  0.250000  0.623091  1
  Si  Si7  1  0.133380  0.250000  0.120280  1
  Pt  Pt8  1  0.906135  0.551462  0.179151  1
  Pt  Pt9  1  0.592788  0.947992  0.677225  1
  Pt  Pt10  1  0.095657  0.050823  0.824595  1
  Pt  Pt11  1  0.405270  0.449488  0.319185  1
  Pt  Pt12  1  0.095657  0.449177  0.824595  1
  Pt  Pt13  1  0.405270  0.050512  0.319185  1
  Pt  Pt14  1  0.906135  0.948538  0.179151  1
  Pt  Pt15  1  0.592788  0.552008  0.677225  1
