# generated using pymatgen
data_DyTm(Co3P2)2
_symmetry_space_group_name_H-M   'P 1'
_cell_length_a   3.68691900
_cell_length_b   10.48995104
_cell_length_c   12.14019304
_cell_angle_alpha   89.99058176
_cell_angle_beta   90.00000000
_cell_angle_gamma   90.00000000
_symmetry_Int_Tables_number   1
_chemical_formula_structural   DyTm(Co3P2)2
_chemical_formula_sum   'Dy3 Tm3 Co18 P12'
_cell_volume   469.52924098
_cell_formula_units_Z   3
loop_
 _symmetry_equiv_pos_site_id
 _symmetry_equiv_pos_as_xyz
  1  'x, y, z'
loop_
 _atom_site_type_symbol
 _atom_site_label
 _atom_site_symmetry_multiplicity
 _atom_site_fract_x
 _atom_site_fract_y
 _atom_site_fract_z
 _atom_site_occupancy
  Dy  Dy0  1  0.000000  0.500055  0.522647  1
  Dy  Dy1  1  0.500000  0.000237  0.478040  1
  Dy  Dy2  1  0.500000  0.817803  0.205845  1
  Tm  Tm3  1  0.500000  0.182293  0.205654  1
  Tm  Tm4  1  0.000000  0.681891  0.794371  1
  Tm  Tm5  1  0.000000  0.317897  0.793790  1
  Co  Co6  1  0.500000  0.499839  0.158894  1
  Co  Co7  1  0.000000  0.000480  0.841097  1
  Co  Co8  1  0.500000  0.499802  0.704277  1
  Co  Co9  1  0.000000  0.000960  0.295779  1
  Co  Co10  1  0.000000  0.499384  0.985828  1
  Co  Co11  1  0.500000  0.000495  0.012822  1
  Co  Co12  1  0.500000  0.333063  0.994433  1
  Co  Co13  1  0.500000  0.666189  0.994047  1
  Co  Co14  1  0.000000  0.167291  0.004940  1
  Co  Co15  1  0.000000  0.833087  0.004588  1
  Co  Co16  1  0.500000  0.297353  0.430284  1
  Co  Co17  1  0.500000  0.702743  0.431403  1
  Co  Co18  1  0.000000  0.202776  0.569609  1
  Co  Co19  1  0.000000  0.797551  0.570570  1
  Co  Co20  1  0.500000  0.878734  0.710520  1
  Co  Co21  1  0.500000  0.121454  0.709910  1
  Co  Co22  1  0.000000  0.620535  0.290735  1
  Co  Co23  1  0.000000  0.378429  0.289840  1
  P  P24  1  0.500000  0.499590  0.882184  1
  P  P25  1  0.000000  0.000833  0.116749  1
  P  P26  1  0.500000  0.500067  0.344122  1
  P  P27  1  0.000000  0.000101  0.656179  1
  P  P28  1  0.500000  0.310775  0.616734  1
  P  P29  1  0.500000  0.689205  0.617493  1
  P  P30  1  0.000000  0.189402  0.383108  1
  P  P31  1  0.000000  0.810869  0.384557  1
  P  P32  1  0.500000  0.846309  0.892580  1
  P  P33  1  0.500000  0.153729  0.892053  1
  P  P34  1  0.000000  0.652143  0.106902  1
  P  P35  1  0.000000  0.346637  0.107420  1
