# generated using pymatgen
data_Hf13Al3(Ir2N)4
_symmetry_space_group_name_H-M   'P 1'
_cell_length_a   8.54483022
_cell_length_b   8.56578650
_cell_length_c   8.56398600
_cell_angle_alpha   59.99916776
_cell_angle_beta   59.90603047
_cell_angle_gamma   59.91418868
_symmetry_Int_Tables_number   1
_chemical_formula_structural   Hf13Al3(Ir2N)4
_chemical_formula_sum   'Hf13 Al3 Ir8 N4'
_cell_volume   442.62658452
_cell_formula_units_Z   1
loop_
 _symmetry_equiv_pos_site_id
 _symmetry_equiv_pos_as_xyz
  1  'x, y, z'
loop_
 _atom_site_type_symbol
 _atom_site_label
 _atom_site_symmetry_multiplicity
 _atom_site_fract_x
 _atom_site_fract_y
 _atom_site_fract_z
 _atom_site_occupancy
  Hf  Hf0  1  0.124991  0.625004  0.625001  1
  Hf  Hf1  1  0.810547  0.810177  0.189634  1
  Hf  Hf2  1  0.192326  0.184027  0.811805  1
  Hf  Hf3  1  0.810551  0.189643  0.810162  1
  Hf  Hf4  1  0.192327  0.811827  0.184012  1
  Hf  Hf5  1  0.192357  0.811811  0.811809  1
  Hf  Hf6  1  0.810555  0.189646  0.189666  1
  Hf  Hf7  1  0.439446  0.439823  0.060368  1
  Hf  Hf8  1  0.057673  0.065976  0.438192  1
  Hf  Hf9  1  0.439448  0.060356  0.439838  1
  Hf  Hf10  1  0.057670  0.438176  0.065985  1
  Hf  Hf11  1  0.057644  0.438190  0.438188  1
  Hf  Hf12  1  0.439438  0.060358  0.060337  1
  Al  Al13  1  0.624992  0.125013  0.625001  1
  Al  Al14  1  0.624992  0.624996  0.125013  1
  Al  Al15  1  0.624997  0.624991  0.625003  1
  Ir  Ir16  1  0.753555  0.415469  0.415485  1
  Ir  Ir17  1  0.417767  0.759507  0.411387  1
  Ir  Ir18  1  0.417756  0.411380  0.759516  1
  Ir  Ir19  1  0.417774  0.411341  0.411379  1
  Ir  Ir20  1  0.496450  0.834529  0.834517  1
  Ir  Ir21  1  0.832251  0.490500  0.838605  1
  Ir  Ir22  1  0.832255  0.838613  0.490493  1
  Ir  Ir23  1  0.832238  0.838646  0.838610  1
  N  N24  1  0.625018  0.124995  0.124992  1
  N  N25  1  0.124994  0.625008  0.124998  1
  N  N26  1  0.124996  0.125000  0.625005  1
  N  N27  1  0.124995  0.124999  0.124998  1
