# generated using pymatgen
data_Ho6Er(LuSi2)3
_symmetry_space_group_name_H-M   'P 1'
_cell_length_a   8.35611600
_cell_length_b   8.35611587
_cell_length_c   6.24530000
_cell_angle_alpha   90.00000000
_cell_angle_beta   90.00000000
_cell_angle_gamma   120.00000845
_symmetry_Int_Tables_number   1
_chemical_formula_structural   Ho6Er(LuSi2)3
_chemical_formula_sum   'Ho6 Er1 Lu3 Si6'
_cell_volume   377.65289064
_cell_formula_units_Z   1
loop_
 _symmetry_equiv_pos_site_id
 _symmetry_equiv_pos_as_xyz
  1  'x, y, z'
loop_
 _atom_site_type_symbol
 _atom_site_label
 _atom_site_symmetry_multiplicity
 _atom_site_fract_x
 _atom_site_fract_y
 _atom_site_fract_z
 _atom_site_occupancy
  Ho  Ho0  1  0.756874  0.999823  0.749875  1
  Ho  Ho1  1  0.756874  0.757051  0.250125  1
  Ho  Ho2  1  0.000177  0.243126  0.250125  1
  Ho  Ho3  1  0.000177  0.757051  0.749875  1
  Ho  Ho4  1  0.242949  0.243126  0.749875  1
  Ho  Ho5  1  0.242949  0.999823  0.250125  1
  Er  Er6  1  0.666667  0.333333  0.000000  1
  Lu  Lu7  1  0.333333  0.666667  0.500000  1
  Lu  Lu8  1  0.333333  0.666667  0.000000  1
  Lu  Lu9  1  0.666667  0.333333  0.500000  1
  Si  Si10  1  0.395152  0.999418  0.749465  1
  Si  Si11  1  0.395152  0.395734  0.250535  1
  Si  Si12  1  0.000582  0.604848  0.250535  1
  Si  Si13  1  0.000582  0.395734  0.749465  1
  Si  Si14  1  0.604266  0.604848  0.749465  1
  Si  Si15  1  0.604266  0.999418  0.250535  1
