# generated using pymatgen
data_Tb3Nd16TmSn16
_symmetry_space_group_name_H-M   'P 1'
_cell_length_a   8.24662800
_cell_length_b   8.39810100
_cell_length_c   15.93677400
_cell_angle_alpha   90.00000000
_cell_angle_beta   90.00000000
_cell_angle_gamma   89.99659900
_symmetry_Int_Tables_number   1
_chemical_formula_structural   Tb3Nd16TmSn16
_chemical_formula_sum   'Tb3 Nd16 Tm1 Sn16'
_cell_volume   1103.71745589
_cell_formula_units_Z   1
loop_
 _symmetry_equiv_pos_site_id
 _symmetry_equiv_pos_as_xyz
  1  'x, y, z'
loop_
 _atom_site_type_symbol
 _atom_site_label
 _atom_site_symmetry_multiplicity
 _atom_site_fract_x
 _atom_site_fract_y
 _atom_site_fract_z
 _atom_site_occupancy
  Tb  Tb0  1  0.198684  0.502138  0.250000  1
  Tb  Tb1  1  0.698705  0.997798  0.250000  1
  Tb  Tb2  1  0.301288  0.002061  0.750000  1
  Nd  Nd3  1  0.018155  0.180957  0.401413  1
  Nd  Nd4  1  0.367612  0.837534  0.120937  1
  Nd  Nd5  1  0.131965  0.337851  0.620912  1
  Nd  Nd6  1  0.482091  0.680841  0.901362  1
  Nd  Nd7  1  0.867661  0.662464  0.120772  1
  Nd  Nd8  1  0.131965  0.337851  0.879088  1
  Nd  Nd9  1  0.482091  0.680841  0.598638  1
  Nd  Nd10  1  0.632611  0.162675  0.620996  1
  Nd  Nd11  1  0.867661  0.662464  0.379228  1
  Nd  Nd12  1  0.018155  0.180957  0.098587  1
  Nd  Nd13  1  0.981739  0.818818  0.901420  1
  Nd  Nd14  1  0.632611  0.162675  0.879004  1
  Nd  Nd15  1  0.518103  0.318978  0.098551  1
  Nd  Nd16  1  0.367612  0.837534  0.379063  1
  Nd  Nd17  1  0.981739  0.818818  0.598580  1
  Nd  Nd18  1  0.518103  0.318978  0.401449  1
  Tm  Tm19  1  0.800613  0.497790  0.750000  1
  Sn  Sn20  1  0.792050  0.464989  0.544085  1
  Sn  Sn21  1  0.707968  0.964872  0.456383  1
  Sn  Sn22  1  0.675521  0.852894  0.750000  1
  Sn  Sn23  1  0.208003  0.535239  0.456372  1
  Sn  Sn24  1  0.292026  0.035126  0.956301  1
  Sn  Sn25  1  0.824522  0.353916  0.250000  1
  Sn  Sn26  1  0.792050  0.464989  0.955915  1
  Sn  Sn27  1  0.564795  0.616535  0.250000  1
  Sn  Sn28  1  0.208003  0.535239  0.043628  1
  Sn  Sn29  1  0.436209  0.383587  0.750000  1
  Sn  Sn30  1  0.175285  0.645983  0.750000  1
  Sn  Sn31  1  0.935039  0.116836  0.750000  1
  Sn  Sn32  1  0.292026  0.035126  0.543699  1
  Sn  Sn33  1  0.707968  0.964872  0.043617  1
  Sn  Sn34  1  0.324652  0.146240  0.250000  1
  Sn  Sn35  1  0.064720  0.883538  0.250000  1
