# generated using pymatgen
data_Sr9(Pd2Pt)2
_symmetry_space_group_name_H-M   'P 1'
_cell_length_a   8.11871954
_cell_length_b   8.11543696
_cell_length_c   8.11128299
_cell_angle_alpha   71.96325513
_cell_angle_beta   72.03961703
_cell_angle_gamma   71.90052384
_symmetry_Int_Tables_number   1
_chemical_formula_structural   Sr9(Pd2Pt)2
_chemical_formula_sum   'Sr9 Pd4 Pt2'
_cell_volume   469.52272404
_cell_formula_units_Z   1
loop_
 _symmetry_equiv_pos_site_id
 _symmetry_equiv_pos_as_xyz
  1  'x, y, z'
loop_
 _atom_site_type_symbol
 _atom_site_label
 _atom_site_symmetry_multiplicity
 _atom_site_fract_x
 _atom_site_fract_y
 _atom_site_fract_z
 _atom_site_occupancy
  Sr  Sr0  1  0.003469  0.001871  0.999224  1
  Sr  Sr1  1  0.794949  0.793827  0.796801  1
  Sr  Sr2  1  0.204269  0.202646  0.200262  1
  Sr  Sr3  1  0.326758  0.611339  0.842847  1
  Sr  Sr4  1  0.844003  0.329954  0.612072  1
  Sr  Sr5  1  0.607892  0.841438  0.326110  1
  Sr  Sr6  1  0.673094  0.393241  0.155165  1
  Sr  Sr7  1  0.161548  0.671862  0.388980  1
  Sr  Sr8  1  0.386555  0.159371  0.676316  1
  Pd  Pd9  1  0.145368  0.960919  0.585928  1
  Pd  Pd10  1  0.587936  0.145296  0.960873  1
  Pd  Pd11  1  0.960296  0.586453  0.147017  1
  Pd  Pd12  1  0.853398  0.039708  0.413691  1
  Pt  Pt13  1  0.410949  0.852064  0.040233  1
  Pt  Pt14  1  0.039518  0.410013  0.854481  1
