# generated using pymatgen
data_Y3Tm4Pa(ReB6)4
_symmetry_space_group_name_H-M   'P 1'
_cell_length_a   3.67247400
_cell_length_b   9.13415638
_cell_length_c   11.51662900
_cell_angle_alpha   90.14471641
_cell_angle_beta   90.00000000
_cell_angle_gamma   90.00000000
_symmetry_Int_Tables_number   1
_chemical_formula_structural   Y3Tm4Pa(ReB6)4
_chemical_formula_sum   'Y3 Tm4 Pa1 Re4 B24'
_cell_volume   386.32353250
_cell_formula_units_Z   1
loop_
 _symmetry_equiv_pos_site_id
 _symmetry_equiv_pos_as_xyz
  1  'x, y, z'
loop_
 _atom_site_type_symbol
 _atom_site_label
 _atom_site_symmetry_multiplicity
 _atom_site_fract_x
 _atom_site_fract_y
 _atom_site_fract_z
 _atom_site_occupancy
  Y  Y0  1  0.000000  0.679740  0.586757  1
  Y  Y1  1  0.000000  0.822866  0.085498  1
  Y  Y2  1  0.000000  0.176334  0.913477  1
  Tm  Tm3  1  0.000000  0.942745  0.371644  1
  Tm  Tm4  1  0.000000  0.055303  0.629218  1
  Tm  Tm5  1  0.000000  0.443527  0.127669  1
  Tm  Tm6  1  0.000000  0.557087  0.870284  1
  Pa  Pa7  1  0.000000  0.323012  0.414099  1
  Re  Re8  1  0.000000  0.635855  0.321427  1
  Re  Re9  1  0.000000  0.361732  0.676719  1
  Re  Re10  1  0.000000  0.141344  0.182225  1
  Re  Re11  1  0.000000  0.861331  0.820591  1
  B  B12  1  0.500000  0.552698  0.431773  1
  B  B13  1  0.500000  0.445353  0.567133  1
  B  B14  1  0.500000  0.054106  0.067819  1
  B  B15  1  0.500000  0.946740  0.933317  1
  B  B16  1  0.500000  0.749605  0.418187  1
  B  B17  1  0.500000  0.249993  0.581158  1
  B  B18  1  0.500000  0.249649  0.081131  1
  B  B19  1  0.500000  0.750094  0.918689  1
  B  B20  1  0.500000  0.791943  0.266025  1
  B  B21  1  0.500000  0.207762  0.734448  1
  B  B22  1  0.500000  0.292256  0.234578  1
  B  B23  1  0.500000  0.707774  0.765842  1
  B  B24  1  0.500000  0.630462  0.184710  1
  B  B25  1  0.500000  0.370099  0.814296  1
  B  B26  1  0.500000  0.131427  0.315306  1
  B  B27  1  0.500000  0.869473  0.685749  1
  B  B28  1  0.500000  0.982548  0.212884  1
  B  B29  1  0.500000  0.017839  0.787627  1
  B  B30  1  0.500000  0.482351  0.287032  1
  B  B31  1  0.500000  0.517905  0.713216  1
  B  B32  1  0.500000  0.600142  0.027374  1
  B  B33  1  0.500000  0.399862  0.971464  1
  B  B34  1  0.500000  0.102833  0.471663  1
  B  B35  1  0.500000  0.896212  0.528970  1
