# generated using pymatgen
data_NaSrIn2Au3
_symmetry_space_group_name_H-M   'P 1'
_cell_length_a   4.51718800
_cell_length_b   8.32528400
_cell_length_c   9.33534000
_cell_angle_alpha   90.00000000
_cell_angle_beta   90.00000000
_cell_angle_gamma   90.00000000
_symmetry_Int_Tables_number   1
_chemical_formula_structural   NaSrIn2Au3
_chemical_formula_sum   'Na2 Sr2 In4 Au6'
_cell_volume   351.07294562
_cell_formula_units_Z   2
loop_
 _symmetry_equiv_pos_site_id
 _symmetry_equiv_pos_as_xyz
  1  'x, y, z'
loop_
 _atom_site_type_symbol
 _atom_site_label
 _atom_site_symmetry_multiplicity
 _atom_site_fract_x
 _atom_site_fract_y
 _atom_site_fract_z
 _atom_site_occupancy
  Na  Na0  1  0.000000  0.000000  0.345353  1
  Na  Na1  1  0.500000  0.500000  0.654647  1
  Sr  Sr2  1  0.500000  0.000000  0.717107  1
  Sr  Sr3  1  0.000000  0.500000  0.282893  1
  In  In4  1  0.000000  0.311835  0.883254  1
  In  In5  1  0.500000  0.188165  0.116746  1
  In  In6  1  0.000000  0.688165  0.883254  1
  In  In7  1  0.500000  0.811835  0.116746  1
  Au  Au8  1  0.000000  0.750146  0.590093  1
  Au  Au9  1  0.500000  0.749854  0.409907  1
  Au  Au10  1  0.500000  0.500000  0.990959  1
  Au  Au11  1  0.000000  0.000000  0.009041  1
  Au  Au12  1  0.500000  0.250146  0.409907  1
  Au  Au13  1  0.000000  0.249854  0.590093  1
