# generated using pymatgen
data_AcY19Pb16
_symmetry_space_group_name_H-M   'P 1'
_cell_length_a   8.28258208
_cell_length_b   8.34675763
_cell_length_c   15.75930078
_cell_angle_alpha   90.00729878
_cell_angle_beta   89.11694323
_cell_angle_gamma   89.60396920
_symmetry_Int_Tables_number   1
_chemical_formula_structural   AcY19Pb16
_chemical_formula_sum   'Ac1 Y19 Pb16'
_cell_volume   1089.32764820
_cell_formula_units_Z   1
loop_
 _symmetry_equiv_pos_site_id
 _symmetry_equiv_pos_as_xyz
  1  'x, y, z'
loop_
 _atom_site_type_symbol
 _atom_site_label
 _atom_site_symmetry_multiplicity
 _atom_site_fract_x
 _atom_site_fract_y
 _atom_site_fract_z
 _atom_site_occupancy
  Ac  Ac0  1  0.974484  0.821673  0.594305  1
  Y  Y1  1  0.626323  0.157549  0.623336  1
  Y  Y2  1  0.121888  0.341442  0.882960  1
  Y  Y3  1  0.378903  0.843049  0.121090  1
  Y  Y4  1  0.869344  0.655571  0.376488  1
  Y  Y5  1  0.373807  0.841607  0.376086  1
  Y  Y6  1  0.879483  0.657831  0.120179  1
  Y  Y7  1  0.618259  0.157909  0.879919  1
  Y  Y8  1  0.125384  0.341992  0.622128  1
  Y  Y9  1  0.463786  0.671181  0.599798  1
  Y  Y10  1  0.956084  0.826111  0.898179  1
  Y  Y11  1  0.542158  0.326822  0.102152  1
  Y  Y12  1  0.036083  0.179345  0.398738  1
  Y  Y13  1  0.533973  0.323514  0.399496  1
  Y  Y14  1  0.041707  0.174042  0.102308  1
  Y  Y15  1  0.459772  0.673410  0.901591  1
  Y  Y16  1  0.789882  0.496007  0.752270  1
  Y  Y17  1  0.290237  0.004533  0.752282  1
  Y  Y18  1  0.208952  0.503458  0.249815  1
  Y  Y19  1  0.708583  0.996331  0.247357  1
  Pb  Pb20  1  0.708695  0.973261  0.450942  1
  Pb  Pb21  1  0.221693  0.530809  0.044765  1
  Pb  Pb22  1  0.277114  0.027197  0.957264  1
  Pb  Pb23  1  0.779478  0.457486  0.541408  1
  Pb  Pb24  1  0.298270  0.047550  0.539121  1
  Pb  Pb25  1  0.777838  0.468692  0.957751  1
  Pb  Pb26  1  0.721386  0.970549  0.042857  1
  Pb  Pb27  1  0.217073  0.534850  0.456272  1
  Pb  Pb28  1  0.427958  0.373203  0.750668  1
  Pb  Pb29  1  0.928328  0.130584  0.753739  1
  Pb  Pb30  1  0.571114  0.625810  0.247812  1
  Pb  Pb31  1  0.070283  0.873098  0.249762  1
  Pb  Pb32  1  0.645795  0.844465  0.751213  1
  Pb  Pb33  1  0.158203  0.648308  0.756135  1
  Pb  Pb34  1  0.348729  0.154975  0.249777  1
  Pb  Pb35  1  0.848950  0.345789  0.250032  1
