# generated using pymatgen
data_CeDyEr2(ReB6)2
_symmetry_space_group_name_H-M   'P 1'
_cell_length_a   3.69439000
_cell_length_b   9.17135829
_cell_length_c   11.55865506
_cell_angle_alpha   90.11467285
_cell_angle_beta   90.00000000
_cell_angle_gamma   90.00000000
_symmetry_Int_Tables_number   1
_chemical_formula_structural   CeDyEr2(ReB6)2
_chemical_formula_sum   'Ce2 Dy2 Er4 Re4 B24'
_cell_volume   391.63620513
_cell_formula_units_Z   2
loop_
 _symmetry_equiv_pos_site_id
 _symmetry_equiv_pos_as_xyz
  1  'x, y, z'
loop_
 _atom_site_type_symbol
 _atom_site_label
 _atom_site_symmetry_multiplicity
 _atom_site_fract_x
 _atom_site_fract_y
 _atom_site_fract_z
 _atom_site_occupancy
  Ce  Ce0  1  0.000000  0.321991  0.413718  1
  Ce  Ce1  1  0.000000  0.678009  0.586282  1
  Dy  Dy2  1  0.000000  0.824018  0.085522  1
  Dy  Dy3  1  0.000000  0.175982  0.914478  1
  Er  Er4  1  0.000000  0.943709  0.370305  1
  Er  Er5  1  0.000000  0.056291  0.629695  1
  Er  Er6  1  0.000000  0.443143  0.128526  1
  Er  Er7  1  0.000000  0.556857  0.871474  1
  Re  Re8  1  0.000000  0.638076  0.321372  1
  Re  Re9  1  0.000000  0.361924  0.678628  1
  Re  Re10  1  0.000000  0.139536  0.179933  1
  Re  Re11  1  0.000000  0.860464  0.820067  1
  B  B12  1  0.500000  0.554489  0.431333  1
  B  B13  1  0.500000  0.445511  0.568667  1
  B  B14  1  0.500000  0.053615  0.066775  1
  B  B15  1  0.500000  0.946385  0.933225  1
  B  B16  1  0.500000  0.749918  0.417240  1
  B  B17  1  0.500000  0.250082  0.582760  1
  B  B18  1  0.500000  0.249082  0.080675  1
  B  B19  1  0.500000  0.750918  0.919325  1
  B  B20  1  0.500000  0.792364  0.264801  1
  B  B21  1  0.500000  0.207636  0.735199  1
  B  B22  1  0.500000  0.291406  0.233323  1
  B  B23  1  0.500000  0.708594  0.766677  1
  B  B24  1  0.500000  0.631088  0.184770  1
  B  B25  1  0.500000  0.368912  0.815230  1
  B  B26  1  0.500000  0.130650  0.313415  1
  B  B27  1  0.500000  0.869350  0.686585  1
  B  B28  1  0.500000  0.982505  0.211544  1
  B  B29  1  0.500000  0.017495  0.788456  1
  B  B30  1  0.500000  0.483519  0.286427  1
  B  B31  1  0.500000  0.516481  0.713573  1
  B  B32  1  0.500000  0.601136  0.028178  1
  B  B33  1  0.500000  0.398864  0.971822  1
  B  B34  1  0.500000  0.101625  0.471692  1
  B  B35  1  0.500000  0.898375  0.528308  1
