# generated using pymatgen
data_Sm8Tm11LuSn16
_symmetry_space_group_name_H-M   'P 1'
_cell_length_a   8.02633503
_cell_length_b   8.17088803
_cell_length_c   15.41840300
_cell_angle_alpha   90.00000000
_cell_angle_beta   90.00000000
_cell_angle_gamma   90.00946603
_symmetry_Int_Tables_number   1
_chemical_formula_structural   Sm8Tm11LuSn16
_chemical_formula_sum   'Sm8 Tm11 Lu1 Sn16'
_cell_volume   1011.17408264
_cell_formula_units_Z   1
loop_
 _symmetry_equiv_pos_site_id
 _symmetry_equiv_pos_as_xyz
  1  'x, y, z'
loop_
 _atom_site_type_symbol
 _atom_site_label
 _atom_site_symmetry_multiplicity
 _atom_site_fract_x
 _atom_site_fract_y
 _atom_site_fract_z
 _atom_site_occupancy
  Sm  Sm0  1  0.518947  0.321402  0.903140  1
  Sm  Sm1  1  0.018936  0.178634  0.596861  1
  Sm  Sm2  1  0.481036  0.678658  0.403155  1
  Sm  Sm3  1  0.981122  0.821427  0.096864  1
  Sm  Sm4  1  0.481036  0.678658  0.096845  1
  Sm  Sm5  1  0.981122  0.821427  0.403136  1
  Sm  Sm6  1  0.518947  0.321402  0.596860  1
  Sm  Sm7  1  0.018936  0.178634  0.903139  1
  Tm  Tm8  1  0.364656  0.836404  0.876974  1
  Tm  Tm9  1  0.864638  0.663571  0.623046  1
  Tm  Tm10  1  0.635265  0.163540  0.376974  1
  Tm  Tm11  1  0.135415  0.336357  0.123040  1
  Tm  Tm12  1  0.635265  0.163540  0.123026  1
  Tm  Tm13  1  0.135415  0.336357  0.376960  1
  Tm  Tm14  1  0.364656  0.836404  0.623026  1
  Tm  Tm15  1  0.864638  0.663571  0.876954  1
  Tm  Tm16  1  0.196382  0.504716  0.750000  1
  Tm  Tm17  1  0.696365  0.995262  0.750000  1
  Tm  Tm18  1  0.803655  0.495297  0.250000  1
  Lu  Lu19  1  0.303530  0.004817  0.250000  1
  Sn  Sn20  1  0.299003  0.039463  0.042040  1
  Sn  Sn21  1  0.799015  0.460553  0.458050  1
  Sn  Sn22  1  0.700969  0.960514  0.541949  1
  Sn  Sn23  1  0.200977  0.539451  0.958053  1
  Sn  Sn24  1  0.700969  0.960514  0.958051  1
  Sn  Sn25  1  0.200977  0.539451  0.541947  1
  Sn  Sn26  1  0.299003  0.039463  0.457960  1
  Sn  Sn27  1  0.799015  0.460553  0.041950  1
  Sn  Sn28  1  0.562583  0.623299  0.750000  1
  Sn  Sn29  1  0.062605  0.876723  0.750000  1
  Sn  Sn30  1  0.437333  0.376590  0.250000  1
  Sn  Sn31  1  0.937652  0.123191  0.250000  1
  Sn  Sn32  1  0.327744  0.145207  0.750000  1
  Sn  Sn33  1  0.827820  0.354752  0.750000  1
  Sn  Sn34  1  0.672184  0.854773  0.250000  1
  Sn  Sn35  1  0.172191  0.645427  0.250000  1
