# generated using pymatgen
data_ZnMo6Pt2RhN2
_symmetry_space_group_name_H-M   'P 1'
_cell_length_a   6.86374169
_cell_length_b   6.85895270
_cell_length_c   6.86252391
_cell_angle_alpha   89.59262955
_cell_angle_beta   89.94919899
_cell_angle_gamma   89.99312537
_symmetry_Int_Tables_number   1
_chemical_formula_structural   ZnMo6Pt2RhN2
_chemical_formula_sum   'Zn2 Mo12 Pt4 Rh2 N4'
_cell_volume   323.06615203
_cell_formula_units_Z   2
loop_
 _symmetry_equiv_pos_site_id
 _symmetry_equiv_pos_as_xyz
  1  'x, y, z'
loop_
 _atom_site_type_symbol
 _atom_site_label
 _atom_site_symmetry_multiplicity
 _atom_site_fract_x
 _atom_site_fract_y
 _atom_site_fract_z
 _atom_site_occupancy
  Zn  Zn0  1  0.687175  0.182866  0.934373  1
  Zn  Zn1  1  0.185822  0.818442  0.060500  1
  Mo  Mo2  1  0.621352  0.047053  0.547961  1
  Mo  Mo3  1  0.119776  0.953503  0.456455  1
  Mo  Mo4  1  0.869607  0.542815  0.945409  1
  Mo  Mo5  1  0.371539  0.457225  0.051060  1
  Mo  Mo6  1  0.203427  0.624671  0.701383  1
  Mo  Mo7  1  0.299611  0.121786  0.789959  1
  Mo  Mo8  1  0.801984  0.878422  0.208084  1
  Mo  Mo9  1  0.701976  0.375497  0.300767  1
  Mo  Mo10  1  0.045723  0.205298  0.126902  1
  Mo  Mo11  1  0.956735  0.300849  0.627906  1
  Mo  Mo12  1  0.549706  0.792548  0.871088  1
  Mo  Mo13  1  0.459972  0.695406  0.376299  1
  Pt  Pt14  1  0.810169  0.689865  0.567269  1
  Pt  Pt15  1  0.311674  0.311461  0.436753  1
  Pt  Pt16  1  0.061519  0.570755  0.301231  1
  Pt  Pt17  1  0.438362  0.058554  0.176319  1
  Rh  Rh18  1  0.560376  0.432421  0.697812  1
  Rh  Rh19  1  0.937430  0.941261  0.821946  1
  N  N20  1  0.375846  0.871905  0.621012  1
  N  N21  1  0.875063  0.127107  0.379714  1
  N  N22  1  0.127397  0.375400  0.874702  1
  N  N23  1  0.627760  0.624891  0.125096  1
