# generated using pymatgen
data_Tm5BeGe3P8Ir19
_symmetry_space_group_name_H-M   'P 1'
_cell_length_a   12.80595790
_cell_length_b   12.72040391
_cell_length_c   3.96430900
_cell_angle_alpha   90.00000000
_cell_angle_beta   90.00000000
_cell_angle_gamma   120.07720077
_symmetry_Int_Tables_number   1
_chemical_formula_structural   Tm5BeGe3P8Ir19
_chemical_formula_sum   'Tm5 Be1 Ge3 P8 Ir19'
_cell_volume   558.82101065
_cell_formula_units_Z   1
loop_
 _symmetry_equiv_pos_site_id
 _symmetry_equiv_pos_as_xyz
  1  'x, y, z'
loop_
 _atom_site_type_symbol
 _atom_site_label
 _atom_site_symmetry_multiplicity
 _atom_site_fract_x
 _atom_site_fract_y
 _atom_site_fract_z
 _atom_site_occupancy
  Tm  Tm0  1  0.335105  0.667954  0.500000  1
  Tm  Tm1  1  0.678629  0.331809  0.500000  1
  Tm  Tm2  1  0.177883  0.181940  0.000000  1
  Tm  Tm3  1  0.816062  0.004461  0.000000  1
  Tm  Tm4  1  0.999804  0.818780  0.000000  1
  Be  Be5  1  0.829981  0.309594  0.000000  1
  Ge  Ge6  1  0.318417  0.836226  0.000000  1
  Ge  Ge7  1  0.164152  0.483221  0.000000  1
  Ge  Ge8  1  0.516149  0.679092  0.000000  1
  P  P9  1  0.487962  0.176737  0.000000  1
  P  P10  1  0.695008  0.515292  0.000000  1
  P  P11  1  0.358217  0.361537  0.500000  1
  P  P12  1  0.638608  0.001197  0.500000  1
  P  P13  1  0.999180  0.634911  0.500000  1
  P  P14  1  0.824178  0.821947  0.500000  1
  P  P15  1  0.181152  0.007128  0.500000  1
  P  P16  1  0.992566  0.176367  0.500000  1
  Ir  Ir17  1  0.183658  0.824262  0.500000  1
  Ir  Ir18  1  0.174929  0.363946  0.500000  1
  Ir  Ir19  1  0.638391  0.814977  0.500000  1
  Ir  Ir20  1  0.813373  0.189477  0.500000  1
  Ir  Ir21  1  0.379993  0.189207  0.500000  1
  Ir  Ir22  1  0.806485  0.622057  0.500000  1
  Ir  Ir23  1  0.121182  0.645146  0.000000  1
  Ir  Ir24  1  0.353467  0.472526  0.000000  1
  Ir  Ir25  1  0.522259  0.875033  0.000000  1
  Ir  Ir26  1  0.636324  0.131368  0.000000  1
  Ir  Ir27  1  0.501296  0.365835  0.000000  1
  Ir  Ir28  1  0.870222  0.509205  0.000000  1
  Ir  Ir29  1  0.541993  0.544182  0.500000  1
  Ir  Ir30  1  0.454583  0.995489  0.500000  1
  Ir  Ir31  1  0.987367  0.445001  0.500000  1
  Ir  Ir32  1  0.724740  0.715322  0.000000  1
  Ir  Ir33  1  0.285048  0.012072  0.000000  1
  Ir  Ir34  1  0.991100  0.275985  0.000000  1
  Ir  Ir35  1  0.000535  0.000716  0.500000  1
