# generated using pymatgen
data_Ho4Sn3Ge3Rh7
_symmetry_space_group_name_H-M   'P 1'
_cell_length_a   7.41242564
_cell_length_b   7.41242532
_cell_length_c   7.46504300
_cell_angle_alpha   109.61508409
_cell_angle_beta   109.61508321
_cell_angle_gamma   109.32697658
_symmetry_Int_Tables_number   1
_chemical_formula_structural   Ho4Sn3Ge3Rh7
_chemical_formula_sum   'Ho4 Sn3 Ge3 Rh7'
_cell_volume   315.17875887
_cell_formula_units_Z   1
loop_
 _symmetry_equiv_pos_site_id
 _symmetry_equiv_pos_as_xyz
  1  'x, y, z'
loop_
 _atom_site_type_symbol
 _atom_site_label
 _atom_site_symmetry_multiplicity
 _atom_site_fract_x
 _atom_site_fract_y
 _atom_site_fract_z
 _atom_site_occupancy
  Ho  Ho0  1  0.000000  0.000000  0.550892  1
  Ho  Ho1  1  0.000000  0.476721  0.987504  1
  Ho  Ho2  1  0.476721  0.000000  0.987504  1
  Ho  Ho3  1  0.523279  0.523279  0.510783  1
  Sn  Sn4  1  0.705206  0.705206  0.015503  1
  Sn  Sn5  1  0.294794  0.000000  0.310297  1
  Sn  Sn6  1  0.000000  0.294794  0.310297  1
  Ge  Ge7  1  0.338815  0.338815  0.010780  1
  Ge  Ge8  1  0.661185  0.000000  0.671965  1
  Ge  Ge9  1  0.000000  0.661185  0.671965  1
  Rh  Rh10  1  0.744929  0.245530  0.498806  1
  Rh  Rh11  1  0.754470  0.499399  0.253276  1
  Rh  Rh12  1  0.500601  0.255071  0.753877  1
  Rh  Rh13  1  0.255071  0.500601  0.753877  1
  Rh  Rh14  1  0.245530  0.744929  0.498806  1
  Rh  Rh15  1  0.499399  0.754470  0.253276  1
  Rh  Rh16  1  0.000000  0.000000  0.960594  1
