# generated using pymatgen
data_Cs2RbH6Ir
_symmetry_space_group_name_H-M   'P 1'
_cell_length_a   6.40973892
_cell_length_b   6.40973898
_cell_length_c   6.40973900
_cell_angle_alpha   60.00000505
_cell_angle_beta   60.00000474
_cell_angle_gamma   59.99999751
_symmetry_Int_Tables_number   1
_chemical_formula_structural   Cs2RbH6Ir
_chemical_formula_sum   'Cs2 Rb1 H6 Ir1'
_cell_volume   186.21131041
_cell_formula_units_Z   1
loop_
 _symmetry_equiv_pos_site_id
 _symmetry_equiv_pos_as_xyz
  1  'x, y, z'
loop_
 _atom_site_type_symbol
 _atom_site_label
 _atom_site_symmetry_multiplicity
 _atom_site_fract_x
 _atom_site_fract_y
 _atom_site_fract_z
 _atom_site_occupancy
  Cs  Cs0  1  0.250000  0.250000  0.250000  1
  Cs  Cs1  1  0.750000  0.750000  0.750000  1
  Rb  Rb2  1  0.500000  0.500000  0.500000  1
  H  H3  1  0.187314  0.812686  0.187314  1
  H  H4  1  0.812686  0.187314  0.187314  1
  H  H5  1  0.812686  0.812686  0.187314  1
  H  H6  1  0.187314  0.187314  0.812686  1
  H  H7  1  0.812686  0.187314  0.812686  1
  H  H8  1  0.187314  0.812686  0.812686  1
  Ir  Ir9  1  0.000000  0.000000  0.000000  1
