# generated using pymatgen
data_Ca3Ta4CdO14
_symmetry_space_group_name_H-M   'P 1'
_cell_length_a   7.40452623
_cell_length_b   7.40452641
_cell_length_c   7.40452647
_cell_angle_alpha   60.82930804
_cell_angle_beta   60.82930971
_cell_angle_gamma   60.82930751
_symmetry_Int_Tables_number   1
_chemical_formula_structural   Ca3Ta4CdO14
_chemical_formula_sum   'Ca3 Ta4 Cd1 O14'
_cell_volume   292.43127219
_cell_formula_units_Z   1
loop_
 _symmetry_equiv_pos_site_id
 _symmetry_equiv_pos_as_xyz
  1  'x, y, z'
loop_
 _atom_site_type_symbol
 _atom_site_label
 _atom_site_symmetry_multiplicity
 _atom_site_fract_x
 _atom_site_fract_y
 _atom_site_fract_z
 _atom_site_occupancy
  Ca  Ca0  1  0.625000  0.125000  0.125000  1
  Ca  Ca1  1  0.125000  0.125000  0.625000  1
  Ca  Ca2  1  0.125000  0.625000  0.125000  1
  Ta  Ta3  1  0.625000  0.625000  0.625000  1
  Ta  Ta4  1  0.125000  0.625000  0.625000  1
  Ta  Ta5  1  0.625000  0.625000  0.125000  1
  Ta  Ta6  1  0.625000  0.125000  0.625000  1
  Cd  Cd7  1  0.125000  0.125000  0.125000  1
  O  O8  1  0.556019  0.556019  0.942459  1
  O  O9  1  0.310572  0.310572  0.684477  1
  O  O10  1  0.939428  0.565523  0.939428  1
  O  O11  1  0.942459  0.556019  0.556019  1
  O  O12  1  0.565523  0.939428  0.939428  1
  O  O13  1  0.556019  0.942459  0.556019  1
  O  O14  1  0.310572  0.684477  0.310572  1
  O  O15  1  0.693981  0.307541  0.693981  1
  O  O16  1  0.245029  0.245029  0.245029  1
  O  O17  1  0.004971  0.004971  0.004971  1
  O  O18  1  0.939428  0.939428  0.565523  1
  O  O19  1  0.684477  0.310572  0.310572  1
  O  O20  1  0.307541  0.693981  0.693981  1
  O  O21  1  0.693981  0.693981  0.307541  1
