# generated using pymatgen
data_Tb4Al4CuIr3
_symmetry_space_group_name_H-M   'P 1'
_cell_length_a   4.32098700
_cell_length_b   6.85494196
_cell_length_c   7.84403700
_cell_angle_alpha   90.18558840
_cell_angle_beta   90.00000000
_cell_angle_gamma   90.00000000
_symmetry_Int_Tables_number   1
_chemical_formula_structural   Tb4Al4CuIr3
_chemical_formula_sum   'Tb4 Al4 Cu1 Ir3'
_cell_volume   232.34005992
_cell_formula_units_Z   1
loop_
 _symmetry_equiv_pos_site_id
 _symmetry_equiv_pos_as_xyz
  1  'x, y, z'
loop_
 _atom_site_type_symbol
 _atom_site_label
 _atom_site_symmetry_multiplicity
 _atom_site_fract_x
 _atom_site_fract_y
 _atom_site_fract_z
 _atom_site_occupancy
  Tb  Tb0  1  0.250000  0.026947  0.679584  1
  Tb  Tb1  1  0.250000  0.535712  0.818746  1
  Tb  Tb2  1  0.750000  0.970589  0.320761  1
  Tb  Tb3  1  0.750000  0.473528  0.183740  1
  Al  Al4  1  0.250000  0.142333  0.061937  1
  Al  Al5  1  0.250000  0.641893  0.437191  1
  Al  Al6  1  0.750000  0.853275  0.937992  1
  Al  Al7  1  0.750000  0.360811  0.559911  1
  Cu  Cu8  1  0.750000  0.224114  0.878786  1
  Ir  Ir9  1  0.250000  0.268658  0.381946  1
  Ir  Ir10  1  0.250000  0.770489  0.117999  1
  Ir  Ir11  1  0.750000  0.731650  0.621404  1
