# generated using pymatgen
data_Dy8MgCdRuPt
_symmetry_space_group_name_H-M   'P 1'
_cell_length_a   9.67923694
_cell_length_b   9.67923679
_cell_length_c   9.74077200
_cell_angle_alpha   59.78946681
_cell_angle_beta   59.78946731
_cell_angle_gamma   59.58966688
_symmetry_Int_Tables_number   1
_chemical_formula_structural   Dy8MgCdRuPt
_chemical_formula_sum   'Dy16 Mg2 Cd2 Ru2 Pt2'
_cell_volume   641.23159410
_cell_formula_units_Z   2
loop_
 _symmetry_equiv_pos_site_id
 _symmetry_equiv_pos_as_xyz
  1  'x, y, z'
loop_
 _atom_site_type_symbol
 _atom_site_label
 _atom_site_symmetry_multiplicity
 _atom_site_fract_x
 _atom_site_fract_y
 _atom_site_fract_z
 _atom_site_occupancy
  Dy  Dy0  1  0.347948  0.347948  0.353628  1
  Dy  Dy1  1  0.347948  0.347948  0.950477  1
  Dy  Dy2  1  0.344356  0.958567  0.348540  1
  Dy  Dy3  1  0.958567  0.344356  0.348540  1
  Dy  Dy4  1  0.816049  0.187693  0.188468  1
  Dy  Dy5  1  0.187693  0.816049  0.807791  1
  Dy  Dy6  1  0.187693  0.816049  0.188468  1
  Dy  Dy7  1  0.816049  0.187693  0.807791  1
  Dy  Dy8  1  0.188061  0.188061  0.811939  1
  Dy  Dy9  1  0.811156  0.811156  0.188844  1
  Dy  Dy10  1  0.937748  0.560348  0.567215  1
  Dy  Dy11  1  0.560348  0.937748  0.934689  1
  Dy  Dy12  1  0.560348  0.937748  0.567215  1
  Dy  Dy13  1  0.937748  0.560347  0.934689  1
  Dy  Dy14  1  0.564747  0.564747  0.935253  1
  Dy  Dy15  1  0.937096  0.937096  0.562903  1
  Mg  Mg16  1  0.576186  0.576186  0.580038  1
  Mg  Mg17  1  0.576186  0.576186  0.267588  1
  Cd  Cd18  1  0.581916  0.254915  0.581584  1
  Cd  Cd19  1  0.254915  0.581916  0.581584  1
  Ru  Ru20  1  0.144088  0.144088  0.137886  1
  Ru  Ru21  1  0.144088  0.144088  0.573938  1
  Pt  Pt22  1  0.145672  0.573392  0.140468  1
  Pt  Pt23  1  0.573392  0.145672  0.140468  1
