# generated using pymatgen
data_Tb8Er7Tm5Pb16
_symmetry_space_group_name_H-M   'P 1'
_cell_length_a   8.17478605
_cell_length_b   8.25512505
_cell_length_c   15.57424700
_cell_angle_alpha   90.00273212
_cell_angle_beta   90.00091161
_cell_angle_gamma   90.01216366
_symmetry_Int_Tables_number   1
_chemical_formula_structural   Tb8Er7Tm5Pb16
_chemical_formula_sum   'Tb8 Er7 Tm5 Pb16'
_cell_volume   1051.01060747
_cell_formula_units_Z   1
loop_
 _symmetry_equiv_pos_site_id
 _symmetry_equiv_pos_as_xyz
  1  'x, y, z'
loop_
 _atom_site_type_symbol
 _atom_site_label
 _atom_site_symmetry_multiplicity
 _atom_site_fract_x
 _atom_site_fract_y
 _atom_site_fract_z
 _atom_site_occupancy
  Tb  Tb0  1  0.534404  0.322877  0.900051  1
  Tb  Tb1  1  0.034412  0.177063  0.599966  1
  Tb  Tb2  1  0.465601  0.677087  0.400033  1
  Tb  Tb3  1  0.965567  0.822873  0.099974  1
  Tb  Tb4  1  0.465582  0.677127  0.099897  1
  Tb  Tb5  1  0.965598  0.822909  0.400039  1
  Tb  Tb6  1  0.534403  0.322905  0.599971  1
  Tb  Tb7  1  0.034447  0.177048  0.900031  1
  Er  Er8  1  0.876546  0.659208  0.620816  1
  Er  Er9  1  0.623402  0.159193  0.379201  1
  Er  Er10  1  0.123429  0.340800  0.120795  1
  Er  Er11  1  0.623448  0.159229  0.120857  1
  Er  Er12  1  0.123397  0.340782  0.379192  1
  Er  Er13  1  0.376591  0.840759  0.620801  1
  Er  Er14  1  0.876590  0.659193  0.879176  1
  Tm  Tm15  1  0.376559  0.840816  0.879164  1
  Tm  Tm16  1  0.208126  0.504651  0.750048  1
  Tm  Tm17  1  0.708005  0.995410  0.750049  1
  Tm  Tm18  1  0.791923  0.495420  0.250001  1
  Tm  Tm19  1  0.291931  0.004546  0.249988  1
  Pb  Pb20  1  0.282445  0.033830  0.042664  1
  Pb  Pb21  1  0.782356  0.466052  0.457184  1
  Pb  Pb22  1  0.717657  0.966041  0.542802  1
  Pb  Pb23  1  0.217774  0.534218  0.957154  1
  Pb  Pb24  1  0.717399  0.965983  0.957155  1
  Pb  Pb25  1  0.217626  0.533966  0.542809  1
  Pb  Pb26  1  0.282357  0.033964  0.457191  1
  Pb  Pb27  1  0.782371  0.466057  0.042801  1
  Pb  Pb28  1  0.571201  0.627828  0.750086  1
  Pb  Pb29  1  0.071437  0.872298  0.750061  1
  Pb  Pb30  1  0.428666  0.372311  0.250000  1
  Pb  Pb31  1  0.928698  0.127704  0.249994  1
  Pb  Pb32  1  0.345484  0.151997  0.750045  1
  Pb  Pb33  1  0.845485  0.347847  0.750000  1
  Pb  Pb34  1  0.654535  0.847892  0.250000  1
  Pb  Pb35  1  0.154549  0.652117  0.250006  1
