# generated using pymatgen
data_Dy3Th5(ZnRh)8
_symmetry_space_group_name_H-M   'P 1'
_cell_length_a   3.89280400
_cell_length_b   7.47904633
_cell_length_c   16.49757200
_cell_angle_alpha   90.39305516
_cell_angle_beta   90.00000000
_cell_angle_gamma   90.00000000
_symmetry_Int_Tables_number   1
_chemical_formula_structural   Dy3Th5(ZnRh)8
_chemical_formula_sum   'Dy3 Th5 Zn8 Rh8'
_cell_volume   480.30662226
_cell_formula_units_Z   1
loop_
 _symmetry_equiv_pos_site_id
 _symmetry_equiv_pos_as_xyz
  1  'x, y, z'
loop_
 _atom_site_type_symbol
 _atom_site_label
 _atom_site_symmetry_multiplicity
 _atom_site_fract_x
 _atom_site_fract_y
 _atom_site_fract_z
 _atom_site_occupancy
  Dy  Dy0  1  0.750000  0.444806  0.213420  1
  Dy  Dy1  1  0.250000  0.052967  0.713277  1
  Dy  Dy2  1  0.250000  0.553420  0.786180  1
  Th  Th3  1  0.250000  0.174570  0.936409  1
  Th  Th4  1  0.250000  0.672505  0.563518  1
  Th  Th5  1  0.750000  0.325922  0.438448  1
  Th  Th6  1  0.750000  0.945859  0.284225  1
  Th  Th7  1  0.750000  0.829345  0.060621  1
  Zn  Zn8  1  0.750000  0.008485  0.563609  1
  Zn  Zn9  1  0.250000  0.612016  0.342562  1
  Zn  Zn10  1  0.750000  0.380210  0.658694  1
  Zn  Zn11  1  0.250000  0.494718  0.064264  1
  Zn  Zn12  1  0.750000  0.508519  0.936203  1
  Zn  Zn13  1  0.250000  0.992012  0.441857  1
  Zn  Zn14  1  0.250000  0.127627  0.153476  1
  Zn  Zn15  1  0.750000  0.880067  0.841362  1
  Rh  Rh16  1  0.750000  0.742096  0.438598  1
  Rh  Rh17  1  0.250000  0.235312  0.317014  1
  Rh  Rh18  1  0.750000  0.249999  0.816742  1
  Rh  Rh19  1  0.750000  0.751909  0.682588  1
  Rh  Rh20  1  0.250000  0.260146  0.561656  1
  Rh  Rh21  1  0.250000  0.754329  0.186123  1
  Rh  Rh22  1  0.750000  0.245075  0.060019  1
  Rh  Rh23  1  0.250000  0.758088  0.939134  1
