# generated using pymatgen
data_Ti8MnVSi6
_symmetry_space_group_name_H-M   'P 1'
_cell_length_a   7.36518700
_cell_length_b   7.36518671
_cell_length_c   5.00226500
_cell_angle_alpha   90.00000000
_cell_angle_beta   90.00000000
_cell_angle_gamma   119.99999681
_symmetry_Int_Tables_number   1
_chemical_formula_structural   Ti8MnVSi6
_chemical_formula_sum   'Ti8 Mn1 V1 Si6'
_cell_volume   234.99838608
_cell_formula_units_Z   1
loop_
 _symmetry_equiv_pos_site_id
 _symmetry_equiv_pos_as_xyz
  1  'x, y, z'
loop_
 _atom_site_type_symbol
 _atom_site_label
 _atom_site_symmetry_multiplicity
 _atom_site_fract_x
 _atom_site_fract_y
 _atom_site_fract_z
 _atom_site_occupancy
  Ti  Ti0  1  0.756438  0.753773  0.253656  1
  Ti  Ti1  1  0.997335  0.243562  0.253656  1
  Ti  Ti2  1  0.756438  0.002665  0.746344  1
  Ti  Ti3  1  0.333333  0.666667  0.500000  1
  Ti  Ti4  1  0.246227  0.002665  0.253656  1
  Ti  Ti5  1  0.666667  0.333333  0.500000  1
  Ti  Ti6  1  0.997335  0.753773  0.746344  1
  Ti  Ti7  1  0.246227  0.243562  0.746344  1
  Mn  Mn8  1  0.333333  0.666667  0.000000  1
  V  V9  1  0.666667  0.333333  0.000000  1
  Si  Si10  1  0.600092  0.604166  0.769436  1
  Si  Si11  1  0.395834  0.995927  0.769436  1
  Si  Si12  1  0.600092  0.995927  0.230564  1
  Si  Si13  1  0.004073  0.399908  0.769436  1
  Si  Si14  1  0.395834  0.399908  0.230564  1
  Si  Si15  1  0.004073  0.604166  0.230564  1
