# generated using pymatgen
data_Ga3Sn2GePt4
_symmetry_space_group_name_H-M   'P 1'
_cell_length_a   4.12588800
_cell_length_b   4.12588815
_cell_length_c   13.04669700
_cell_angle_alpha   90.00000000
_cell_angle_beta   90.00000000
_cell_angle_gamma   119.99999876
_symmetry_Int_Tables_number   1
_chemical_formula_structural   Ga3Sn2GePt4
_chemical_formula_sum   'Ga3 Sn2 Ge1 Pt4'
_cell_volume   192.33844427
_cell_formula_units_Z   1
loop_
 _symmetry_equiv_pos_site_id
 _symmetry_equiv_pos_as_xyz
  1  'x, y, z'
loop_
 _atom_site_type_symbol
 _atom_site_label
 _atom_site_symmetry_multiplicity
 _atom_site_fract_x
 _atom_site_fract_y
 _atom_site_fract_z
 _atom_site_occupancy
  Ga  Ga0  1  0.666667  0.333333  0.060502  1
  Ga  Ga1  1  0.666667  0.333333  0.437347  1
  Ga  Ga2  1  0.333333  0.666667  0.939914  1
  Sn  Sn3  1  0.000000  0.000000  0.250783  1
  Sn  Sn4  1  0.000000  0.000000  0.749465  1
  Ge  Ge5  1  0.333333  0.666667  0.561162  1
  Pt  Pt6  1  0.333333  0.666667  0.363208  1
  Pt  Pt7  1  0.666667  0.333333  0.861530  1
  Pt  Pt8  1  0.666667  0.333333  0.637505  1
  Pt  Pt9  1  0.333333  0.666667  0.138585  1
