# generated using pymatgen
data_Yb(AlB14)2
_symmetry_space_group_name_H-M   'P 1'
_cell_length_a   7.19396608
_cell_length_b   7.19396536
_cell_length_c   5.85455491
_cell_angle_alpha   66.26879095
_cell_angle_beta   66.26879997
_cell_angle_gamma   91.88749794
_symmetry_Int_Tables_number   1
_chemical_formula_structural   Yb(AlB14)2
_chemical_formula_sum   'Yb1 Al2 B28'
_cell_volume   246.95577696
_cell_formula_units_Z   1
loop_
 _symmetry_equiv_pos_site_id
 _symmetry_equiv_pos_as_xyz
  1  'x, y, z'
loop_
 _atom_site_type_symbol
 _atom_site_label
 _atom_site_symmetry_multiplicity
 _atom_site_fract_x
 _atom_site_fract_y
 _atom_site_fract_z
 _atom_site_occupancy
  Yb  Yb0  1  0.890861  0.890861  0.341282  1
  Al  Al1  1  0.500758  0.500758  0.506208  1
  Al  Al2  1  0.166173  0.166173  0.448252  1
  B  B3  1  0.413661  0.735517  0.175731  1
  B  B4  1  0.586685  0.257994  0.834197  1
  B  B5  1  0.257994  0.586685  0.834197  1
  B  B6  1  0.735517  0.413661  0.175731  1
  B  B7  1  0.691782  0.857417  0.981644  1
  B  B8  1  0.308124  0.136155  0.030980  1
  B  B9  1  0.136155  0.308124  0.030980  1
  B  B10  1  0.857417  0.691782  0.981644  1
  B  B11  1  0.532184  0.871479  0.304196  1
  B  B12  1  0.473504  0.124344  0.204103  1
  B  B13  1  0.124344  0.473504  0.204103  1
  B  B14  1  0.871479  0.532184  0.304196  1
  B  B15  1  0.464841  0.119229  0.712289  1
  B  B16  1  0.532770  0.867292  0.804249  1
  B  B17  1  0.867292  0.532770  0.804249  1
  B  B18  1  0.119229  0.464841  0.712289  1
  B  B19  1  0.725755  0.099221  0.000143  1
  B  B20  1  0.278071  0.896761  0.325575  1
  B  B21  1  0.896761  0.278071  0.325575  1
  B  B22  1  0.099221  0.725755  0.000143  1
  B  B23  1  0.276882  0.895534  0.008659  1
  B  B24  1  0.724207  0.096483  0.690647  1
  B  B25  1  0.096483  0.724207  0.690647  1
  B  B26  1  0.895534  0.276882  0.008659  1
  B  B27  1  0.268069  0.470047  0.387415  1
  B  B28  1  0.716886  0.521312  0.642302  1
  B  B29  1  0.521312  0.716886  0.642302  1
  B  B30  1  0.470047  0.268069  0.387415  1
