# generated using pymatgen
data_HfZnCu3Pd
_symmetry_space_group_name_H-M   'P 1'
_cell_length_a   4.90385587
_cell_length_b   4.90385666
_cell_length_c   4.90385512
_cell_angle_alpha   60.17062158
_cell_angle_beta   60.17061506
_cell_angle_gamma   60.17063393
_symmetry_Int_Tables_number   1
_chemical_formula_structural   HfZnCu3Pd
_chemical_formula_sum   'Hf1 Zn1 Cu3 Pd1'
_cell_volume   83.70918212
_cell_formula_units_Z   1
loop_
 _symmetry_equiv_pos_site_id
 _symmetry_equiv_pos_as_xyz
  1  'x, y, z'
loop_
 _atom_site_type_symbol
 _atom_site_label
 _atom_site_symmetry_multiplicity
 _atom_site_fract_x
 _atom_site_fract_y
 _atom_site_fract_z
 _atom_site_occupancy
  Hf  Hf0  1  0.247998  0.247998  0.247998  1
  Zn  Zn1  1  0.627310  0.627310  0.627310  1
  Cu  Cu2  1  0.625667  0.625667  0.124884  1
  Cu  Cu3  1  0.625667  0.124884  0.625667  1
  Cu  Cu4  1  0.124884  0.625667  0.625667  1
  Pd  Pd5  1  0.998476  0.998476  0.998476  1
