# generated using pymatgen
data_Pr4InB4Rh9
_symmetry_space_group_name_H-M   'P 1'
_cell_length_a   5.61631711
_cell_length_b   5.61631903
_cell_length_c   21.18624300
_cell_angle_alpha   90.00000000
_cell_angle_beta   90.00000000
_cell_angle_gamma   120.02801890
_symmetry_Int_Tables_number   1
_chemical_formula_structural   Pr4InB4Rh9
_chemical_formula_sum   'Pr8 In2 B8 Rh18'
_cell_volume   578.58248824
_cell_formula_units_Z   2
loop_
 _symmetry_equiv_pos_site_id
 _symmetry_equiv_pos_as_xyz
  1  'x, y, z'
loop_
 _atom_site_type_symbol
 _atom_site_label
 _atom_site_symmetry_multiplicity
 _atom_site_fract_x
 _atom_site_fract_y
 _atom_site_fract_z
 _atom_site_occupancy
  Pr  Pr0  1  0.666681  0.333319  0.525114  1
  Pr  Pr1  1  0.333319  0.666681  0.474886  1
  Pr  Pr2  1  0.333319  0.666681  0.025114  1
  Pr  Pr3  1  0.666681  0.333319  0.974886  1
  Pr  Pr4  1  0.666713  0.333287  0.675407  1
  Pr  Pr5  1  0.333287  0.666713  0.324593  1
  Pr  Pr6  1  0.333287  0.666713  0.175407  1
  Pr  Pr7  1  0.666713  0.333287  0.824593  1
  In  In8  1  0.000000  0.000000  0.500000  1
  In  In9  1  0.000000  0.000000  0.000000  1
  B  B10  1  0.000193  0.999807  0.675504  1
  B  B11  1  0.999807  0.000193  0.324496  1
  B  B12  1  0.999807  0.000193  0.175504  1
  B  B13  1  0.000193  0.999807  0.824496  1
  B  B14  1  0.666701  0.333299  0.324431  1
  B  B15  1  0.333299  0.666701  0.675569  1
  B  B16  1  0.333299  0.666701  0.824431  1
  B  B17  1  0.666701  0.333299  0.175569  1
  Rh  Rh18  1  0.166846  0.333504  0.750000  1
  Rh  Rh19  1  0.166856  0.833144  0.750000  1
  Rh  Rh20  1  0.666496  0.833154  0.750000  1
  Rh  Rh21  1  0.833154  0.666496  0.250000  1
  Rh  Rh22  1  0.833144  0.166856  0.250000  1
  Rh  Rh23  1  0.333504  0.166846  0.250000  1
  Rh  Rh24  1  0.166997  0.333802  0.609010  1
  Rh  Rh25  1  0.166990  0.833010  0.609047  1
  Rh  Rh26  1  0.666198  0.833003  0.609010  1
  Rh  Rh27  1  0.833003  0.666198  0.390990  1
  Rh  Rh28  1  0.833010  0.166990  0.390953  1
  Rh  Rh29  1  0.333802  0.166997  0.390990  1
  Rh  Rh30  1  0.833003  0.666198  0.109010  1
  Rh  Rh31  1  0.833010  0.166990  0.109047  1
  Rh  Rh32  1  0.333802  0.166997  0.109010  1
  Rh  Rh33  1  0.166997  0.333802  0.890990  1
  Rh  Rh34  1  0.166990  0.833010  0.890953  1
  Rh  Rh35  1  0.666198  0.833003  0.890990  1
