# generated using pymatgen
data_Nd7PaInPd24
_symmetry_space_group_name_H-M   'P 1'
_cell_length_a   8.52910573
_cell_length_b   8.52910573
_cell_length_c   8.52910573
_cell_angle_alpha   89.93512920
_cell_angle_beta   89.93512920
_cell_angle_gamma   89.93512920
_symmetry_Int_Tables_number   1
_chemical_formula_structural   Nd7PaInPd24
_chemical_formula_sum   'Nd7 Pa1 In1 Pd24'
_cell_volume   620.45410205
_cell_formula_units_Z   1
loop_
 _symmetry_equiv_pos_site_id
 _symmetry_equiv_pos_as_xyz
  1  'x, y, z'
loop_
 _atom_site_type_symbol
 _atom_site_label
 _atom_site_symmetry_multiplicity
 _atom_site_fract_x
 _atom_site_fract_y
 _atom_site_fract_z
 _atom_site_occupancy
  Nd  Nd0  1  0.748908  0.748908  0.748908  1
  Nd  Nd1  1  0.749160  0.749160  0.250588  1
  Nd  Nd2  1  0.749160  0.250588  0.749160  1
  Nd  Nd3  1  0.250547  0.250547  0.750813  1
  Nd  Nd4  1  0.250547  0.750813  0.250547  1
  Nd  Nd5  1  0.250588  0.749160  0.749160  1
  Nd  Nd6  1  0.750813  0.250547  0.250547  1
  Pa  Pa7  1  0.250672  0.250672  0.250672  1
  In  In8  1  0.999967  0.999967  0.999967  1
  Pd  Pd9  1  0.266488  0.496485  0.006246  1
  Pd  Pd10  1  0.733597  0.499108  0.000189  1
  Pd  Pd11  1  0.006246  0.266488  0.496485  1
  Pd  Pd12  1  0.496485  0.266488  0.006246  1
  Pd  Pd13  1  0.000189  0.733597  0.499108  1
  Pd  Pd14  1  0.499108  0.733597  0.000189  1
  Pd  Pd15  1  0.496485  0.006246  0.266488  1
  Pd  Pd16  1  0.266488  0.006246  0.496485  1
  Pd  Pd17  1  0.499108  0.000189  0.733597  1
  Pd  Pd18  1  0.733597  0.000189  0.499108  1
  Pd  Pd19  1  0.006246  0.496485  0.266488  1
  Pd  Pd20  1  0.000189  0.499108  0.733597  1
  Pd  Pd21  1  0.255220  0.495081  0.495081  1
  Pd  Pd22  1  0.745282  0.499297  0.499297  1
  Pd  Pd23  1  0.495081  0.255220  0.495081  1
  Pd  Pd24  1  0.499297  0.745282  0.499297  1
  Pd  Pd25  1  0.495081  0.495081  0.255220  1
  Pd  Pd26  1  0.499297  0.499297  0.745282  1
  Pd  Pd27  1  0.312765  0.003181  0.003181  1
  Pd  Pd28  1  0.686622  0.000202  0.000202  1
  Pd  Pd29  1  0.003181  0.312765  0.003181  1
  Pd  Pd30  1  0.000202  0.686622  0.000202  1
  Pd  Pd31  1  0.003181  0.003181  0.312765  1
  Pd  Pd32  1  0.000202  0.000202  0.686622  1
