# generated using pymatgen
data_Tb2YEr3(AlC3)2
_symmetry_space_group_name_H-M   'P 1'
_cell_length_a   3.56727400
_cell_length_b   7.06069109
_cell_length_c   9.93533230
_cell_angle_alpha   90.05585250
_cell_angle_beta   90.00000000
_cell_angle_gamma   90.00000000
_symmetry_Int_Tables_number   1
_chemical_formula_structural   Tb2YEr3(AlC3)2
_chemical_formula_sum   'Tb2 Y1 Er3 Al2 C6'
_cell_volume   250.24526603
_cell_formula_units_Z   1
loop_
 _symmetry_equiv_pos_site_id
 _symmetry_equiv_pos_as_xyz
  1  'x, y, z'
loop_
 _atom_site_type_symbol
 _atom_site_label
 _atom_site_symmetry_multiplicity
 _atom_site_fract_x
 _atom_site_fract_y
 _atom_site_fract_z
 _atom_site_occupancy
  Tb  Tb0  1  0.000000  0.750168  0.459832  1
  Tb  Tb1  1  0.000000  0.250614  0.540451  1
  Y  Y2  1  0.500000  0.009867  0.801150  1
  Er  Er3  1  0.500000  0.512574  0.200702  1
  Er  Er4  1  0.500000  0.487017  0.799896  1
  Er  Er5  1  0.500000  0.986195  0.199038  1
  Al  Al6  1  0.000000  0.745914  0.004447  1
  Al  Al7  1  0.000000  0.253191  0.996600  1
  C  C8  1  0.500000  0.509324  0.566674  1
  C  C9  1  0.500000  0.491518  0.433721  1
  C  C10  1  0.500000  0.991659  0.564901  1
  C  C11  1  0.500000  0.009422  0.431972  1
  C  C12  1  0.000000  0.749622  0.207758  1
  C  C13  1  0.000000  0.252914  0.792861  1
