# generated using pymatgen
data_Zr13Ta5(NbSi8)2
_symmetry_space_group_name_H-M   'P 1'
_cell_length_a   6.98666670
_cell_length_b   6.99408512
_cell_length_c   12.88725409
_cell_angle_alpha   90.22493871
_cell_angle_beta   90.21608065
_cell_angle_gamma   89.84103639
_symmetry_Int_Tables_number   1
_chemical_formula_structural   Zr13Ta5(NbSi8)2
_chemical_formula_sum   'Zr13 Ta5 Nb2 Si16'
_cell_volume   629.72834436
_cell_formula_units_Z   1
loop_
 _symmetry_equiv_pos_site_id
 _symmetry_equiv_pos_as_xyz
  1  'x, y, z'
loop_
 _atom_site_type_symbol
 _atom_site_label
 _atom_site_symmetry_multiplicity
 _atom_site_fract_x
 _atom_site_fract_y
 _atom_site_fract_z
 _atom_site_occupancy
  Zr  Zr0  1  0.998966  0.852030  0.624746  1
  Zr  Zr1  1  0.647894  0.496047  0.877578  1
  Zr  Zr2  1  0.501662  0.351366  0.622053  1
  Zr  Zr3  1  0.500174  0.647098  0.125017  1
  Zr  Zr4  1  0.145948  0.000619  0.874659  1
  Zr  Zr5  1  0.001691  0.653284  0.035534  1
  Zr  Zr6  1  0.000577  0.346669  0.528225  1
  Zr  Zr7  1  0.652965  0.998674  0.970696  1
  Zr  Zr8  1  0.150953  0.497756  0.785348  1
  Zr  Zr9  1  0.846782  0.498615  0.281522  1
  Zr  Zr10  1  0.501158  0.154097  0.220167  1
  Zr  Zr11  1  0.500475  0.847573  0.712979  1
  Zr  Zr12  1  0.344621  0.000985  0.465117  1
  Ta  Ta13  1  0.008491  0.147978  0.126991  1
  Ta  Ta14  1  0.672925  0.673148  0.497603  1
  Ta  Ta15  1  0.825595  0.173324  0.749745  1
  Ta  Ta16  1  0.172254  0.830719  0.251225  1
  Ta  Ta17  1  0.326476  0.324517  0.002596  1
  Nb  Nb18  1  0.351579  0.504961  0.374208  1
  Nb  Nb19  1  0.853095  0.995061  0.374097  1
  Si  Si20  1  0.047838  0.700623  0.433663  1
  Si  Si21  1  0.953898  0.299284  0.939124  1
  Si  Si22  1  0.701120  0.048160  0.561027  1
  Si  Si23  1  0.201232  0.450511  0.187441  1
  Si  Si24  1  0.800985  0.546067  0.684778  1
  Si  Si25  1  0.453010  0.197410  0.814776  1
  Si  Si26  1  0.548542  0.798907  0.315067  1
  Si  Si27  1  0.299358  0.954231  0.066338  1
  Si  Si28  1  0.851291  0.797734  0.820371  1
  Si  Si29  1  0.137633  0.207471  0.322539  1
  Si  Si30  1  0.799294  0.864087  0.179605  1
  Si  Si31  1  0.297104  0.644321  0.566164  1
  Si  Si32  1  0.710120  0.352422  0.074903  1
  Si  Si33  1  0.640296  0.293738  0.424409  1
  Si  Si34  1  0.353753  0.702614  0.930722  1
  Si  Si35  1  0.200246  0.147900  0.678967  1
