# generated using pymatgen
data_Pr3Nd3Th2(As2Au)8
_symmetry_space_group_name_H-M   'P 1'
_cell_length_a   5.87795400
_cell_length_b   5.88885347
_cell_length_c   20.48691530
_cell_angle_alpha   90.08474724
_cell_angle_beta   90.00000000
_cell_angle_gamma   90.00000000
_symmetry_Int_Tables_number   1
_chemical_formula_structural   Pr3Nd3Th2(As2Au)8
_chemical_formula_sum   'Pr3 Nd3 Th2 As16 Au8'
_cell_volume   709.14170649
_cell_formula_units_Z   1
loop_
 _symmetry_equiv_pos_site_id
 _symmetry_equiv_pos_as_xyz
  1  'x, y, z'
loop_
 _atom_site_type_symbol
 _atom_site_label
 _atom_site_symmetry_multiplicity
 _atom_site_fract_x
 _atom_site_fract_y
 _atom_site_fract_z
 _atom_site_occupancy
  Pr  Pr0  1  0.250000  0.502359  0.386990  1
  Pr  Pr1  1  0.250000  0.494547  0.884104  1
  Pr  Pr2  1  0.750000  0.504582  0.111332  1
  Nd  Nd3  1  0.750000  0.994902  0.883521  1
  Nd  Nd4  1  0.250000  0.005844  0.120513  1
  Nd  Nd5  1  0.750000  0.497349  0.616171  1
  Th  Th6  1  0.250000  0.997740  0.616902  1
  Th  Th7  1  0.750000  0.002509  0.380083  1
  As  As8  1  0.750000  0.997562  0.655355  1
  As  As9  1  0.250000  0.002391  0.344781  1
  As  As10  1  0.250000  0.994207  0.839337  1
  As  As11  1  0.750000  0.005158  0.160037  1
  As  As12  1  0.250000  0.497782  0.653895  1
  As  As13  1  0.750000  0.502264  0.345650  1
  As  As14  1  0.750000  0.494844  0.839946  1
  As  As15  1  0.250000  0.505738  0.159491  1
  As  As16  1  0.981971  0.227308  0.500777  1
  As  As17  1  0.519844  0.772689  0.500634  1
  As  As18  1  0.020940  0.223507  0.999943  1
  As  As19  1  0.474393  0.776502  0.000249  1
  As  As20  1  0.980156  0.772689  0.500634  1
  As  As21  1  0.518029  0.227308  0.500777  1
  As  As22  1  0.025607  0.776502  0.000249  1
  As  As23  1  0.479060  0.223507  0.999943  1
  Au  Au24  1  0.500317  0.740863  0.749439  1
  Au  Au25  1  0.999857  0.260469  0.250113  1
  Au  Au26  1  0.500143  0.260469  0.250113  1
  Au  Au27  1  0.999683  0.740863  0.749439  1
  Au  Au28  1  0.499982  0.241657  0.749644  1
  Au  Au29  1  0.999492  0.757115  0.250148  1
  Au  Au30  1  0.500508  0.757115  0.250148  1
  Au  Au31  1  0.000018  0.241657  0.749644  1
