# generated using pymatgen
data_DyZnSi2Pd
_symmetry_space_group_name_H-M   'P 1'
_cell_length_a   4.04688809
_cell_length_b   4.04688690
_cell_length_c   5.96850400
_cell_angle_alpha   109.81719955
_cell_angle_beta   109.81717844
_cell_angle_gamma   90.00000230
_symmetry_Int_Tables_number   1
_chemical_formula_structural   DyZnSi2Pd
_chemical_formula_sum   'Dy1 Zn1 Si2 Pd1'
_cell_volume   85.78077201
_cell_formula_units_Z   1
loop_
 _symmetry_equiv_pos_site_id
 _symmetry_equiv_pos_as_xyz
  1  'x, y, z'
loop_
 _atom_site_type_symbol
 _atom_site_label
 _atom_site_symmetry_multiplicity
 _atom_site_fract_x
 _atom_site_fract_y
 _atom_site_fract_z
 _atom_site_occupancy
  Dy  Dy0  1  0.000000  0.000000  0.000000  1
  Zn  Zn1  1  0.749999  0.250000  0.500000  1
  Si  Si2  1  0.610920  0.610920  0.221842  1
  Si  Si3  1  0.389079  0.389079  0.778158  1
  Pd  Pd4  1  0.250000  0.749999  0.500000  1
