# generated using pymatgen
data_La2Ni4GeSb3
_symmetry_space_group_name_H-M   'P 1'
_cell_length_a   4.41290600
_cell_length_b   4.41290600
_cell_length_c   10.13321500
_cell_angle_alpha   90.00000000
_cell_angle_beta   90.00000000
_cell_angle_gamma   90.00000000
_symmetry_Int_Tables_number   1
_chemical_formula_structural   La2Ni4GeSb3
_chemical_formula_sum   'La2 Ni4 Ge1 Sb3'
_cell_volume   197.33158784
_cell_formula_units_Z   1
loop_
 _symmetry_equiv_pos_site_id
 _symmetry_equiv_pos_as_xyz
  1  'x, y, z'
loop_
 _atom_site_type_symbol
 _atom_site_label
 _atom_site_symmetry_multiplicity
 _atom_site_fract_x
 _atom_site_fract_y
 _atom_site_fract_z
 _atom_site_occupancy
  La  La0  1  0.000000  0.500000  0.251339  1
  La  La1  1  0.500000  0.000000  0.748661  1
  Ni  Ni2  1  0.000000  0.000000  0.000000  1
  Ni  Ni3  1  0.500000  0.500000  0.000000  1
  Ni  Ni4  1  0.000000  0.500000  0.619049  1
  Ni  Ni5  1  0.500000  0.000000  0.380951  1
  Ge  Ge6  1  0.000000  0.000000  0.500000  1
  Sb  Sb7  1  0.500000  0.500000  0.500000  1
  Sb  Sb8  1  0.000000  0.500000  0.869664  1
  Sb  Sb9  1  0.500000  0.000000  0.130336  1
