# generated using pymatgen
data_Rb4Ho2(MoH9)3
_symmetry_space_group_name_H-M   'P 1'
_cell_length_a   9.43429200
_cell_length_b   9.02208423
_cell_length_c   5.44666200
_cell_angle_alpha   90.00000000
_cell_angle_beta   90.00000000
_cell_angle_gamma   121.52324818
_symmetry_Int_Tables_number   1
_chemical_formula_structural   Rb4Ho2(MoH9)3
_chemical_formula_sum   'Rb4 Ho2 Mo3 H27'
_cell_volume   395.18856325
_cell_formula_units_Z   1
loop_
 _symmetry_equiv_pos_site_id
 _symmetry_equiv_pos_as_xyz
  1  'x, y, z'
loop_
 _atom_site_type_symbol
 _atom_site_label
 _atom_site_symmetry_multiplicity
 _atom_site_fract_x
 _atom_site_fract_y
 _atom_site_fract_z
 _atom_site_occupancy
  Rb  Rb0  1  0.261508  0.000000  0.500000  1
  Rb  Rb1  1  0.029093  0.619813  0.000000  1
  Rb  Rb2  1  0.409280  0.380187  0.000000  1
  Rb  Rb3  1  0.578359  0.000000  0.000000  1
  Ho  Ho4  1  0.980937  0.257199  0.500000  1
  Ho  Ho5  1  0.723739  0.742801  0.500000  1
  Mo  Mo6  1  0.714656  0.377447  0.500000  1
  Mo  Mo7  1  0.337207  0.622553  0.500000  1
  Mo  Mo8  1  0.953983  0.000000  0.000000  1
  H  H9  1  0.837295  0.347329  0.722866  1
  H  H10  1  0.723930  0.527103  0.724510  1
  H  H11  1  0.579786  0.256857  0.735488  1
  H  H12  1  0.196825  0.472897  0.275490  1
  H  H13  1  0.579786  0.256857  0.264512  1
  H  H14  1  0.837295  0.347329  0.277134  1
  H  H15  1  0.723930  0.527103  0.275490  1
  H  H16  1  0.322928  0.743143  0.735488  1
  H  H17  1  0.489966  0.652671  0.722866  1
  H  H18  1  0.136746  0.000000  0.000000  1
  H  H19  1  0.754048  0.807507  0.000000  1
  H  H20  1  0.946540  0.192493  0.000000  1
  H  H21  1  0.832396  0.000000  0.275505  1
  H  H22  1  0.094584  0.147958  0.775965  1
  H  H23  1  0.946625  0.852042  0.775965  1
  H  H24  1  0.946625  0.852042  0.224035  1
  H  H25  1  0.094584  0.147958  0.224035  1
  H  H26  1  0.832396  0.000000  0.724495  1
  H  H27  1  0.153708  0.620367  0.500000  1
  H  H28  1  0.512455  0.836540  0.500000  1
  H  H29  1  0.341400  0.432983  0.500000  1
  H  H30  1  0.533340  0.379633  0.500000  1
  H  H31  1  0.908417  0.567017  0.500000  1
  H  H32  1  0.675914  0.163460  0.500000  1
  H  H33  1  0.196825  0.472897  0.724510  1
  H  H34  1  0.322928  0.743143  0.264512  1
  H  H35  1  0.489966  0.652671  0.277134  1
