# generated using pymatgen
data_Cs16Ti3SnSe16
_symmetry_space_group_name_H-M   'P 1'
_cell_length_a   9.18503855
_cell_length_b   10.89041200
_cell_length_c   15.99707791
_cell_angle_alpha   90.00000000
_cell_angle_beta   90.03923274
_cell_angle_gamma   90.00000000
_symmetry_Int_Tables_number   1
_chemical_formula_structural   Cs16Ti3SnSe16
_chemical_formula_sum   'Cs16 Ti3 Sn1 Se16'
_cell_volume   1600.16899704
_cell_formula_units_Z   1
loop_
 _symmetry_equiv_pos_site_id
 _symmetry_equiv_pos_as_xyz
  1  'x, y, z'
loop_
 _atom_site_type_symbol
 _atom_site_label
 _atom_site_symmetry_multiplicity
 _atom_site_fract_x
 _atom_site_fract_y
 _atom_site_fract_z
 _atom_site_occupancy
  Cs  Cs0  1  0.998112  0.999599  0.000497  1
  Cs  Cs1  1  0.500117  0.999495  0.499871  1
  Cs  Cs2  1  0.998112  0.500401  0.000497  1
  Cs  Cs3  1  0.500117  0.500505  0.499871  1
  Cs  Cs4  1  0.990177  0.750000  0.422761  1
  Cs  Cs5  1  0.491362  0.250000  0.078610  1
  Cs  Cs6  1  0.007707  0.250000  0.575950  1
  Cs  Cs7  1  0.512384  0.750000  0.922174  1
  Cs  Cs8  1  0.837923  0.053906  0.276783  1
  Cs  Cs9  1  0.337770  0.945974  0.223119  1
  Cs  Cs10  1  0.162077  0.553772  0.723331  1
  Cs  Cs11  1  0.661970  0.447260  0.775804  1
  Cs  Cs12  1  0.162077  0.946228  0.723331  1
  Cs  Cs13  1  0.661970  0.052740  0.775804  1
  Cs  Cs14  1  0.837923  0.446094  0.276783  1
  Cs  Cs15  1  0.337770  0.554026  0.223119  1
  Ti  Ti16  1  0.761698  0.750000  0.664763  1
  Ti  Ti17  1  0.238353  0.250000  0.334965  1
  Ti  Ti18  1  0.738185  0.750000  0.165177  1
  Sn  Sn19  1  0.263243  0.250000  0.836077  1
  Se  Se20  1  0.982578  0.250000  0.826715  1
  Se  Se21  1  0.502871  0.250000  0.327311  1
  Se  Se22  1  0.497197  0.750000  0.672577  1
  Se  Se23  1  0.002589  0.750000  0.172750  1
  Se  Se24  1  0.655287  0.569671  0.092572  1
  Se  Se25  1  0.155751  0.430533  0.407452  1
  Se  Se26  1  0.350205  0.057914  0.912962  1
  Se  Se27  1  0.844767  0.930228  0.592311  1
  Se  Se28  1  0.350205  0.442086  0.912962  1
  Se  Se29  1  0.844767  0.569772  0.592311  1
  Se  Se30  1  0.655287  0.930329  0.092572  1
  Se  Se31  1  0.155751  0.069467  0.407452  1
  Se  Se32  1  0.637315  0.750000  0.306002  1
  Se  Se33  1  0.137344  0.250000  0.194082  1
  Se  Se34  1  0.366133  0.250000  0.685108  1
  Se  Se35  1  0.862902  0.750000  0.805574  1
