# generated using pymatgen
data_Rb8Li4Ho3ErAs8
_symmetry_space_group_name_H-M   'P 1'
_cell_length_a   10.59440310
_cell_length_b   10.59440316
_cell_length_c   6.83063002
_cell_angle_alpha   90.00623361
_cell_angle_beta   89.99376688
_cell_angle_gamma   99.57555982
_symmetry_Int_Tables_number   1
_chemical_formula_structural   Rb8Li4Ho3ErAs8
_chemical_formula_sum   'Rb8 Li4 Ho3 Er1 As8'
_cell_volume   755.99723792
_cell_formula_units_Z   1
loop_
 _symmetry_equiv_pos_site_id
 _symmetry_equiv_pos_as_xyz
  1  'x, y, z'
loop_
 _atom_site_type_symbol
 _atom_site_label
 _atom_site_symmetry_multiplicity
 _atom_site_fract_x
 _atom_site_fract_y
 _atom_site_fract_z
 _atom_site_occupancy
  Rb  Rb0  1  0.568302  0.931805  0.750035  1
  Rb  Rb1  1  0.931805  0.568302  0.249965  1
  Rb  Rb2  1  0.431818  0.068157  0.249945  1
  Rb  Rb3  1  0.068157  0.431818  0.750055  1
  Rb  Rb4  1  0.677764  0.322261  0.785844  1
  Rb  Rb5  1  0.822257  0.177642  0.285794  1
  Rb  Rb6  1  0.322261  0.677764  0.214156  1
  Rb  Rb7  1  0.177642  0.822257  0.714206  1
  Li  Li8  1  0.618191  0.618191  0.000000  1
  Li  Li9  1  0.881971  0.881971  0.500000  1
  Li  Li10  1  0.381991  0.381991  0.000000  1
  Li  Li11  1  0.117941  0.117941  0.500000  1
  Ho  Ho12  1  0.632097  0.632097  0.500000  1
  Ho  Ho13  1  0.131734  0.131734  0.000000  1
  Ho  Ho14  1  0.368065  0.368065  0.500000  1
  Er  Er15  1  0.868176  0.868176  0.000000  1
  As  As16  1  0.343180  0.156763  0.749966  1
  As  As17  1  0.156763  0.343180  0.250034  1
  As  As18  1  0.657437  0.843172  0.249195  1
  As  As19  1  0.843172  0.657437  0.750805  1
  As  As20  1  0.909511  0.089678  0.765220  1
  As  As21  1  0.590318  0.409773  0.264779  1
  As  As22  1  0.089678  0.909511  0.234780  1
  As  As23  1  0.409773  0.590318  0.735221  1
