# generated using pymatgen
data_Dy2Er4Al24Os7Pt
_symmetry_space_group_name_H-M   'P 1'
_cell_length_a   8.79788725
_cell_length_b   8.78906840
_cell_length_c   9.58726616
_cell_angle_alpha   89.72425119
_cell_angle_beta   90.26996542
_cell_angle_gamma   119.56242519
_symmetry_Int_Tables_number   1
_chemical_formula_structural   Dy2Er4Al24Os7Pt
_chemical_formula_sum   'Dy2 Er4 Al24 Os7 Pt1'
_cell_volume   644.81947962
_cell_formula_units_Z   1
loop_
 _symmetry_equiv_pos_site_id
 _symmetry_equiv_pos_as_xyz
  1  'x, y, z'
loop_
 _atom_site_type_symbol
 _atom_site_label
 _atom_site_symmetry_multiplicity
 _atom_site_fract_x
 _atom_site_fract_y
 _atom_site_fract_z
 _atom_site_occupancy
  Dy  Dy0  1  0.188450  0.386179  0.251804  1
  Dy  Dy1  1  0.811550  0.613821  0.748196  1
  Er  Er2  1  0.610930  0.809924  0.252287  1
  Er  Er3  1  0.389070  0.190076  0.747713  1
  Er  Er4  1  0.195060  0.804990  0.250208  1
  Er  Er5  1  0.804940  0.195010  0.749792  1
  Al  Al6  1  0.331101  0.668875  0.026031  1
  Al  Al7  1  0.668899  0.331125  0.973969  1
  Al  Al8  1  0.667003  0.333147  0.523107  1
  Al  Al9  1  0.332997  0.666853  0.476893  1
  Al  Al10  1  0.165070  0.327432  0.575691  1
  Al  Al11  1  0.834930  0.672568  0.424309  1
  Al  Al12  1  0.672315  0.835038  0.575123  1
  Al  Al13  1  0.840625  0.674806  0.077362  1
  Al  Al14  1  0.327685  0.164962  0.424877  1
  Al  Al15  1  0.159375  0.325194  0.922638  1
  Al  Al16  1  0.164924  0.835509  0.573184  1
  Al  Al17  1  0.325374  0.159328  0.076684  1
  Al  Al18  1  0.835076  0.164491  0.426816  1
  Al  Al19  1  0.674626  0.840672  0.923316  1
  Al  Al20  1  0.835066  0.164356  0.073856  1
  Al  Al21  1  0.164934  0.835644  0.926144  1
  Al  Al22  1  0.560805  0.124129  0.249375  1
  Al  Al23  1  0.439195  0.875871  0.750625  1
  Al  Al24  1  0.875461  0.439140  0.249386  1
  Al  Al25  1  0.124539  0.560860  0.750614  1
  Al  Al26  1  0.562153  0.438027  0.252418  1
  Al  Al27  1  0.437847  0.561973  0.747582  1
  Al  Al28  1  0.997941  0.998756  0.250139  1
  Al  Al29  1  0.002059  0.001244  0.749861  1
  Os  Os30  1  0.500000  0.000000  0.000000  1
  Os  Os31  1  0.000000  0.500000  0.000000  1
  Os  Os32  1  0.500000  0.000000  0.500000  1
  Os  Os33  1  0.000000  0.500000  0.500000  1
  Os  Os34  1  0.500000  0.500000  0.500000  1
  Os  Os35  1  0.000000  0.000000  0.000000  1
  Os  Os36  1  0.000000  0.000000  0.500000  1
  Pt  Pt37  1  0.500000  0.500000  0.000000  1
