# generated using pymatgen
data_SbP4PdO14
_symmetry_space_group_name_H-M   'P 1'
_cell_length_a   8.29800936
_cell_length_b   4.87020792
_cell_length_c   7.08221538
_cell_angle_alpha   72.17003006
_cell_angle_beta   92.51348392
_cell_angle_gamma   91.19914914
_symmetry_Int_Tables_number   1
_chemical_formula_structural   SbP4PdO14
_chemical_formula_sum   'Sb1 P4 Pd1 O14'
_cell_volume   272.19616233
_cell_formula_units_Z   1
loop_
 _symmetry_equiv_pos_site_id
 _symmetry_equiv_pos_as_xyz
  1  'x, y, z'
loop_
 _atom_site_type_symbol
 _atom_site_label
 _atom_site_symmetry_multiplicity
 _atom_site_fract_x
 _atom_site_fract_y
 _atom_site_fract_z
 _atom_site_occupancy
  Sb  Sb0  1  0.052099  0.212126  0.279729  1
  P  P1  1  0.863806  0.605138  0.508197  1
  P  P2  1  0.274150  0.783519  0.098058  1
  P  P3  1  0.779220  0.225942  0.897369  1
  P  P4  1  0.373739  0.394486  0.491576  1
  Pd  Pd5  1  0.555131  0.783030  0.727175  1
  O  O6  1  0.747706  0.947636  0.845133  1
  O  O7  1  0.356608  0.886082  0.906908  1
  O  O8  1  0.008524  0.821089  0.466645  1
  O  O9  1  0.699224  0.735250  0.477787  1
  O  O10  1  0.367582  0.592115  0.621882  1
  O  O11  1  0.630336  0.391787  0.916299  1
  O  O12  1  0.900564  0.426566  0.737261  1
  O  O13  1  0.396181  0.587717  0.263394  1
  O  O14  1  0.116942  0.597368  0.095877  1
  O  O15  1  0.876743  0.391011  0.384638  1
  O  O16  1  0.199976  0.259570  0.496924  1
  O  O17  1  0.508713  0.178174  0.526209  1
  O  O18  1  0.887775  0.135492  0.091011  1
  O  O19  1  0.228192  0.045900  0.167928  1
