# generated using pymatgen
data_AcGe2Ir3
_symmetry_space_group_name_H-M   'P 1'
_cell_length_a   6.94656191
_cell_length_b   6.94656133
_cell_length_c   6.94656165
_cell_angle_alpha   112.79151177
_cell_angle_beta   87.58638140
_cell_angle_gamma   130.89948695
_symmetry_Int_Tables_number   1
_chemical_formula_structural   AcGe2Ir3
_chemical_formula_sum   'Ac2 Ge4 Ir6'
_cell_volume   222.56400423
_cell_formula_units_Z   2
loop_
 _symmetry_equiv_pos_site_id
 _symmetry_equiv_pos_as_xyz
  1  'x, y, z'
loop_
 _atom_site_type_symbol
 _atom_site_label
 _atom_site_symmetry_multiplicity
 _atom_site_fract_x
 _atom_site_fract_y
 _atom_site_fract_z
 _atom_site_occupancy
  Ac  Ac0  1  0.012607  0.762608  0.250000  1
  Ac  Ac1  1  0.987392  0.237391  0.750000  1
  Ge  Ge2  1  0.351223  0.268124  0.083099  1
  Ge  Ge3  1  0.685026  0.268124  0.416902  1
  Ge  Ge4  1  0.314976  0.731877  0.583100  1
  Ge  Ge5  1  0.648778  0.731877  0.916902  1
  Ir  Ir6  1  0.500000  0.000000  0.000000  1
  Ir  Ir7  1  0.000000  0.238470  0.238470  1
  Ir  Ir8  1  0.500001  0.761531  0.261530  1
  Ir  Ir9  1  0.500000  0.500000  0.500001  1
  Ir  Ir10  1  0.500000  0.238470  0.738470  1
  Ir  Ir11  1  0.000000  0.761530  0.761530  1
