# generated using pymatgen
data_NdDy4(In2Pt)2
_symmetry_space_group_name_H-M   'P 1'
_cell_length_a   3.63763500
_cell_length_b   8.18208700
_cell_length_c   18.37396800
_cell_angle_alpha   90.00000000
_cell_angle_beta   90.00000000
_cell_angle_gamma   90.00000000
_symmetry_Int_Tables_number   1
_chemical_formula_structural   NdDy4(In2Pt)2
_chemical_formula_sum   'Nd2 Dy8 In8 Pt4'
_cell_volume   546.87260519
_cell_formula_units_Z   2
loop_
 _symmetry_equiv_pos_site_id
 _symmetry_equiv_pos_as_xyz
  1  'x, y, z'
loop_
 _atom_site_type_symbol
 _atom_site_label
 _atom_site_symmetry_multiplicity
 _atom_site_fract_x
 _atom_site_fract_y
 _atom_site_fract_z
 _atom_site_occupancy
  Nd  Nd0  1  0.000000  0.000000  0.000000  1
  Nd  Nd1  1  0.000000  0.500000  0.500000  1
  Dy  Dy2  1  0.000000  0.118797  0.414430  1
  Dy  Dy3  1  0.000000  0.881203  0.585570  1
  Dy  Dy4  1  0.000000  0.381203  0.914430  1
  Dy  Dy5  1  0.000000  0.618797  0.085570  1
  Dy  Dy6  1  0.000000  0.242553  0.219747  1
  Dy  Dy7  1  0.000000  0.757447  0.780253  1
  Dy  Dy8  1  0.000000  0.257447  0.719747  1
  Dy  Dy9  1  0.000000  0.742553  0.280253  1
  In  In10  1  0.500000  0.422554  0.348782  1
  In  In11  1  0.500000  0.577446  0.651218  1
  In  In12  1  0.500000  0.077446  0.848782  1
  In  In13  1  0.500000  0.922554  0.151218  1
  In  In14  1  0.500000  0.297731  0.068001  1
  In  In15  1  0.500000  0.702269  0.931999  1
  In  In16  1  0.500000  0.202269  0.568001  1
  In  In17  1  0.500000  0.797731  0.431999  1
  Pt  Pt18  1  0.500000  0.024892  0.303585  1
  Pt  Pt19  1  0.500000  0.975108  0.696415  1
  Pt  Pt20  1  0.500000  0.475108  0.803585  1
  Pt  Pt21  1  0.500000  0.524892  0.196415  1
