# generated using pymatgen
data_Y5Er15(Ag3Pd)2
_symmetry_space_group_name_H-M   'P 1'
_cell_length_a   9.44822600
_cell_length_b   9.44822561
_cell_length_c   9.60198800
_cell_angle_alpha   90.00000000
_cell_angle_beta   90.00000000
_cell_angle_gamma   120.03044512
_symmetry_Int_Tables_number   1
_chemical_formula_structural   Y5Er15(Ag3Pd)2
_chemical_formula_sum   'Y5 Er15 Ag6 Pd2'
_cell_volume   742.09413892
_cell_formula_units_Z   1
loop_
 _symmetry_equiv_pos_site_id
 _symmetry_equiv_pos_as_xyz
  1  'x, y, z'
loop_
 _atom_site_type_symbol
 _atom_site_label
 _atom_site_symmetry_multiplicity
 _atom_site_fract_x
 _atom_site_fract_y
 _atom_site_fract_z
 _atom_site_occupancy
  Y  Y0  1  0.542248  0.086308  0.250018  1
  Y  Y1  1  0.913692  0.457752  0.250018  1
  Y  Y2  1  0.457221  0.542779  0.750022  1
  Y  Y3  1  0.457671  0.915124  0.750013  1
  Y  Y4  1  0.084876  0.542329  0.750013  1
  Er  Er5  1  0.000666  0.999334  0.499461  1
  Er  Er6  1  0.000670  0.999330  0.000240  1
  Er  Er7  1  0.207544  0.792456  0.445989  1
  Er  Er8  1  0.207836  0.414524  0.445223  1
  Er  Er9  1  0.585476  0.792164  0.445223  1
  Er  Er10  1  0.792902  0.207098  0.554176  1
  Er  Er11  1  0.791695  0.584696  0.553585  1
  Er  Er12  1  0.415304  0.208305  0.553585  1
  Er  Er13  1  0.792844  0.207156  0.945975  1
  Er  Er14  1  0.791626  0.584644  0.946525  1
  Er  Er15  1  0.415356  0.208374  0.946525  1
  Er  Er16  1  0.207516  0.792484  0.053975  1
  Er  Er17  1  0.207800  0.414415  0.054731  1
  Er  Er18  1  0.585585  0.792200  0.054731  1
  Er  Er19  1  0.542129  0.457871  0.249970  1
  Ag  Ag20  1  0.885326  0.114674  0.249922  1
  Ag  Ag21  1  0.881596  0.768323  0.250078  1
  Ag  Ag22  1  0.231677  0.118404  0.250078  1
  Ag  Ag23  1  0.115133  0.884867  0.750086  1
  Ag  Ag24  1  0.114876  0.229370  0.749983  1
  Ag  Ag25  1  0.770630  0.885124  0.749983  1
  Pd  Pd26  1  0.333203  0.666797  0.249852  1
  Pd  Pd27  1  0.666897  0.333103  0.750022  1
