# generated using pymatgen
data_Er3Tm9Os3Rh
_symmetry_space_group_name_H-M   'P 1'
_cell_length_a   7.31106022
_cell_length_b   8.94547900
_cell_length_c   6.27622904
_cell_angle_alpha   90.00000000
_cell_angle_beta   89.92040430
_cell_angle_gamma   90.00000000
_symmetry_Int_Tables_number   1
_chemical_formula_structural   Er3Tm9Os3Rh
_chemical_formula_sum   'Er3 Tm9 Os3 Rh1'
_cell_volume   410.47085562
_cell_formula_units_Z   1
loop_
 _symmetry_equiv_pos_site_id
 _symmetry_equiv_pos_as_xyz
  1  'x, y, z'
loop_
 _atom_site_type_symbol
 _atom_site_label
 _atom_site_symmetry_multiplicity
 _atom_site_fract_x
 _atom_site_fract_y
 _atom_site_fract_z
 _atom_site_occupancy
  Er  Er0  1  0.038888  0.250000  0.628639  1
  Er  Er1  1  0.961672  0.750000  0.372837  1
  Er  Er2  1  0.539315  0.250000  0.870206  1
  Tm  Tm3  1  0.462235  0.750000  0.129463  1
  Tm  Tm4  1  0.172797  0.060437  0.165668  1
  Tm  Tm5  1  0.824432  0.937144  0.830909  1
  Tm  Tm6  1  0.323272  0.933506  0.672173  1
  Tm  Tm7  1  0.824432  0.562856  0.830909  1
  Tm  Tm8  1  0.678193  0.061187  0.331532  1
  Tm  Tm9  1  0.172797  0.439563  0.165668  1
  Tm  Tm10  1  0.678193  0.438813  0.331532  1
  Tm  Tm11  1  0.323272  0.566494  0.672173  1
  Os  Os12  1  0.615342  0.750000  0.538020  1
  Os  Os13  1  0.116992  0.750000  0.963144  1
  Os  Os14  1  0.883657  0.250000  0.038746  1
  Rh  Rh15  1  0.384510  0.250000  0.458382  1
