# generated using pymatgen
data_Tb7Ho(Er3Pb4)4
_symmetry_space_group_name_H-M   'P 1'
_cell_length_a   8.18178727
_cell_length_b   15.58382054
_cell_length_c   8.25847508
_cell_angle_alpha   89.98851829
_cell_angle_beta   90.01037998
_cell_angle_gamma   90.02774171
_symmetry_Int_Tables_number   1
_chemical_formula_structural   Tb7Ho(Er3Pb4)4
_chemical_formula_sum   'Tb7 Ho1 Er12 Pb16'
_cell_volume   1052.98435228
_cell_formula_units_Z   1
loop_
 _symmetry_equiv_pos_site_id
 _symmetry_equiv_pos_as_xyz
  1  'x, y, z'
loop_
 _atom_site_type_symbol
 _atom_site_label
 _atom_site_symmetry_multiplicity
 _atom_site_fract_x
 _atom_site_fract_y
 _atom_site_fract_z
 _atom_site_occupancy
  Tb  Tb0  1  0.465479  0.599940  0.676992  1
  Tb  Tb1  1  0.965512  0.900105  0.823095  1
  Tb  Tb2  1  0.534498  0.099940  0.323047  1
  Tb  Tb3  1  0.034519  0.400087  0.176921  1
  Tb  Tb4  1  0.534527  0.400047  0.323088  1
  Tb  Tb5  1  0.034496  0.099935  0.176941  1
  Tb  Tb6  1  0.465515  0.900040  0.676977  1
  Ho  Ho7  1  0.965394  0.600012  0.823134  1
  Er  Er8  1  0.623020  0.620691  0.159130  1
  Er  Er9  1  0.122971  0.879278  0.340796  1
  Er  Er10  1  0.377021  0.120707  0.840780  1
  Er  Er11  1  0.877060  0.379433  0.659276  1
  Er  Er12  1  0.377071  0.379338  0.840723  1
  Er  Er13  1  0.877024  0.120704  0.659213  1
  Er  Er14  1  0.622984  0.879286  0.159193  1
  Er  Er15  1  0.122953  0.620675  0.340829  1
  Er  Er16  1  0.791581  0.749915  0.495807  1
  Er  Er17  1  0.291389  0.749892  0.004162  1
  Er  Er18  1  0.208471  0.250052  0.504278  1
  Er  Er19  1  0.708496  0.250046  0.995706  1
  Pb  Pb20  1  0.718521  0.457541  0.966139  1
  Pb  Pb21  1  0.218281  0.042600  0.533669  1
  Pb  Pb22  1  0.281722  0.957372  0.033692  1
  Pb  Pb23  1  0.781875  0.542649  0.466517  1
  Pb  Pb24  1  0.281368  0.542676  0.033413  1
  Pb  Pb25  1  0.781731  0.957366  0.466315  1
  Pb  Pb26  1  0.718295  0.042615  0.966323  1
  Pb  Pb27  1  0.218303  0.457358  0.533664  1
  Pb  Pb28  1  0.428156  0.749982  0.372300  1
  Pb  Pb29  1  0.928193  0.749981  0.127573  1
  Pb  Pb30  1  0.571852  0.249989  0.627692  1
  Pb  Pb31  1  0.071847  0.250004  0.872341  1
  Pb  Pb32  1  0.653803  0.749934  0.847851  1
  Pb  Pb33  1  0.153455  0.749795  0.652419  1
  Pb  Pb34  1  0.346306  0.250003  0.152143  1
  Pb  Pb35  1  0.846314  0.250010  0.347857  1
