# generated using pymatgen
data_NdFe3Sb12Ir
_symmetry_space_group_name_H-M   'P 1'
_cell_length_a   7.97683895
_cell_length_b   7.99581164
_cell_length_c   7.99581181
_cell_angle_alpha   109.51923235
_cell_angle_beta   109.42316487
_cell_angle_gamma   109.42316025
_symmetry_Int_Tables_number   1
_chemical_formula_structural   NdFe3Sb12Ir
_chemical_formula_sum   'Nd1 Fe3 Sb12 Ir1'
_cell_volume   392.81793512
_cell_formula_units_Z   1
loop_
 _symmetry_equiv_pos_site_id
 _symmetry_equiv_pos_as_xyz
  1  'x, y, z'
loop_
 _atom_site_type_symbol
 _atom_site_label
 _atom_site_symmetry_multiplicity
 _atom_site_fract_x
 _atom_site_fract_y
 _atom_site_fract_z
 _atom_site_occupancy
  Nd  Nd0  1  0.000000  0.000000  0.000000  1
  Fe  Fe1  1  0.000000  0.000000  0.500000  1
  Fe  Fe2  1  0.000000  0.500000  0.000000  1
  Fe  Fe3  1  0.500000  0.500000  0.500000  1
  Sb  Sb4  1  0.150803  0.820504  0.654246  1
  Sb  Sb5  1  0.849197  0.179496  0.345754  1
  Sb  Sb6  1  0.669702  0.166259  0.820504  1
  Sb  Sb7  1  0.503443  0.654246  0.833741  1
  Sb  Sb8  1  0.667091  0.837842  0.504388  1
  Sb  Sb9  1  0.496557  0.345754  0.166259  1
  Sb  Sb10  1  0.330298  0.833741  0.179496  1
  Sb  Sb11  1  0.170751  0.333454  0.837842  1
  Sb  Sb12  1  0.829249  0.666546  0.162158  1
  Sb  Sb13  1  0.332909  0.162158  0.495612  1
  Sb  Sb14  1  0.837297  0.504388  0.666546  1
  Sb  Sb15  1  0.162703  0.495612  0.333454  1
  Ir  Ir16  1  0.500000  0.000000  0.000000  1
