# generated using pymatgen
data_Co8Re2Mo11W3C4
_symmetry_space_group_name_H-M   'P 1'
_cell_length_a   8.02660833
_cell_length_b   7.98740104
_cell_length_c   7.98740126
_cell_angle_alpha   59.69249978
_cell_angle_beta   59.83750061
_cell_angle_gamma   59.83750422
_symmetry_Int_Tables_number   1
_chemical_formula_structural   Co8Re2Mo11W3C4
_chemical_formula_sum   'Co8 Re2 Mo11 W3 C4'
_cell_volume   360.36492341
_cell_formula_units_Z   1
loop_
 _symmetry_equiv_pos_site_id
 _symmetry_equiv_pos_as_xyz
  1  'x, y, z'
loop_
 _atom_site_type_symbol
 _atom_site_label
 _atom_site_symmetry_multiplicity
 _atom_site_fract_x
 _atom_site_fract_y
 _atom_site_fract_z
 _atom_site_occupancy
  Co  Co0  1  0.919653  0.240530  0.920164  1
  Co  Co1  1  0.246826  0.918226  0.918226  1
  Co  Co2  1  0.919653  0.920164  0.240530  1
  Co  Co3  1  0.004524  0.331423  0.331423  1
  Co  Co4  1  0.330858  0.009228  0.329054  1
  Co  Co5  1  0.916721  0.918226  0.918226  1
  Co  Co6  1  0.332630  0.331423  0.331423  1
  Co  Co7  1  0.330858  0.329054  0.009228  1
  Re  Re8  1  0.625575  0.124681  0.124681  1
  Re  Re9  1  0.125062  0.124681  0.124681  1
  Mo  Mo10  1  0.564332  0.938148  0.559357  1
  Mo  Mo11  1  0.686497  0.312379  0.689864  1
  Mo  Mo12  1  0.686497  0.689864  0.312379  1
  Mo  Mo13  1  0.311260  0.312379  0.689864  1
  Mo  Mo14  1  0.689666  0.310334  0.310334  1
  Mo  Mo15  1  0.313864  0.686136  0.686136  1
  Mo  Mo16  1  0.936110  0.563890  0.563890  1
  Mo  Mo17  1  0.938163  0.938148  0.559357  1
  Mo  Mo18  1  0.311260  0.689864  0.312379  1
  Mo  Mo19  1  0.564332  0.559357  0.938148  1
  Mo  Mo20  1  0.938163  0.559357  0.938148  1
  W  W21  1  0.124982  0.124905  0.625132  1
  W  W22  1  0.124982  0.625132  0.124905  1
  W  W23  1  0.558805  0.941195  0.941195  1
  C  C24  1  0.624888  0.625302  0.625302  1
  C  C25  1  0.124508  0.625302  0.625302  1
  C  C26  1  0.624665  0.124950  0.625720  1
  C  C27  1  0.624665  0.625720  0.124950  1
