# generated using pymatgen
data_CaTb5PrFeI12
_symmetry_space_group_name_H-M   'P 1'
_cell_length_a   9.87909068
_cell_length_b   9.84575532
_cell_length_c   9.80832010
_cell_angle_alpha   106.74413189
_cell_angle_beta   106.77267220
_cell_angle_gamma   107.22397851
_symmetry_Int_Tables_number   1
_chemical_formula_structural   CaTb5PrFeI12
_chemical_formula_sum   'Ca1 Tb5 Pr1 Fe1 I12'
_cell_volume   796.37444875
_cell_formula_units_Z   1
loop_
 _symmetry_equiv_pos_site_id
 _symmetry_equiv_pos_as_xyz
  1  'x, y, z'
loop_
 _atom_site_type_symbol
 _atom_site_label
 _atom_site_symmetry_multiplicity
 _atom_site_fract_x
 _atom_site_fract_y
 _atom_site_fract_z
 _atom_site_occupancy
  Ca  Ca0  1  0.500554  0.498410  0.502334  1
  Tb  Tb1  1  0.023278  0.092410  0.285868  1
  Tb  Tb2  1  0.301911  0.027431  0.098107  1
  Tb  Tb3  1  0.906839  0.716184  0.975871  1
  Tb  Tb4  1  0.975824  0.905114  0.713260  1
  Tb  Tb5  1  0.697884  0.974292  0.901081  1
  Pr  Pr6  1  0.095806  0.295589  0.023938  1
  Fe  Fe7  1  0.000502  0.002432  0.999391  1
  I  I8  1  0.466553  0.379498  0.156700  1
  I  I9  1  0.151617  0.455396  0.386972  1
  I  I10  1  0.375883  0.148259  0.455116  1
  I  I11  1  0.545393  0.623073  0.851949  1
  I  I12  1  0.851333  0.545713  0.625350  1
  I  I13  1  0.623208  0.847147  0.543394  1
  I  I14  1  0.765346  0.314138  0.923554  1
  I  I15  1  0.927699  0.775670  0.314597  1
  I  I16  1  0.316880  0.926636  0.775466  1
  I  I17  1  0.223392  0.687572  0.072973  1
  I  I18  1  0.068533  0.215501  0.671060  1
  I  I19  1  0.681564  0.069535  0.223020  1
