# generated using pymatgen
data_Ba2FeNi(IO6)2
_symmetry_space_group_name_H-M   'P 1'
_cell_length_a   5.27943800
_cell_length_b   5.27943677
_cell_length_c   11.57778900
_cell_angle_alpha   90.00000000
_cell_angle_beta   90.00000000
_cell_angle_gamma   120.00000774
_symmetry_Int_Tables_number   1
_chemical_formula_structural   Ba2FeNi(IO6)2
_chemical_formula_sum   'Ba2 Fe1 Ni1 I2 O12'
_cell_volume   279.46763185
_cell_formula_units_Z   1
loop_
 _symmetry_equiv_pos_site_id
 _symmetry_equiv_pos_as_xyz
  1  'x, y, z'
loop_
 _atom_site_type_symbol
 _atom_site_label
 _atom_site_symmetry_multiplicity
 _atom_site_fract_x
 _atom_site_fract_y
 _atom_site_fract_z
 _atom_site_occupancy
  Ba  Ba0  1  0.000000  0.000000  0.001269  1
  Ba  Ba1  1  0.000000  0.000000  0.498731  1
  Fe  Fe2  1  0.333333  0.666667  0.750000  1
  Ni  Ni3  1  0.666667  0.333333  0.250000  1
  I  I4  1  0.333333  0.666667  0.250000  1
  I  I5  1  0.666667  0.333333  0.750000  1
  O  O6  1  0.017781  0.395776  0.345037  1
  O  O7  1  0.377995  0.395776  0.154963  1
  O  O8  1  0.624856  0.018679  0.845120  1
  O  O9  1  0.981321  0.606177  0.845120  1
  O  O10  1  0.604224  0.982219  0.154963  1
  O  O11  1  0.393823  0.375144  0.845120  1
  O  O12  1  0.393823  0.018679  0.654880  1
  O  O13  1  0.017781  0.622005  0.154963  1
  O  O14  1  0.604224  0.622005  0.345037  1
  O  O15  1  0.981321  0.375144  0.654880  1
  O  O16  1  0.624856  0.606177  0.654880  1
  O  O17  1  0.377995  0.982219  0.345037  1
