# generated using pymatgen
data_Ca3Cd(PO3)8
_symmetry_space_group_name_H-M   'P 1'
_cell_length_a   7.74307025
_cell_length_b   7.77199410
_cell_length_c   10.69663735
_cell_angle_alpha   66.34878893
_cell_angle_beta   66.38188799
_cell_angle_gamma   70.05653513
_symmetry_Int_Tables_number   1
_chemical_formula_structural   Ca3Cd(PO3)8
_chemical_formula_sum   'Ca3 Cd1 P8 O24'
_cell_volume   527.63025410
_cell_formula_units_Z   1
loop_
 _symmetry_equiv_pos_site_id
 _symmetry_equiv_pos_as_xyz
  1  'x, y, z'
loop_
 _atom_site_type_symbol
 _atom_site_label
 _atom_site_symmetry_multiplicity
 _atom_site_fract_x
 _atom_site_fract_y
 _atom_site_fract_z
 _atom_site_occupancy
  Ca  Ca0  1  0.967285  0.035011  0.248243  1
  Ca  Ca1  1  0.032715  0.964989  0.751757  1
  Ca  Ca2  1  0.500000  0.000000  0.500000  1
  Cd  Cd3  1  0.000000  0.500000  0.000000  1
  P  P4  1  0.280585  0.733370  0.022547  1
  P  P5  1  0.264603  0.718784  0.477725  1
  P  P6  1  0.719415  0.266630  0.977453  1
  P  P7  1  0.735397  0.281216  0.522275  1
  P  P8  1  0.315616  0.311100  0.187601  1
  P  P9  1  0.690947  0.682373  0.310110  1
  P  P10  1  0.684384  0.688900  0.812399  1
  P  P11  1  0.309053  0.317627  0.689890  1
  O  O12  1  0.186441  0.898230  0.080874  1
  O  O13  1  0.100741  0.812619  0.417409  1
  O  O14  1  0.813559  0.101770  0.919126  1
  O  O15  1  0.899259  0.187381  0.582591  1
  O  O16  1  0.197919  0.714425  0.922549  1
  O  O17  1  0.283649  0.803225  0.576109  1
  O  O18  1  0.802081  0.285575  0.077451  1
  O  O19  1  0.716351  0.196775  0.423891  1
  O  O20  1  0.493651  0.263984  0.052806  1
  O  O21  1  0.740300  0.505376  0.444890  1
  O  O22  1  0.506349  0.736016  0.947194  1
  O  O23  1  0.259700  0.494624  0.555110  1
  O  O24  1  0.287781  0.538338  0.156569  1
  O  O25  1  0.461464  0.709495  0.344304  1
  O  O26  1  0.712219  0.461662  0.843431  1
  O  O27  1  0.538536  0.290505  0.655696  1
  O  O28  1  0.360542  0.205938  0.324880  1
  O  O29  1  0.791292  0.637678  0.172580  1
  O  O30  1  0.639458  0.794062  0.675120  1
  O  O31  1  0.208708  0.362322  0.827420  1
  O  O32  1  0.142194  0.279219  0.173104  1
  O  O33  1  0.723693  0.854620  0.324169  1
  O  O34  1  0.857806  0.720781  0.826896  1
  O  O35  1  0.276307  0.145380  0.675831  1
