# generated using pymatgen
data_HoLuCo12SiP6
_symmetry_space_group_name_H-M   'P 1'
_cell_length_a   9.00950300
_cell_length_b   9.00950371
_cell_length_c   3.57515600
_cell_angle_alpha   90.00000000
_cell_angle_beta   90.00000000
_cell_angle_gamma   120.00000108
_symmetry_Int_Tables_number   1
_chemical_formula_structural   HoLuCo12SiP6
_chemical_formula_sum   'Ho1 Lu1 Co12 Si1 P6'
_cell_volume   251.32015924
_cell_formula_units_Z   1
loop_
 _symmetry_equiv_pos_site_id
 _symmetry_equiv_pos_as_xyz
  1  'x, y, z'
loop_
 _atom_site_type_symbol
 _atom_site_label
 _atom_site_symmetry_multiplicity
 _atom_site_fract_x
 _atom_site_fract_y
 _atom_site_fract_z
 _atom_site_occupancy
  Ho  Ho0  1  0.333333  0.666667  0.000000  1
  Lu  Lu1  1  0.666667  0.333333  0.500000  1
  Co  Co2  1  0.122328  0.841031  0.000000  1
  Co  Co3  1  0.385931  0.435882  0.500000  1
  Co  Co4  1  0.718704  0.877672  0.000000  1
  Co  Co5  1  0.564118  0.950048  0.500000  1
  Co  Co6  1  0.231204  0.101093  0.500000  1
  Co  Co7  1  0.869890  0.768796  0.500000  1
  Co  Co8  1  0.898907  0.130110  0.500000  1
  Co  Co9  1  0.938239  0.373475  0.000000  1
  Co  Co10  1  0.626525  0.564766  0.000000  1
  Co  Co11  1  0.435234  0.061761  0.000000  1
  Co  Co12  1  0.049952  0.614069  0.500000  1
  Co  Co13  1  0.158969  0.281296  0.000000  1
  Si  Si14  1  0.000000  0.000000  0.000000  1
  P  P15  1  0.597311  0.709721  0.500000  1
  P  P16  1  0.706262  0.114356  0.000000  1
  P  P17  1  0.885644  0.591907  0.000000  1
  P  P18  1  0.408093  0.293738  0.000000  1
  P  P19  1  0.290279  0.887591  0.500000  1
  P  P20  1  0.112409  0.402689  0.500000  1
