# generated using pymatgen
data_CeTm7(Ta3Ge4)4
_symmetry_space_group_name_H-M   'P 1'
_cell_length_a   6.98205430
_cell_length_b   7.13360286
_cell_length_c   13.50820219
_cell_angle_alpha   90.11661680
_cell_angle_beta   90.06529986
_cell_angle_gamma   90.02481610
_symmetry_Int_Tables_number   1
_chemical_formula_structural   CeTm7(Ta3Ge4)4
_chemical_formula_sum   'Ce1 Tm7 Ta12 Ge16'
_cell_volume   672.80386789
_cell_formula_units_Z   1
loop_
 _symmetry_equiv_pos_site_id
 _symmetry_equiv_pos_as_xyz
  1  'x, y, z'
loop_
 _atom_site_type_symbol
 _atom_site_label
 _atom_site_symmetry_multiplicity
 _atom_site_fract_x
 _atom_site_fract_y
 _atom_site_fract_z
 _atom_site_occupancy
  Ce  Ce0  1  0.496256  0.673024  0.593147  1
  Tm  Tm1  1  0.993724  0.825096  0.907000  1
  Tm  Tm2  1  0.506337  0.325624  0.094086  1
  Tm  Tm3  1  0.006305  0.174398  0.404921  1
  Tm  Tm4  1  0.506053  0.325999  0.405262  1
  Tm  Tm5  1  0.006267  0.174956  0.094046  1
  Tm  Tm6  1  0.493639  0.674576  0.906139  1
  Tm  Tm7  1  0.992774  0.825723  0.593988  1
  Ta  Ta8  1  0.658415  0.167796  0.626953  1
  Ta  Ta9  1  0.157060  0.329850  0.873902  1
  Ta  Ta10  1  0.342081  0.831384  0.126258  1
  Ta  Ta11  1  0.841288  0.667976  0.373639  1
  Ta  Ta12  1  0.341262  0.831659  0.373584  1
  Ta  Ta13  1  0.841474  0.668386  0.126405  1
  Ta  Ta14  1  0.659513  0.168618  0.874498  1
  Ta  Ta15  1  0.159229  0.331947  0.626566  1
  Ta  Ta16  1  0.834128  0.486792  0.750339  1
  Ta  Ta17  1  0.335647  0.011755  0.749724  1
  Ta  Ta18  1  0.163930  0.513635  0.249094  1
  Ta  Ta19  1  0.664294  0.987311  0.249917  1
  Ge  Ge20  1  0.678909  0.963897  0.456561  1
  Ge  Ge21  1  0.178680  0.537803  0.042229  1
  Ge  Ge22  1  0.322402  0.037930  0.958402  1
  Ge  Ge23  1  0.826823  0.457614  0.541350  1
  Ge  Ge24  1  0.319227  0.041747  0.541143  1
  Ge  Ge25  1  0.821382  0.462349  0.958250  1
  Ge  Ge26  1  0.678056  0.961832  0.042042  1
  Ge  Ge27  1  0.176170  0.538623  0.456322  1
  Ge  Ge28  1  0.459235  0.379052  0.751271  1
  Ge  Ge29  1  0.959811  0.119978  0.750149  1
  Ge  Ge30  1  0.540227  0.619441  0.249909  1
  Ge  Ge31  1  0.040516  0.880621  0.249831  1
  Ge  Ge32  1  0.695555  0.858877  0.752324  1
  Ge  Ge33  1  0.191179  0.643361  0.751408  1
  Ge  Ge34  1  0.306333  0.144155  0.249593  1
  Ge  Ge35  1  0.805816  0.356215  0.249751  1
