# generated using pymatgen
data_LiTb5Si24OsRu7
_symmetry_space_group_name_H-M   'P 1'
_cell_length_a   10.12767843
_cell_length_b   10.12767774
_cell_length_c   8.12967900
_cell_angle_alpha   89.99747211
_cell_angle_beta   89.99747716
_cell_angle_gamma   132.63492423
_symmetry_Int_Tables_number   1
_chemical_formula_structural   LiTb5Si24OsRu7
_chemical_formula_sum   'Li1 Tb5 Si24 Os1 Ru7'
_cell_volume   613.45780895
_cell_formula_units_Z   1
loop_
 _symmetry_equiv_pos_site_id
 _symmetry_equiv_pos_as_xyz
  1  'x, y, z'
loop_
 _atom_site_type_symbol
 _atom_site_label
 _atom_site_symmetry_multiplicity
 _atom_site_fract_x
 _atom_site_fract_y
 _atom_site_fract_z
 _atom_site_occupancy
  Li  Li0  1  0.500320  0.499680  0.500000  1
  Tb  Tb1  1  0.000088  0.999912  0.000000  1
  Tb  Tb2  1  0.501227  0.001326  0.749402  1
  Tb  Tb3  1  0.998674  0.498773  0.250598  1
  Tb  Tb4  1  0.497311  0.997408  0.250719  1
  Tb  Tb5  1  0.002592  0.502689  0.749281  1
  Si  Si6  1  0.797457  0.202543  0.500000  1
  Si  Si7  1  0.296634  0.703366  0.000000  1
  Si  Si8  1  0.203195  0.796805  0.500000  1
  Si  Si9  1  0.703293  0.296707  0.000000  1
  Si  Si10  1  0.335886  0.336659  0.827410  1
  Si  Si11  1  0.663341  0.664114  0.172590  1
  Si  Si12  1  0.173138  0.171853  0.336222  1
  Si  Si13  1  0.828147  0.826862  0.663778  1
  Si  Si14  1  0.122970  0.889556  0.728419  1
  Si  Si15  1  0.110444  0.877030  0.271581  1
  Si  Si16  1  0.607322  0.379012  0.233393  1
  Si  Si17  1  0.620988  0.392678  0.766607  1
  Si  Si18  1  0.876221  0.109114  0.270788  1
  Si  Si19  1  0.890886  0.123779  0.729212  1
  Si  Si20  1  0.392240  0.621441  0.765804  1
  Si  Si21  1  0.378559  0.607760  0.234196  1
  Si  Si22  1  0.348008  0.120014  0.506341  1
  Si  Si23  1  0.879986  0.651992  0.493659  1
  Si  Si24  1  0.388076  0.154796  0.005758  1
  Si  Si25  1  0.845204  0.611924  0.994242  1
  Si  Si26  1  0.650026  0.878390  0.491999  1
  Si  Si27  1  0.121610  0.349974  0.508001  1
  Si  Si28  1  0.611854  0.844816  0.994341  1
  Si  Si29  1  0.155184  0.388146  0.005659  1
  Os  Os30  1  0.671634  0.328366  0.500000  1
  Ru  Ru31  1  0.170611  0.829389  0.000000  1
  Ru  Ru32  1  0.328643  0.671357  0.500000  1
  Ru  Ru33  1  0.828929  0.171071  0.000000  1
  Ru  Ru34  1  0.123675  0.123810  0.628126  1
  Ru  Ru35  1  0.876190  0.876325  0.371874  1
  Ru  Ru36  1  0.371419  0.371980  0.123932  1
  Ru  Ru37  1  0.628020  0.628581  0.876068  1
