# generated using pymatgen
data_HfZrBr2
_symmetry_space_group_name_H-M   'P 1'
_cell_length_a   3.50509690
_cell_length_b   3.50509669
_cell_length_c   10.43530958
_cell_angle_alpha   77.44677868
_cell_angle_beta   77.44677924
_cell_angle_gamma   60.56608685
_symmetry_Int_Tables_number   1
_chemical_formula_structural   HfZrBr2
_chemical_formula_sum   'Hf1 Zr1 Br2'
_cell_volume   108.06230724
_cell_formula_units_Z   1
loop_
 _symmetry_equiv_pos_site_id
 _symmetry_equiv_pos_as_xyz
  1  'x, y, z'
loop_
 _atom_site_type_symbol
 _atom_site_label
 _atom_site_symmetry_multiplicity
 _atom_site_fract_x
 _atom_site_fract_y
 _atom_site_fract_z
 _atom_site_occupancy
  Hf  Hf0  1  0.282751  0.282751  0.613917  1
  Zr  Zr1  1  0.716290  0.716290  0.386473  1
  Br  Br2  1  0.866796  0.866796  0.801701  1
  Br  Br3  1  0.134163  0.134163  0.197910  1
