# generated using pymatgen
data_La4CeNi3As4
_symmetry_space_group_name_H-M   'P 1'
_cell_length_a   6.51853900
_cell_length_b   6.51853720
_cell_length_c   18.91429300
_cell_angle_alpha   90.00000000
_cell_angle_beta   90.00000000
_cell_angle_gamma   120.00001422
_symmetry_Int_Tables_number   1
_chemical_formula_structural   La4CeNi3As4
_chemical_formula_sum   'La4 Ce1 Ni3 As4'
_cell_volume   696.01900488
_cell_formula_units_Z   1
loop_
 _symmetry_equiv_pos_site_id
 _symmetry_equiv_pos_as_xyz
  1  'x, y, z'
loop_
 _atom_site_type_symbol
 _atom_site_label
 _atom_site_symmetry_multiplicity
 _atom_site_fract_x
 _atom_site_fract_y
 _atom_site_fract_z
 _atom_site_occupancy
  La  La0  1  0.000000  0.000000  0.265124  1
  La  La1  1  0.000000  0.000000  0.748384  1
  La  La2  1  0.000000  0.000000  0.985614  1
  La  La3  1  0.000000  0.000000  0.500942  1
  Ce  Ce4  1  0.333333  0.666667  0.144889  1
  Ni  Ni5  1  0.666667  0.333333  0.876922  1
  Ni  Ni6  1  0.666667  0.333333  0.625888  1
  Ni  Ni7  1  0.333333  0.666667  0.366698  1
  As  As8  1  0.333333  0.666667  0.625498  1
  As  As9  1  0.666667  0.333333  0.376541  1
  As  As10  1  0.666667  0.333333  0.106913  1
  As  As11  1  0.333333  0.666667  0.876587  1
