# generated using pymatgen
data_Ho3Tm2Tc2C7
_symmetry_space_group_name_H-M   'P 1'
_cell_length_a   8.24680392
_cell_length_b   8.23498804
_cell_length_c   3.41800800
_cell_angle_alpha   90.00000000
_cell_angle_beta   90.00000000
_cell_angle_gamma   122.17589609
_symmetry_Int_Tables_number   1
_chemical_formula_structural   Ho3Tm2Tc2C7
_chemical_formula_sum   'Ho3 Tm2 Tc2 C7'
_cell_volume   196.47451796
_cell_formula_units_Z   1
loop_
 _symmetry_equiv_pos_site_id
 _symmetry_equiv_pos_as_xyz
  1  'x, y, z'
loop_
 _atom_site_type_symbol
 _atom_site_label
 _atom_site_symmetry_multiplicity
 _atom_site_fract_x
 _atom_site_fract_y
 _atom_site_fract_z
 _atom_site_occupancy
  Ho  Ho0  1  0.076729  0.335969  0.500000  1
  Ho  Ho1  1  0.923414  0.663985  0.500000  1
  Ho  Ho2  1  0.663069  0.923927  0.500000  1
  Tm  Tm3  1  0.499568  0.499671  0.000000  1
  Tm  Tm4  1  0.338710  0.077930  0.500000  1
  Tc  Tc5  1  0.712731  0.287005  0.000000  1
  Tc  Tc6  1  0.286556  0.713484  0.000000  1
  C  C7  1  0.623514  0.375944  0.500000  1
  C  C8  1  0.375761  0.623980  0.500000  1
  C  C9  1  0.000520  0.999417  0.000000  1
  C  C10  1  0.171846  0.168521  0.000000  1
  C  C11  1  0.829638  0.830269  0.000000  1
  C  C12  1  0.999512  0.499662  0.000000  1
  C  C13  1  0.498432  0.000237  0.000000  1
