# generated using pymatgen
data_LiDy2TmPt2
_symmetry_space_group_name_H-M   'P 1'
_cell_length_a   4.11772000
_cell_length_b   7.34960700
_cell_length_c   8.87335000
_cell_angle_alpha   90.00000000
_cell_angle_beta   90.00000000
_cell_angle_gamma   90.00000000
_symmetry_Int_Tables_number   1
_chemical_formula_structural   LiDy2TmPt2
_chemical_formula_sum   'Li2 Dy4 Tm2 Pt4'
_cell_volume   268.53972568
_cell_formula_units_Z   2
loop_
 _symmetry_equiv_pos_site_id
 _symmetry_equiv_pos_as_xyz
  1  'x, y, z'
loop_
 _atom_site_type_symbol
 _atom_site_label
 _atom_site_symmetry_multiplicity
 _atom_site_fract_x
 _atom_site_fract_y
 _atom_site_fract_z
 _atom_site_occupancy
  Li  Li0  1  0.250000  0.136797  0.068251  1
  Li  Li1  1  0.750000  0.363203  0.568251  1
  Dy  Dy2  1  0.250000  0.499904  0.822835  1
  Dy  Dy3  1  0.250000  0.055699  0.666357  1
  Dy  Dy4  1  0.750000  0.000096  0.322835  1
  Dy  Dy5  1  0.750000  0.444301  0.166357  1
  Tm  Tm6  1  0.250000  0.644296  0.442477  1
  Tm  Tm7  1  0.750000  0.855704  0.942477  1
  Pt  Pt8  1  0.250000  0.727064  0.121943  1
  Pt  Pt9  1  0.250000  0.266380  0.378137  1
  Pt  Pt10  1  0.750000  0.772936  0.621943  1
  Pt  Pt11  1  0.750000  0.233620  0.878137  1
