# generated using pymatgen
data_Ti4CuGe2Rh9
_symmetry_space_group_name_H-M   'P 1'
_cell_length_a   4.00319100
_cell_length_b   5.39196020
_cell_length_c   10.60967980
_cell_angle_alpha   91.39627838
_cell_angle_beta   90.00000000
_cell_angle_gamma   90.00000000
_symmetry_Int_Tables_number   1
_chemical_formula_structural   Ti4CuGe2Rh9
_chemical_formula_sum   'Ti4 Cu1 Ge2 Rh9'
_cell_volume   228.94243344
_cell_formula_units_Z   1
loop_
 _symmetry_equiv_pos_site_id
 _symmetry_equiv_pos_as_xyz
  1  'x, y, z'
loop_
 _atom_site_type_symbol
 _atom_site_label
 _atom_site_symmetry_multiplicity
 _atom_site_fract_x
 _atom_site_fract_y
 _atom_site_fract_z
 _atom_site_occupancy
  Ti  Ti0  1  0.500000  0.342000  0.139392  1
  Ti  Ti1  1  0.500000  0.681434  0.856782  1
  Ti  Ti2  1  0.500000  0.813456  0.362878  1
  Ti  Ti3  1  0.500000  0.173450  0.642560  1
  Cu  Cu4  1  0.000000  0.070250  0.247929  1
  Ge  Ge5  1  0.000000  0.002360  0.997582  1
  Ge  Ge6  1  0.000000  0.486037  0.499994  1
  Rh  Rh7  1  0.000000  0.986319  0.495188  1
  Rh  Rh8  1  0.000000  0.505175  0.002171  1
  Rh  Rh9  1  0.000000  0.928268  0.755295  1
  Rh  Rh10  1  0.000000  0.573818  0.257182  1
  Rh  Rh11  1  0.000000  0.427428  0.743250  1
  Rh  Rh12  1  0.500000  0.295784  0.385249  1
  Rh  Rh13  1  0.500000  0.687352  0.608179  1
  Rh  Rh14  1  0.500000  0.829695  0.114839  1
  Rh  Rh15  1  0.500000  0.197172  0.891531  1
