# generated using pymatgen
data_YTh2Sc2AlIr3
_symmetry_space_group_name_H-M   'P 1'
_cell_length_a   7.21630355
_cell_length_b   7.32222774
_cell_length_c   4.28784600
_cell_angle_alpha   90.00000000
_cell_angle_beta   90.00000000
_cell_angle_gamma   119.16776024
_symmetry_Int_Tables_number   1
_chemical_formula_structural   YTh2Sc2AlIr3
_chemical_formula_sum   'Y1 Th2 Sc2 Al1 Ir3'
_cell_volume   197.83775161
_cell_formula_units_Z   1
loop_
 _symmetry_equiv_pos_site_id
 _symmetry_equiv_pos_as_xyz
  1  'x, y, z'
loop_
 _atom_site_type_symbol
 _atom_site_label
 _atom_site_symmetry_multiplicity
 _atom_site_fract_x
 _atom_site_fract_y
 _atom_site_fract_z
 _atom_site_occupancy
  Y  Y0  1  0.411816  0.013082  0.500000  1
  Th  Th1  1  0.010147  0.416764  0.500000  1
  Th  Th2  1  0.569966  0.567773  0.500000  1
  Sc  Sc3  1  0.748771  0.004204  0.000000  1
  Sc  Sc4  1  0.018645  0.774925  0.000000  1
  Al  Al5  1  0.239589  0.232383  0.000000  1
  Ir  Ir6  1  0.338141  0.645378  0.000000  1
  Ir  Ir7  1  0.677247  0.350007  0.000000  1
  Ir  Ir8  1  0.985677  0.995484  0.500000  1
