# generated using pymatgen
data_Ce3Hg3PdAu2
_symmetry_space_group_name_H-M   'P 1'
_cell_length_a   8.03906400
_cell_length_b   8.03906294
_cell_length_c   3.88912200
_cell_angle_alpha   90.00000000
_cell_angle_beta   90.00000000
_cell_angle_gamma   119.99999613
_symmetry_Int_Tables_number   1
_chemical_formula_structural   Ce3Hg3PdAu2
_chemical_formula_sum   'Ce3 Hg3 Pd1 Au2'
_cell_volume   217.66727015
_cell_formula_units_Z   1
loop_
 _symmetry_equiv_pos_site_id
 _symmetry_equiv_pos_as_xyz
  1  'x, y, z'
loop_
 _atom_site_type_symbol
 _atom_site_label
 _atom_site_symmetry_multiplicity
 _atom_site_fract_x
 _atom_site_fract_y
 _atom_site_fract_z
 _atom_site_occupancy
  Ce  Ce0  1  0.395751  0.395751  0.500000  1
  Ce  Ce1  1  0.604249  0.000000  0.500000  1
  Ce  Ce2  1  0.000000  0.604249  0.500000  1
  Hg  Hg3  1  0.737905  0.737905  0.000000  1
  Hg  Hg4  1  0.262095  0.000000  0.000000  1
  Hg  Hg5  1  0.000000  0.262095  0.000000  1
  Pd  Pd6  1  0.000000  0.000000  0.500000  1
  Au  Au7  1  0.666667  0.333333  0.000000  1
  Au  Au8  1  0.333333  0.666667  0.000000  1
