# generated using pymatgen
data_Tb16In4Ni3Pt
_symmetry_space_group_name_H-M   'P 1'
_cell_length_a   9.68841183
_cell_length_b   9.68841182
_cell_length_c   9.68841120
_cell_angle_alpha   59.80421781
_cell_angle_beta   59.80422225
_cell_angle_gamma   59.80421546
_symmetry_Int_Tables_number   1
_chemical_formula_structural   Tb16In4Ni3Pt
_chemical_formula_sum   'Tb16 In4 Ni3 Pt1'
_cell_volume   640.18915737
_cell_formula_units_Z   1
loop_
 _symmetry_equiv_pos_site_id
 _symmetry_equiv_pos_as_xyz
  1  'x, y, z'
loop_
 _atom_site_type_symbol
 _atom_site_label
 _atom_site_symmetry_multiplicity
 _atom_site_fract_x
 _atom_site_fract_y
 _atom_site_fract_z
 _atom_site_occupancy
  Tb  Tb0  1  0.346313  0.346313  0.346313  1
  Tb  Tb1  1  0.351448  0.351448  0.951841  1
  Tb  Tb2  1  0.351448  0.951841  0.351448  1
  Tb  Tb3  1  0.951841  0.351448  0.351448  1
  Tb  Tb4  1  0.807097  0.189170  0.189170  1
  Tb  Tb5  1  0.188677  0.811320  0.811320  1
  Tb  Tb6  1  0.189170  0.807097  0.189170  1
  Tb  Tb7  1  0.811320  0.188677  0.811320  1
  Tb  Tb8  1  0.189170  0.189170  0.807097  1
  Tb  Tb9  1  0.811320  0.811320  0.188677  1
  Tb  Tb10  1  0.936030  0.563763  0.563763  1
  Tb  Tb11  1  0.561395  0.938542  0.938542  1
  Tb  Tb12  1  0.563763  0.936030  0.563763  1
  Tb  Tb13  1  0.938542  0.561395  0.938542  1
  Tb  Tb14  1  0.563763  0.563763  0.936030  1
  Tb  Tb15  1  0.938542  0.938542  0.561395  1
  In  In16  1  0.583590  0.583590  0.583590  1
  In  In17  1  0.581306  0.581306  0.254859  1
  In  In18  1  0.581306  0.254859  0.581306  1
  In  In19  1  0.254859  0.581306  0.581306  1
  Ni  Ni20  1  0.141538  0.141538  0.573009  1
  Ni  Ni21  1  0.141538  0.573009  0.141538  1
  Ni  Ni22  1  0.573009  0.141538  0.141538  1
  Pt  Pt23  1  0.143014  0.143014  0.143014  1
