# generated using pymatgen
data_Ho13Er7(Bi2As)4
_symmetry_space_group_name_H-M   'P 1'
_cell_length_a   8.00979601
_cell_length_b   9.10956301
_cell_length_c   12.01612202
_cell_angle_alpha   89.99497598
_cell_angle_beta   89.99507404
_cell_angle_gamma   89.99682060
_symmetry_Int_Tables_number   1
_chemical_formula_structural   Ho13Er7(Bi2As)4
_chemical_formula_sum   'Ho13 Er7 Bi8 As4'
_cell_volume   876.76524505
_cell_formula_units_Z   1
loop_
 _symmetry_equiv_pos_site_id
 _symmetry_equiv_pos_as_xyz
  1  'x, y, z'
loop_
 _atom_site_type_symbol
 _atom_site_label
 _atom_site_symmetry_multiplicity
 _atom_site_fract_x
 _atom_site_fract_y
 _atom_site_fract_z
 _atom_site_occupancy
  Ho  Ho0  1  0.682935  0.556352  0.562897  1
  Ho  Ho1  1  0.156331  0.750011  0.210843  1
  Ho  Ho2  1  0.343645  0.750054  0.710864  1
  Ho  Ho3  1  0.843677  0.250008  0.789157  1
  Ho  Ho4  1  0.656347  0.250011  0.289171  1
  Ho  Ho5  1  0.463698  0.749997  0.999929  1
  Ho  Ho6  1  0.036376  0.750017  0.499905  1
  Ho  Ho7  1  0.536256  0.249982  0.000092  1
  Ho  Ho8  1  0.963743  0.249960  0.500070  1
  Ho  Ho9  1  0.634344  0.750020  0.292666  1
  Ho  Ho10  1  0.865658  0.750047  0.792760  1
  Ho  Ho11  1  0.365626  0.249989  0.707297  1
  Ho  Ho12  1  0.134354  0.250007  0.207280  1
  Er  Er13  1  0.817177  0.556487  0.062912  1
  Er  Er14  1  0.682794  0.943537  0.562916  1
  Er  Er15  1  0.182815  0.056575  0.937108  1
  Er  Er16  1  0.317176  0.443482  0.437086  1
  Er  Er17  1  0.182844  0.443437  0.937111  1
  Er  Er18  1  0.317176  0.056500  0.437118  1
  Er  Er19  1  0.817200  0.943518  0.062920  1
  Bi  Bi20  1  0.925551  0.510007  0.326764  1
  Bi  Bi21  1  0.574440  0.990012  0.826818  1
  Bi  Bi22  1  0.074461  0.010014  0.673181  1
  Bi  Bi23  1  0.425545  0.490002  0.173174  1
  Bi  Bi24  1  0.074457  0.490027  0.673201  1
  Bi  Bi25  1  0.425544  0.010010  0.173183  1
  Bi  Bi26  1  0.925575  0.990039  0.326808  1
  Bi  Bi27  1  0.574421  0.510015  0.826865  1
  As  As28  1  0.412728  0.750152  0.478461  1
  As  As29  1  0.087188  0.750012  0.978502  1
  As  As30  1  0.587068  0.249727  0.521432  1
  As  As31  1  0.912852  0.249995  0.021510  1
