# generated using pymatgen
data_TbY3Al18(PtRh2)2
_symmetry_space_group_name_H-M   'P 1'
_cell_length_a   7.58761216
_cell_length_b   7.58786197
_cell_length_c   9.47988350
_cell_angle_alpha   89.98226400
_cell_angle_beta   89.97824648
_cell_angle_gamma   119.57939342
_symmetry_Int_Tables_number   1
_chemical_formula_structural   TbY3Al18(PtRh2)2
_chemical_formula_sum   'Tb1 Y3 Al18 Pt2 Rh4'
_cell_volume   474.66060859
_cell_formula_units_Z   1
loop_
 _symmetry_equiv_pos_site_id
 _symmetry_equiv_pos_as_xyz
  1  'x, y, z'
loop_
 _atom_site_type_symbol
 _atom_site_label
 _atom_site_symmetry_multiplicity
 _atom_site_fract_x
 _atom_site_fract_y
 _atom_site_fract_z
 _atom_site_occupancy
  Tb  Tb0  1  0.995157  0.669883  0.250061  1
  Y  Y1  1  0.004878  0.330086  0.749879  1
  Y  Y2  1  0.669919  0.995167  0.250118  1
  Y  Y3  1  0.330085  0.004890  0.749881  1
  Al  Al4  1  0.126647  0.126653  0.251128  1
  Al  Al5  1  0.873420  0.873429  0.748873  1
  Al  Al6  1  0.000851  0.330711  0.077632  1
  Al  Al7  1  0.999149  0.669258  0.922316  1
  Al  Al8  1  0.000344  0.665290  0.574197  1
  Al  Al9  1  0.334768  0.999704  0.425883  1
  Al  Al10  1  0.999657  0.334665  0.425886  1
  Al  Al11  1  0.665288  0.000352  0.574161  1
  Al  Al12  1  0.669260  0.999158  0.922352  1
  Al  Al13  1  0.330796  0.000899  0.077630  1
  Al  Al14  1  0.331946  0.331955  0.550812  1
  Al  Al15  1  0.668001  0.668040  0.449243  1
  Al  Al16  1  0.669617  0.669660  0.055752  1
  Al  Al17  1  0.330338  0.330337  0.944208  1
  Al  Al18  1  0.340231  0.546876  0.254140  1
  Al  Al19  1  0.659757  0.453045  0.745865  1
  Al  Al20  1  0.546868  0.340230  0.254138  1
  Al  Al21  1  0.453063  0.659766  0.745863  1
  Pt  Pt22  1  0.672040  0.327913  0.999989  1
  Pt  Pt23  1  0.327952  0.672056  0.999995  1
  Rh  Rh24  1  0.327987  0.672034  0.500008  1
  Rh  Rh25  1  0.671998  0.327925  0.500010  1
  Rh  Rh26  1  0.999987  0.000027  0.999983  1
  Rh  Rh27  1  0.999996  0.999989  0.499996  1
