# generated using pymatgen
data_Lu5Th5(Si3C)2
_symmetry_space_group_name_H-M   'P 1'
_cell_length_a   8.61430130
_cell_length_b   8.62519750
_cell_length_c   6.30420000
_cell_angle_alpha   90.00000000
_cell_angle_beta   90.00000000
_cell_angle_gamma   120.04185153
_symmetry_Int_Tables_number   1
_chemical_formula_structural   Lu5Th5(Si3C)2
_chemical_formula_sum   'Lu5 Th5 Si6 C2'
_cell_volume   405.47717634
_cell_formula_units_Z   1
loop_
 _symmetry_equiv_pos_site_id
 _symmetry_equiv_pos_as_xyz
  1  'x, y, z'
loop_
 _atom_site_type_symbol
 _atom_site_label
 _atom_site_symmetry_multiplicity
 _atom_site_fract_x
 _atom_site_fract_y
 _atom_site_fract_z
 _atom_site_occupancy
  Lu  Lu0  1  0.668338  0.335257  0.500514  1
  Lu  Lu1  1  0.331662  0.666920  0.500514  1
  Lu  Lu2  1  0.331662  0.666920  0.999486  1
  Lu  Lu3  1  0.668338  0.335257  0.999486  1
  Lu  Lu4  1  0.000000  0.774051  0.750000  1
  Th  Th5  1  0.766838  0.764157  0.250000  1
  Th  Th6  1  0.233162  0.997320  0.250000  1
  Th  Th7  1  0.000000  0.233387  0.250000  1
  Th  Th8  1  0.234764  0.234024  0.750000  1
  Th  Th9  1  0.765236  0.999260  0.750000  1
  Si  Si10  1  0.403181  0.401019  0.250000  1
  Si  Si11  1  0.596819  0.997838  0.250000  1
  Si  Si12  1  0.000000  0.594098  0.250000  1
  Si  Si13  1  0.603192  0.598101  0.750000  1
  Si  Si14  1  0.396808  0.994909  0.750000  1
  Si  Si15  1  0.000000  0.410334  0.750000  1
  C  C16  1  0.000000  0.998574  0.500944  1
  C  C17  1  0.000000  0.998574  0.999056  1
