# generated using pymatgen
data_La20Ge8Ru3Rh
_symmetry_space_group_name_H-M   'P 1'
_cell_length_a   8.18925723
_cell_length_b   9.03036300
_cell_length_c   12.53048310
_cell_angle_alpha   90.00000000
_cell_angle_beta   89.75026823
_cell_angle_gamma   90.00000000
_symmetry_Int_Tables_number   1
_chemical_formula_structural   La20Ge8Ru3Rh
_chemical_formula_sum   'La20 Ge8 Ru3 Rh1'
_cell_volume   926.64505090
_cell_formula_units_Z   1
loop_
 _symmetry_equiv_pos_site_id
 _symmetry_equiv_pos_as_xyz
  1  'x, y, z'
loop_
 _atom_site_type_symbol
 _atom_site_label
 _atom_site_symmetry_multiplicity
 _atom_site_fract_x
 _atom_site_fract_y
 _atom_site_fract_z
 _atom_site_occupancy
  La  La0  1  0.679704  0.468731  0.071735  1
  La  La1  1  0.180278  0.530008  0.427343  1
  La  La2  1  0.320105  0.969084  0.928390  1
  La  La3  1  0.818189  0.034694  0.573284  1
  La  La4  1  0.320105  0.530916  0.928390  1
  La  La5  1  0.818189  0.465306  0.573284  1
  La  La6  1  0.679704  0.031269  0.071735  1
  La  La7  1  0.180278  0.969992  0.427343  1
  La  La8  1  0.958983  0.750000  0.999565  1
  La  La9  1  0.458300  0.250000  0.500206  1
  La  La10  1  0.041695  0.250000  0.999584  1
  La  La11  1  0.540488  0.750000  0.500412  1
  La  La12  1  0.356893  0.750000  0.203146  1
  La  La13  1  0.856914  0.250000  0.296918  1
  La  La14  1  0.642314  0.250000  0.797418  1
  La  La15  1  0.147446  0.750000  0.705430  1
  La  La16  1  0.831779  0.750000  0.284346  1
  La  La17  1  0.332903  0.250000  0.211957  1
  La  La18  1  0.166145  0.250000  0.712642  1
  La  La19  1  0.666597  0.750000  0.788433  1
  Ge  Ge20  1  0.563242  0.494306  0.328881  1
  Ge  Ge21  1  0.062978  0.505875  0.170850  1
  Ge  Ge22  1  0.437283  0.993933  0.671289  1
  Ge  Ge23  1  0.936904  0.005558  0.828632  1
  Ge  Ge24  1  0.437283  0.506067  0.671289  1
  Ge  Ge25  1  0.936904  0.494442  0.828632  1
  Ge  Ge26  1  0.563242  0.005694  0.328881  1
  Ge  Ge27  1  0.062978  0.994125  0.170850  1
  Ru  Ru28  1  0.579435  0.750000  0.019910  1
  Ru  Ru29  1  0.078432  0.250000  0.480472  1
  Ru  Ru30  1  0.420863  0.250000  0.980012  1
  Rh  Rh31  1  0.923450  0.750000  0.518740  1
