# generated using pymatgen
data_La3Mg(Cu4P3)2
_symmetry_space_group_name_H-M   'P 1'
_cell_length_a   3.97660400
_cell_length_b   11.32198500
_cell_length_c   13.00062300
_cell_angle_alpha   90.00000000
_cell_angle_beta   90.00000000
_cell_angle_gamma   90.00000000
_symmetry_Int_Tables_number   1
_chemical_formula_structural   La3Mg(Cu4P3)2
_chemical_formula_sum   'La6 Mg2 Cu16 P12'
_cell_volume   585.32771027
_cell_formula_units_Z   2
loop_
 _symmetry_equiv_pos_site_id
 _symmetry_equiv_pos_as_xyz
  1  'x, y, z'
loop_
 _atom_site_type_symbol
 _atom_site_label
 _atom_site_symmetry_multiplicity
 _atom_site_fract_x
 _atom_site_fract_y
 _atom_site_fract_z
 _atom_site_occupancy
  La  La0  1  0.000000  0.500000  0.523253  1
  La  La1  1  0.500000  0.000000  0.476747  1
  La  La2  1  0.500000  0.818714  0.203359  1
  La  La3  1  0.500000  0.181286  0.203359  1
  La  La4  1  0.000000  0.681286  0.796641  1
  La  La5  1  0.000000  0.318714  0.796641  1
  Mg  Mg6  1  0.500000  0.500000  0.151435  1
  Mg  Mg7  1  0.000000  0.000000  0.848565  1
  Cu  Cu8  1  0.500000  0.500000  0.702203  1
  Cu  Cu9  1  0.000000  0.000000  0.297797  1
  Cu  Cu10  1  0.000000  0.500000  0.987621  1
  Cu  Cu11  1  0.500000  0.000000  0.012379  1
  Cu  Cu12  1  0.500000  0.334515  0.995609  1
  Cu  Cu13  1  0.500000  0.665485  0.995609  1
  Cu  Cu14  1  0.000000  0.165485  0.004391  1
  Cu  Cu15  1  0.000000  0.834515  0.004391  1
  Cu  Cu16  1  0.500000  0.295815  0.430300  1
  Cu  Cu17  1  0.500000  0.704185  0.430300  1
  Cu  Cu18  1  0.000000  0.204185  0.569700  1
  Cu  Cu19  1  0.000000  0.795815  0.569700  1
  Cu  Cu20  1  0.500000  0.881948  0.705250  1
  Cu  Cu21  1  0.500000  0.118052  0.705250  1
  Cu  Cu22  1  0.000000  0.618052  0.294750  1
  Cu  Cu23  1  0.000000  0.381948  0.294750  1
  P  P24  1  0.500000  0.500000  0.879504  1
  P  P25  1  0.000000  0.000000  0.120496  1
  P  P26  1  0.500000  0.500000  0.349827  1
  P  P27  1  0.000000  0.000000  0.650173  1
  P  P28  1  0.500000  0.315800  0.616342  1
  P  P29  1  0.500000  0.684200  0.616342  1
  P  P30  1  0.000000  0.184200  0.383658  1
  P  P31  1  0.000000  0.815800  0.383658  1
  P  P32  1  0.500000  0.841505  0.892781  1
  P  P33  1  0.500000  0.158495  0.892781  1
  P  P34  1  0.000000  0.658495  0.107219  1
  P  P35  1  0.000000  0.341505  0.107219  1
