# generated using pymatgen
data_Zr8In4PtRhAu6
_symmetry_space_group_name_H-M   'P 1'
_cell_length_a   7.59842134
_cell_length_b   7.59842126
_cell_length_c   7.10788210
_cell_angle_alpha   90.23674126
_cell_angle_beta   90.23673768
_cell_angle_gamma   90.40151638
_symmetry_Int_Tables_number   1
_chemical_formula_structural   Zr8In4PtRhAu6
_chemical_formula_sum   'Zr8 In4 Pt1 Rh1 Au6'
_cell_volume   410.36359275
_cell_formula_units_Z   1
loop_
 _symmetry_equiv_pos_site_id
 _symmetry_equiv_pos_as_xyz
  1  'x, y, z'
loop_
 _atom_site_type_symbol
 _atom_site_label
 _atom_site_symmetry_multiplicity
 _atom_site_fract_x
 _atom_site_fract_y
 _atom_site_fract_z
 _atom_site_occupancy
  Zr  Zr0  1  0.149010  0.149010  0.008226  1
  Zr  Zr1  1  0.848255  0.848255  0.990023  1
  Zr  Zr2  1  0.645014  0.357441  0.502755  1
  Zr  Zr3  1  0.357441  0.645014  0.502755  1
  Zr  Zr4  1  0.687167  0.314977  0.998579  1
  Zr  Zr5  1  0.314977  0.687167  0.998579  1
  Zr  Zr6  1  0.800182  0.800182  0.508695  1
  Zr  Zr7  1  0.197878  0.197878  0.495245  1
  In  In8  1  0.500883  0.005070  0.247554  1
  In  In9  1  0.499896  0.992718  0.752740  1
  In  In10  1  0.005070  0.500883  0.247554  1
  In  In11  1  0.992718  0.499896  0.752740  1
  Pt  Pt12  1  0.371276  0.371276  0.214640  1
  Rh  Rh13  1  0.630002  0.630002  0.781554  1
  Au  Au14  1  0.632352  0.632352  0.202552  1
  Au  Au15  1  0.870658  0.131106  0.707458  1
  Au  Au16  1  0.868246  0.129397  0.292158  1
  Au  Au17  1  0.368474  0.368474  0.796575  1
  Au  Au18  1  0.129397  0.868246  0.292158  1
  Au  Au19  1  0.131106  0.870658  0.707458  1
