# generated using pymatgen
data_MgCd(In5Ir2)2
_symmetry_space_group_name_H-M   'P 1'
_cell_length_a   7.12089857
_cell_length_b   7.13283505
_cell_length_c   7.23625300
_cell_angle_alpha   90.00000000
_cell_angle_beta   90.00000000
_cell_angle_gamma   89.76139744
_symmetry_Int_Tables_number   1
_chemical_formula_structural   MgCd(In5Ir2)2
_chemical_formula_sum   'Mg1 Cd1 In10 Ir4'
_cell_volume   367.54198607
_cell_formula_units_Z   1
loop_
 _symmetry_equiv_pos_site_id
 _symmetry_equiv_pos_as_xyz
  1  'x, y, z'
loop_
 _atom_site_type_symbol
 _atom_site_label
 _atom_site_symmetry_multiplicity
 _atom_site_fract_x
 _atom_site_fract_y
 _atom_site_fract_z
 _atom_site_occupancy
  Mg  Mg0  1  0.000000  0.500000  0.000000  1
  Cd  Cd1  1  0.500000  0.000000  0.000000  1
  In  In2  1  0.345058  0.347346  0.254373  1
  In  In3  1  0.158905  0.840111  0.770775  1
  In  In4  1  0.158905  0.840111  0.229225  1
  In  In5  1  0.841095  0.159889  0.229225  1
  In  In6  1  0.841095  0.159889  0.770775  1
  In  In7  1  0.654942  0.652654  0.254373  1
  In  In8  1  0.654942  0.652654  0.745627  1
  In  In9  1  0.000000  0.500000  0.500000  1
  In  In10  1  0.345058  0.347346  0.745627  1
  In  In11  1  0.500000  0.000000  0.500000  1
  Ir  Ir12  1  0.148086  0.156353  0.000000  1
  Ir  Ir13  1  0.656032  0.341798  0.500000  1
  Ir  Ir14  1  0.343968  0.658202  0.500000  1
  Ir  Ir15  1  0.851914  0.843647  0.000000  1
