# generated using pymatgen
data_DyEr8Th3Ru4
_symmetry_space_group_name_H-M   'P 1'
_cell_length_a   6.31157508
_cell_length_b   7.20770329
_cell_length_c   9.45634300
_cell_angle_alpha   90.00000000
_cell_angle_beta   90.00000000
_cell_angle_gamma   90.58784529
_symmetry_Int_Tables_number   1
_chemical_formula_structural   DyEr8Th3Ru4
_chemical_formula_sum   'Dy1 Er8 Th3 Ru4'
_cell_volume   430.16494034
_cell_formula_units_Z   1
loop_
 _symmetry_equiv_pos_site_id
 _symmetry_equiv_pos_as_xyz
  1  'x, y, z'
loop_
 _atom_site_type_symbol
 _atom_site_label
 _atom_site_symmetry_multiplicity
 _atom_site_fract_x
 _atom_site_fract_y
 _atom_site_fract_z
 _atom_site_occupancy
  Dy  Dy0  1  0.362662  0.963653  0.750000  1
  Er  Er1  1  0.334897  0.677504  0.063881  1
  Er  Er2  1  0.164698  0.175616  0.435504  1
  Er  Er3  1  0.667319  0.323479  0.566839  1
  Er  Er4  1  0.829768  0.823444  0.931628  1
  Er  Er5  1  0.667319  0.323479  0.933161  1
  Er  Er6  1  0.829768  0.823444  0.568372  1
  Er  Er7  1  0.334897  0.677504  0.436119  1
  Er  Er8  1  0.164698  0.175616  0.064496  1
  Th  Th9  1  0.851852  0.547024  0.250000  1
  Th  Th10  1  0.645691  0.045091  0.250000  1
  Th  Th11  1  0.149090  0.453894  0.750000  1
  Ru  Ru12  1  0.036144  0.871210  0.250000  1
  Ru  Ru13  1  0.465731  0.369763  0.250000  1
  Ru  Ru14  1  0.961022  0.132093  0.750000  1
  Ru  Ru15  1  0.534445  0.617185  0.750000  1
