# generated using pymatgen
data_LiTa11(BOs)12
_symmetry_space_group_name_H-M   'P 1'
_cell_length_a   3.11740200
_cell_length_b   9.06104653
_cell_length_c   15.80981633
_cell_angle_alpha   89.77031914
_cell_angle_beta   90.00000000
_cell_angle_gamma   90.00000000
_symmetry_Int_Tables_number   1
_chemical_formula_structural   LiTa11(BOs)12
_chemical_formula_sum   'Li1 Ta11 B12 Os12'
_cell_volume   446.57510126
_cell_formula_units_Z   1
loop_
 _symmetry_equiv_pos_site_id
 _symmetry_equiv_pos_as_xyz
  1  'x, y, z'
loop_
 _atom_site_type_symbol
 _atom_site_label
 _atom_site_symmetry_multiplicity
 _atom_site_fract_x
 _atom_site_fract_y
 _atom_site_fract_z
 _atom_site_occupancy
  Li  Li0  1  0.000000  0.818060  0.707029  1
  Ta  Ta1  1  0.000000  0.798487  0.497341  1
  Ta  Ta2  1  0.000000  0.192932  0.506983  1
  Ta  Ta3  1  0.000000  0.301088  0.003560  1
  Ta  Ta4  1  0.000000  0.700390  0.992968  1
  Ta  Ta5  1  0.000000  0.515682  0.595418  1
  Ta  Ta6  1  0.000000  0.481654  0.407155  1
  Ta  Ta7  1  0.000000  0.014877  0.904755  1
  Ta  Ta8  1  0.000000  0.984601  0.093474  1
  Ta  Ta9  1  0.000000  0.686997  0.203058  1
  Ta  Ta10  1  0.000000  0.319965  0.793325  1
  Ta  Ta11  1  0.000000  0.187190  0.297490  1
  B  B12  1  0.500000  0.603803  0.496520  1
  B  B13  1  0.500000  0.391952  0.503812  1
  B  B14  1  0.500000  0.106218  0.002928  1
  B  B15  1  0.500000  0.895355  0.996801  1
  B  B16  1  0.000000  0.618632  0.826892  1
  B  B17  1  0.000000  0.391214  0.166978  1
  B  B18  1  0.000000  0.098423  0.668314  1
  B  B19  1  0.000000  0.888945  0.332993  1
  B  B20  1  0.500000  0.715319  0.600907  1
  B  B21  1  0.500000  0.282539  0.402872  1
  B  B22  1  0.500000  0.216207  0.900058  1
  B  B23  1  0.500000  0.783679  0.097830  1
  Os  Os24  1  0.500000  0.717443  0.356212  1
  Os  Os25  1  0.500000  0.280007  0.642319  1
  Os  Os26  1  0.500000  0.218815  0.143552  1
  Os  Os27  1  0.500000  0.782217  0.859381  1
  Os  Os28  1  0.500000  0.516839  0.094578  1
  Os  Os29  1  0.500000  0.482762  0.905796  1
  Os  Os30  1  0.500000  0.016049  0.403183  1
  Os  Os31  1  0.500000  0.983245  0.593384  1
  Os  Os32  1  0.500000  0.560837  0.734112  1
  Os  Os33  1  0.500000  0.436866  0.265919  1
  Os  Os34  1  0.500000  0.074488  0.768900  1
  Os  Os35  1  0.500000  0.936223  0.233202  1
