# generated using pymatgen
data_Hf3Zr3Sn2(Rh2N)2
_symmetry_space_group_name_H-M   'P 1'
_cell_length_a   8.71276094
_cell_length_b   8.71276066
_cell_length_c   8.71276100
_cell_angle_alpha   59.99999490
_cell_angle_beta   59.99999596
_cell_angle_gamma   59.99999844
_symmetry_Int_Tables_number   1
_chemical_formula_structural   Hf3Zr3Sn2(Rh2N)2
_chemical_formula_sum   'Hf6 Zr6 Sn4 Rh8 N4'
_cell_volume   467.68382486
_cell_formula_units_Z   2
loop_
 _symmetry_equiv_pos_site_id
 _symmetry_equiv_pos_as_xyz
  1  'x, y, z'
loop_
 _atom_site_type_symbol
 _atom_site_label
 _atom_site_symmetry_multiplicity
 _atom_site_fract_x
 _atom_site_fract_y
 _atom_site_fract_z
 _atom_site_occupancy
  Hf  Hf0  1  0.816079  0.816079  0.183921  1
  Hf  Hf1  1  0.183921  0.183921  0.816079  1
  Hf  Hf2  1  0.816079  0.183921  0.816079  1
  Hf  Hf3  1  0.183921  0.816079  0.183921  1
  Hf  Hf4  1  0.183921  0.816079  0.816079  1
  Hf  Hf5  1  0.816079  0.183921  0.183921  1
  Zr  Zr6  1  0.436706  0.436706  0.063294  1
  Zr  Zr7  1  0.063294  0.063294  0.436706  1
  Zr  Zr8  1  0.436706  0.063294  0.436706  1
  Zr  Zr9  1  0.063294  0.436706  0.063294  1
  Zr  Zr10  1  0.063294  0.436706  0.436706  1
  Zr  Zr11  1  0.436706  0.063294  0.063294  1
  Sn  Sn12  1  0.124316  0.625228  0.625228  1
  Sn  Sn13  1  0.625228  0.124316  0.625228  1
  Sn  Sn14  1  0.625228  0.625228  0.124316  1
  Sn  Sn15  1  0.625228  0.625228  0.625228  1
  Rh  Rh16  1  0.772560  0.409146  0.409146  1
  Rh  Rh17  1  0.409146  0.772560  0.409146  1
  Rh  Rh18  1  0.409146  0.409146  0.772560  1
  Rh  Rh19  1  0.409146  0.409146  0.409146  1
  Rh  Rh20  1  0.473412  0.842196  0.842196  1
  Rh  Rh21  1  0.842196  0.473412  0.842196  1
  Rh  Rh22  1  0.842196  0.842196  0.473412  1
  Rh  Rh23  1  0.842196  0.842196  0.842196  1
  N  N24  1  0.631272  0.122909  0.122909  1
  N  N25  1  0.122909  0.631272  0.122909  1
  N  N26  1  0.122909  0.122909  0.631272  1
  N  N27  1  0.122909  0.122909  0.122909  1
