# generated using pymatgen
data_Ho3Er5(HgIr)2
_symmetry_space_group_name_H-M   'P 1'
_cell_length_a   9.54395210
_cell_length_b   9.54395196
_cell_length_c   9.54395100
_cell_angle_alpha   59.99999987
_cell_angle_beta   60.00000035
_cell_angle_gamma   59.99999776
_symmetry_Int_Tables_number   1
_chemical_formula_structural   Ho3Er5(HgIr)2
_chemical_formula_sum   'Ho6 Er10 Hg4 Ir4'
_cell_volume   614.70917058
_cell_formula_units_Z   2
loop_
 _symmetry_equiv_pos_site_id
 _symmetry_equiv_pos_as_xyz
  1  'x, y, z'
loop_
 _atom_site_type_symbol
 _atom_site_label
 _atom_site_symmetry_multiplicity
 _atom_site_fract_x
 _atom_site_fract_y
 _atom_site_fract_z
 _atom_site_occupancy
  Ho  Ho0  1  0.188350  0.811650  0.811650  1
  Ho  Ho1  1  0.811650  0.188350  0.188350  1
  Ho  Ho2  1  0.811650  0.188350  0.811650  1
  Ho  Ho3  1  0.188350  0.811650  0.188350  1
  Ho  Ho4  1  0.811650  0.811650  0.188350  1
  Ho  Ho5  1  0.188350  0.188350  0.811650  1
  Er  Er6  1  0.600332  0.600332  0.600332  1
  Er  Er7  1  0.600332  0.600332  0.199005  1
  Er  Er8  1  0.600332  0.199005  0.600332  1
  Er  Er9  1  0.199005  0.600332  0.600332  1
  Er  Er10  1  0.060489  0.439511  0.439511  1
  Er  Er11  1  0.439511  0.060489  0.060489  1
  Er  Er12  1  0.439511  0.060489  0.439511  1
  Er  Er13  1  0.060489  0.439511  0.060489  1
  Er  Er14  1  0.439511  0.439511  0.060489  1
  Er  Er15  1  0.060489  0.060489  0.439511  1
  Hg  Hg16  1  0.834222  0.834222  0.834222  1
  Hg  Hg17  1  0.834222  0.834222  0.497335  1
  Hg  Hg18  1  0.834222  0.497335  0.834222  1
  Hg  Hg19  1  0.497335  0.834222  0.834222  1
  Ir  Ir20  1  0.392081  0.392081  0.392081  1
  Ir  Ir21  1  0.392081  0.392081  0.823759  1
  Ir  Ir22  1  0.392081  0.823759  0.392081  1
  Ir  Ir23  1  0.823759  0.392081  0.392081  1
