# generated using pymatgen
data_Sm8ZnSiI12
_symmetry_space_group_name_H-M   'P 1'
_cell_length_a   4.27157100
_cell_length_b   14.37052907
_cell_length_c   15.11449986
_cell_angle_alpha   89.84511419
_cell_angle_beta   90.00000000
_cell_angle_gamma   90.00000000
_symmetry_Int_Tables_number   1
_chemical_formula_structural   Sm8ZnSiI12
_chemical_formula_sum   'Sm8 Zn1 Si1 I12'
_cell_volume   927.79618241
_cell_formula_units_Z   1
loop_
 _symmetry_equiv_pos_site_id
 _symmetry_equiv_pos_as_xyz
  1  'x, y, z'
loop_
 _atom_site_type_symbol
 _atom_site_label
 _atom_site_symmetry_multiplicity
 _atom_site_fract_x
 _atom_site_fract_y
 _atom_site_fract_z
 _atom_site_occupancy
  Sm  Sm0  1  0.500000  0.115793  0.345052  1
  Sm  Sm1  1  0.500000  0.884207  0.654948  1
  Sm  Sm2  1  0.500000  0.613524  0.152578  1
  Sm  Sm3  1  0.500000  0.386476  0.847422  1
  Sm  Sm4  1  0.000000  0.116792  0.578574  1
  Sm  Sm5  1  0.000000  0.883208  0.421426  1
  Sm  Sm6  1  0.000000  0.612094  0.924755  1
  Sm  Sm7  1  0.000000  0.387906  0.075245  1
  Zn  Zn8  1  0.500000  0.000000  0.500000  1
  Si  Si9  1  0.500000  0.500000  0.000000  1
  I  I10  1  0.500000  0.245862  0.162444  1
  I  I11  1  0.500000  0.754138  0.837556  1
  I  I12  1  0.500000  0.744108  0.335498  1
  I  I13  1  0.500000  0.255892  0.664502  1
  I  I14  1  0.000000  0.260889  0.414536  1
  I  I15  1  0.000000  0.739111  0.585464  1
  I  I16  1  0.000000  0.757392  0.084897  1
  I  I17  1  0.000000  0.242608  0.915103  1
  I  I18  1  0.000000  0.997907  0.238141  1
  I  I19  1  0.000000  0.002093  0.761859  1
  I  I20  1  0.000000  0.498065  0.258676  1
  I  I21  1  0.000000  0.501935  0.741324  1
