# generated using pymatgen
data_Tm6Co17Si8TcP4
_symmetry_space_group_name_H-M   'P 1'
_cell_length_a   3.71617200
_cell_length_b   10.63719700
_cell_length_c   12.23274200
_cell_angle_alpha   90.00000000
_cell_angle_beta   90.00000000
_cell_angle_gamma   90.00000000
_symmetry_Int_Tables_number   1
_chemical_formula_structural   Tm6Co17Si8TcP4
_chemical_formula_sum   'Tm6 Co17 Si8 Tc1 P4'
_cell_volume   483.55605445
_cell_formula_units_Z   1
loop_
 _symmetry_equiv_pos_site_id
 _symmetry_equiv_pos_as_xyz
  1  'x, y, z'
loop_
 _atom_site_type_symbol
 _atom_site_label
 _atom_site_symmetry_multiplicity
 _atom_site_fract_x
 _atom_site_fract_y
 _atom_site_fract_z
 _atom_site_occupancy
  Tm  Tm0  1  0.000000  0.500000  0.526250  1
  Tm  Tm1  1  0.500000  0.000000  0.474623  1
  Tm  Tm2  1  0.500000  0.820636  0.205073  1
  Tm  Tm3  1  0.500000  0.179364  0.205073  1
  Tm  Tm4  1  0.000000  0.679807  0.797957  1
  Tm  Tm5  1  0.000000  0.320193  0.797957  1
  Co  Co6  1  0.000000  0.000000  0.840121  1
  Co  Co7  1  0.500000  0.500000  0.701909  1
  Co  Co8  1  0.000000  0.000000  0.297255  1
  Co  Co9  1  0.000000  0.500000  0.979806  1
  Co  Co10  1  0.500000  0.000000  0.020602  1
  Co  Co11  1  0.500000  0.330827  0.989660  1
  Co  Co12  1  0.500000  0.669173  0.989660  1
  Co  Co13  1  0.000000  0.164135  0.007078  1
  Co  Co14  1  0.000000  0.835865  0.007078  1
  Co  Co15  1  0.500000  0.303162  0.430740  1
  Co  Co16  1  0.500000  0.696838  0.430740  1
  Co  Co17  1  0.000000  0.195722  0.572018  1
  Co  Co18  1  0.000000  0.804278  0.572018  1
  Co  Co19  1  0.500000  0.884153  0.705924  1
  Co  Co20  1  0.500000  0.115847  0.705924  1
  Co  Co21  1  0.000000  0.618146  0.294622  1
  Co  Co22  1  0.000000  0.381854  0.294622  1
  Si  Si23  1  0.500000  0.307028  0.616907  1
  Si  Si24  1  0.500000  0.692972  0.616907  1
  Si  Si25  1  0.000000  0.192622  0.385873  1
  Si  Si26  1  0.000000  0.807378  0.385873  1
  Si  Si27  1  0.500000  0.854266  0.890829  1
  Si  Si28  1  0.500000  0.145734  0.890829  1
  Si  Si29  1  0.000000  0.652648  0.105511  1
  Si  Si30  1  0.000000  0.347352  0.105511  1
  Tc  Tc31  1  0.500000  0.500000  0.154021  1
  P  P32  1  0.500000  0.500000  0.882268  1
  P  P33  1  0.000000  0.000000  0.117169  1
  P  P34  1  0.500000  0.500000  0.345242  1
  P  P35  1  0.000000  0.000000  0.656346  1
