# generated using pymatgen
data_HoNp(PaH4)6
_symmetry_space_group_name_H-M   'P 1'
_cell_length_a   6.52696200
_cell_length_b   6.52696200
_cell_length_c   6.52696200
_cell_angle_alpha   90.00000000
_cell_angle_beta   90.00000000
_cell_angle_gamma   90.00000000
_symmetry_Int_Tables_number   1
_chemical_formula_structural   HoNp(PaH4)6
_chemical_formula_sum   'Ho1 Np1 Pa6 H24'
_cell_volume   278.05662861
_cell_formula_units_Z   1
loop_
 _symmetry_equiv_pos_site_id
 _symmetry_equiv_pos_as_xyz
  1  'x, y, z'
loop_
 _atom_site_type_symbol
 _atom_site_label
 _atom_site_symmetry_multiplicity
 _atom_site_fract_x
 _atom_site_fract_y
 _atom_site_fract_z
 _atom_site_occupancy
  Ho  Ho0  1  0.500000  0.500000  0.500000  1
  Np  Np1  1  0.000000  0.000000  0.000000  1
  Pa  Pa2  1  0.251863  0.000000  0.500000  1
  Pa  Pa3  1  0.748137  0.000000  0.500000  1
  Pa  Pa4  1  0.000000  0.500000  0.251863  1
  Pa  Pa5  1  0.000000  0.500000  0.748137  1
  Pa  Pa6  1  0.500000  0.748137  0.000000  1
  Pa  Pa7  1  0.500000  0.251863  0.000000  1
  H  H8  1  0.000000  0.154649  0.305471  1
  H  H9  1  0.500000  0.195792  0.655404  1
  H  H10  1  0.500000  0.804208  0.344596  1
  H  H11  1  0.804208  0.655404  0.500000  1
  H  H12  1  0.195792  0.655404  0.500000  1
  H  H13  1  0.344596  0.500000  0.804208  1
  H  H14  1  0.655404  0.500000  0.804208  1
  H  H15  1  0.305471  0.000000  0.154649  1
  H  H16  1  0.154649  0.305471  0.000000  1
  H  H17  1  0.845351  0.694529  0.000000  1
  H  H18  1  0.305471  0.000000  0.845351  1
  H  H19  1  0.845351  0.305471  0.000000  1
  H  H20  1  0.694529  0.000000  0.154649  1
  H  H21  1  0.694529  0.000000  0.845351  1
  H  H22  1  0.154649  0.694529  0.000000  1
  H  H23  1  0.000000  0.845351  0.694529  1
  H  H24  1  0.000000  0.154649  0.694529  1
  H  H25  1  0.000000  0.845351  0.305471  1
  H  H26  1  0.655404  0.500000  0.195792  1
  H  H27  1  0.344596  0.500000  0.195792  1
  H  H28  1  0.804208  0.344596  0.500000  1
  H  H29  1  0.195792  0.344596  0.500000  1
  H  H30  1  0.500000  0.804208  0.655404  1
  H  H31  1  0.500000  0.195792  0.344596  1
