# generated using pymatgen
data_Tb12Ga5Ge3Ru8
_symmetry_space_group_name_H-M   'P 1'
_cell_length_a   5.58129317
_cell_length_b   7.77110704
_cell_length_c   13.70655600
_cell_angle_alpha   90.00000000
_cell_angle_beta   90.00000000
_cell_angle_gamma   90.04263174
_symmetry_Int_Tables_number   1
_chemical_formula_structural   Tb12Ga5Ge3Ru8
_chemical_formula_sum   'Tb12 Ga5 Ge3 Ru8'
_cell_volume   594.49191204
_cell_formula_units_Z   1
loop_
 _symmetry_equiv_pos_site_id
 _symmetry_equiv_pos_as_xyz
  1  'x, y, z'
loop_
 _atom_site_type_symbol
 _atom_site_label
 _atom_site_symmetry_multiplicity
 _atom_site_fract_x
 _atom_site_fract_y
 _atom_site_fract_z
 _atom_site_occupancy
  Tb  Tb0  1  0.848354  0.903908  0.596455  1
  Tb  Tb1  1  0.151579  0.402849  0.904301  1
  Tb  Tb2  1  0.846470  0.595151  0.097965  1
  Tb  Tb3  1  0.627360  0.270409  0.750000  1
  Tb  Tb4  1  0.629722  0.230971  0.250000  1
  Tb  Tb5  1  0.846470  0.595151  0.402035  1
  Tb  Tb6  1  0.369814  0.731627  0.250000  1
  Tb  Tb7  1  0.152651  0.094362  0.099072  1
  Tb  Tb8  1  0.152651  0.094362  0.400928  1
  Tb  Tb9  1  0.375394  0.765542  0.750000  1
  Tb  Tb10  1  0.151579  0.402849  0.595699  1
  Tb  Tb11  1  0.848354  0.903908  0.903545  1
  Ga  Ga12  1  0.370614  0.750812  0.499462  1
  Ga  Ga13  1  0.370614  0.750812  0.000538  1
  Ga  Ga14  1  0.128337  0.111742  0.750000  1
  Ga  Ga15  1  0.628166  0.251630  0.499568  1
  Ga  Ga16  1  0.628166  0.251630  0.000432  1
  Ge  Ge17  1  0.125897  0.384268  0.250000  1
  Ge  Ge18  1  0.872536  0.883694  0.250000  1
  Ge  Ge19  1  0.879236  0.614898  0.750000  1
  Ru  Ru20  1  0.353282  0.033412  0.905841  1
  Ru  Ru21  1  0.351439  0.468259  0.094459  1
  Ru  Ru22  1  0.646254  0.968696  0.095381  1
  Ru  Ru23  1  0.647043  0.534345  0.905120  1
  Ru  Ru24  1  0.646254  0.968696  0.404619  1
  Ru  Ru25  1  0.647043  0.534345  0.594880  1
  Ru  Ru26  1  0.351439  0.468259  0.405541  1
  Ru  Ru27  1  0.353282  0.033412  0.594159  1
