# generated using pymatgen
data_Cs2CoSi3O8
_symmetry_space_group_name_H-M   'P 1'
_cell_length_a   5.44993255
_cell_length_b   7.06933584
_cell_length_c   7.22594021
_cell_angle_alpha   78.88512923
_cell_angle_beta   68.03864057
_cell_angle_gamma   67.39601103
_symmetry_Int_Tables_number   1
_chemical_formula_structural   Cs2CoSi3O8
_chemical_formula_sum   'Cs2 Co1 Si3 O8'
_cell_volume   237.97034722
_cell_formula_units_Z   1
loop_
 _symmetry_equiv_pos_site_id
 _symmetry_equiv_pos_as_xyz
  1  'x, y, z'
loop_
 _atom_site_type_symbol
 _atom_site_label
 _atom_site_symmetry_multiplicity
 _atom_site_fract_x
 _atom_site_fract_y
 _atom_site_fract_z
 _atom_site_occupancy
  Cs  Cs0  1  0.949678  0.288274  0.818598  1
  Cs  Cs1  1  0.072310  0.692368  0.161765  1
  Co  Co2  1  0.664583  0.891104  0.776443  1
  Si  Si3  1  0.326622  0.087266  0.259756  1
  Si  Si4  1  0.655641  0.280945  0.410287  1
  Si  Si5  1  0.345927  0.710141  0.596781  1
  O  O6  1  0.996243  0.240220  0.276395  1
  O  O7  1  0.532110  0.689763  0.732167  1
  O  O8  1  0.503920  0.231523  0.269880  1
  O  O9  1  0.043855  0.694584  0.734310  1
  O  O10  1  0.306437  0.931140  0.459238  1
  O  O11  1  0.610866  0.157707  0.622244  1
  O  O12  1  0.475666  0.974387  0.055701  1
  O  O13  1  0.516142  0.532579  0.424435  1
