# generated using pymatgen
data_Dy13LuTh2Cd2(InRh2)2
_symmetry_space_group_name_H-M   'P 1'
_cell_length_a   9.70115837
_cell_length_b   9.70115820
_cell_length_c   9.71973200
_cell_angle_alpha   59.93664543
_cell_angle_beta   59.93664601
_cell_angle_gamma   59.98924044
_symmetry_Int_Tables_number   1
_chemical_formula_structural   Dy13LuTh2Cd2(InRh2)2
_chemical_formula_sum   'Dy13 Lu1 Th2 Cd2 In2 Rh4'
_cell_volume   646.15196544
_cell_formula_units_Z   1
loop_
 _symmetry_equiv_pos_site_id
 _symmetry_equiv_pos_as_xyz
  1  'x, y, z'
loop_
 _atom_site_type_symbol
 _atom_site_label
 _atom_site_symmetry_multiplicity
 _atom_site_fract_x
 _atom_site_fract_y
 _atom_site_fract_z
 _atom_site_occupancy
  Dy  Dy0  1  0.603401  0.192873  0.601863  1
  Dy  Dy1  1  0.192873  0.603401  0.601863  1
  Dy  Dy2  1  0.061813  0.438642  0.439352  1
  Dy  Dy3  1  0.438642  0.061813  0.060193  1
  Dy  Dy4  1  0.438642  0.061813  0.439352  1
  Dy  Dy5  1  0.061813  0.438642  0.060193  1
  Dy  Dy6  1  0.437781  0.437781  0.062219  1
  Dy  Dy7  1  0.061474  0.061474  0.438526  1
  Dy  Dy8  1  0.185185  0.817264  0.813156  1
  Dy  Dy9  1  0.817264  0.185185  0.184396  1
  Dy  Dy10  1  0.817264  0.185185  0.813156  1
  Dy  Dy11  1  0.185185  0.817264  0.184396  1
  Dy  Dy12  1  0.814478  0.814478  0.185522  1
  Lu  Lu13  1  0.191583  0.191583  0.808417  1
  Th  Th14  1  0.596424  0.596424  0.599530  1
  Th  Th15  1  0.596424  0.596424  0.207625  1
  Cd  Cd16  1  0.832984  0.832984  0.833270  1
  Cd  Cd17  1  0.832984  0.832984  0.500761  1
  In  In18  1  0.833473  0.501682  0.832421  1
  In  In19  1  0.501682  0.833473  0.832421  1
  Rh  Rh20  1  0.391658  0.391658  0.396974  1
  Rh  Rh21  1  0.391658  0.391658  0.819709  1
  Rh  Rh22  1  0.395418  0.819893  0.392343  1
  Rh  Rh23  1  0.819893  0.395418  0.392343  1
