# generated using pymatgen
data_Th2Mn3Cr3P7Ir6
_symmetry_space_group_name_H-M   'P 1'
_cell_length_a   9.48444702
_cell_length_b   9.48482386
_cell_length_c   3.86728900
_cell_angle_alpha   90.00000000
_cell_angle_beta   90.00000000
_cell_angle_gamma   120.00130919
_symmetry_Int_Tables_number   1
_chemical_formula_structural   Th2Mn3Cr3P7Ir6
_chemical_formula_sum   'Th2 Mn3 Cr3 P7 Ir6'
_cell_volume   301.28174290
_cell_formula_units_Z   1
loop_
 _symmetry_equiv_pos_site_id
 _symmetry_equiv_pos_as_xyz
  1  'x, y, z'
loop_
 _atom_site_type_symbol
 _atom_site_label
 _atom_site_symmetry_multiplicity
 _atom_site_fract_x
 _atom_site_fract_y
 _atom_site_fract_z
 _atom_site_occupancy
  Th  Th0  1  0.333376  0.666753  0.000000  1
  Th  Th1  1  0.999984  0.000020  0.500000  1
  Mn  Mn2  1  0.553889  0.065250  0.000000  1
  Mn  Mn3  1  0.934760  0.488603  0.000000  1
  Mn  Mn4  1  0.511386  0.446035  0.000000  1
  Cr  Cr5  1  0.779091  0.234287  0.500000  1
  Cr  Cr6  1  0.765593  0.544756  0.500000  1
  Cr  Cr7  1  0.455174  0.220616  0.500000  1
  P  P8  1  0.771862  0.039618  0.000000  1
  P  P9  1  0.960509  0.732432  0.000000  1
  P  P10  1  0.267868  0.228199  0.000000  1
  P  P11  1  0.391581  0.945342  0.500000  1
  P  P12  1  0.054795  0.446420  0.500000  1
  P  P13  1  0.553629  0.608359  0.500000  1
  P  P14  1  0.666571  0.333231  0.000000  1
  Ir  Ir15  1  0.030530  0.267928  0.000000  1
  Ir  Ir16  1  0.732046  0.762647  0.000000  1
  Ir  Ir17  1  0.237416  0.969524  0.000000  1
  Ir  Ir18  1  0.611454  0.892417  0.500000  1
  Ir  Ir19  1  0.107552  0.719079  0.500000  1
  Ir  Ir20  1  0.280933  0.388484  0.500000  1
