# generated using pymatgen
data_CaNi2(Sb6Os)2
_symmetry_space_group_name_H-M   'P 1'
_cell_length_a   8.11528574
_cell_length_b   8.10158003
_cell_length_c   8.10158065
_cell_angle_alpha   109.34256791
_cell_angle_beta   109.57974430
_cell_angle_gamma   109.42280674
_symmetry_Int_Tables_number   1
_chemical_formula_structural   CaNi2(Sb6Os)2
_chemical_formula_sum   'Ca1 Ni2 Sb12 Os2'
_cell_volume   410.38057743
_cell_formula_units_Z   1
loop_
 _symmetry_equiv_pos_site_id
 _symmetry_equiv_pos_as_xyz
  1  'x, y, z'
loop_
 _atom_site_type_symbol
 _atom_site_label
 _atom_site_symmetry_multiplicity
 _atom_site_fract_x
 _atom_site_fract_y
 _atom_site_fract_z
 _atom_site_occupancy
  Ca  Ca0  1  0.000000  0.000000  0.000000  1
  Ni  Ni1  1  0.500000  0.500000  0.500000  1
  Ni  Ni2  1  0.500000  0.000000  0.000000  1
  Sb  Sb3  1  0.838921  0.659203  0.503638  1
  Sb  Sb4  1  0.161079  0.340797  0.496362  1
  Sb  Sb5  1  0.161079  0.664717  0.820282  1
  Sb  Sb6  1  0.838921  0.335283  0.179718  1
  Sb  Sb7  1  0.660094  0.505836  0.839381  1
  Sb  Sb8  1  0.339906  0.494164  0.160619  1
  Sb  Sb9  1  0.660094  0.820714  0.154258  1
  Sb  Sb10  1  0.339906  0.179286  0.845742  1
  Sb  Sb11  1  0.508238  0.842061  0.666177  1
  Sb  Sb12  1  0.491762  0.157939  0.333823  1
  Sb  Sb13  1  0.183785  0.844521  0.339265  1
  Sb  Sb14  1  0.816215  0.155479  0.660735  1
  Os  Os15  1  0.000000  0.500000  0.000000  1
  Os  Os16  1  0.000000  0.000000  0.500000  1
