# generated using pymatgen
data_Tb12CdCo6
_symmetry_space_group_name_H-M   'P 1'
_cell_length_a   8.44368203
_cell_length_b   8.44368226
_cell_length_c   8.44368200
_cell_angle_alpha   109.47121521
_cell_angle_beta   109.47121577
_cell_angle_gamma   109.47122494
_symmetry_Int_Tables_number   1
_chemical_formula_structural   Tb12CdCo6
_chemical_formula_sum   'Tb12 Cd1 Co6'
_cell_volume   463.41892225
_cell_formula_units_Z   1
loop_
 _symmetry_equiv_pos_site_id
 _symmetry_equiv_pos_as_xyz
  1  'x, y, z'
loop_
 _atom_site_type_symbol
 _atom_site_label
 _atom_site_symmetry_multiplicity
 _atom_site_fract_x
 _atom_site_fract_y
 _atom_site_fract_z
 _atom_site_occupancy
  Tb  Tb0  1  0.806651  0.695054  0.501707  1
  Tb  Tb1  1  0.193349  0.304946  0.498293  1
  Tb  Tb2  1  0.193349  0.695054  0.888403  1
  Tb  Tb3  1  0.806651  0.304946  0.111597  1
  Tb  Tb4  1  0.695054  0.501707  0.806651  1
  Tb  Tb5  1  0.304946  0.498293  0.193349  1
  Tb  Tb6  1  0.695054  0.888403  0.193349  1
  Tb  Tb7  1  0.304946  0.111597  0.806651  1
  Tb  Tb8  1  0.501707  0.806651  0.695054  1
  Tb  Tb9  1  0.498293  0.193349  0.304946  1
  Tb  Tb10  1  0.111597  0.806651  0.304946  1
  Tb  Tb11  1  0.888403  0.193349  0.695054  1
  Cd  Cd12  1  0.000000  0.000000  0.000000  1
  Co  Co13  1  0.887046  0.387046  0.500000  1
  Co  Co14  1  0.112954  0.612954  0.500000  1
  Co  Co15  1  0.387046  0.500000  0.887046  1
  Co  Co16  1  0.612954  0.500000  0.112954  1
  Co  Co17  1  0.500000  0.887046  0.387046  1
  Co  Co18  1  0.500000  0.112954  0.612954  1
