# generated using pymatgen
data_DyPa(Al5Fe)4
_symmetry_space_group_name_H-M   'P 1'
_cell_length_a   6.75811600
_cell_length_b   6.75811609
_cell_length_c   8.97589300
_cell_angle_alpha   90.00000000
_cell_angle_beta   90.00000000
_cell_angle_gamma   97.61968982
_symmetry_Int_Tables_number   1
_chemical_formula_structural   DyPa(Al5Fe)4
_chemical_formula_sum   'Dy1 Pa1 Al20 Fe4'
_cell_volume   406.32834474
_cell_formula_units_Z   1
loop_
 _symmetry_equiv_pos_site_id
 _symmetry_equiv_pos_as_xyz
  1  'x, y, z'
loop_
 _atom_site_type_symbol
 _atom_site_label
 _atom_site_symmetry_multiplicity
 _atom_site_fract_x
 _atom_site_fract_y
 _atom_site_fract_z
 _atom_site_occupancy
  Dy  Dy0  1  0.127361  0.872639  0.250000  1
  Pa  Pa1  1  0.874397  0.125603  0.750000  1
  Al  Al2  1  0.624590  0.375410  0.549531  1
  Al  Al3  1  0.373911  0.626089  0.451444  1
  Al  Al4  1  0.373911  0.626089  0.048556  1
  Al  Al5  1  0.624590  0.375410  0.950469  1
  Al  Al6  1  0.226879  0.225639  0.499490  1
  Al  Al7  1  0.774361  0.773121  0.499490  1
  Al  Al8  1  0.774361  0.773121  0.000510  1
  Al  Al9  1  0.226879  0.225639  0.000510  1
  Al  Al10  1  0.841832  0.158168  0.098879  1
  Al  Al11  1  0.157073  0.842927  0.902101  1
  Al  Al12  1  0.157073  0.842927  0.597899  1
  Al  Al13  1  0.841832  0.158168  0.401121  1
  Al  Al14  1  0.864997  0.588902  0.750000  1
  Al  Al15  1  0.135132  0.415271  0.250000  1
  Al  Al16  1  0.411098  0.135003  0.750000  1
  Al  Al17  1  0.584729  0.864868  0.250000  1
  Al  Al18  1  0.221054  0.479289  0.750000  1
  Al  Al19  1  0.779072  0.521624  0.250000  1
  Al  Al20  1  0.520711  0.778946  0.750000  1
  Al  Al21  1  0.478376  0.220928  0.250000  1
  Fe  Fe22  1  0.998470  0.495580  0.502460  1
  Fe  Fe23  1  0.998470  0.495580  0.997540  1
  Fe  Fe24  1  0.504420  0.001530  0.997540  1
  Fe  Fe25  1  0.504420  0.001530  0.502460  1
