# generated using pymatgen
data_Ca5CdPdO8
_symmetry_space_group_name_H-M   'P 1'
_cell_length_a   6.72621247
_cell_length_b   6.72621282
_cell_length_c   6.71468900
_cell_angle_alpha   60.05666327
_cell_angle_beta   60.05666157
_cell_angle_gamma   60.26319300
_symmetry_Int_Tables_number   1
_chemical_formula_structural   Ca5CdPdO8
_chemical_formula_sum   'Ca5 Cd1 Pd1 O8'
_cell_volume   215.41770965
_cell_formula_units_Z   1
loop_
 _symmetry_equiv_pos_site_id
 _symmetry_equiv_pos_as_xyz
  1  'x, y, z'
loop_
 _atom_site_type_symbol
 _atom_site_label
 _atom_site_symmetry_multiplicity
 _atom_site_fract_x
 _atom_site_fract_y
 _atom_site_fract_z
 _atom_site_occupancy
  Ca  Ca0  1  0.500000  0.000000  0.000000  1
  Ca  Ca1  1  0.500000  0.000000  0.500000  1
  Ca  Ca2  1  0.000000  0.000000  0.500000  1
  Ca  Ca3  1  0.000000  0.500000  0.000000  1
  Ca  Ca4  1  0.000000  0.500000  0.500000  1
  Cd  Cd5  1  0.500000  0.500000  0.000000  1
  Pd  Pd6  1  0.000000  0.000000  0.000000  1
  O  O7  1  0.781252  0.218748  0.220057  1
  O  O8  1  0.246116  0.246116  0.253884  1
  O  O9  1  0.218748  0.781252  0.220057  1
  O  O10  1  0.221214  0.221214  0.778786  1
  O  O11  1  0.781252  0.218748  0.779943  1
  O  O12  1  0.778786  0.778786  0.221214  1
  O  O13  1  0.753884  0.753884  0.746116  1
  O  O14  1  0.218748  0.781252  0.779943  1
