# generated using pymatgen
data_BaCaH9W
_symmetry_space_group_name_H-M   'P 1'
_cell_length_a   8.98606800
_cell_length_b   8.98606749
_cell_length_c   5.29729900
_cell_angle_alpha   90.00000000
_cell_angle_beta   90.00000000
_cell_angle_gamma   120.00000925
_symmetry_Int_Tables_number   1
_chemical_formula_structural   BaCaH9W
_chemical_formula_sum   'Ba3 Ca3 H27 W3'
_cell_volume   370.44561194
_cell_formula_units_Z   3
loop_
 _symmetry_equiv_pos_site_id
 _symmetry_equiv_pos_as_xyz
  1  'x, y, z'
loop_
 _atom_site_type_symbol
 _atom_site_label
 _atom_site_symmetry_multiplicity
 _atom_site_fract_x
 _atom_site_fract_y
 _atom_site_fract_z
 _atom_site_occupancy
  Ba  Ba0  1  0.000000  0.604415  0.000000  1
  Ba  Ba1  1  0.395585  0.395585  0.000000  1
  Ba  Ba2  1  0.604415  0.000000  0.000000  1
  Ca  Ca3  1  0.000000  0.258301  0.500000  1
  Ca  Ca4  1  0.741699  0.741699  0.500000  1
  Ca  Ca5  1  0.258301  0.000000  0.500000  1
  H  H6  1  0.802403  0.319133  0.738324  1
  H  H7  1  0.680867  0.483270  0.738324  1
  H  H8  1  0.516730  0.197597  0.738324  1
  H  H9  1  0.197597  0.516730  0.261676  1
  H  H10  1  0.516730  0.197597  0.261676  1
  H  H11  1  0.802403  0.319133  0.261676  1
  H  H12  1  0.680867  0.483270  0.261676  1
  H  H13  1  0.319133  0.802403  0.738324  1
  H  H14  1  0.483270  0.680867  0.738324  1
  H  H15  1  0.202074  0.000000  0.000000  1
  H  H16  1  0.797926  0.797926  0.000000  1
  H  H17  1  0.000000  0.202074  0.000000  1
  H  H18  1  0.860758  0.000000  0.254184  1
  H  H19  1  0.139242  0.139242  0.745816  1
  H  H20  1  0.000000  0.860758  0.745816  1
  H  H21  1  0.000000  0.860758  0.254184  1
  H  H22  1  0.139242  0.139242  0.254184  1
  H  H23  1  0.860758  0.000000  0.745816  1
  H  H24  1  0.131865  0.657812  0.500000  1
  H  H25  1  0.525947  0.868135  0.500000  1
  H  H26  1  0.342188  0.474053  0.500000  1
  H  H27  1  0.474053  0.342188  0.500000  1
  H  H28  1  0.868135  0.525947  0.500000  1
  H  H29  1  0.657812  0.131865  0.500000  1
  H  H30  1  0.197597  0.516730  0.738324  1
  H  H31  1  0.319133  0.802403  0.261676  1
  H  H32  1  0.483270  0.680867  0.261676  1
  W  W33  1  0.666667  0.333333  0.500000  1
  W  W34  1  0.333333  0.666667  0.500000  1
  W  W35  1  0.000000  0.000000  0.000000  1
