# generated using pymatgen
data_Nd5Y15(SiSb)8
_symmetry_space_group_name_H-M   'P 1'
_cell_length_a   7.96157327
_cell_length_b   8.01907961
_cell_length_c   15.14228500
_cell_angle_alpha   89.99609887
_cell_angle_beta   90.69295013
_cell_angle_gamma   89.96391790
_symmetry_Int_Tables_number   1
_chemical_formula_structural   Nd5Y15(SiSb)8
_chemical_formula_sum   'Nd5 Y15 Si8 Sb8'
_cell_volume   966.68056385
_cell_formula_units_Z   1
loop_
 _symmetry_equiv_pos_site_id
 _symmetry_equiv_pos_as_xyz
  1  'x, y, z'
loop_
 _atom_site_type_symbol
 _atom_site_label
 _atom_site_symmetry_multiplicity
 _atom_site_fract_x
 _atom_site_fract_y
 _atom_site_fract_z
 _atom_site_occupancy
  Nd  Nd0  1  0.464560  0.821875  0.891348  1
  Nd  Nd1  1  0.958440  0.674498  0.611442  1
  Nd  Nd2  1  0.541222  0.175486  0.388552  1
  Nd  Nd3  1  0.035880  0.322769  0.109200  1
  Nd  Nd4  1  0.537835  0.179563  0.109901  1
  Y  Y5  1  0.050576  0.329585  0.382894  1
  Y  Y6  1  0.448729  0.828803  0.618174  1
  Y  Y7  1  0.959131  0.674741  0.885860  1
  Y  Y8  1  0.623373  0.338687  0.869659  1
  Y  Y9  1  0.115699  0.161250  0.628920  1
  Y  Y10  1  0.384414  0.662429  0.372234  1
  Y  Y11  1  0.877333  0.839706  0.130294  1
  Y  Y12  1  0.376499  0.662060  0.129636  1
  Y  Y13  1  0.880138  0.838353  0.371780  1
  Y  Y14  1  0.620891  0.338379  0.628479  1
  Y  Y15  1  0.125302  0.160855  0.870500  1
  Y  Y16  1  0.286585  0.504747  0.749992  1
  Y  Y17  1  0.785648  0.993123  0.751025  1
  Y  Y18  1  0.713777  0.495005  0.248887  1
  Y  Y19  1  0.213472  0.006426  0.250456  1
  Si  Si20  1  0.651742  0.637677  0.749075  1
  Si  Si21  1  0.151430  0.861287  0.751948  1
  Si  Si22  1  0.345414  0.365681  0.249890  1
  Si  Si23  1  0.849338  0.138301  0.251648  1
  Si  Si24  1  0.419179  0.125553  0.749205  1
  Si  Si25  1  0.920284  0.374487  0.750114  1
  Si  Si26  1  0.580481  0.873501  0.250629  1
  Si  Si27  1  0.082109  0.625542  0.250970  1
  Sb  Sb28  1  0.217764  0.967814  0.043122  1
  Sb  Sb29  1  0.731263  0.519585  0.454299  1
  Sb  Sb30  1  0.768362  0.019061  0.545889  1
  Sb  Sb31  1  0.278132  0.471159  0.956416  1
  Sb  Sb32  1  0.787187  0.033142  0.957581  1
  Sb  Sb33  1  0.281051  0.469597  0.541831  1
  Sb  Sb34  1  0.219026  0.970276  0.458817  1
  Sb  Sb35  1  0.717733  0.538998  0.039333  1
