# generated using pymatgen
data_Tb3ErMn2(Co2Si5)2
_symmetry_space_group_name_H-M   'P 1'
_cell_length_a   5.44664338
_cell_length_b   7.98394673
_cell_length_c   7.98552921
_cell_angle_alpha   73.03119678
_cell_angle_beta   70.06023809
_cell_angle_gamma   70.05611891
_symmetry_Int_Tables_number   1
_chemical_formula_structural   Tb3ErMn2(Co2Si5)2
_chemical_formula_sum   'Tb3 Er1 Mn2 Co4 Si10'
_cell_volume   300.74708781
_cell_formula_units_Z   1
loop_
 _symmetry_equiv_pos_site_id
 _symmetry_equiv_pos_as_xyz
  1  'x, y, z'
loop_
 _atom_site_type_symbol
 _atom_site_label
 _atom_site_symmetry_multiplicity
 _atom_site_fract_x
 _atom_site_fract_y
 _atom_site_fract_z
 _atom_site_occupancy
  Tb  Tb0  1  0.364846  0.868121  0.402186  1
  Tb  Tb1  1  0.634934  0.132241  0.597891  1
  Tb  Tb2  1  0.864889  0.402358  0.867865  1
  Er  Er3  1  0.135235  0.597458  0.132071  1
  Mn  Mn4  1  0.750550  0.999520  0.000101  1
  Mn  Mn5  1  0.249830  0.999520  0.000101  1
  Co  Co6  1  0.140585  0.261125  0.457703  1
  Co  Co7  1  0.859455  0.738025  0.543067  1
  Co  Co8  1  0.640520  0.459018  0.259942  1
  Co  Co9  1  0.359264  0.542730  0.738743  1
  Si  Si10  1  0.750860  0.499779  0.498765  1
  Si  Si11  1  0.250595  0.499779  0.498765  1
  Si  Si12  1  0.530821  0.219664  0.218998  1
  Si  Si13  1  0.969012  0.781018  0.782045  1
  Si  Si14  1  0.467925  0.781018  0.782045  1
  Si  Si15  1  0.030517  0.219664  0.218998  1
  Si  Si16  1  0.099640  0.067799  0.732922  1
  Si  Si17  1  0.900896  0.931320  0.266888  1
  Si  Si18  1  0.599605  0.732775  0.068016  1
  Si  Si19  1  0.400022  0.267067  0.932890  1
