# generated using pymatgen
data_Ho2Al9NiOs2
_symmetry_space_group_name_H-M   'P 1'
_cell_length_a   7.47998636
_cell_length_b   7.47998727
_cell_length_c   9.44887328
_cell_angle_alpha   89.81361182
_cell_angle_beta   89.81360975
_cell_angle_gamma   118.82636737
_symmetry_Int_Tables_number   1
_chemical_formula_structural   Ho2Al9NiOs2
_chemical_formula_sum   'Ho4 Al18 Ni2 Os4'
_cell_volume   463.14715587
_cell_formula_units_Z   2
loop_
 _symmetry_equiv_pos_site_id
 _symmetry_equiv_pos_as_xyz
  1  'x, y, z'
loop_
 _atom_site_type_symbol
 _atom_site_label
 _atom_site_symmetry_multiplicity
 _atom_site_fract_x
 _atom_site_fract_y
 _atom_site_fract_z
 _atom_site_occupancy
  Ho  Ho0  1  0.994075  0.678481  0.251506  1
  Ho  Ho1  1  0.005925  0.321519  0.748494  1
  Ho  Ho2  1  0.678481  0.994075  0.251506  1
  Ho  Ho3  1  0.321519  0.005925  0.748494  1
  Al  Al4  1  0.133930  0.133930  0.247453  1
  Al  Al5  1  0.866070  0.866070  0.752547  1
  Al  Al6  1  0.998679  0.338380  0.072188  1
  Al  Al7  1  0.001321  0.661620  0.927812  1
  Al  Al8  1  0.996050  0.661269  0.574623  1
  Al  Al9  1  0.338731  0.003950  0.425377  1
  Al  Al10  1  0.003950  0.338731  0.425377  1
  Al  Al11  1  0.661269  0.996050  0.574623  1
  Al  Al12  1  0.661620  0.001321  0.927812  1
  Al  Al13  1  0.338380  0.998679  0.072188  1
  Al  Al14  1  0.334810  0.334810  0.544895  1
  Al  Al15  1  0.665190  0.665190  0.455105  1
  Al  Al16  1  0.666220  0.666220  0.045443  1
  Al  Al17  1  0.333780  0.333780  0.954557  1
  Al  Al18  1  0.340855  0.555423  0.244841  1
  Al  Al19  1  0.659145  0.444577  0.755159  1
  Al  Al20  1  0.555423  0.340855  0.244841  1
  Al  Al21  1  0.444577  0.659145  0.755159  1
  Ni  Ni22  1  0.671467  0.328533  0.000000  1
  Ni  Ni23  1  0.328533  0.671467  0.000000  1
  Os  Os24  1  0.328155  0.671845  0.500000  1
  Os  Os25  1  0.671845  0.328155  0.500000  1
  Os  Os26  1  0.000000  0.000000  0.000000  1
  Os  Os27  1  0.000000  0.000000  0.500000  1
