# generated using pymatgen
data_K2Zr(CuTe2)2
_symmetry_space_group_name_H-M   'P 1'
_cell_length_a   7.91137980
_cell_length_b   7.91138036
_cell_length_c   6.20676900
_cell_angle_alpha   90.00000000
_cell_angle_beta   90.00000000
_cell_angle_gamma   133.80148055
_symmetry_Int_Tables_number   1
_chemical_formula_structural   K2Zr(CuTe2)2
_chemical_formula_sum   'K2 Zr1 Cu2 Te4'
_cell_volume   280.38337963
_cell_formula_units_Z   1
loop_
 _symmetry_equiv_pos_site_id
 _symmetry_equiv_pos_as_xyz
  1  'x, y, z'
loop_
 _atom_site_type_symbol
 _atom_site_label
 _atom_site_symmetry_multiplicity
 _atom_site_fract_x
 _atom_site_fract_y
 _atom_site_fract_z
 _atom_site_occupancy
  K  K0  1  0.500000  0.000000  0.248125  1
  K  K1  1  0.000000  0.500000  0.751875  1
  Zr  Zr2  1  0.000000  0.000000  0.000000  1
  Cu  Cu3  1  0.000000  0.000000  0.500000  1
  Cu  Cu4  1  0.500000  0.500000  0.000000  1
  Te  Te5  1  0.846308  0.635216  0.258957  1
  Te  Te6  1  0.153692  0.364784  0.258957  1
  Te  Te7  1  0.635216  0.846308  0.741043  1
  Te  Te8  1  0.364784  0.153692  0.741043  1
