# generated using pymatgen
data_Sr4CaCd(RhO6)2
_symmetry_space_group_name_H-M   'P 1'
_cell_length_a   5.92829205
_cell_length_b   5.79077884
_cell_length_c   10.01532961
_cell_angle_alpha   55.17093554
_cell_angle_beta   89.84197771
_cell_angle_gamma   90.05923228
_symmetry_Int_Tables_number   1
_chemical_formula_structural   Sr4CaCd(RhO6)2
_chemical_formula_sum   'Sr4 Ca1 Cd1 Rh2 O12'
_cell_volume   282.22588938
_cell_formula_units_Z   1
loop_
 _symmetry_equiv_pos_site_id
 _symmetry_equiv_pos_as_xyz
  1  'x, y, z'
loop_
 _atom_site_type_symbol
 _atom_site_label
 _atom_site_symmetry_multiplicity
 _atom_site_fract_x
 _atom_site_fract_y
 _atom_site_fract_z
 _atom_site_occupancy
  Sr  Sr0  1  0.549267  0.741372  0.747566  1
  Sr  Sr1  1  0.047383  0.264440  0.747861  1
  Sr  Sr2  1  0.952617  0.735560  0.252139  1
  Sr  Sr3  1  0.450733  0.258628  0.252434  1
  Ca  Ca4  1  0.500000  0.000000  0.000000  1
  Cd  Cd5  1  0.000000  0.000000  0.500000  1
  Rh  Rh6  1  0.000000  0.500000  0.000000  1
  Rh  Rh7  1  0.500000  0.500000  0.500000  1
  O  O8  1  0.526136  0.812089  0.271177  1
  O  O9  1  0.028106  0.181090  0.230519  1
  O  O10  1  0.473864  0.187911  0.728823  1
  O  O11  1  0.971894  0.818910  0.769481  1
  O  O12  1  0.772852  0.634184  0.550822  1
  O  O13  1  0.270349  0.362143  0.951970  1
  O  O14  1  0.227148  0.365816  0.449178  1
  O  O15  1  0.729651  0.637857  0.048030  1
  O  O16  1  0.190018  0.729363  0.041333  1
  O  O17  1  0.689183  0.270488  0.456153  1
  O  O18  1  0.809982  0.270637  0.958667  1
  O  O19  1  0.310817  0.729512  0.543847  1
