# generated using pymatgen
data_Nd4IrRh3O14
_symmetry_space_group_name_H-M   'P 1'
_cell_length_a   7.38740577
_cell_length_b   7.38728607
_cell_length_c   7.38740600
_cell_angle_alpha   59.99946294
_cell_angle_beta   59.99999898
_cell_angle_gamma   59.99946587
_symmetry_Int_Tables_number   1
_chemical_formula_structural   Nd4IrRh3O14
_chemical_formula_sum   'Nd4 Ir1 Rh3 O14'
_cell_volume   285.06921647
_cell_formula_units_Z   1
loop_
 _symmetry_equiv_pos_site_id
 _symmetry_equiv_pos_as_xyz
  1  'x, y, z'
loop_
 _atom_site_type_symbol
 _atom_site_label
 _atom_site_symmetry_multiplicity
 _atom_site_fract_x
 _atom_site_fract_y
 _atom_site_fract_z
 _atom_site_occupancy
  Nd  Nd0  1  0.625000  0.125000  0.125000  1
  Nd  Nd1  1  0.125000  0.625000  0.125000  1
  Nd  Nd2  1  0.125000  0.125000  0.625000  1
  Nd  Nd3  1  0.125000  0.125000  0.125000  1
  Ir  Ir4  1  0.625000  0.125000  0.625000  1
  Rh  Rh5  1  0.125000  0.625000  0.625000  1
  Rh  Rh6  1  0.625000  0.625000  0.125000  1
  Rh  Rh7  1  0.625000  0.625000  0.625000  1
  O  O8  1  0.706206  0.710243  0.291775  1
  O  O9  1  0.297591  0.291422  0.705493  1
  O  O10  1  0.705493  0.291422  0.705493  1
  O  O11  1  0.291775  0.710243  0.291775  1
  O  O12  1  0.291775  0.710243  0.706206  1
  O  O13  1  0.705493  0.291422  0.297591  1
  O  O14  1  0.543794  0.539757  0.958225  1
  O  O15  1  0.952409  0.958578  0.544507  1
  O  O16  1  0.544507  0.958578  0.544507  1
  O  O17  1  0.958225  0.539757  0.958225  1
  O  O18  1  0.958225  0.539757  0.543794  1
  O  O19  1  0.544507  0.958578  0.952409  1
  O  O20  1  0.250482  0.248555  0.250482  1
  O  O21  1  0.999518  0.001445  0.999518  1
