# generated using pymatgen
data_Nd4Ho15LuBi12
_symmetry_space_group_name_H-M   'P 1'
_cell_length_a   8.34787743
_cell_length_b   9.51183900
_cell_length_c   12.15713663
_cell_angle_alpha   90.00000000
_cell_angle_beta   89.96309031
_cell_angle_gamma   90.00000000
_symmetry_Int_Tables_number   1
_chemical_formula_structural   Nd4Ho15LuBi12
_chemical_formula_sum   'Nd4 Ho15 Lu1 Bi12'
_cell_volume   965.32101787
_cell_formula_units_Z   1
loop_
 _symmetry_equiv_pos_site_id
 _symmetry_equiv_pos_as_xyz
  1  'x, y, z'
loop_
 _atom_site_type_symbol
 _atom_site_label
 _atom_site_symmetry_multiplicity
 _atom_site_fract_x
 _atom_site_fract_y
 _atom_site_fract_z
 _atom_site_occupancy
  Nd  Nd0  1  0.171879  0.750000  0.226256  1
  Nd  Nd1  1  0.328378  0.750000  0.726557  1
  Nd  Nd2  1  0.828280  0.250000  0.773726  1
  Nd  Nd3  1  0.671785  0.250000  0.273453  1
  Ho  Ho4  1  0.809892  0.563225  0.064666  1
  Ho  Ho5  1  0.689741  0.936923  0.564746  1
  Ho  Ho6  1  0.189821  0.062980  0.935313  1
  Ho  Ho7  1  0.310341  0.436973  0.435220  1
  Ho  Ho8  1  0.189821  0.437020  0.935313  1
  Ho  Ho9  1  0.310341  0.063027  0.435220  1
  Ho  Ho10  1  0.809892  0.936775  0.064666  1
  Ho  Ho11  1  0.689741  0.563077  0.564746  1
  Ho  Ho12  1  0.023191  0.750000  0.503783  1
  Ho  Ho13  1  0.523292  0.250000  0.996152  1
  Ho  Ho14  1  0.976681  0.250000  0.496133  1
  Ho  Ho15  1  0.664047  0.750000  0.289035  1
  Ho  Ho16  1  0.835863  0.750000  0.789494  1
  Ho  Ho17  1  0.335810  0.250000  0.710793  1
  Ho  Ho18  1  0.164057  0.250000  0.210606  1
  Lu  Lu19  1  0.477087  0.750000  0.004004  1
  Bi  Bi20  1  0.403055  0.750000  0.467653  1
  Bi  Bi21  1  0.097906  0.750000  0.967583  1
  Bi  Bi22  1  0.596863  0.250000  0.532463  1
  Bi  Bi23  1  0.903239  0.250000  0.032417  1
  Bi  Bi24  1  0.935027  0.507158  0.327936  1
  Bi  Bi25  1  0.564487  0.992328  0.828519  1
  Bi  Bi26  1  0.064943  0.007152  0.672058  1
  Bi  Bi27  1  0.435041  0.493440  0.171488  1
  Bi  Bi28  1  0.064943  0.492848  0.672058  1
  Bi  Bi29  1  0.435041  0.006560  0.171488  1
  Bi  Bi30  1  0.935027  0.992842  0.327936  1
  Bi  Bi31  1  0.564487  0.507672  0.828519  1
