# generated using pymatgen
data_Pr3Hg(Pt2O7)2
_symmetry_space_group_name_H-M   'P 1'
_cell_length_a   7.52380006
_cell_length_b   7.52379921
_cell_length_c   7.35536453
_cell_angle_alpha   59.23955225
_cell_angle_beta   59.23955300
_cell_angle_gamma   59.99999644
_symmetry_Int_Tables_number   1
_chemical_formula_structural   Pr3Hg(Pt2O7)2
_chemical_formula_sum   'Pr3 Hg1 Pt4 O14'
_cell_volume   290.98792049
_cell_formula_units_Z   1
loop_
 _symmetry_equiv_pos_site_id
 _symmetry_equiv_pos_as_xyz
  1  'x, y, z'
loop_
 _atom_site_type_symbol
 _atom_site_label
 _atom_site_symmetry_multiplicity
 _atom_site_fract_x
 _atom_site_fract_y
 _atom_site_fract_z
 _atom_site_occupancy
  Pr  Pr0  1  0.125000  0.125000  0.125000  1
  Pr  Pr1  1  0.625000  0.125000  0.125000  1
  Pr  Pr2  1  0.125000  0.625000  0.125000  1
  Hg  Hg3  1  0.125000  0.125000  0.625000  1
  Pt  Pt4  1  0.625000  0.625000  0.125000  1
  Pt  Pt5  1  0.625000  0.625000  0.625000  1
  Pt  Pt6  1  0.625000  0.125000  0.625000  1
  Pt  Pt7  1  0.125000  0.625000  0.625000  1
  O  O8  1  0.712119  0.290872  0.284890  1
  O  O9  1  0.692350  0.299552  0.708546  1
  O  O10  1  0.005719  0.005719  0.982844  1
  O  O11  1  0.290872  0.712119  0.284890  1
  O  O12  1  0.712119  0.712119  0.284890  1
  O  O13  1  0.950448  0.557650  0.541454  1
  O  O14  1  0.299552  0.692350  0.708546  1
  O  O15  1  0.244281  0.244281  0.267156  1
  O  O16  1  0.959128  0.537881  0.965110  1
  O  O17  1  0.557650  0.950448  0.541454  1
  O  O18  1  0.537881  0.537881  0.965110  1
  O  O19  1  0.950448  0.950448  0.541454  1
  O  O20  1  0.537881  0.959128  0.965110  1
  O  O21  1  0.299552  0.299552  0.708546  1
