# generated using pymatgen
data_KCd2H8Ir
_symmetry_space_group_name_H-M   'P 1'
_cell_length_a   5.14534700
_cell_length_b   5.14534700
_cell_length_c   11.16038700
_cell_angle_alpha   90.00000000
_cell_angle_beta   90.00000000
_cell_angle_gamma   90.00000000
_symmetry_Int_Tables_number   1
_chemical_formula_structural   KCd2H8Ir
_chemical_formula_sum   'K2 Cd4 H16 Ir2'
_cell_volume   295.46673424
_cell_formula_units_Z   2
loop_
 _symmetry_equiv_pos_site_id
 _symmetry_equiv_pos_as_xyz
  1  'x, y, z'
loop_
 _atom_site_type_symbol
 _atom_site_label
 _atom_site_symmetry_multiplicity
 _atom_site_fract_x
 _atom_site_fract_y
 _atom_site_fract_z
 _atom_site_occupancy
  K  K0  1  0.500000  0.000000  0.000000  1
  K  K1  1  0.000000  0.500000  0.500000  1
  Cd  Cd2  1  0.500000  0.000000  0.630748  1
  Cd  Cd3  1  0.000000  0.500000  0.130748  1
  Cd  Cd4  1  0.500000  0.000000  0.369252  1
  Cd  Cd5  1  0.000000  0.500000  0.869252  1
  H  H6  1  0.231984  0.231984  0.750000  1
  H  H7  1  0.768016  0.768016  0.750000  1
  H  H8  1  0.768016  0.231984  0.250000  1
  H  H9  1  0.231984  0.768016  0.250000  1
  H  H10  1  0.768016  0.768016  0.250000  1
  H  H11  1  0.231984  0.231984  0.250000  1
  H  H12  1  0.231984  0.768016  0.750000  1
  H  H13  1  0.768016  0.231984  0.750000  1
  H  H14  1  0.500000  0.260907  0.500000  1
  H  H15  1  0.500000  0.739093  0.500000  1
  H  H16  1  0.739093  0.500000  0.000000  1
  H  H17  1  0.260907  0.500000  0.000000  1
  H  H18  1  0.000000  0.000000  0.599817  1
  H  H19  1  0.000000  0.000000  0.099817  1
  H  H20  1  0.000000  0.000000  0.400183  1
  H  H21  1  0.000000  0.000000  0.900183  1
  Ir  Ir22  1  0.000000  0.000000  0.750000  1
  Ir  Ir23  1  0.000000  0.000000  0.250000  1
