# generated using pymatgen
data_TiV(SeO3)4
_symmetry_space_group_name_H-M   'P 1'
_cell_length_a   8.16893904
_cell_length_b   8.29676866
_cell_length_c   8.12318353
_cell_angle_alpha   89.81402248
_cell_angle_beta   89.99658092
_cell_angle_gamma   89.98953638
_symmetry_Int_Tables_number   1
_chemical_formula_structural   TiV(SeO3)4
_chemical_formula_sum   'Ti2 V2 Se8 O24'
_cell_volume   550.55233083
_cell_formula_units_Z   2
loop_
 _symmetry_equiv_pos_site_id
 _symmetry_equiv_pos_as_xyz
  1  'x, y, z'
loop_
 _atom_site_type_symbol
 _atom_site_label
 _atom_site_symmetry_multiplicity
 _atom_site_fract_x
 _atom_site_fract_y
 _atom_site_fract_z
 _atom_site_occupancy
  Ti  Ti0  1  0.000000  0.000000  0.500000  1
  Ti  Ti1  1  0.500000  0.000000  0.000000  1
  V  V2  1  0.000000  0.500000  0.000000  1
  V  V3  1  0.500000  0.500000  0.500000  1
  Se  Se4  1  0.319704  0.668428  0.179280  1
  Se  Se5  1  0.819644  0.331694  0.320694  1
  Se  Se6  1  0.671619  0.817895  0.672378  1
  Se  Se7  1  0.171676  0.182079  0.827474  1
  Se  Se8  1  0.680296  0.331572  0.820720  1
  Se  Se9  1  0.180356  0.668306  0.679306  1
  Se  Se10  1  0.328381  0.182105  0.327622  1
  Se  Se11  1  0.828324  0.817921  0.172526  1
  O  O12  1  0.236298  0.537044  0.036189  1
  O  O13  1  0.736193  0.463156  0.463868  1
  O  O14  1  0.766873  0.954075  0.542511  1
  O  O15  1  0.266811  0.045835  0.957295  1
  O  O16  1  0.533614  0.945975  0.765398  1
  O  O17  1  0.465605  0.539658  0.265144  1
  O  O18  1  0.965397  0.460633  0.234995  1
  O  O19  1  0.033324  0.054306  0.734715  1
  O  O20  1  0.948033  0.226888  0.451764  1
  O  O21  1  0.539520  0.730002  0.530648  1
  O  O22  1  0.448108  0.773041  0.048086  1
  O  O23  1  0.040064  0.270289  0.969667  1
  O  O24  1  0.763702  0.462956  0.963811  1
  O  O25  1  0.263807  0.536844  0.536132  1
  O  O26  1  0.233127  0.045925  0.457489  1
  O  O27  1  0.733189  0.954165  0.042705  1
  O  O28  1  0.466386  0.054025  0.234602  1
  O  O29  1  0.534395  0.460342  0.734856  1
  O  O30  1  0.034603  0.539367  0.765005  1
  O  O31  1  0.966676  0.945694  0.265285  1
  O  O32  1  0.051967  0.773112  0.548236  1
  O  O33  1  0.460480  0.269998  0.469352  1
  O  O34  1  0.551892  0.226959  0.951914  1
  O  O35  1  0.959936  0.729711  0.030333  1
