# generated using pymatgen
data_Hf9VNiW3
_symmetry_space_group_name_H-M   'P 1'
_cell_length_a   8.70631700
_cell_length_b   8.70632216
_cell_length_c   8.43285000
_cell_angle_alpha   90.00000000
_cell_angle_beta   90.00000000
_cell_angle_gamma   119.99825162
_symmetry_Int_Tables_number   1
_chemical_formula_structural   Hf9VNiW3
_chemical_formula_sum   'Hf18 V2 Ni2 W6'
_cell_volume   553.58188162
_cell_formula_units_Z   2
loop_
 _symmetry_equiv_pos_site_id
 _symmetry_equiv_pos_as_xyz
  1  'x, y, z'
loop_
 _atom_site_type_symbol
 _atom_site_label
 _atom_site_symmetry_multiplicity
 _atom_site_fract_x
 _atom_site_fract_y
 _atom_site_fract_z
 _atom_site_occupancy
  Hf  Hf0  1  0.198438  0.801567  0.441930  1
  Hf  Hf1  1  0.198434  0.396880  0.441932  1
  Hf  Hf2  1  0.603121  0.801566  0.441935  1
  Hf  Hf3  1  0.801562  0.198433  0.558070  1
  Hf  Hf4  1  0.801566  0.603120  0.558068  1
  Hf  Hf5  1  0.396879  0.198434  0.558065  1
  Hf  Hf6  1  0.801562  0.198433  0.941930  1
  Hf  Hf7  1  0.801566  0.603120  0.941932  1
  Hf  Hf8  1  0.396879  0.198434  0.941935  1
  Hf  Hf9  1  0.198438  0.801567  0.058070  1
  Hf  Hf10  1  0.198434  0.396880  0.058068  1
  Hf  Hf11  1  0.603121  0.801566  0.058065  1
  Hf  Hf12  1  0.542533  0.457466  0.250000  1
  Hf  Hf13  1  0.542529  0.085057  0.250000  1
  Hf  Hf14  1  0.914940  0.457469  0.250000  1
  Hf  Hf15  1  0.457467  0.542534  0.750000  1
  Hf  Hf16  1  0.457471  0.914943  0.750000  1
  Hf  Hf17  1  0.085060  0.542531  0.750000  1
  V  V18  1  0.000000  0.000000  0.500000  1
  V  V19  1  0.000000  0.000000  0.000000  1
  Ni  Ni20  1  0.333344  0.666636  0.250000  1
  Ni  Ni21  1  0.666656  0.333364  0.750000  1
  W  W22  1  0.889163  0.110837  0.250000  1
  W  W23  1  0.889167  0.778329  0.250000  1
  W  W24  1  0.221673  0.110835  0.250000  1
  W  W25  1  0.110837  0.889163  0.750000  1
  W  W26  1  0.110833  0.221671  0.750000  1
  W  W27  1  0.778327  0.889165  0.750000  1
