# generated using pymatgen
data_Th4CrP8Os7
_symmetry_space_group_name_H-M   'P 1'
_cell_length_a   4.18190300
_cell_length_b   7.59397103
_cell_length_c   10.49296144
_cell_angle_alpha   90.25718872
_cell_angle_beta   90.00000000
_cell_angle_gamma   90.00000000
_symmetry_Int_Tables_number   1
_chemical_formula_structural   Th4CrP8Os7
_chemical_formula_sum   'Th4 Cr1 P8 Os7'
_cell_volume   333.22424465
_cell_formula_units_Z   1
loop_
 _symmetry_equiv_pos_site_id
 _symmetry_equiv_pos_as_xyz
  1  'x, y, z'
loop_
 _atom_site_type_symbol
 _atom_site_label
 _atom_site_symmetry_multiplicity
 _atom_site_fract_x
 _atom_site_fract_y
 _atom_site_fract_z
 _atom_site_occupancy
  Th  Th0  1  0.250000  0.266495  0.668662  1
  Th  Th1  1  0.750000  0.730521  0.332111  1
  Th  Th2  1  0.250000  0.763113  0.827529  1
  Th  Th3  1  0.750000  0.234638  0.170019  1
  Cr  Cr4  1  0.750000  0.632631  0.630521  1
  P  P5  1  0.250000  0.093044  0.966096  1
  P  P6  1  0.750000  0.905903  0.032141  1
  P  P7  1  0.250000  0.593175  0.537758  1
  P  P8  1  0.750000  0.409803  0.474165  1
  P  P9  1  0.250000  0.532865  0.161805  1
  P  P10  1  0.750000  0.468519  0.836142  1
  P  P11  1  0.250000  0.033396  0.339700  1
  P  P12  1  0.750000  0.962969  0.660152  1
  Os  Os13  1  0.750000  0.110883  0.450680  1
  Os  Os14  1  0.250000  0.890858  0.547619  1
  Os  Os15  1  0.750000  0.610523  0.046715  1
  Os  Os16  1  0.250000  0.389532  0.951915  1
  Os  Os17  1  0.250000  0.870096  0.132116  1
  Os  Os18  1  0.750000  0.128331  0.867615  1
  Os  Os19  1  0.250000  0.372704  0.366538  1
