# generated using pymatgen
data_Dy7YRe3B24Ir
_symmetry_space_group_name_H-M   'P 1'
_cell_length_a   3.68049200
_cell_length_b   9.17826140
_cell_length_c   11.56136801
_cell_angle_alpha   90.13217156
_cell_angle_beta   90.00000000
_cell_angle_gamma   90.00000000
_symmetry_Int_Tables_number   1
_chemical_formula_structural   Dy7YRe3B24Ir
_chemical_formula_sum   'Dy7 Y1 Re3 B24 Ir1'
_cell_volume   390.54795733
_cell_formula_units_Z   1
loop_
 _symmetry_equiv_pos_site_id
 _symmetry_equiv_pos_as_xyz
  1  'x, y, z'
loop_
 _atom_site_type_symbol
 _atom_site_label
 _atom_site_symmetry_multiplicity
 _atom_site_fract_x
 _atom_site_fract_y
 _atom_site_fract_z
 _atom_site_occupancy
  Dy  Dy0  1  0.000000  0.678357  0.591297  1
  Dy  Dy1  1  0.000000  0.827342  0.081424  1
  Dy  Dy2  1  0.000000  0.177054  0.912525  1
  Dy  Dy3  1  0.000000  0.943992  0.370372  1
  Dy  Dy4  1  0.000000  0.055813  0.628894  1
  Dy  Dy5  1  0.000000  0.441102  0.128415  1
  Dy  Dy6  1  0.000000  0.556724  0.871689  1
  Y  Y7  1  0.000000  0.318276  0.415537  1
  Re  Re8  1  0.000000  0.362718  0.677515  1
  Re  Re9  1  0.000000  0.138237  0.179756  1
  Re  Re10  1  0.000000  0.861834  0.821105  1
  B  B11  1  0.500000  0.553909  0.433609  1
  B  B12  1  0.500000  0.446883  0.566877  1
  B  B13  1  0.500000  0.053372  0.066673  1
  B  B14  1  0.500000  0.947127  0.932594  1
  B  B15  1  0.500000  0.748747  0.420045  1
  B  B16  1  0.500000  0.251006  0.581204  1
  B  B17  1  0.500000  0.248575  0.081257  1
  B  B18  1  0.500000  0.752155  0.918877  1
  B  B19  1  0.500000  0.790917  0.265449  1
  B  B20  1  0.500000  0.208696  0.733850  1
  B  B21  1  0.500000  0.291360  0.234689  1
  B  B22  1  0.500000  0.708380  0.766164  1
  B  B23  1  0.500000  0.632023  0.184618  1
  B  B24  1  0.500000  0.369123  0.813819  1
  B  B25  1  0.500000  0.131020  0.314508  1
  B  B26  1  0.500000  0.868129  0.685788  1
  B  B27  1  0.500000  0.983335  0.211935  1
  B  B28  1  0.500000  0.017013  0.787026  1
  B  B29  1  0.500000  0.483331  0.287841  1
  B  B30  1  0.500000  0.517826  0.712399  1
  B  B31  1  0.500000  0.604728  0.029707  1
  B  B32  1  0.500000  0.396300  0.971613  1
  B  B33  1  0.500000  0.102854  0.470813  1
  B  B34  1  0.500000  0.894096  0.528628  1
  Ir  Ir35  1  0.000000  0.637644  0.321493  1
