# generated using pymatgen
data_Sc12Co4SbOs
_symmetry_space_group_name_H-M   'P 1'
_cell_length_a   7.72885667
_cell_length_b   7.72890424
_cell_length_c   7.72885572
_cell_angle_alpha   111.44031595
_cell_angle_beta   110.62630808
_cell_angle_gamma   106.39112026
_symmetry_Int_Tables_number   1
_chemical_formula_structural   Sc12Co4SbOs
_chemical_formula_sum   'Sc12 Co4 Sb1 Os1'
_cell_volume   354.62450426
_cell_formula_units_Z   1
loop_
 _symmetry_equiv_pos_site_id
 _symmetry_equiv_pos_as_xyz
  1  'x, y, z'
loop_
 _atom_site_type_symbol
 _atom_site_label
 _atom_site_symmetry_multiplicity
 _atom_site_fract_x
 _atom_site_fract_y
 _atom_site_fract_z
 _atom_site_occupancy
  Sc  Sc0  1  0.424223  0.223913  0.200309  1
  Sc  Sc1  1  0.575777  0.776087  0.799691  1
  Sc  Sc2  1  0.023603  0.223913  0.799690  1
  Sc  Sc3  1  0.976397  0.776087  0.200310  1
  Sc  Sc4  1  0.311659  0.615079  0.303420  1
  Sc  Sc5  1  0.688341  0.384921  0.696580  1
  Sc  Sc6  1  0.311659  0.008238  0.696579  1
  Sc  Sc7  1  0.688341  0.991762  0.303421  1
  Sc  Sc8  1  0.182518  0.273001  0.455520  1
  Sc  Sc9  1  0.817482  0.726998  0.544480  1
  Sc  Sc10  1  0.182518  0.726998  0.909517  1
  Sc  Sc11  1  0.817482  0.273001  0.090483  1
  Co  Co12  1  0.364696  0.000000  0.364696  1
  Co  Co13  1  0.635304  0.000000  0.635304  1
  Co  Co14  1  0.117976  0.617976  0.499999  1
  Co  Co15  1  0.882024  0.382024  0.500001  1
  Sb  Sb16  1  0.500000  0.500000  0.000000  1
  Os  Os17  1  0.000000  0.000000  0.000000  1
