# generated using pymatgen
data_Lu5MnRhO12
_symmetry_space_group_name_H-M   'P 1'
_cell_length_a   6.70775387
_cell_length_b   6.70775475
_cell_length_c   7.06704100
_cell_angle_alpha   74.57397979
_cell_angle_beta   74.57397771
_cell_angle_gamma   50.71286035
_symmetry_Int_Tables_number   1
_chemical_formula_structural   Lu5MnRhO12
_chemical_formula_sum   'Lu5 Mn1 Rh1 O12'
_cell_volume   235.20324382
_cell_formula_units_Z   1
loop_
 _symmetry_equiv_pos_site_id
 _symmetry_equiv_pos_as_xyz
  1  'x, y, z'
loop_
 _atom_site_type_symbol
 _atom_site_label
 _atom_site_symmetry_multiplicity
 _atom_site_fract_x
 _atom_site_fract_y
 _atom_site_fract_z
 _atom_site_occupancy
  Lu  Lu0  1  0.691302  0.690543  0.670140  1
  Lu  Lu1  1  0.691861  0.705221  0.139784  1
  Lu  Lu2  1  0.000270  0.999730  0.000000  1
  Lu  Lu3  1  0.294779  0.308139  0.860216  1
  Lu  Lu4  1  0.309457  0.308698  0.329860  1
  Mn  Mn5  1  0.250865  0.749135  0.500000  1
  Rh  Rh6  1  0.758777  0.241223  0.500000  1
  O  O7  1  0.401927  0.905356  0.925253  1
  O  O8  1  0.571441  0.096131  0.584817  1
  O  O9  1  0.903869  0.428559  0.415183  1
  O  O10  1  0.094644  0.598073  0.074747  1
  O  O11  1  0.011062  0.988375  0.313021  1
  O  O12  1  0.492779  0.506989  0.691535  1
  O  O13  1  0.900723  0.401974  0.927144  1
  O  O14  1  0.096986  0.573404  0.583918  1
  O  O15  1  0.426596  0.903014  0.416082  1
  O  O16  1  0.598026  0.099277  0.072856  1
  O  O17  1  0.493011  0.507221  0.308465  1
  O  O18  1  0.011625  0.988938  0.686979  1
