# generated using pymatgen
data_Nd8Ga(Si4Ni)3
_symmetry_space_group_name_H-M   'P 1'
_cell_length_a   8.14364700
_cell_length_b   8.14364882
_cell_length_c   8.54988100
_cell_angle_alpha   90.00000000
_cell_angle_beta   90.00000000
_cell_angle_gamma   119.99999665
_symmetry_Int_Tables_number   1
_chemical_formula_structural   Nd8Ga(Si4Ni)3
_chemical_formula_sum   'Nd8 Ga1 Si12 Ni3'
_cell_volume   491.05336807
_cell_formula_units_Z   1
loop_
 _symmetry_equiv_pos_site_id
 _symmetry_equiv_pos_as_xyz
  1  'x, y, z'
loop_
 _atom_site_type_symbol
 _atom_site_label
 _atom_site_symmetry_multiplicity
 _atom_site_fract_x
 _atom_site_fract_y
 _atom_site_fract_z
 _atom_site_occupancy
  Nd  Nd0  1  0.499054  0.500946  0.752736  1
  Nd  Nd1  1  0.499082  0.500918  0.247252  1
  Nd  Nd2  1  0.001889  0.500946  0.752736  1
  Nd  Nd3  1  0.001836  0.500918  0.247252  1
  Nd  Nd4  1  0.499054  0.998111  0.752736  1
  Nd  Nd5  1  0.499082  0.998164  0.247252  1
  Nd  Nd6  1  0.000000  0.000000  0.753791  1
  Nd  Nd7  1  0.000000  0.000000  0.246283  1
  Ga  Ga8  1  0.666667  0.333333  0.499843  1
  Si  Si9  1  0.828250  0.171750  0.999932  1
  Si  Si10  1  0.171216  0.828784  0.000051  1
  Si  Si11  1  0.343500  0.171750  0.999932  1
  Si  Si12  1  0.174972  0.825028  0.499916  1
  Si  Si13  1  0.657568  0.828784  0.000051  1
  Si  Si14  1  0.839009  0.160991  0.500123  1
  Si  Si15  1  0.828250  0.656500  0.999932  1
  Si  Si16  1  0.650057  0.825028  0.499916  1
  Si  Si17  1  0.171216  0.342432  0.000051  1
  Si  Si18  1  0.321982  0.160991  0.500123  1
  Si  Si19  1  0.174972  0.349943  0.499916  1
  Si  Si20  1  0.839009  0.678018  0.500123  1
  Ni  Ni21  1  0.666667  0.333333  0.000113  1
  Ni  Ni22  1  0.333333  0.666667  0.000070  1
  Ni  Ni23  1  0.333333  0.666667  0.499877  1
