# generated using pymatgen
data_Er4Ga24Pd8Au
_symmetry_space_group_name_H-M   'P 1'
_cell_length_a   7.51701576
_cell_length_b   7.58580879
_cell_length_c   13.38802918
_cell_angle_alpha   84.87700177
_cell_angle_beta   79.63189090
_cell_angle_gamma   60.30764008
_symmetry_Int_Tables_number   1
_chemical_formula_structural   Er4Ga24Pd8Au
_chemical_formula_sum   'Er4 Ga24 Pd8 Au1'
_cell_volume   652.35324096
_cell_formula_units_Z   1
loop_
 _symmetry_equiv_pos_site_id
 _symmetry_equiv_pos_as_xyz
  1  'x, y, z'
loop_
 _atom_site_type_symbol
 _atom_site_label
 _atom_site_symmetry_multiplicity
 _atom_site_fract_x
 _atom_site_fract_y
 _atom_site_fract_z
 _atom_site_occupancy
  Er  Er0  1  0.391549  0.170224  0.811113  1
  Er  Er1  1  0.606170  0.831590  0.189994  1
  Er  Er2  1  0.733501  0.496851  0.811003  1
  Er  Er3  1  0.268133  0.503110  0.189120  1
  Ga  Ga4  1  0.684570  0.834597  0.940186  1
  Ga  Ga5  1  0.313745  0.165838  0.061232  1
  Ga  Ga6  1  0.143400  0.843524  0.557705  1
  Ga  Ga7  1  0.857443  0.164335  0.438556  1
  Ga  Ga8  1  0.488714  0.158234  0.555173  1
  Ga  Ga9  1  0.521860  0.832575  0.441455  1
  Ga  Ga10  1  0.220192  0.165084  0.324096  1
  Ga  Ga11  1  0.773080  0.840015  0.678487  1
  Ga  Ga12  1  0.441970  0.503253  0.679067  1
  Ga  Ga13  1  0.563396  0.496412  0.323491  1
  Ga  Ga14  1  0.107163  0.155309  0.677640  1
  Ga  Ga15  1  0.891522  0.837952  0.324556  1
  Ga  Ga16  1  0.358441  0.497220  0.940238  1
  Ga  Ga17  1  0.642503  0.502062  0.061008  1
  Ga  Ga18  1  0.018886  0.168748  0.945889  1
  Ga  Ga19  1  0.980375  0.831026  0.055517  1
  Ga  Ga20  1  0.188920  0.500654  0.437517  1
  Ga  Ga21  1  0.804821  0.498930  0.555534  1
  Ga  Ga22  1  0.733773  0.163137  0.182734  1
  Ga  Ga23  1  0.267990  0.836345  0.817605  1
  Ga  Ga24  1  0.058801  0.634973  0.820057  1
  Ga  Ga25  1  0.939894  0.369013  0.183716  1
  Ga  Ga26  1  0.853493  0.042997  0.817038  1
  Ga  Ga27  1  0.144381  0.958130  0.183387  1
  Pd  Pd28  1  0.882057  0.504762  0.360827  1
  Pd  Pd29  1  0.659446  0.169772  0.999640  1
  Pd  Pd30  1  0.340579  0.829872  0.000240  1
  Pd  Pd31  1  0.540363  0.167781  0.360372  1
  Pd  Pd32  1  0.459239  0.832479  0.638621  1
  Pd  Pd33  1  0.779479  0.172992  0.637553  1
  Pd  Pd34  1  0.220930  0.826342  0.361614  1
  Pd  Pd35  1  0.999917  0.499695  0.000513  1
  Au  Au36  1  0.119304  0.494166  0.637506  1
