# generated using pymatgen
data_Tb5Dy3(As3Rh4)4
_symmetry_space_group_name_H-M   'P 1'
_cell_length_a   13.32389900
_cell_length_b   13.32389924
_cell_length_c   4.01340700
_cell_angle_alpha   90.00000000
_cell_angle_beta   90.00000000
_cell_angle_gamma   120.00000189
_symmetry_Int_Tables_number   1
_chemical_formula_structural   Tb5Dy3(As3Rh4)4
_chemical_formula_sum   'Tb5 Dy3 As12 Rh16'
_cell_volume   617.03031111
_cell_formula_units_Z   1
loop_
 _symmetry_equiv_pos_site_id
 _symmetry_equiv_pos_as_xyz
  1  'x, y, z'
loop_
 _atom_site_type_symbol
 _atom_site_label
 _atom_site_symmetry_multiplicity
 _atom_site_fract_x
 _atom_site_fract_y
 _atom_site_fract_z
 _atom_site_occupancy
  Tb  Tb0  1  0.187933  0.187933  0.500000  1
  Tb  Tb1  1  0.812067  0.000000  0.500000  1
  Tb  Tb2  1  0.000000  0.812067  0.500000  1
  Tb  Tb3  1  0.333333  0.666667  0.000000  1
  Tb  Tb4  1  0.666667  0.333333  0.000000  1
  Dy  Dy5  1  0.558621  0.558621  0.000000  1
  Dy  Dy6  1  0.441379  0.000000  0.000000  1
  Dy  Dy7  1  0.000000  0.441379  0.000000  1
  As  As8  1  0.824109  0.824109  0.000000  1
  As  As9  1  0.175891  0.000000  0.000000  1
  As  As10  1  0.000000  0.175891  0.000000  1
  As  As11  1  0.174500  0.487395  0.500000  1
  As  As12  1  0.512605  0.687105  0.500000  1
  As  As13  1  0.312895  0.825500  0.500000  1
  As  As14  1  0.687105  0.512605  0.500000  1
  As  As15  1  0.825500  0.312895  0.500000  1
  As  As16  1  0.487395  0.174500  0.500000  1
  As  As17  1  0.349978  0.349978  0.000000  1
  As  As18  1  0.650022  0.000000  0.000000  1
  As  As19  1  0.000000  0.650022  0.000000  1
  Rh  Rh20  1  0.722347  0.722347  0.500000  1
  Rh  Rh21  1  0.277653  0.000000  0.500000  1
  Rh  Rh22  1  0.000000  0.277653  0.500000  1
  Rh  Rh23  1  0.177541  0.374247  0.000000  1
  Rh  Rh24  1  0.625753  0.803293  0.000000  1
  Rh  Rh25  1  0.196707  0.822459  0.000000  1
  Rh  Rh26  1  0.803293  0.625753  0.000000  1
  Rh  Rh27  1  0.822459  0.196707  0.000000  1
  Rh  Rh28  1  0.374247  0.177541  0.000000  1
  Rh  Rh29  1  0.353533  0.479747  0.500000  1
  Rh  Rh30  1  0.520253  0.873787  0.500000  1
  Rh  Rh31  1  0.126213  0.646467  0.500000  1
  Rh  Rh32  1  0.873787  0.520253  0.500000  1
  Rh  Rh33  1  0.646467  0.126213  0.500000  1
  Rh  Rh34  1  0.479747  0.353533  0.500000  1
  Rh  Rh35  1  0.000000  0.000000  0.000000  1
