# generated using pymatgen
data_Hf18Ta7As2Ir
_symmetry_space_group_name_H-M   'P 1'
_cell_length_a   8.74233926
_cell_length_b   8.74233815
_cell_length_c   8.89341200
_cell_angle_alpha   89.98731765
_cell_angle_beta   90.01268228
_cell_angle_gamma   120.02655471
_symmetry_Int_Tables_number   1
_chemical_formula_structural   Hf18Ta7As2Ir
_chemical_formula_sum   'Hf18 Ta7 As2 Ir1'
_cell_volume   588.48854611
_cell_formula_units_Z   1
loop_
 _symmetry_equiv_pos_site_id
 _symmetry_equiv_pos_as_xyz
  1  'x, y, z'
loop_
 _atom_site_type_symbol
 _atom_site_label
 _atom_site_symmetry_multiplicity
 _atom_site_fract_x
 _atom_site_fract_y
 _atom_site_fract_z
 _atom_site_occupancy
  Hf  Hf0  1  0.801980  0.604026  0.545709  1
  Hf  Hf1  1  0.801773  0.198227  0.545517  1
  Hf  Hf2  1  0.395974  0.198020  0.545709  1
  Hf  Hf3  1  0.198020  0.395974  0.454291  1
  Hf  Hf4  1  0.198227  0.801773  0.454483  1
  Hf  Hf5  1  0.604026  0.801980  0.454291  1
  Hf  Hf6  1  0.194790  0.389554  0.048045  1
  Hf  Hf7  1  0.194967  0.805033  0.047974  1
  Hf  Hf8  1  0.610446  0.805210  0.048045  1
  Hf  Hf9  1  0.805210  0.610446  0.951955  1
  Hf  Hf10  1  0.805033  0.194967  0.952026  1
  Hf  Hf11  1  0.389554  0.194790  0.951955  1
  Hf  Hf12  1  0.461176  0.922376  0.753724  1
  Hf  Hf13  1  0.461162  0.538838  0.753876  1
  Hf  Hf14  1  0.077624  0.538824  0.753724  1
  Hf  Hf15  1  0.538824  0.077624  0.246276  1
  Hf  Hf16  1  0.538838  0.461162  0.246124  1
  Hf  Hf17  1  0.922376  0.461176  0.246276  1
  Ta  Ta18  1  0.111528  0.223228  0.750343  1
  Ta  Ta19  1  0.111598  0.888402  0.750286  1
  Ta  Ta20  1  0.776772  0.888472  0.750343  1
  Ta  Ta21  1  0.888472  0.776772  0.249657  1
  Ta  Ta22  1  0.888402  0.111598  0.249714  1
  Ta  Ta23  1  0.223228  0.111528  0.249657  1
  Ta  Ta24  1  0.000000  0.000000  0.500000  1
  As  As25  1  0.666598  0.333402  0.753169  1
  As  As26  1  0.333402  0.666598  0.246831  1
  Ir  Ir27  1  0.000000  0.000000  0.000000  1
