# generated using pymatgen
data_Tb4CoHg
_symmetry_space_group_name_H-M   'P 1'
_cell_length_a   9.48049683
_cell_length_b   9.47935204
_cell_length_c   9.48062592
_cell_angle_alpha   60.10805836
_cell_angle_beta   60.11315477
_cell_angle_gamma   60.09685400
_symmetry_Int_Tables_number   1
_chemical_formula_structural   Tb4CoHg
_chemical_formula_sum   'Tb16 Co4 Hg4'
_cell_volume   603.91212224
_cell_formula_units_Z   4
loop_
 _symmetry_equiv_pos_site_id
 _symmetry_equiv_pos_as_xyz
  1  'x, y, z'
loop_
 _atom_site_type_symbol
 _atom_site_label
 _atom_site_symmetry_multiplicity
 _atom_site_fract_x
 _atom_site_fract_y
 _atom_site_fract_z
 _atom_site_occupancy
  Tb  Tb0  1  0.439361  0.439312  0.060052  1
  Tb  Tb1  1  0.597591  0.598002  0.597588  1
  Tb  Tb2  1  0.189385  0.811244  0.811180  1
  Tb  Tb3  1  0.060663  0.060255  0.437692  1
  Tb  Tb4  1  0.437555  0.060374  0.060641  1
  Tb  Tb5  1  0.811281  0.189406  0.811141  1
  Tb  Tb6  1  0.439135  0.060014  0.439419  1
  Tb  Tb7  1  0.599164  0.204325  0.599438  1
  Tb  Tb8  1  0.811255  0.811178  0.189435  1
  Tb  Tb9  1  0.204499  0.599343  0.599296  1
  Tb  Tb10  1  0.809181  0.189275  0.189286  1
  Tb  Tb11  1  0.060219  0.439181  0.439448  1
  Tb  Tb12  1  0.189231  0.809228  0.189244  1
  Tb  Tb13  1  0.599240  0.599584  0.204183  1
  Tb  Tb14  1  0.189276  0.189271  0.809079  1
  Tb  Tb15  1  0.060598  0.437497  0.060421  1
  Co  Co16  1  0.390783  0.390743  0.390933  1
  Co  Co17  1  0.827467  0.392411  0.392244  1
  Co  Co18  1  0.392353  0.827417  0.392241  1
  Co  Co19  1  0.392284  0.392384  0.827552  1
  Hg  Hg20  1  0.834839  0.834845  0.496033  1
  Hg  Hg21  1  0.833791  0.833781  0.833819  1
  Hg  Hg22  1  0.496060  0.834809  0.834828  1
  Hg  Hg23  1  0.834788  0.496120  0.834806  1
