# generated using pymatgen
data_Y9TmInSb5
_symmetry_space_group_name_H-M   'P 1'
_cell_length_a   6.39843723
_cell_length_b   8.99717666
_cell_length_c   8.98169696
_cell_angle_alpha   120.07691275
_cell_angle_beta   90.02326492
_cell_angle_gamma   90.00574706
_symmetry_Int_Tables_number   1
_chemical_formula_structural   Y9TmInSb5
_chemical_formula_sum   'Y9 Tm1 In1 Sb5'
_cell_volume   447.43712787
_cell_formula_units_Z   1
loop_
 _symmetry_equiv_pos_site_id
 _symmetry_equiv_pos_as_xyz
  1  'x, y, z'
loop_
 _atom_site_type_symbol
 _atom_site_label
 _atom_site_symmetry_multiplicity
 _atom_site_fract_x
 _atom_site_fract_y
 _atom_site_fract_z
 _atom_site_occupancy
  Y  Y0  1  0.499067  0.666142  0.332060  1
  Y  Y1  1  0.000816  0.665959  0.331700  1
  Y  Y2  1  0.000898  0.334349  0.668112  1
  Y  Y3  1  0.749942  0.244492  0.000076  1
  Y  Y4  1  0.749876  0.753796  0.757267  1
  Y  Y5  1  0.749811  0.996677  0.242547  1
  Y  Y6  1  0.250212  0.756887  0.999747  1
  Y  Y7  1  0.250120  0.247038  0.245197  1
  Y  Y8  1  0.250068  0.001670  0.754651  1
  Tm  Tm9  1  0.499569  0.334940  0.668679  1
  In  In10  1  0.748724  0.605574  0.999060  1
  Sb  Sb11  1  0.749072  0.388172  0.390047  1
  Sb  Sb12  1  0.749086  0.000152  0.610677  1
  Sb  Sb13  1  0.251006  0.390630  0.999005  1
  Sb  Sb14  1  0.250839  0.611258  0.610887  1
  Sb  Sb15  1  0.250900  0.002262  0.390288  1
