# generated using pymatgen
data_Ho10TlBi5
_symmetry_space_group_name_H-M   'P 1'
_cell_length_a   9.10545900
_cell_length_b   9.10926074
_cell_length_c   6.43035100
_cell_angle_alpha   90.00000000
_cell_angle_beta   90.00000000
_cell_angle_gamma   120.01381227
_symmetry_Int_Tables_number   1
_chemical_formula_structural   Ho10TlBi5
_chemical_formula_sum   'Ho10 Tl1 Bi5'
_cell_volume   461.83817161
_cell_formula_units_Z   1
loop_
 _symmetry_equiv_pos_site_id
 _symmetry_equiv_pos_as_xyz
  1  'x, y, z'
loop_
 _atom_site_type_symbol
 _atom_site_label
 _atom_site_symmetry_multiplicity
 _atom_site_fract_x
 _atom_site_fract_y
 _atom_site_fract_z
 _atom_site_occupancy
  Ho  Ho0  1  0.671757  0.334420  0.001508  1
  Ho  Ho1  1  0.328243  0.662663  0.001508  1
  Ho  Ho2  1  0.328243  0.662663  0.498492  1
  Ho  Ho3  1  0.671757  0.334420  0.498492  1
  Ho  Ho4  1  0.760174  0.758816  0.750000  1
  Ho  Ho5  1  0.239826  0.998642  0.750000  1
  Ho  Ho6  1  0.000000  0.238992  0.750000  1
  Ho  Ho7  1  0.234568  0.241744  0.250000  1
  Ho  Ho8  1  0.765432  0.007177  0.250000  1
  Ho  Ho9  1  0.000000  0.757004  0.250000  1
  Tl  Tl10  1  0.000000  0.394962  0.250000  1
  Bi  Bi11  1  0.393596  0.390799  0.750000  1
  Bi  Bi12  1  0.606404  0.997203  0.750000  1
  Bi  Bi13  1  0.000000  0.608170  0.750000  1
  Bi  Bi14  1  0.608507  0.610414  0.250000  1
  Bi  Bi15  1  0.391493  0.001907  0.250000  1
