# generated using pymatgen
data_MgMn5Zn6Fe2(NiO6)4
_symmetry_space_group_name_H-M   'P 1'
_cell_length_a   5.98350889
_cell_length_b   5.98272454
_cell_length_c   13.24309900
_cell_angle_alpha   77.17095424
_cell_angle_beta   77.50438767
_cell_angle_gamma   90.12903862
_symmetry_Int_Tables_number   1
_chemical_formula_structural   MgMn5Zn6Fe2(NiO6)4
_chemical_formula_sum   'Mg1 Mn5 Zn6 Fe2 Ni4 O24'
_cell_volume   450.65846069
_cell_formula_units_Z   1
loop_
 _symmetry_equiv_pos_site_id
 _symmetry_equiv_pos_as_xyz
  1  'x, y, z'
loop_
 _atom_site_type_symbol
 _atom_site_label
 _atom_site_symmetry_multiplicity
 _atom_site_fract_x
 _atom_site_fract_y
 _atom_site_fract_z
 _atom_site_occupancy
  Mg  Mg0  1  0.500000  0.500000  0.500000  1
  Mn  Mn1  1  0.000000  0.500000  0.500000  1
  Mn  Mn2  1  0.160635  0.166988  0.167739  1
  Mn  Mn3  1  0.839365  0.833012  0.832261  1
  Mn  Mn4  1  0.168883  0.166146  0.665637  1
  Mn  Mn5  1  0.831117  0.833854  0.334363  1
  Zn  Zn6  1  0.291348  0.025199  0.417808  1
  Zn  Zn7  1  0.973908  0.699332  0.083874  1
  Zn  Zn8  1  0.627014  0.367359  0.748488  1
  Zn  Zn9  1  0.026092  0.300668  0.916126  1
  Zn  Zn10  1  0.708652  0.974801  0.582192  1
  Zn  Zn11  1  0.372986  0.632641  0.251512  1
  Fe  Fe12  1  0.500000  0.000000  0.000000  1
  Fe  Fe13  1  0.500000  0.500000  0.000000  1
  Ni  Ni14  1  0.168538  0.664533  0.666686  1
  Ni  Ni15  1  0.831462  0.335467  0.333314  1
  Ni  Ni16  1  0.660429  0.165846  0.169628  1
  Ni  Ni17  1  0.339571  0.834154  0.830372  1
  O  O18  1  0.078488  0.071035  0.820992  1
  O  O19  1  0.770431  0.737283  0.490603  1
  O  O20  1  0.397927  0.395718  0.163671  1
  O  O21  1  0.931470  0.922593  0.678244  1
  O  O22  1  0.611519  0.600566  0.335162  1
  O  O23  1  0.255278  0.244648  0.010208  1
  O  O24  1  0.387789  0.932388  0.666129  1
  O  O25  1  0.056709  0.592156  0.345580  1
  O  O26  1  0.717675  0.247425  0.006469  1
  O  O27  1  0.074281  0.616200  0.828544  1
  O  O28  1  0.767006  0.285809  0.494607  1
  O  O29  1  0.400472  0.946043  0.160389  1
  O  O30  1  0.229569  0.262717  0.509397  1
  O  O31  1  0.921512  0.928965  0.179008  1
  O  O32  1  0.602073  0.604282  0.836329  1
  O  O33  1  0.388481  0.399434  0.664838  1
  O  O34  1  0.068530  0.077408  0.321756  1
  O  O35  1  0.744722  0.755352  0.989792  1
  O  O36  1  0.943291  0.407844  0.654420  1
  O  O37  1  0.612211  0.067612  0.333871  1
  O  O38  1  0.282325  0.752575  0.993531  1
  O  O39  1  0.232994  0.714191  0.505393  1
  O  O40  1  0.925719  0.383800  0.171456  1
  O  O41  1  0.599528  0.053957  0.839611  1
