# generated using pymatgen
data_ErTm2NiRu2
_symmetry_space_group_name_H-M   'P 1'
_cell_length_a   3.39014000
_cell_length_b   3.39014000
_cell_length_c   9.84168600
_cell_angle_alpha   90.00000000
_cell_angle_beta   90.00000000
_cell_angle_gamma   90.00000000
_symmetry_Int_Tables_number   1
_chemical_formula_structural   ErTm2NiRu2
_chemical_formula_sum   'Er1 Tm2 Ni1 Ru2'
_cell_volume   113.11098160
_cell_formula_units_Z   1
loop_
 _symmetry_equiv_pos_site_id
 _symmetry_equiv_pos_as_xyz
  1  'x, y, z'
loop_
 _atom_site_type_symbol
 _atom_site_label
 _atom_site_symmetry_multiplicity
 _atom_site_fract_x
 _atom_site_fract_y
 _atom_site_fract_z
 _atom_site_occupancy
  Er  Er0  1  0.000000  0.000000  0.667426  1
  Tm  Tm1  1  0.000000  0.000000  0.000220  1
  Tm  Tm2  1  0.000000  0.000000  0.332165  1
  Ni  Ni3  1  0.500000  0.500000  0.499737  1
  Ru  Ru4  1  0.500000  0.500000  0.173520  1
  Ru  Ru5  1  0.500000  0.500000  0.826930  1
