# generated using pymatgen
data_Rb7Ba(TcN3)4
_symmetry_space_group_name_H-M   'P 1'
_cell_length_a   6.87478086
_cell_length_b   6.87478091
_cell_length_c   13.76304704
_cell_angle_alpha   90.62220501
_cell_angle_beta   89.37779459
_cell_angle_gamma   127.37054805
_symmetry_Int_Tables_number   1
_chemical_formula_structural   Rb7Ba(TcN3)4
_chemical_formula_sum   'Rb7 Ba1 Tc4 N12'
_cell_volume   516.91396216
_cell_formula_units_Z   1
loop_
 _symmetry_equiv_pos_site_id
 _symmetry_equiv_pos_as_xyz
  1  'x, y, z'
loop_
 _atom_site_type_symbol
 _atom_site_label
 _atom_site_symmetry_multiplicity
 _atom_site_fract_x
 _atom_site_fract_y
 _atom_site_fract_z
 _atom_site_occupancy
  Rb  Rb0  1  0.865053  0.134947  0.421363  1
  Rb  Rb1  1  0.368488  0.631512  0.084461  1
  Rb  Rb2  1  0.627317  0.372683  0.924827  1
  Rb  Rb3  1  0.141407  0.858593  0.573974  1
  Rb  Rb4  1  0.439889  0.560111  0.631984  1
  Rb  Rb5  1  0.562604  0.437396  0.361207  1
  Rb  Rb6  1  0.059410  0.940590  0.141519  1
  Ba  Ba7  1  0.923967  0.076033  0.870232  1
  Tc  Tc8  1  0.761593  0.238407  0.672948  1
  Tc  Tc9  1  0.746224  0.253776  0.166947  1
  Tc  Tc10  1  0.245802  0.754198  0.324526  1
  Tc  Tc11  1  0.250322  0.749678  0.831793  1
  N  N12  1  0.983522  0.514284  0.753755  1
  N  N13  1  0.527057  0.975441  0.245330  1
  N  N14  1  0.024559  0.472943  0.245330  1
  N  N15  1  0.485716  0.016478  0.753755  1
  N  N16  1  0.385407  0.614593  0.878590  1
  N  N17  1  0.608785  0.391215  0.135423  1
  N  N18  1  0.108720  0.891280  0.361774  1
  N  N19  1  0.676602  0.323398  0.570317  1
  N  N20  1  0.144556  0.855444  0.922545  1
  N  N21  1  0.830553  0.169447  0.059172  1
  N  N22  1  0.330965  0.669035  0.427141  1
  N  N23  1  0.901480  0.098520  0.641087  1
