# generated using pymatgen
data_Dy15HoIn4Ir3Os
_symmetry_space_group_name_H-M   'P 1'
_cell_length_a   9.67741116
_cell_length_b   9.66389090
_cell_length_c   9.66832986
_cell_angle_alpha   60.01518791
_cell_angle_beta   60.10177507
_cell_angle_gamma   60.04621123
_symmetry_Int_Tables_number   1
_chemical_formula_structural   Dy15HoIn4Ir3Os
_chemical_formula_sum   'Dy15 Ho1 In4 Ir3 Os1'
_cell_volume   640.15068982
_cell_formula_units_Z   1
loop_
 _symmetry_equiv_pos_site_id
 _symmetry_equiv_pos_as_xyz
  1  'x, y, z'
loop_
 _atom_site_type_symbol
 _atom_site_label
 _atom_site_symmetry_multiplicity
 _atom_site_fract_x
 _atom_site_fract_y
 _atom_site_fract_z
 _atom_site_occupancy
  Dy  Dy0  1  0.438753  0.443472  0.059001  1
  Dy  Dy1  1  0.649381  0.652189  0.046241  1
  Dy  Dy2  1  0.192977  0.808381  0.190261  1
  Dy  Dy3  1  0.059336  0.440303  0.060057  1
  Dy  Dy4  1  0.192948  0.807558  0.809816  1
  Dy  Dy5  1  0.060252  0.439449  0.439507  1
  Dy  Dy6  1  0.809479  0.191011  0.191927  1
  Dy  Dy7  1  0.650658  0.653107  0.651471  1
  Dy  Dy8  1  0.808970  0.190863  0.809304  1
  Dy  Dy9  1  0.192948  0.189678  0.809816  1
  Dy  Dy10  1  0.047590  0.651469  0.649474  1
  Dy  Dy11  1  0.438753  0.058775  0.059001  1
  Dy  Dy12  1  0.060252  0.060791  0.439507  1
  Dy  Dy13  1  0.650658  0.044764  0.651471  1
  Dy  Dy14  1  0.809479  0.807583  0.191927  1
  Ho  Ho15  1  0.438440  0.059088  0.443384  1
  In  In16  1  0.417124  0.416527  0.417466  1
  In  In17  1  0.417060  0.417320  0.748301  1
  In  In18  1  0.417124  0.748885  0.417466  1
  In  In19  1  0.747347  0.417282  0.418090  1
  Ir  Ir20  1  0.859649  0.859027  0.858255  1
  Ir  Ir21  1  0.859649  0.423067  0.858255  1
  Ir  Ir22  1  0.859265  0.859395  0.421944  1
  Os  Os23  1  0.421905  0.860018  0.858058  1
