# generated using pymatgen
data_Sc4Re3B8MoRu6
_symmetry_space_group_name_H-M   'P 1'
_cell_length_a   3.04570300
_cell_length_b   8.58779659
_cell_length_c   10.03166957
_cell_angle_alpha   90.21878642
_cell_angle_beta   90.00000000
_cell_angle_gamma   90.00000000
_symmetry_Int_Tables_number   1
_chemical_formula_structural   Sc4Re3B8MoRu6
_chemical_formula_sum   'Sc4 Re3 B8 Mo1 Ru6'
_cell_volume   262.38521080
_cell_formula_units_Z   1
loop_
 _symmetry_equiv_pos_site_id
 _symmetry_equiv_pos_as_xyz
  1  'x, y, z'
loop_
 _atom_site_type_symbol
 _atom_site_label
 _atom_site_symmetry_multiplicity
 _atom_site_fract_x
 _atom_site_fract_y
 _atom_site_fract_z
 _atom_site_occupancy
  Sc  Sc0  1  0.500000  0.842670  0.181399  1
  Sc  Sc1  1  0.500000  0.158578  0.818541  1
  Sc  Sc2  1  0.500000  0.657935  0.681646  1
  Sc  Sc3  1  0.500000  0.343199  0.318159  1
  Re  Re4  1  0.000000  0.338637  0.047951  1
  Re  Re5  1  0.000000  0.840431  0.452946  1
  Re  Re6  1  0.000000  0.160047  0.546064  1
  B  B7  1  0.500000  0.965257  0.588646  1
  B  B8  1  0.500000  0.034883  0.410682  1
  B  B9  1  0.500000  0.852080  0.899848  1
  B  B10  1  0.500000  0.150615  0.098994  1
  B  B11  1  0.500000  0.651228  0.401290  1
  B  B12  1  0.500000  0.347897  0.598904  1
  B  B13  1  0.500000  0.460598  0.913452  1
  B  B14  1  0.500000  0.531135  0.089170  1
  Mo  Mo15  1  0.000000  0.660506  0.952906  1
  Ru  Ru16  1  0.000000  0.002076  0.999665  1
  Ru  Ru17  1  0.000000  0.403212  0.759755  1
  Ru  Ru18  1  0.000000  0.596373  0.240471  1
  Ru  Ru19  1  0.000000  0.500319  0.500433  1
  Ru  Ru20  1  0.000000  0.905328  0.739006  1
  Ru  Ru21  1  0.000000  0.096994  0.260073  1
