# generated using pymatgen
data_Sc3Pa(Ni2Pb)2
_symmetry_space_group_name_H-M   'P 1'
_cell_length_a   7.37215956
_cell_length_b   7.37216117
_cell_length_c   3.38996800
_cell_angle_alpha   90.00000000
_cell_angle_beta   90.00000000
_cell_angle_gamma   93.06923794
_symmetry_Int_Tables_number   1
_chemical_formula_structural   Sc3Pa(Ni2Pb)2
_chemical_formula_sum   'Sc3 Pa1 Ni4 Pb2'
_cell_volume   183.97623624
_cell_formula_units_Z   1
loop_
 _symmetry_equiv_pos_site_id
 _symmetry_equiv_pos_as_xyz
  1  'x, y, z'
loop_
 _atom_site_type_symbol
 _atom_site_label
 _atom_site_symmetry_multiplicity
 _atom_site_fract_x
 _atom_site_fract_y
 _atom_site_fract_z
 _atom_site_occupancy
  Sc  Sc0  1  0.166857  0.334678  0.500000  1
  Sc  Sc1  1  0.834678  0.666857  0.500000  1
  Sc  Sc2  1  0.327566  0.827566  0.500000  1
  Pa  Pa3  1  0.669493  0.169493  0.500000  1
  Ni  Ni4  1  0.869677  0.369677  0.000000  1
  Ni  Ni5  1  0.386864  0.125951  0.000000  1
  Ni  Ni6  1  0.625951  0.886864  0.000000  1
  Ni  Ni7  1  0.114606  0.614606  0.000000  1
  Pb  Pb8  1  0.014646  0.989662  0.000000  1
  Pb  Pb9  1  0.489662  0.514646  0.000000  1
