# generated using pymatgen
data_Ho2Ga2CuSi2Ni3
_symmetry_space_group_name_H-M   'P 1'
_cell_length_a   4.01085200
_cell_length_b   4.01085200
_cell_length_c   9.73154500
_cell_angle_alpha   90.00000000
_cell_angle_beta   90.00000000
_cell_angle_gamma   90.00000000
_symmetry_Int_Tables_number   1
_chemical_formula_structural   Ho2Ga2CuSi2Ni3
_chemical_formula_sum   'Ho2 Ga2 Cu1 Si2 Ni3'
_cell_volume   156.55071985
_cell_formula_units_Z   1
loop_
 _symmetry_equiv_pos_site_id
 _symmetry_equiv_pos_as_xyz
  1  'x, y, z'
loop_
 _atom_site_type_symbol
 _atom_site_label
 _atom_site_symmetry_multiplicity
 _atom_site_fract_x
 _atom_site_fract_y
 _atom_site_fract_z
 _atom_site_occupancy
  Ho  Ho0  1  0.000000  0.500000  0.760221  1
  Ho  Ho1  1  0.500000  0.000000  0.238673  1
  Ga  Ga2  1  0.500000  0.500000  0.504324  1
  Ga  Ga3  1  0.000000  0.000000  0.504324  1
  Cu  Cu4  1  0.000000  0.500000  0.354491  1
  Si  Si5  1  0.000000  0.500000  0.116544  1
  Si  Si6  1  0.500000  0.000000  0.877081  1
  Ni  Ni7  1  0.500000  0.000000  0.645764  1
  Ni  Ni8  1  0.000000  0.000000  0.999288  1
  Ni  Ni9  1  0.500000  0.500000  0.999288  1
