# generated using pymatgen
data_LaPr7(Sn4Pt3)4
_symmetry_space_group_name_H-M   'P 1'
_cell_length_a   14.75849000
_cell_length_b   14.74195585
_cell_length_c   4.47899100
_cell_angle_alpha   90.00000000
_cell_angle_beta   90.00000000
_cell_angle_gamma   119.96294222
_symmetry_Int_Tables_number   1
_chemical_formula_structural   LaPr7(Sn4Pt3)4
_chemical_formula_sum   'La1 Pr7 Sn16 Pt12'
_cell_volume   844.24773795
_cell_formula_units_Z   1
loop_
 _symmetry_equiv_pos_site_id
 _symmetry_equiv_pos_as_xyz
  1  'x, y, z'
loop_
 _atom_site_type_symbol
 _atom_site_label
 _atom_site_symmetry_multiplicity
 _atom_site_fract_x
 _atom_site_fract_y
 _atom_site_fract_z
 _atom_site_occupancy
  La  La0  1  0.000000  0.180265  0.500000  1
  Pr  Pr1  1  0.178346  0.999560  0.500000  1
  Pr  Pr2  1  0.821654  0.821215  0.500000  1
  Pr  Pr3  1  0.667062  0.334575  0.000000  1
  Pr  Pr4  1  0.332938  0.667514  0.000000  1
  Pr  Pr5  1  0.565055  0.999859  0.000000  1
  Pr  Pr6  1  0.434945  0.434804  0.000000  1
  Pr  Pr7  1  0.000000  0.565772  0.000000  1
  Sn  Sn8  1  0.496867  0.126443  0.500000  1
  Sn  Sn9  1  0.873897  0.370366  0.500000  1
  Sn  Sn10  1  0.630070  0.504836  0.500000  1
  Sn  Sn11  1  0.503133  0.629576  0.500000  1
  Sn  Sn12  1  0.369930  0.874765  0.500000  1
  Sn  Sn13  1  0.126103  0.496469  0.500000  1
  Sn  Sn14  1  0.375154  0.186341  0.000000  1
  Sn  Sn15  1  0.814280  0.187722  0.000000  1
  Sn  Sn16  1  0.811861  0.626072  0.000000  1
  Sn  Sn17  1  0.624846  0.811187  0.000000  1
  Sn  Sn18  1  0.000000  0.999356  0.000000  1
  Sn  Sn19  1  0.188139  0.814211  0.000000  1
  Sn  Sn20  1  0.725487  0.999022  0.500000  1
  Sn  Sn21  1  0.274513  0.273534  0.500000  1
  Sn  Sn22  1  0.000000  0.726123  0.500000  1
  Sn  Sn23  1  0.185720  0.373442  0.000000  1
  Pt  Pt24  1  0.000000  0.364466  0.000000  1
  Pt  Pt25  1  0.363136  0.999882  0.000000  1
  Pt  Pt26  1  0.478574  0.299937  0.500000  1
  Pt  Pt27  1  0.701538  0.178150  0.500000  1
  Pt  Pt28  1  0.821470  0.522762  0.500000  1
  Pt  Pt29  1  0.521426  0.821363  0.500000  1
  Pt  Pt30  1  0.178530  0.701292  0.500000  1
  Pt  Pt31  1  0.298462  0.476612  0.500000  1
  Pt  Pt32  1  0.000000  0.820472  0.000000  1
  Pt  Pt33  1  0.180076  0.177684  0.000000  1
  Pt  Pt34  1  0.819924  0.997608  0.000000  1
  Pt  Pt35  1  0.636864  0.636746  0.000000  1
