# generated using pymatgen
data_TbDy2Tm5Au4
_symmetry_space_group_name_H-M   'P 1'
_cell_length_a   4.88824900
_cell_length_b   7.10982908
_cell_length_c   8.87534101
_cell_angle_alpha   89.81947847
_cell_angle_beta   90.00000000
_cell_angle_gamma   90.00000000
_symmetry_Int_Tables_number   1
_chemical_formula_structural   TbDy2Tm5Au4
_chemical_formula_sum   'Tb1 Dy2 Tm5 Au4'
_cell_volume   308.45752758
_cell_formula_units_Z   1
loop_
 _symmetry_equiv_pos_site_id
 _symmetry_equiv_pos_as_xyz
  1  'x, y, z'
loop_
 _atom_site_type_symbol
 _atom_site_label
 _atom_site_symmetry_multiplicity
 _atom_site_fract_x
 _atom_site_fract_y
 _atom_site_fract_z
 _atom_site_occupancy
  Tb  Tb0  1  0.250000  0.985682  0.322241  1
  Dy  Dy1  1  0.750000  0.514412  0.823307  1
  Dy  Dy2  1  0.750000  0.014528  0.677000  1
  Tm  Tm3  1  0.250000  0.851754  0.921247  1
  Tm  Tm4  1  0.250000  0.352594  0.578988  1
  Tm  Tm5  1  0.750000  0.148521  0.079472  1
  Tm  Tm6  1  0.750000  0.647358  0.419366  1
  Tm  Tm7  1  0.250000  0.485111  0.176125  1
  Au  Au8  1  0.250000  0.254901  0.901478  1
  Au  Au9  1  0.250000  0.754009  0.600804  1
  Au  Au10  1  0.750000  0.744454  0.100640  1
  Au  Au11  1  0.750000  0.246675  0.399333  1
