# generated using pymatgen
data_Dy2Zr4Pb5
_symmetry_space_group_name_H-M   'P 1'
_cell_length_a   6.10963896
_cell_length_b   9.23571193
_cell_length_c   11.40976881
_cell_angle_alpha   113.87410472
_cell_angle_beta   105.52966205
_cell_angle_gamma   90.00000484
_symmetry_Int_Tables_number   1
_chemical_formula_structural   Dy2Zr4Pb5
_chemical_formula_sum   'Dy4 Zr8 Pb10'
_cell_volume   562.93058953
_cell_formula_units_Z   2
loop_
 _symmetry_equiv_pos_site_id
 _symmetry_equiv_pos_as_xyz
  1  'x, y, z'
loop_
 _atom_site_type_symbol
 _atom_site_label
 _atom_site_symmetry_multiplicity
 _atom_site_fract_x
 _atom_site_fract_y
 _atom_site_fract_z
 _atom_site_occupancy
  Dy  Dy0  1  0.143540  0.255291  0.287081  1
  Dy  Dy1  1  0.856460  0.744709  0.712919  1
  Dy  Dy2  1  0.643540  0.031790  0.287081  1
  Dy  Dy3  1  0.356460  0.968210  0.712919  1
  Zr  Zr4  1  0.561569  0.311569  0.623136  1
  Zr  Zr5  1  0.438431  0.688431  0.376864  1
  Zr  Zr6  1  0.938431  0.688431  0.376864  1
  Zr  Zr7  1  0.061569  0.311569  0.623136  1
  Zr  Zr8  1  0.435461  0.673275  0.870922  1
  Zr  Zr9  1  0.564539  0.326725  0.129078  1
  Zr  Zr10  1  0.935461  0.197645  0.870922  1
  Zr  Zr11  1  0.064539  0.802355  0.129078  1
  Pb  Pb12  1  0.289147  0.589497  0.578293  1
  Pb  Pb13  1  0.710853  0.410503  0.421707  1
  Pb  Pb14  1  0.789147  0.988796  0.578293  1
  Pb  Pb15  1  0.210853  0.011204  0.421707  1
  Pb  Pb16  1  0.250000  0.000000  0.000000  1
  Pb  Pb17  1  0.750000  0.000000  0.000000  1
  Pb  Pb18  1  0.067293  0.464427  0.134585  1
  Pb  Pb19  1  0.932707  0.535573  0.865415  1
  Pb  Pb20  1  0.567293  0.670158  0.134585  1
  Pb  Pb21  1  0.432707  0.329842  0.865415  1
