# generated using pymatgen
data_Nd4Sb3O4
_symmetry_space_group_name_H-M   'P 1'
_cell_length_a   4.07593900
_cell_length_b   7.46294233
_cell_length_c   8.53023600
_cell_angle_alpha   90.00000000
_cell_angle_beta   90.00000000
_cell_angle_gamma   74.15246279
_symmetry_Int_Tables_number   1
_chemical_formula_structural   Nd4Sb3O4
_chemical_formula_sum   'Nd4 Sb3 O4'
_cell_volume   249.61470047
_cell_formula_units_Z   1
loop_
 _symmetry_equiv_pos_site_id
 _symmetry_equiv_pos_as_xyz
  1  'x, y, z'
loop_
 _atom_site_type_symbol
 _atom_site_label
 _atom_site_symmetry_multiplicity
 _atom_site_fract_x
 _atom_site_fract_y
 _atom_site_fract_z
 _atom_site_occupancy
  Nd  Nd0  1  0.991825  0.016349  0.000000  1
  Nd  Nd1  1  0.328237  0.343524  0.239009  1
  Nd  Nd2  1  0.975422  0.049155  0.500001  1
  Nd  Nd3  1  0.328237  0.343524  0.760991  1
  Sb  Sb4  1  0.690261  0.619480  0.000000  1
  Sb  Sb5  1  0.637387  0.725226  0.321976  1
  Sb  Sb6  1  0.637387  0.725226  0.678024  1
  O  O7  1  0.414231  0.171537  0.000000  1
  O  O8  1  0.909252  0.181498  0.244338  1
  O  O9  1  0.388685  0.222627  0.500001  1
  O  O10  1  0.909252  0.181498  0.755662  1
