# generated using pymatgen
data_HfZrCl2
_symmetry_space_group_name_H-M   'P 1'
_cell_length_a   10.01540722
_cell_length_b   10.01540757
_cell_length_c   10.01540665
_cell_angle_alpha   19.65433995
_cell_angle_beta   19.65433154
_cell_angle_gamma   19.65433941
_symmetry_Int_Tables_number   1
_chemical_formula_structural   HfZrCl2
_chemical_formula_sum   'Hf1 Zr1 Cl2'
_cell_volume   99.39002684
_cell_formula_units_Z   1
loop_
 _symmetry_equiv_pos_site_id
 _symmetry_equiv_pos_as_xyz
  1  'x, y, z'
loop_
 _atom_site_type_symbol
 _atom_site_label
 _atom_site_symmetry_multiplicity
 _atom_site_fract_x
 _atom_site_fract_y
 _atom_site_fract_z
 _atom_site_occupancy
  Hf  Hf0  1  0.626734  0.626734  0.626734  1
  Zr  Zr1  1  0.373051  0.373051  0.373051  1
  Cl  Cl2  1  0.900976  0.900976  0.900976  1
  Cl  Cl3  1  0.099239  0.099239  0.099239  1
