# generated using pymatgen
data_Na12V7CrP8(O8F3)4
_symmetry_space_group_name_H-M   'P 1'
_cell_length_a   9.16654900
_cell_length_b   9.19762600
_cell_length_c   10.92377900
_cell_angle_alpha   90.00000000
_cell_angle_beta   90.00000000
_cell_angle_gamma   90.00000000
_symmetry_Int_Tables_number   1
_chemical_formula_structural   Na12V7CrP8(O8F3)4
_chemical_formula_sum   'Na12 V7 Cr1 P8 O32 F12'
_cell_volume   920.98915373
_cell_formula_units_Z   1
loop_
 _symmetry_equiv_pos_site_id
 _symmetry_equiv_pos_as_xyz
  1  'x, y, z'
loop_
 _atom_site_type_symbol
 _atom_site_label
 _atom_site_symmetry_multiplicity
 _atom_site_fract_x
 _atom_site_fract_y
 _atom_site_fract_z
 _atom_site_occupancy
  Na  Na0  1  0.033164  0.284499  0.500169  1
  Na  Na1  1  0.050378  0.808187  0.000597  1
  Na  Na2  1  0.243053  0.516155  0.000950  1
  Na  Na3  1  0.256883  0.014176  0.500216  1
  Na  Na4  1  0.451731  0.307475  0.499934  1
  Na  Na5  1  0.464219  0.785420  0.000600  1
  Na  Na6  1  0.535429  0.214982  0.001399  1
  Na  Na7  1  0.549719  0.692559  0.499613  1
  Na  Na8  1  0.743152  0.984476  0.499418  1
  Na  Na9  1  0.756814  0.484182  0.000441  1
  Na  Na10  1  0.950549  0.193003  0.001372  1
  Na  Na11  1  0.964785  0.715031  0.499401  1
  V  V12  1  0.249309  0.245595  0.814629  1
  V  V13  1  0.250812  0.745750  0.314189  1
  V  V14  1  0.250637  0.745614  0.685745  1
  V  V15  1  0.749209  0.254308  0.314150  1
  V  V16  1  0.749162  0.254287  0.686058  1
  V  V17  1  0.750830  0.754702  0.185740  1
  V  V18  1  0.750815  0.754364  0.814473  1
  Cr  Cr19  1  0.249277  0.246498  0.185289  1
  P  P20  1  0.000095  0.000167  0.743033  1
  P  P21  1  0.001133  0.000940  0.256604  1
  P  P22  1  0.499871  0.499965  0.757289  1
  P  P23  1  0.499447  0.499389  0.242777  1
  P  P24  1  0.499924  0.000081  0.747492  1
  P  P25  1  0.498945  0.000881  0.252163  1
  P  P26  1  0.000151  0.499868  0.752997  1
  P  P27  1  0.000570  0.499251  0.246896  1
  O  O28  1  0.091383  0.598839  0.332433  1
  O  O29  1  0.090710  0.599326  0.667353  1
  O  O30  1  0.092174  0.097538  0.169161  1
  O  O31  1  0.091062  0.098119  0.830236  1
  O  O32  1  0.097904  0.405522  0.161949  1
  O  O33  1  0.097997  0.906416  0.658770  1
  O  O34  1  0.099116  0.406903  0.837484  1
  O  O35  1  0.098130  0.906562  0.341520  1
  O  O36  1  0.401090  0.907253  0.663139  1
  O  O37  1  0.401144  0.907345  0.337208  1
  O  O38  1  0.402114  0.404867  0.158346  1
  O  O39  1  0.401855  0.405955  0.841611  1
  O  O40  1  0.408811  0.597368  0.329978  1
  O  O41  1  0.409093  0.597711  0.670124  1
  O  O42  1  0.407661  0.098674  0.166051  1
  O  O43  1  0.409016  0.099643  0.833073  1
  O  O44  1  0.590634  0.901134  0.167206  1
  O  O45  1  0.590644  0.900588  0.833016  1
  O  O46  1  0.590643  0.402172  0.330153  1
  O  O47  1  0.590654  0.402107  0.670193  1
  O  O48  1  0.597265  0.593449  0.158386  1
  O  O49  1  0.597757  0.593702  0.841643  1
  O  O50  1  0.598695  0.092974  0.663087  1
  O  O51  1  0.597884  0.093611  0.336940  1
  O  O52  1  0.901707  0.592728  0.162758  1
  O  O53  1  0.901309  0.592726  0.837374  1
  O  O54  1  0.902282  0.093912  0.658696  1
  O  O55  1  0.902906  0.094359  0.341306  1
  O  O56  1  0.909618  0.902845  0.169903  1
  O  O57  1  0.909434  0.902337  0.830241  1
  O  O58  1  0.909384  0.400565  0.332880  1
  O  O59  1  0.909469  0.400145  0.667677  1
  F  F60  1  0.250415  0.239900  0.364253  1
  F  F61  1  0.250193  0.237704  0.628494  1
  F  F62  1  0.246628  0.248832  0.003279  1
  F  F63  1  0.253581  0.748850  0.500141  1
  F  F64  1  0.249968  0.737696  0.129048  1
  F  F65  1  0.249756  0.738026  0.870661  1
  F  F66  1  0.750010  0.261895  0.129265  1
  F  F67  1  0.750169  0.261843  0.870890  1
  F  F68  1  0.746357  0.251079  0.500224  1
  F  F69  1  0.753613  0.751153  0.000090  1
  F  F70  1  0.749889  0.761908  0.370566  1
  F  F71  1  0.749817  0.761916  0.629561  1
