# generated using pymatgen
data_Dy16Cd3CoNi3Ag
_symmetry_space_group_name_H-M   'P 1'
_cell_length_a   9.51353915
_cell_length_b   9.49511615
_cell_length_c   9.51354096
_cell_angle_alpha   59.97323824
_cell_angle_beta   59.97899082
_cell_angle_gamma   59.97323800
_symmetry_Int_Tables_number   1
_chemical_formula_structural   Dy16Cd3CoNi3Ag
_chemical_formula_sum   'Dy16 Cd3 Co1 Ni3 Ag1'
_cell_volume   607.33015533
_cell_formula_units_Z   1
loop_
 _symmetry_equiv_pos_site_id
 _symmetry_equiv_pos_as_xyz
  1  'x, y, z'
loop_
 _atom_site_type_symbol
 _atom_site_label
 _atom_site_symmetry_multiplicity
 _atom_site_fract_x
 _atom_site_fract_y
 _atom_site_fract_z
 _atom_site_occupancy
  Dy  Dy0  1  0.151982  0.544878  0.151982  1
  Dy  Dy1  1  0.688847  0.312038  0.688847  1
  Dy  Dy2  1  0.685969  0.310601  0.311148  1
  Dy  Dy3  1  0.938878  0.559458  0.566008  1
  Dy  Dy4  1  0.545418  0.151839  0.152262  1
  Dy  Dy5  1  0.152262  0.151839  0.545418  1
  Dy  Dy6  1  0.936028  0.934993  0.563730  1
  Dy  Dy7  1  0.310919  0.686418  0.310919  1
  Dy  Dy8  1  0.563730  0.934993  0.936028  1
  Dy  Dy9  1  0.563563  0.937157  0.563563  1
  Dy  Dy10  1  0.689054  0.688941  0.312256  1
  Dy  Dy11  1  0.566008  0.559458  0.938878  1
  Dy  Dy12  1  0.936865  0.559077  0.936865  1
  Dy  Dy13  1  0.312256  0.688941  0.689054  1
  Dy  Dy14  1  0.152418  0.151660  0.152418  1
  Dy  Dy15  1  0.311148  0.310601  0.685969  1
  Cd  Cd16  1  0.919319  0.923255  0.919319  1
  Cd  Cd17  1  0.918602  0.921840  0.242072  1
  Cd  Cd18  1  0.242072  0.921840  0.918602  1
  Co  Co19  1  0.356816  0.357636  0.356816  1
  Ni  Ni20  1  0.357516  0.357295  0.927039  1
  Ni  Ni21  1  0.357460  0.926072  0.357460  1
  Ni  Ni22  1  0.927039  0.357295  0.357516  1
  Ag  Ag23  1  0.915830  0.251877  0.915830  1
