# generated using pymatgen
data_Tb2Be25Co
_symmetry_space_group_name_H-M   'P 1'
_cell_length_a   7.22045891
_cell_length_b   7.23830814
_cell_length_c   7.27777063
_cell_angle_alpha   59.65700192
_cell_angle_beta   59.89984030
_cell_angle_gamma   59.90381885
_symmetry_Int_Tables_number   1
_chemical_formula_structural   Tb2Be25Co
_chemical_formula_sum   'Tb2 Be25 Co1'
_cell_volume   267.85767931
_cell_formula_units_Z   1
loop_
 _symmetry_equiv_pos_site_id
 _symmetry_equiv_pos_as_xyz
  1  'x, y, z'
loop_
 _atom_site_type_symbol
 _atom_site_label
 _atom_site_symmetry_multiplicity
 _atom_site_fract_x
 _atom_site_fract_y
 _atom_site_fract_z
 _atom_site_occupancy
  Tb  Tb0  1  0.249992  0.247011  0.254832  1
  Tb  Tb1  1  0.752989  0.750008  0.751836  1
  Be  Be2  1  0.497063  0.502937  0.501702  1
  Be  Be3  1  0.001441  0.998559  0.003456  1
  Be  Be4  1  0.063897  0.288527  0.712430  1
  Be  Be5  1  0.711473  0.936103  0.064854  1
  Be  Be6  1  0.066715  0.933285  0.288998  1
  Be  Be7  1  0.934351  0.065649  0.714342  1
  Be  Be8  1  0.935068  0.290029  0.063205  1
  Be  Be9  1  0.709971  0.064932  0.288302  1
  Be  Be10  1  0.560320  0.793434  0.436566  1
  Be  Be11  1  0.436456  0.790507  0.208349  1
  Be  Be12  1  0.792539  0.437771  0.564115  1
  Be  Be13  1  0.439892  0.206802  0.562598  1
  Be  Be14  1  0.793198  0.560108  0.209292  1
  Be  Be15  1  0.562229  0.207461  0.794425  1
  Be  Be16  1  0.206566  0.439680  0.790320  1
  Be  Be17  1  0.209493  0.563544  0.435312  1
  Be  Be18  1  0.709509  0.290491  0.933917  1
  Be  Be19  1  0.289429  0.065607  0.930234  1
  Be  Be20  1  0.288026  0.935943  0.710793  1
  Be  Be21  1  0.064057  0.711974  0.934762  1
  Be  Be22  1  0.934393  0.710571  0.285270  1
  Be  Be23  1  0.292957  0.707043  0.063903  1
  Be  Be24  1  0.565742  0.434258  0.208711  1
  Be  Be25  1  0.796257  0.203743  0.439978  1
  Be  Be26  1  0.433226  0.566774  0.787077  1
  Co  Co27  1  0.202751  0.797249  0.560419  1
