# generated using pymatgen
data_Ho16Sc4Ir7Rh5
_symmetry_space_group_name_H-M   'P 1'
_cell_length_a   10.71404092
_cell_length_b   10.71404092
_cell_length_c   6.29252000
_cell_angle_alpha   90.04591525
_cell_angle_beta   90.04591525
_cell_angle_gamma   89.98819366
_symmetry_Int_Tables_number   1
_chemical_formula_structural   Ho16Sc4Ir7Rh5
_chemical_formula_sum   'Ho16 Sc4 Ir7 Rh5'
_cell_volume   722.32212625
_cell_formula_units_Z   1
loop_
 _symmetry_equiv_pos_site_id
 _symmetry_equiv_pos_as_xyz
  1  'x, y, z'
loop_
 _atom_site_type_symbol
 _atom_site_label
 _atom_site_symmetry_multiplicity
 _atom_site_fract_x
 _atom_site_fract_y
 _atom_site_fract_z
 _atom_site_occupancy
  Ho  Ho0  1  0.287491  0.086467  0.377882  1
  Ho  Ho1  1  0.287560  0.913538  0.877443  1
  Ho  Ho2  1  0.712060  0.086454  0.877169  1
  Ho  Ho3  1  0.712126  0.912265  0.378038  1
  Ho  Ho4  1  0.586481  0.787500  0.877740  1
  Ho  Ho5  1  0.585246  0.212745  0.377964  1
  Ho  Ho6  1  0.413386  0.787503  0.377855  1
  Ho  Ho7  1  0.413583  0.212523  0.877732  1
  Ho  Ho8  1  0.212500  0.413519  0.622260  1
  Ho  Ho9  1  0.212497  0.586614  0.122145  1
  Ho  Ho10  1  0.787255  0.414754  0.122036  1
  Ho  Ho11  1  0.787477  0.586417  0.622268  1
  Ho  Ho12  1  0.913533  0.712509  0.122118  1
  Ho  Ho13  1  0.913546  0.287940  0.622831  1
  Ho  Ho14  1  0.086462  0.712440  0.622557  1
  Ho  Ho15  1  0.087735  0.287874  0.121962  1
  Sc  Sc16  1  0.000556  0.999529  0.500757  1
  Sc  Sc17  1  0.000471  0.999444  0.999243  1
  Sc  Sc18  1  0.499976  0.499982  0.999881  1
  Sc  Sc19  1  0.500018  0.500024  0.500119  1
  Ir  Ir20  1  0.851316  0.852116  0.749900  1
  Ir  Ir21  1  0.147884  0.148684  0.750100  1
  Ir  Ir22  1  0.148443  0.851557  0.250000  1
  Ir  Ir23  1  0.649202  0.350798  0.750000  1
  Ir  Ir24  1  0.648749  0.648722  0.250013  1
  Ir  Ir25  1  0.351278  0.351251  0.249987  1
  Ir  Ir26  1  0.351317  0.648683  0.750000  1
  Rh  Rh27  1  0.851246  0.148754  0.250000  1
  Rh  Rh28  1  0.500419  0.000083  0.122494  1
  Rh  Rh29  1  0.500377  0.000106  0.622176  1
  Rh  Rh30  1  0.999894  0.499623  0.877824  1
  Rh  Rh31  1  0.999917  0.499581  0.377506  1
