# generated using pymatgen
data_NpNi4Ag
_symmetry_space_group_name_H-M   'P 1'
_cell_length_a   4.89397640
_cell_length_b   4.89397622
_cell_length_c   4.89397600
_cell_angle_alpha   60.00000146
_cell_angle_beta   60.00000268
_cell_angle_gamma   60.00000447
_symmetry_Int_Tables_number   1
_chemical_formula_structural   NpNi4Ag
_chemical_formula_sum   'Np1 Ni4 Ag1'
_cell_volume   82.88397873
_cell_formula_units_Z   1
loop_
 _symmetry_equiv_pos_site_id
 _symmetry_equiv_pos_as_xyz
  1  'x, y, z'
loop_
 _atom_site_type_symbol
 _atom_site_label
 _atom_site_symmetry_multiplicity
 _atom_site_fract_x
 _atom_site_fract_y
 _atom_site_fract_z
 _atom_site_occupancy
  Np  Np0  1  0.499999  0.499999  0.499999  1
  Ni  Ni1  1  0.875456  0.875456  0.373632  1
  Ni  Ni2  1  0.875456  0.373632  0.875456  1
  Ni  Ni3  1  0.875456  0.875456  0.875456  1
  Ni  Ni4  1  0.373632  0.875456  0.875456  1
  Ag  Ag5  1  0.250000  0.250000  0.250000  1
