# generated using pymatgen
data_Cs3NbS4
_symmetry_space_group_name_H-M   'P 1'
_cell_length_a   9.86782662
_cell_length_b   11.59996200
_cell_length_c   9.95696555
_cell_angle_alpha   90.00000000
_cell_angle_beta   90.08282221
_cell_angle_gamma   90.00000000
_symmetry_Int_Tables_number   1
_chemical_formula_structural   Cs3NbS4
_chemical_formula_sum   'Cs12 Nb4 S16'
_cell_volume   1139.73694915
_cell_formula_units_Z   4
loop_
 _symmetry_equiv_pos_site_id
 _symmetry_equiv_pos_as_xyz
  1  'x, y, z'
loop_
 _atom_site_type_symbol
 _atom_site_label
 _atom_site_symmetry_multiplicity
 _atom_site_fract_x
 _atom_site_fract_y
 _atom_site_fract_z
 _atom_site_occupancy
  Cs  Cs0  1  0.853479  0.750000  0.084695  1
  Cs  Cs1  1  0.451711  0.040690  0.208700  1
  Cs  Cs2  1  0.451711  0.459310  0.208700  1
  Cs  Cs3  1  0.951617  0.041040  0.292422  1
  Cs  Cs4  1  0.951617  0.458960  0.292422  1
  Cs  Cs5  1  0.353861  0.750000  0.414036  1
  Cs  Cs6  1  0.646906  0.250000  0.587060  1
  Cs  Cs7  1  0.049175  0.541402  0.707686  1
  Cs  Cs8  1  0.049175  0.958598  0.707686  1
  Cs  Cs9  1  0.547694  0.541343  0.790329  1
  Cs  Cs10  1  0.547694  0.958657  0.790329  1
  Cs  Cs11  1  0.147249  0.250000  0.914049  1
  Nb  Nb12  1  0.720823  0.250000  0.017355  1
  Nb  Nb13  1  0.221907  0.250000  0.483705  1
  Nb  Nb14  1  0.778452  0.750000  0.515493  1
  Nb  Nb15  1  0.278365  0.750000  0.984092  1
  S  S16  1  0.832662  0.086532  0.952269  1
  S  S17  1  0.832662  0.413468  0.952269  1
  S  S18  1  0.166394  0.586586  0.048445  1
  S  S19  1  0.166394  0.913414  0.048445  1
  S  S20  1  0.493092  0.750000  0.072953  1
  S  S21  1  0.705925  0.250000  0.246763  1
  S  S22  1  0.205701  0.250000  0.254602  1
  S  S23  1  0.993108  0.750000  0.426815  1
  S  S24  1  0.666249  0.586574  0.451318  1
  S  S25  1  0.666249  0.913426  0.451318  1
  S  S26  1  0.333949  0.086448  0.547899  1
  S  S27  1  0.333949  0.413552  0.547899  1
  S  S28  1  0.007585  0.250000  0.573030  1
  S  S29  1  0.794311  0.750000  0.744659  1
  S  S30  1  0.294113  0.750000  0.754798  1
  S  S31  1  0.506226  0.250000  0.927758  1
