# generated using pymatgen
data_Mn2Nb3ReC
_symmetry_space_group_name_H-M   'P 1'
_cell_length_a   8.24222951
_cell_length_b   8.24222954
_cell_length_c   8.24222900
_cell_angle_alpha   59.99999816
_cell_angle_beta   59.99999804
_cell_angle_gamma   59.99999649
_symmetry_Int_Tables_number   1
_chemical_formula_structural   Mn2Nb3ReC
_chemical_formula_sum   'Mn8 Nb12 Re4 C4'
_cell_volume   395.93059600
_cell_formula_units_Z   4
loop_
 _symmetry_equiv_pos_site_id
 _symmetry_equiv_pos_as_xyz
  1  'x, y, z'
loop_
 _atom_site_type_symbol
 _atom_site_label
 _atom_site_symmetry_multiplicity
 _atom_site_fract_x
 _atom_site_fract_y
 _atom_site_fract_z
 _atom_site_occupancy
  Mn  Mn0  1  0.328153  0.328153  0.328153  1
  Mn  Mn1  1  0.234458  0.921847  0.921847  1
  Mn  Mn2  1  0.921847  0.234458  0.921847  1
  Mn  Mn3  1  0.921847  0.921847  0.234458  1
  Mn  Mn4  1  0.328153  0.015542  0.328153  1
  Mn  Mn5  1  0.328153  0.328153  0.015542  1
  Mn  Mn6  1  0.015542  0.328153  0.328153  1
  Mn  Mn7  1  0.921847  0.921847  0.921847  1
  Nb  Nb8  1  0.691591  0.308409  0.691591  1
  Nb  Nb9  1  0.941591  0.558409  0.558409  1
  Nb  Nb10  1  0.558409  0.941591  0.941591  1
  Nb  Nb11  1  0.941591  0.558409  0.941591  1
  Nb  Nb12  1  0.558409  0.558409  0.941591  1
  Nb  Nb13  1  0.941591  0.941591  0.558409  1
  Nb  Nb14  1  0.691591  0.691591  0.308409  1
  Nb  Nb15  1  0.308409  0.691591  0.691591  1
  Nb  Nb16  1  0.691591  0.308409  0.308409  1
  Nb  Nb17  1  0.308409  0.308409  0.691591  1
  Nb  Nb18  1  0.558409  0.941591  0.558409  1
  Nb  Nb19  1  0.308409  0.691591  0.308409  1
  Re  Re20  1  0.125000  0.125000  0.125000  1
  Re  Re21  1  0.625000  0.125000  0.125000  1
  Re  Re22  1  0.125000  0.625000  0.125000  1
  Re  Re23  1  0.125000  0.125000  0.625000  1
  C  C24  1  0.625000  0.625000  0.625000  1
  C  C25  1  0.125000  0.625000  0.625000  1
  C  C26  1  0.625000  0.125000  0.625000  1
  C  C27  1  0.625000  0.625000  0.125000  1
