# generated using pymatgen
data_Ce2LuZr3F22
_symmetry_space_group_name_H-M   'P 1'
_cell_length_a   8.46539578
_cell_length_b   8.46539682
_cell_length_c   8.49174564
_cell_angle_alpha   124.66760383
_cell_angle_beta   106.20040103
_cell_angle_gamma   98.60077562
_symmetry_Int_Tables_number   1
_chemical_formula_structural   Ce2LuZr3F22
_chemical_formula_sum   'Ce2 Lu1 Zr3 F22'
_cell_volume   442.51576032
_cell_formula_units_Z   1
loop_
 _symmetry_equiv_pos_site_id
 _symmetry_equiv_pos_as_xyz
  1  'x, y, z'
loop_
 _atom_site_type_symbol
 _atom_site_label
 _atom_site_symmetry_multiplicity
 _atom_site_fract_x
 _atom_site_fract_y
 _atom_site_fract_z
 _atom_site_occupancy
  Ce  Ce0  1  0.749375  0.247245  0.494791  1
  Ce  Ce1  1  0.247546  0.745416  0.494791  1
  Lu  Lu2  1  0.681727  0.637153  0.318880  1
  Zr  Zr3  1  0.321357  0.366191  0.687548  1
  Zr  Zr4  1  0.179178  0.866479  0.045657  1
  Zr  Zr5  1  0.815589  0.135441  0.951030  1
  F  F6  1  0.707436  0.914592  0.350116  1
  F  F7  1  0.293273  0.097191  0.652383  1
  F  F8  1  0.555191  0.359110  0.652383  1
  F  F9  1  0.945253  0.601737  0.809408  1
  F  F10  1  0.435525  0.642680  0.350116  1
  F  F11  1  0.057501  0.394442  0.187583  1
  F  F12  1  0.793141  0.130081  0.187583  1
  F  F13  1  0.207671  0.864154  0.809408  1
  F  F14  1  0.496006  0.496539  0.992545  1
  F  F15  1  0.000885  0.001503  0.002388  1
  F  F16  1  0.780873  0.877724  0.658597  1
  F  F17  1  0.220431  0.129599  0.350030  1
  F  F18  1  0.280195  0.630849  0.911043  1
  F  F19  1  0.719943  0.365512  0.085453  1
  F  F20  1  0.968217  0.737478  0.423108  1
  F  F21  1  0.046875  0.263339  0.583598  1
  F  F22  1  0.320259  0.536722  0.583598  1
  F  F23  1  0.174238  0.759161  0.212248  1
  F  F24  1  0.685631  0.454891  0.423108  1
  F  F25  1  0.823693  0.245275  0.785179  1
  F  F26  1  0.539904  0.961486  0.785179  1
  F  F27  1  0.453087  0.038010  0.212248  1
