# generated using pymatgen
data_TbTm(ThPt2)2
_symmetry_space_group_name_H-M   'P 1'
_cell_length_a   3.85785600
_cell_length_b   4.46193100
_cell_length_c   11.15035300
_cell_angle_alpha   90.00000000
_cell_angle_beta   90.00000000
_cell_angle_gamma   90.00000000
_symmetry_Int_Tables_number   1
_chemical_formula_structural   TbTm(ThPt2)2
_chemical_formula_sum   'Tb1 Tm1 Th2 Pt4'
_cell_volume   191.93645953
_cell_formula_units_Z   1
loop_
 _symmetry_equiv_pos_site_id
 _symmetry_equiv_pos_as_xyz
  1  'x, y, z'
loop_
 _atom_site_type_symbol
 _atom_site_label
 _atom_site_symmetry_multiplicity
 _atom_site_fract_x
 _atom_site_fract_y
 _atom_site_fract_z
 _atom_site_occupancy
  Tb  Tb0  1  0.000000  0.000000  0.145990  1
  Tm  Tm1  1  0.500000  0.500000  0.354646  1
  Th  Th2  1  0.000000  0.500000  0.872112  1
  Th  Th3  1  0.500000  0.000000  0.627178  1
  Pt  Pt4  1  0.500000  0.500000  0.091355  1
  Pt  Pt5  1  0.000000  0.500000  0.597910  1
  Pt  Pt6  1  0.000000  0.000000  0.408838  1
  Pt  Pt7  1  0.500000  0.000000  0.901972  1
