# generated using pymatgen
data_Sc16TlAg3Rh4
_symmetry_space_group_name_H-M   'P 1'
_cell_length_a   8.94139486
_cell_length_b   8.95240114
_cell_length_c   8.95240200
_cell_angle_alpha   59.99999681
_cell_angle_beta   59.95926945
_cell_angle_gamma   59.95927476
_symmetry_Int_Tables_number   1
_chemical_formula_structural   Sc16TlAg3Rh4
_chemical_formula_sum   'Sc16 Tl1 Ag3 Rh4'
_cell_volume   506.40938797
_cell_formula_units_Z   1
loop_
 _symmetry_equiv_pos_site_id
 _symmetry_equiv_pos_as_xyz
  1  'x, y, z'
loop_
 _atom_site_type_symbol
 _atom_site_label
 _atom_site_symmetry_multiplicity
 _atom_site_fract_x
 _atom_site_fract_y
 _atom_site_fract_z
 _atom_site_occupancy
  Sc  Sc0  1  0.355383  0.353343  0.353343  1
  Sc  Sc1  1  0.355383  0.353343  0.937934  1
  Sc  Sc2  1  0.355383  0.937934  0.353343  1
  Sc  Sc3  1  0.930725  0.356425  0.356425  1
  Sc  Sc4  1  0.812125  0.188381  0.188381  1
  Sc  Sc5  1  0.188399  0.811861  0.811861  1
  Sc  Sc6  1  0.188399  0.811861  0.187880  1
  Sc  Sc7  1  0.812125  0.188381  0.811110  1
  Sc  Sc8  1  0.188399  0.187880  0.811861  1
  Sc  Sc9  1  0.812125  0.811110  0.188381  1
  Sc  Sc10  1  0.932999  0.564271  0.564271  1
  Sc  Sc11  1  0.564566  0.935137  0.935137  1
  Sc  Sc12  1  0.564566  0.935137  0.565159  1
  Sc  Sc13  1  0.932999  0.564271  0.938459  1
  Sc  Sc14  1  0.564566  0.565159  0.935137  1
  Sc  Sc15  1  0.932999  0.938459  0.564271  1
  Tl  Tl16  1  0.253907  0.582031  0.582031  1
  Ag  Ag17  1  0.586443  0.584295  0.584295  1
  Ag  Ag18  1  0.586443  0.584295  0.244965  1
  Ag  Ag19  1  0.586443  0.244965  0.584295  1
  Rh  Rh20  1  0.142505  0.146028  0.146028  1
  Rh  Rh21  1  0.142505  0.146028  0.565436  1
  Rh  Rh22  1  0.142505  0.565436  0.146028  1
  Rh  Rh23  1  0.568109  0.143963  0.143963  1
