# generated using pymatgen
data_Hf16ReNi4Mo3
_symmetry_space_group_name_H-M   'P 1'
_cell_length_a   8.68108206
_cell_length_b   8.68108231
_cell_length_c   8.68108230
_cell_angle_alpha   60.20475864
_cell_angle_beta   60.20474771
_cell_angle_gamma   60.20475787
_symmetry_Int_Tables_number   1
_chemical_formula_structural   Hf16ReNi4Mo3
_chemical_formula_sum   'Hf16 Re1 Ni4 Mo3'
_cell_volume   464.74579133
_cell_formula_units_Z   1
loop_
 _symmetry_equiv_pos_site_id
 _symmetry_equiv_pos_as_xyz
  1  'x, y, z'
loop_
 _atom_site_type_symbol
 _atom_site_label
 _atom_site_symmetry_multiplicity
 _atom_site_fract_x
 _atom_site_fract_y
 _atom_site_fract_z
 _atom_site_occupancy
  Hf  Hf0  1  0.691908  0.103061  0.103061  1
  Hf  Hf1  1  0.103061  0.691908  0.103061  1
  Hf  Hf2  1  0.103061  0.103061  0.691908  1
  Hf  Hf3  1  0.102635  0.102635  0.102635  1
  Hf  Hf4  1  0.314950  0.314950  0.683489  1
  Hf  Hf5  1  0.685075  0.685075  0.315082  1
  Hf  Hf6  1  0.314950  0.683489  0.314950  1
  Hf  Hf7  1  0.685075  0.315082  0.685075  1
  Hf  Hf8  1  0.683489  0.314950  0.314950  1
  Hf  Hf9  1  0.315082  0.685075  0.685075  1
  Hf  Hf10  1  0.952874  0.952874  0.547093  1
  Hf  Hf11  1  0.546125  0.546125  0.954526  1
  Hf  Hf12  1  0.952874  0.547093  0.952874  1
  Hf  Hf13  1  0.546125  0.954526  0.546125  1
  Hf  Hf14  1  0.547093  0.952874  0.952874  1
  Hf  Hf15  1  0.954526  0.546125  0.546125  1
  Re  Re16  1  0.334371  0.334371  0.334371  1
  Ni  Ni17  1  0.325694  0.890865  0.890865  1
  Ni  Ni18  1  0.890865  0.325694  0.890865  1
  Ni  Ni19  1  0.890865  0.890865  0.325694  1
  Ni  Ni20  1  0.891405  0.891405  0.891405  1
  Mo  Mo21  1  0.000695  0.333601  0.333601  1
  Mo  Mo22  1  0.333601  0.000695  0.333601  1
  Mo  Mo23  1  0.333601  0.333601  0.000695  1
