# generated using pymatgen
data_Hf3Sc4NbRu8
_symmetry_space_group_name_H-M   'P 1'
_cell_length_a   6.41488700
_cell_length_b   4.55719700
_cell_length_c   9.14023400
_cell_angle_alpha   90.00000000
_cell_angle_beta   89.99966732
_cell_angle_gamma   90.00000000
_symmetry_Int_Tables_number   1
_chemical_formula_structural   Hf3Sc4NbRu8
_chemical_formula_sum   'Hf3 Sc4 Nb1 Ru8'
_cell_volume   267.20472139
_cell_formula_units_Z   1
loop_
 _symmetry_equiv_pos_site_id
 _symmetry_equiv_pos_as_xyz
  1  'x, y, z'
loop_
 _atom_site_type_symbol
 _atom_site_label
 _atom_site_symmetry_multiplicity
 _atom_site_fract_x
 _atom_site_fract_y
 _atom_site_fract_z
 _atom_site_occupancy
  Hf  Hf0  1  0.250002  0.250001  0.124786  1
  Hf  Hf1  1  0.750015  0.750000  0.375001  1
  Hf  Hf2  1  0.249970  0.250001  0.625197  1
  Sc  Sc3  1  0.750012  0.250001  0.124777  1
  Sc  Sc4  1  0.250068  0.750000  0.375028  1
  Sc  Sc5  1  0.749967  0.250001  0.625216  1
  Sc  Sc6  1  0.250046  0.750000  0.875023  1
  Nb  Nb7  1  0.749983  0.750000  0.875007  1
  Ru  Ru8  1  0.502770  0.750000  0.120886  1
  Ru  Ru9  1  0.997253  0.750000  0.120890  1
  Ru  Ru10  1  0.499818  0.250001  0.374970  1
  Ru  Ru11  1  0.000213  0.250001  0.374961  1
  Ru  Ru12  1  0.997269  0.750000  0.629115  1
  Ru  Ru13  1  0.502680  0.750000  0.629119  1
  Ru  Ru14  1  0.994377  0.250001  0.875010  1
  Ru  Ru15  1  0.505556  0.250001  0.875017  1
