# generated using pymatgen
data_PrNd7InAgRh2
_symmetry_space_group_name_H-M   'P 1'
_cell_length_a   9.94035587
_cell_length_b   9.94361712
_cell_length_c   9.98384352
_cell_angle_alpha   59.83008832
_cell_angle_beta   59.86312911
_cell_angle_gamma   59.86449675
_symmetry_Int_Tables_number   1
_chemical_formula_structural   PrNd7InAgRh2
_chemical_formula_sum   'Pr2 Nd14 In2 Ag2 Rh4'
_cell_volume   695.46223914
_cell_formula_units_Z   2
loop_
 _symmetry_equiv_pos_site_id
 _symmetry_equiv_pos_as_xyz
  1  'x, y, z'
loop_
 _atom_site_type_symbol
 _atom_site_label
 _atom_site_symmetry_multiplicity
 _atom_site_fract_x
 _atom_site_fract_y
 _atom_site_fract_z
 _atom_site_occupancy
  Pr  Pr0  1  0.602261  0.198082  0.600976  1
  Pr  Pr1  1  0.599309  0.599592  0.600103  1
  Nd  Nd2  1  0.187581  0.188060  0.811297  1
  Nd  Nd3  1  0.600225  0.600416  0.200060  1
  Nd  Nd4  1  0.438702  0.059479  0.441784  1
  Nd  Nd5  1  0.443482  0.443585  0.057048  1
  Nd  Nd6  1  0.812917  0.183043  0.814393  1
  Nd  Nd7  1  0.185389  0.808401  0.192199  1
  Nd  Nd8  1  0.440320  0.058950  0.057815  1
  Nd  Nd9  1  0.182792  0.813108  0.814080  1
  Nd  Nd10  1  0.059258  0.440280  0.057427  1
  Nd  Nd11  1  0.810393  0.810675  0.190749  1
  Nd  Nd12  1  0.198965  0.601889  0.601018  1
  Nd  Nd13  1  0.059733  0.439339  0.441617  1
  Nd  Nd14  1  0.060813  0.060178  0.435850  1
  Nd  Nd15  1  0.809115  0.185235  0.191433  1
  In  In16  1  0.508963  0.832331  0.829345  1
  In  In17  1  0.833018  0.510115  0.828595  1
  Ag  Ag18  1  0.831910  0.831288  0.831455  1
  Ag  Ag19  1  0.832628  0.832117  0.503234  1
  Rh  Rh20  1  0.392143  0.825322  0.391532  1
  Rh  Rh21  1  0.391593  0.393211  0.391905  1
  Rh  Rh22  1  0.826334  0.392198  0.391013  1
  Rh  Rh23  1  0.392154  0.393105  0.825073  1
