# generated using pymatgen
data_Ca2Pr8SnPb7
_symmetry_space_group_name_H-M   'P 1'
_cell_length_a   8.30005600
_cell_length_b   8.57377300
_cell_length_c   16.42273500
_cell_angle_alpha   90.00000000
_cell_angle_beta   90.00000000
_cell_angle_gamma   90.00000000
_symmetry_Int_Tables_number   1
_chemical_formula_structural   Ca2Pr8SnPb7
_chemical_formula_sum   'Ca4 Pr16 Sn2 Pb14'
_cell_volume   1168.68774108
_cell_formula_units_Z   2
loop_
 _symmetry_equiv_pos_site_id
 _symmetry_equiv_pos_as_xyz
  1  'x, y, z'
loop_
 _atom_site_type_symbol
 _atom_site_label
 _atom_site_symmetry_multiplicity
 _atom_site_fract_x
 _atom_site_fract_y
 _atom_site_fract_z
 _atom_site_occupancy
  Ca  Ca0  1  0.806594  0.496622  0.750000  1
  Ca  Ca1  1  0.306594  0.003378  0.750000  1
  Ca  Ca2  1  0.191692  0.501004  0.250000  1
  Ca  Ca3  1  0.691692  0.998996  0.250000  1
  Pr  Pr4  1  0.640410  0.163659  0.623184  1
  Pr  Pr5  1  0.140410  0.336341  0.876816  1
  Pr  Pr6  1  0.359648  0.837811  0.121585  1
  Pr  Pr7  1  0.859648  0.662189  0.378415  1
  Pr  Pr8  1  0.359648  0.837811  0.378415  1
  Pr  Pr9  1  0.859648  0.662189  0.121585  1
  Pr  Pr10  1  0.640410  0.163659  0.876816  1
  Pr  Pr11  1  0.140410  0.336341  0.623184  1
  Pr  Pr12  1  0.489134  0.682727  0.595930  1
  Pr  Pr13  1  0.989134  0.817273  0.904070  1
  Pr  Pr14  1  0.510908  0.315899  0.094842  1
  Pr  Pr15  1  0.010908  0.184101  0.405158  1
  Pr  Pr16  1  0.510908  0.315899  0.405158  1
  Pr  Pr17  1  0.010908  0.184101  0.094842  1
  Pr  Pr18  1  0.489134  0.682727  0.904070  1
  Pr  Pr19  1  0.989134  0.817273  0.595930  1
  Sn  Sn20  1  0.441461  0.390083  0.750000  1
  Sn  Sn21  1  0.941461  0.109917  0.750000  1
  Pb  Pb22  1  0.702740  0.960557  0.460006  1
  Pb  Pb23  1  0.202740  0.539443  0.039994  1
  Pb  Pb24  1  0.297493  0.039822  0.959769  1
  Pb  Pb25  1  0.797493  0.460178  0.540231  1
  Pb  Pb26  1  0.297493  0.039822  0.540231  1
  Pb  Pb27  1  0.797493  0.460178  0.959769  1
  Pb  Pb28  1  0.702740  0.960557  0.039994  1
  Pb  Pb29  1  0.202740  0.539443  0.460006  1
  Pb  Pb30  1  0.556914  0.611081  0.250000  1
  Pb  Pb31  1  0.056914  0.888919  0.250000  1
  Pb  Pb32  1  0.681946  0.853107  0.750000  1
  Pb  Pb33  1  0.181946  0.646893  0.750000  1
  Pb  Pb34  1  0.320728  0.148400  0.250000  1
  Pb  Pb35  1  0.820728  0.351600  0.250000  1
