# generated using pymatgen
data_Sc3Al3ZnSiPt
_symmetry_space_group_name_H-M   'P 1'
_cell_length_a   6.68310000
_cell_length_b   6.68309967
_cell_length_c   4.08709000
_cell_angle_alpha   90.00000000
_cell_angle_beta   90.00000000
_cell_angle_gamma   120.00000161
_symmetry_Int_Tables_number   1
_chemical_formula_structural   Sc3Al3ZnSiPt
_chemical_formula_sum   'Sc3 Al3 Zn1 Si1 Pt1'
_cell_volume   158.08866203
_cell_formula_units_Z   1
loop_
 _symmetry_equiv_pos_site_id
 _symmetry_equiv_pos_as_xyz
  1  'x, y, z'
loop_
 _atom_site_type_symbol
 _atom_site_label
 _atom_site_symmetry_multiplicity
 _atom_site_fract_x
 _atom_site_fract_y
 _atom_site_fract_z
 _atom_site_occupancy
  Sc  Sc0  1  0.421174  0.999031  0.000000  1
  Sc  Sc1  1  0.000969  0.422143  0.000000  1
  Sc  Sc2  1  0.577856  0.578826  0.000000  1
  Al  Al3  1  0.757218  0.001886  0.500000  1
  Al  Al4  1  0.244667  0.242782  0.500000  1
  Al  Al5  1  0.998114  0.755332  0.500000  1
  Zn  Zn6  1  0.666666  0.333333  0.500000  1
  Si  Si7  1  0.333333  0.666667  0.500000  1
  Pt  Pt8  1  0.000000  0.000000  0.000000  1
