# generated using pymatgen
data_Np2BeCoSi4
_symmetry_space_group_name_H-M   'P 1'
_cell_length_a   8.35362565
_cell_length_b   8.35362543
_cell_length_c   3.95252500
_cell_angle_alpha   90.00000000
_cell_angle_beta   90.00000000
_cell_angle_gamma   152.50680068
_symmetry_Int_Tables_number   1
_chemical_formula_structural   Np2BeCoSi4
_chemical_formula_sum   'Np2 Be1 Co1 Si4'
_cell_volume   127.33013370
_cell_formula_units_Z   1
loop_
 _symmetry_equiv_pos_site_id
 _symmetry_equiv_pos_as_xyz
  1  'x, y, z'
loop_
 _atom_site_type_symbol
 _atom_site_label
 _atom_site_symmetry_multiplicity
 _atom_site_fract_x
 _atom_site_fract_y
 _atom_site_fract_z
 _atom_site_occupancy
  Np  Np0  1  0.111091  0.888909  0.250000  1
  Np  Np1  1  0.897206  0.102794  0.750000  1
  Be  Be2  1  0.673189  0.326811  0.750000  1
  Co  Co3  1  0.319443  0.680557  0.250000  1
  Si  Si4  1  0.751490  0.248510  0.250000  1
  Si  Si5  1  0.249744  0.750256  0.750000  1
  Si  Si6  1  0.538773  0.461227  0.750000  1
  Si  Si7  1  0.459063  0.540937  0.250000  1
