# generated using pymatgen
data_YThMn3Co9P7
_symmetry_space_group_name_H-M   'P 1'
_cell_length_a   9.12047300
_cell_length_b   9.12047471
_cell_length_c   3.64501100
_cell_angle_alpha   90.00000000
_cell_angle_beta   90.00000000
_cell_angle_gamma   119.99999742
_symmetry_Int_Tables_number   1
_chemical_formula_structural   YThMn3Co9P7
_chemical_formula_sum   'Y1 Th1 Mn3 Co9 P7'
_cell_volume   262.58160089
_cell_formula_units_Z   1
loop_
 _symmetry_equiv_pos_site_id
 _symmetry_equiv_pos_as_xyz
  1  'x, y, z'
loop_
 _atom_site_type_symbol
 _atom_site_label
 _atom_site_symmetry_multiplicity
 _atom_site_fract_x
 _atom_site_fract_y
 _atom_site_fract_z
 _atom_site_occupancy
  Y  Y0  1  0.333333  0.666667  0.000000  1
  Th  Th1  1  0.000000  0.000000  0.500000  1
  Mn  Mn2  1  0.785563  0.233846  0.500000  1
  Mn  Mn3  1  0.766154  0.551717  0.500000  1
  Mn  Mn4  1  0.448283  0.214437  0.500000  1
  Co  Co5  1  0.037083  0.271766  0.000000  1
  Co  Co6  1  0.728234  0.765316  0.000000  1
  Co  Co7  1  0.234684  0.962917  0.000000  1
  Co  Co8  1  0.545491  0.058346  0.000000  1
  Co  Co9  1  0.941654  0.487145  0.000000  1
  Co  Co10  1  0.512855  0.454509  0.000000  1
  Co  Co11  1  0.613793  0.896873  0.500000  1
  Co  Co12  1  0.103127  0.716920  0.500000  1
  Co  Co13  1  0.283080  0.386207  0.500000  1
  P  P14  1  0.769764  0.033288  0.000000  1
  P  P15  1  0.966712  0.736476  0.000000  1
  P  P16  1  0.263524  0.230236  0.000000  1
  P  P17  1  0.375223  0.927769  0.500000  1
  P  P18  1  0.072231  0.447454  0.500000  1
  P  P19  1  0.552546  0.624777  0.500000  1
  P  P20  1  0.666667  0.333333  0.000000  1
