# generated using pymatgen
data_DyBi3(Rh2O7)2
_symmetry_space_group_name_H-M   'P 1'
_cell_length_a   7.34513122
_cell_length_b   7.29067076
_cell_length_c   7.34513100
_cell_angle_alpha   59.75258554
_cell_angle_beta   59.99999647
_cell_angle_gamma   59.75258410
_symmetry_Int_Tables_number   1
_chemical_formula_structural   DyBi3(Rh2O7)2
_chemical_formula_sum   'Dy1 Bi3 Rh4 O14'
_cell_volume   277.08773081
_cell_formula_units_Z   1
loop_
 _symmetry_equiv_pos_site_id
 _symmetry_equiv_pos_as_xyz
  1  'x, y, z'
loop_
 _atom_site_type_symbol
 _atom_site_label
 _atom_site_symmetry_multiplicity
 _atom_site_fract_x
 _atom_site_fract_y
 _atom_site_fract_z
 _atom_site_occupancy
  Dy  Dy0  1  0.125000  0.625000  0.125000  1
  Bi  Bi1  1  0.125000  0.125000  0.125000  1
  Bi  Bi2  1  0.625000  0.125000  0.125000  1
  Bi  Bi3  1  0.125000  0.125000  0.625000  1
  Rh  Rh4  1  0.625000  0.625000  0.625000  1
  Rh  Rh5  1  0.625000  0.625000  0.125000  1
  Rh  Rh6  1  0.125000  0.625000  0.625000  1
  Rh  Rh7  1  0.625000  0.125000  0.625000  1
  O  O8  1  0.248348  0.254957  0.248348  1
  O  O9  1  0.288690  0.706496  0.288690  1
  O  O10  1  0.957294  0.957221  0.542743  1
  O  O11  1  0.542743  0.957221  0.542743  1
  O  O12  1  0.716124  0.706496  0.288690  1
  O  O13  1  0.961310  0.543504  0.533876  1
  O  O14  1  0.707257  0.292779  0.707257  1
  O  O15  1  0.292706  0.292779  0.707257  1
  O  O16  1  0.707257  0.292779  0.292706  1
  O  O17  1  0.288690  0.706496  0.716124  1
  O  O18  1  0.961310  0.543504  0.961310  1
  O  O19  1  0.533876  0.543504  0.961310  1
  O  O20  1  0.001652  0.995043  0.001652  1
  O  O21  1  0.542743  0.957221  0.957294  1
