# generated using pymatgen
data_Dy2Ho2Al23ZnPt9
_symmetry_space_group_name_H-M   'P 1'
_cell_length_a   7.53232914
_cell_length_b   7.55155911
_cell_length_c   13.15205418
_cell_angle_alpha   84.57832093
_cell_angle_beta   79.04775005
_cell_angle_gamma   59.90214968
_symmetry_Int_Tables_number   1
_chemical_formula_structural   Dy2Ho2Al23ZnPt9
_chemical_formula_sum   'Dy2 Ho2 Al23 Zn1 Pt9'
_cell_volume   635.44455152
_cell_formula_units_Z   1
loop_
 _symmetry_equiv_pos_site_id
 _symmetry_equiv_pos_as_xyz
  1  'x, y, z'
loop_
 _atom_site_type_symbol
 _atom_site_label
 _atom_site_symmetry_multiplicity
 _atom_site_fract_x
 _atom_site_fract_y
 _atom_site_fract_z
 _atom_site_occupancy
  Dy  Dy0  1  0.393453  0.167547  0.809094  1
  Dy  Dy1  1  0.607890  0.831632  0.189713  1
  Ho  Ho2  1  0.733231  0.499174  0.808870  1
  Ho  Ho3  1  0.266634  0.502110  0.190986  1
  Al  Al4  1  0.321146  0.161809  0.054478  1
  Al  Al5  1  0.146875  0.831844  0.562045  1
  Al  Al6  1  0.853481  0.168104  0.438760  1
  Al  Al7  1  0.479976  0.166454  0.559347  1
  Al  Al8  1  0.520035  0.833632  0.441076  1
  Al  Al9  1  0.218227  0.165257  0.328430  1
  Al  Al10  1  0.782488  0.834410  0.671195  1
  Al  Al11  1  0.435813  0.506649  0.672458  1
  Al  Al12  1  0.563473  0.493883  0.328522  1
  Al  Al13  1  0.108633  0.159876  0.670394  1
  Al  Al14  1  0.890687  0.839965  0.330657  1
  Al  Al15  1  0.353648  0.499538  0.943836  1
  Al  Al16  1  0.648449  0.504786  0.054301  1
  Al  Al17  1  0.015957  0.167881  0.954288  1
  Al  Al18  1  0.981432  0.832060  0.042262  1
  Al  Al19  1  0.186854  0.499464  0.441225  1
  Al  Al20  1  0.813129  0.500490  0.559379  1
  Al  Al21  1  0.734613  0.164799  0.183400  1
  Al  Al22  1  0.264242  0.835976  0.817133  1
  Al  Al23  1  0.057266  0.632185  0.817425  1
  Al  Al24  1  0.940021  0.368146  0.184494  1
  Al  Al25  1  0.852344  0.041376  0.818379  1
  Al  Al26  1  0.144356  0.957874  0.183811  1
  Zn  Zn27  1  0.684833  0.833713  0.938140  1
  Pt  Pt28  1  0.119990  0.491409  0.638935  1
  Pt  Pt29  1  0.880183  0.508310  0.361793  1
  Pt  Pt30  1  0.656912  0.178927  0.001153  1
  Pt  Pt31  1  0.336275  0.827783  0.001616  1
  Pt  Pt32  1  0.537503  0.167365  0.361677  1
  Pt  Pt33  1  0.462143  0.832680  0.638768  1
  Pt  Pt34  1  0.778520  0.175042  0.637949  1
  Pt  Pt35  1  0.221498  0.824977  0.363035  1
  Pt  Pt36  1  0.007791  0.492873  0.000971  1
