# generated using pymatgen
data_Ca2LaPrTi4O12
_symmetry_space_group_name_H-M   'P 1'
_cell_length_a   5.49476657
_cell_length_b   5.57895753
_cell_length_c   7.83141600
_cell_angle_alpha   90.00000000
_cell_angle_beta   90.00000000
_cell_angle_gamma   89.88635018
_symmetry_Int_Tables_number   1
_chemical_formula_structural   Ca2LaPrTi4O12
_chemical_formula_sum   'Ca2 La1 Pr1 Ti4 O12'
_cell_volume   240.07212786
_cell_formula_units_Z   1
loop_
 _symmetry_equiv_pos_site_id
 _symmetry_equiv_pos_as_xyz
  1  'x, y, z'
loop_
 _atom_site_type_symbol
 _atom_site_label
 _atom_site_symmetry_multiplicity
 _atom_site_fract_x
 _atom_site_fract_y
 _atom_site_fract_z
 _atom_site_occupancy
  Ca  Ca0  1  0.991550  0.040886  0.750000  1
  Ca  Ca1  1  0.008537  0.959132  0.250000  1
  La  La2  1  0.493579  0.461211  0.250000  1
  Pr  Pr3  1  0.507384  0.545626  0.750000  1
  Ti  Ti4  1  0.000284  0.499444  0.500762  1
  Ti  Ti5  1  0.000284  0.499444  0.999238  1
  Ti  Ti6  1  0.499528  0.001010  0.500387  1
  Ti  Ti7  1  0.499528  0.001010  0.999613  1
  O  O8  1  0.072382  0.474670  0.750000  1
  O  O9  1  0.934132  0.524718  0.250000  1
  O  O10  1  0.421738  0.988097  0.750000  1
  O  O11  1  0.577562  0.008883  0.250000  1
  O  O12  1  0.786108  0.785128  0.955526  1
  O  O13  1  0.211408  0.212510  0.456797  1
  O  O14  1  0.211408  0.212510  0.043203  1
  O  O15  1  0.786108  0.785128  0.544474  1
  O  O16  1  0.707245  0.291534  0.964249  1
  O  O17  1  0.291994  0.708765  0.467790  1
  O  O18  1  0.291994  0.708765  0.032210  1
  O  O19  1  0.707245  0.291534  0.535751  1
