# generated using pymatgen
data_Ti6PdPtN2
_symmetry_space_group_name_H-M   'P 1'
_cell_length_a   5.83143190
_cell_length_b   5.83143187
_cell_length_c   5.83143197
_cell_angle_alpha   120.74998868
_cell_angle_beta   120.74998436
_cell_angle_gamma   88.70581813
_symmetry_Int_Tables_number   1
_chemical_formula_structural   Ti6PdPtN2
_chemical_formula_sum   'Ti6 Pd1 Pt1 N2'
_cell_volume   138.59232182
_cell_formula_units_Z   1
loop_
 _symmetry_equiv_pos_site_id
 _symmetry_equiv_pos_as_xyz
  1  'x, y, z'
loop_
 _atom_site_type_symbol
 _atom_site_label
 _atom_site_symmetry_multiplicity
 _atom_site_fract_x
 _atom_site_fract_y
 _atom_site_fract_z
 _atom_site_occupancy
  Ti  Ti0  1  0.206852  0.706852  0.915121  1
  Ti  Ti1  1  0.708269  0.793148  0.500000  1
  Ti  Ti2  1  0.250000  0.250000  0.000000  1
  Ti  Ti3  1  0.293148  0.208269  0.500000  1
  Ti  Ti4  1  0.791731  0.291731  0.084879  1
  Ti  Ti5  1  0.750000  0.750000  0.000000  1
  Pd  Pd6  1  0.250000  0.750000  0.500000  1
  Pt  Pt7  1  0.750000  0.250000  0.500000  1
  N  N8  1  0.500000  0.500000  0.000000  1
  N  N9  1  0.000000  0.000000  0.000000  1
