# generated using pymatgen
data_Tb3Y(RuC4)2
_symmetry_space_group_name_H-M   'P 1'
_cell_length_a   5.30665943
_cell_length_b   6.66778091
_cell_length_c   6.67261176
_cell_angle_alpha   71.36865834
_cell_angle_beta   66.56897546
_cell_angle_gamma   66.55098324
_symmetry_Int_Tables_number   1
_chemical_formula_structural   Tb3Y(RuC4)2
_chemical_formula_sum   'Tb3 Y1 Ru2 C8'
_cell_volume   195.06137264
_cell_formula_units_Z   1
loop_
 _symmetry_equiv_pos_site_id
 _symmetry_equiv_pos_as_xyz
  1  'x, y, z'
loop_
 _atom_site_type_symbol
 _atom_site_label
 _atom_site_symmetry_multiplicity
 _atom_site_fract_x
 _atom_site_fract_y
 _atom_site_fract_z
 _atom_site_occupancy
  Tb  Tb0  1  0.349023  0.796776  0.505177  1
  Tb  Tb1  1  0.150852  0.494674  0.203623  1
  Tb  Tb2  1  0.849064  0.505289  0.796582  1
  Y  Y3  1  0.650716  0.204035  0.494534  1
  Ru  Ru4  1  0.250148  0.999847  0.999790  1
  Ru  Ru5  1  0.750215  0.999847  0.999790  1
  C  C6  1  0.872480  0.787426  0.467616  1
  C  C7  1  0.127433  0.212580  0.532553  1
  C  C8  1  0.372837  0.467526  0.786802  1
  C  C9  1  0.627347  0.532037  0.213268  1
  C  C10  1  0.924781  0.898343  0.252095  1
  C  C11  1  0.074804  0.102116  0.748276  1
  C  C12  1  0.425400  0.251795  0.897406  1
  C  C13  1  0.574901  0.747710  0.102488  1
