# generated using pymatgen
data_Tb4Mn3VB16
_symmetry_space_group_name_H-M   'P 1'
_cell_length_a   3.44110600
_cell_length_b   5.93893633
_cell_length_c   11.48382464
_cell_angle_alpha   90.03809378
_cell_angle_beta   90.00000000
_cell_angle_gamma   90.00000000
_symmetry_Int_Tables_number   1
_chemical_formula_structural   Tb4Mn3VB16
_chemical_formula_sum   'Tb4 Mn3 V1 B16'
_cell_volume   234.68923859
_cell_formula_units_Z   1
loop_
 _symmetry_equiv_pos_site_id
 _symmetry_equiv_pos_as_xyz
  1  'x, y, z'
loop_
 _atom_site_type_symbol
 _atom_site_label
 _atom_site_symmetry_multiplicity
 _atom_site_fract_x
 _atom_site_fract_y
 _atom_site_fract_z
 _atom_site_occupancy
  Tb  Tb0  1  0.000000  0.626046  0.350843  1
  Tb  Tb1  1  0.000000  0.374179  0.650156  1
  Tb  Tb2  1  0.000000  0.124897  0.151415  1
  Tb  Tb3  1  0.000000  0.876391  0.847928  1
  Mn  Mn4  1  0.000000  0.377259  0.917985  1
  Mn  Mn5  1  0.000000  0.127211  0.418040  1
  Mn  Mn6  1  0.000000  0.872474  0.584208  1
  V  V7  1  0.000000  0.623877  0.080761  1
  B  B8  1  0.500000  0.783602  0.185931  1
  B  B9  1  0.500000  0.220961  0.816676  1
  B  B10  1  0.500000  0.279286  0.317390  1
  B  B11  1  0.500000  0.719866  0.683074  1
  B  B12  1  0.500000  0.864595  0.031246  1
  B  B13  1  0.500000  0.138786  0.965949  1
  B  B14  1  0.500000  0.361106  0.468074  1
  B  B15  1  0.500000  0.638861  0.532557  1
  B  B16  1  0.500000  0.888013  0.454587  1
  B  B17  1  0.500000  0.111495  0.546643  1
  B  B18  1  0.500000  0.384098  0.044162  1
  B  B19  1  0.500000  0.610036  0.951169  1
  B  B20  1  0.500000  0.975741  0.310286  1
  B  B21  1  0.500000  0.025074  0.690373  1
  B  B22  1  0.500000  0.473055  0.191945  1
  B  B23  1  0.500000  0.523093  0.808601  1
