# generated using pymatgen
data_BaSr2Te2(ClO3)2
_symmetry_space_group_name_H-M   'P 1'
_cell_length_a   8.91972289
_cell_length_b   8.91972226
_cell_length_c   11.39532467
_cell_angle_alpha   75.23902402
_cell_angle_beta   75.23902480
_cell_angle_gamma   37.98214297
_symmetry_Int_Tables_number   1
_chemical_formula_structural   BaSr2Te2(ClO3)2
_chemical_formula_sum   'Ba2 Sr4 Te4 Cl4 O12'
_cell_volume   537.31674509
_cell_formula_units_Z   2
loop_
 _symmetry_equiv_pos_site_id
 _symmetry_equiv_pos_as_xyz
  1  'x, y, z'
loop_
 _atom_site_type_symbol
 _atom_site_label
 _atom_site_symmetry_multiplicity
 _atom_site_fract_x
 _atom_site_fract_y
 _atom_site_fract_z
 _atom_site_occupancy
  Ba  Ba0  1  0.658078  0.658078  0.603765  1
  Ba  Ba1  1  0.736047  0.736047  0.193599  1
  Sr  Sr2  1  0.335672  0.335672  0.393631  1
  Sr  Sr3  1  0.983168  0.983168  0.189436  1
  Sr  Sr4  1  0.017058  0.017058  0.816147  1
  Sr  Sr5  1  0.261076  0.261076  0.788912  1
  Te  Te6  1  0.398333  0.398333  0.060864  1
  Te  Te7  1  0.879610  0.879610  0.579578  1
  Te  Te8  1  0.120444  0.120444  0.418710  1
  Te  Te9  1  0.604267  0.604267  0.944242  1
  Cl  Cl10  1  0.177231  0.177231  0.094695  1
  Cl  Cl11  1  0.531717  0.531717  0.289042  1
  Cl  Cl12  1  0.459420  0.459420  0.724940  1
  Cl  Cl13  1  0.822949  0.822949  0.894389  1
  O  O14  1  0.556729  0.049355  0.600325  1
  O  O15  1  0.910056  0.910056  0.408503  1
  O  O16  1  0.401834  0.870520  0.819608  1
  O  O17  1  0.436875  0.963087  0.395068  1
  O  O18  1  0.138203  0.596786  0.188002  1
  O  O19  1  0.049355  0.556729  0.600325  1
  O  O20  1  0.870520  0.401834  0.819608  1
  O  O21  1  0.596786  0.138203  0.188002  1
  O  O22  1  0.287018  0.714928  0.001276  1
  O  O23  1  0.089541  0.089540  0.590989  1
  O  O24  1  0.963087  0.436875  0.395068  1
  O  O25  1  0.714928  0.287018  0.001276  1
