# generated using pymatgen
data_Nd2Dy2BeCo3I2
_symmetry_space_group_name_H-M   'P 1'
_cell_length_a   3.97577500
_cell_length_b   3.97577275
_cell_length_c   17.36304000
_cell_angle_alpha   90.00000000
_cell_angle_beta   90.00000000
_cell_angle_gamma   119.99997708
_symmetry_Int_Tables_number   1
_chemical_formula_structural   Nd2Dy2BeCo3I2
_chemical_formula_sum   'Nd2 Dy2 Be1 Co3 I2'
_cell_volume   237.68394626
_cell_formula_units_Z   1
loop_
 _symmetry_equiv_pos_site_id
 _symmetry_equiv_pos_as_xyz
  1  'x, y, z'
loop_
 _atom_site_type_symbol
 _atom_site_label
 _atom_site_symmetry_multiplicity
 _atom_site_fract_x
 _atom_site_fract_y
 _atom_site_fract_z
 _atom_site_occupancy
  Nd  Nd0  1  0.000000  0.000000  0.606313  1
  Nd  Nd1  1  0.000000  0.000000  0.395143  1
  Dy  Dy2  1  0.000000  0.000000  0.100545  1
  Dy  Dy3  1  0.000000  0.000000  0.898553  1
  Be  Be4  1  0.333333  0.666667  0.500624  1
  Co  Co5  1  0.666667  0.333333  0.499313  1
  Co  Co6  1  0.666667  0.333333  0.001455  1
  Co  Co7  1  0.333333  0.666667  0.998211  1
  I  I8  1  0.333333  0.666667  0.243039  1
  I  I9  1  0.666667  0.333333  0.756803  1
