# generated using pymatgen
data_Ti2AsRh5
_symmetry_space_group_name_H-M   'P 1'
_cell_length_a   3.96936500
_cell_length_b   5.48084300
_cell_length_c   10.63861900
_cell_angle_alpha   90.00000000
_cell_angle_beta   90.00000000
_cell_angle_gamma   90.00000000
_symmetry_Int_Tables_number   1
_chemical_formula_structural   Ti2AsRh5
_chemical_formula_sum   'Ti4 As2 Rh10'
_cell_volume   231.44811793
_cell_formula_units_Z   2
loop_
 _symmetry_equiv_pos_site_id
 _symmetry_equiv_pos_as_xyz
  1  'x, y, z'
loop_
 _atom_site_type_symbol
 _atom_site_label
 _atom_site_symmetry_multiplicity
 _atom_site_fract_x
 _atom_site_fract_y
 _atom_site_fract_z
 _atom_site_occupancy
  Ti  Ti0  1  0.500000  0.331279  0.355654  1
  Ti  Ti1  1  0.500000  0.668721  0.644346  1
  Ti  Ti2  1  0.500000  0.168721  0.855654  1
  Ti  Ti3  1  0.500000  0.831279  0.144346  1
  As  As4  1  0.000000  0.000000  0.500000  1
  As  As5  1  0.000000  0.500000  0.000000  1
  Rh  Rh6  1  0.500000  0.310461  0.107579  1
  Rh  Rh7  1  0.500000  0.689539  0.892421  1
  Rh  Rh8  1  0.500000  0.810461  0.392421  1
  Rh  Rh9  1  0.500000  0.189539  0.607579  1
  Rh  Rh10  1  0.000000  0.926467  0.742785  1
  Rh  Rh11  1  0.000000  0.073533  0.257215  1
  Rh  Rh12  1  0.000000  0.426467  0.757215  1
  Rh  Rh13  1  0.000000  0.573533  0.242785  1
  Rh  Rh14  1  0.000000  0.500000  0.500000  1
  Rh  Rh15  1  0.000000  0.000000  0.000000  1
