# generated using pymatgen
data_Tm4AlV2CoB16
_symmetry_space_group_name_H-M   'P 1'
_cell_length_a   3.42605300
_cell_length_b   5.93366817
_cell_length_c   11.46603170
_cell_angle_alpha   89.97781050
_cell_angle_beta   90.00000000
_cell_angle_gamma   90.00000000
_symmetry_Int_Tables_number   1
_chemical_formula_structural   Tm4AlV2CoB16
_chemical_formula_sum   'Tm4 Al1 V2 Co1 B16'
_cell_volume   233.09364756
_cell_formula_units_Z   1
loop_
 _symmetry_equiv_pos_site_id
 _symmetry_equiv_pos_as_xyz
  1  'x, y, z'
loop_
 _atom_site_type_symbol
 _atom_site_label
 _atom_site_symmetry_multiplicity
 _atom_site_fract_x
 _atom_site_fract_y
 _atom_site_fract_z
 _atom_site_occupancy
  Tm  Tm0  1  0.000000  0.622737  0.348598  1
  Tm  Tm1  1  0.000000  0.376497  0.649949  1
  Tm  Tm2  1  0.000000  0.124440  0.150562  1
  Tm  Tm3  1  0.000000  0.876104  0.850502  1
  Al  Al4  1  0.000000  0.867628  0.586038  1
  V  V5  1  0.000000  0.626776  0.085804  1
  V  V6  1  0.000000  0.373085  0.916528  1
  Co  Co7  1  0.000000  0.126992  0.415046  1
  B  B8  1  0.500000  0.788998  0.187946  1
  B  B9  1  0.500000  0.212498  0.812048  1
  B  B10  1  0.500000  0.281765  0.317641  1
  B  B11  1  0.500000  0.712583  0.685541  1
  B  B12  1  0.500000  0.866189  0.033287  1
  B  B13  1  0.500000  0.134155  0.967165  1
  B  B14  1  0.500000  0.363098  0.468121  1
  B  B15  1  0.500000  0.635464  0.528802  1
  B  B16  1  0.500000  0.889309  0.449705  1
  B  B17  1  0.500000  0.118645  0.545140  1
  B  B18  1  0.500000  0.384385  0.047911  1
  B  B19  1  0.500000  0.615765  0.952961  1
  B  B20  1  0.500000  0.978483  0.308820  1
  B  B21  1  0.500000  0.026258  0.691076  1
  B  B22  1  0.500000  0.472678  0.194947  1
  B  B23  1  0.500000  0.525469  0.805862  1
