# generated using pymatgen
data_Nd(NbSe2)3
_symmetry_space_group_name_H-M   'P 1'
_cell_length_a   6.10408300
_cell_length_b   6.10408330
_cell_length_c   14.95928400
_cell_angle_alpha   90.00000000
_cell_angle_beta   90.00000000
_cell_angle_gamma   120.00000381
_symmetry_Int_Tables_number   1
_chemical_formula_structural   Nd(NbSe2)3
_chemical_formula_sum   'Nd2 Nb6 Se12'
_cell_volume   482.70556317
_cell_formula_units_Z   2
loop_
 _symmetry_equiv_pos_site_id
 _symmetry_equiv_pos_as_xyz
  1  'x, y, z'
loop_
 _atom_site_type_symbol
 _atom_site_label
 _atom_site_symmetry_multiplicity
 _atom_site_fract_x
 _atom_site_fract_y
 _atom_site_fract_z
 _atom_site_occupancy
  Nd  Nd0  1  0.333333  0.666667  0.250000  1
  Nd  Nd1  1  0.666667  0.333333  0.750000  1
  Nb  Nb2  1  0.333333  0.666667  0.002001  1
  Nb  Nb3  1  0.000000  0.000000  0.000000  1
  Nb  Nb4  1  0.666667  0.333333  0.997999  1
  Nb  Nb5  1  0.333333  0.666667  0.497999  1
  Nb  Nb6  1  0.000000  0.000000  0.500000  1
  Nb  Nb7  1  0.666667  0.333333  0.502001  1
  Se  Se8  1  0.674343  0.665485  0.388080  1
  Se  Se9  1  0.665485  0.674343  0.611920  1
  Se  Se10  1  0.008858  0.674343  0.888080  1
  Se  Se11  1  0.665485  0.991142  0.888080  1
  Se  Se12  1  0.674343  0.008858  0.111920  1
  Se  Se13  1  0.334515  0.008858  0.388080  1
  Se  Se14  1  0.008858  0.334515  0.611920  1
  Se  Se15  1  0.325657  0.991142  0.611920  1
  Se  Se16  1  0.991142  0.665485  0.111920  1
  Se  Se17  1  0.325657  0.334515  0.888080  1
  Se  Se18  1  0.991142  0.325657  0.388080  1
  Se  Se19  1  0.334515  0.325657  0.111920  1
