# generated using pymatgen
data_NdThRe4(SiC)2
_symmetry_space_group_name_H-M   'P 1'
_cell_length_a   5.87073733
_cell_length_b   5.87073826
_cell_length_c   7.33081500
_cell_angle_alpha   90.00000000
_cell_angle_beta   90.00000000
_cell_angle_gamma   139.66775405
_symmetry_Int_Tables_number   1
_chemical_formula_structural   NdThRe4(SiC)2
_chemical_formula_sum   'Nd1 Th1 Re4 Si2 C2'
_cell_volume   163.52675630
_cell_formula_units_Z   1
loop_
 _symmetry_equiv_pos_site_id
 _symmetry_equiv_pos_as_xyz
  1  'x, y, z'
loop_
 _atom_site_type_symbol
 _atom_site_label
 _atom_site_symmetry_multiplicity
 _atom_site_fract_x
 _atom_site_fract_y
 _atom_site_fract_z
 _atom_site_occupancy
  Nd  Nd0  1  0.544265  0.455735  0.250000  1
  Th  Th1  1  0.454976  0.545024  0.750000  1
  Re  Re2  1  0.826459  0.173541  0.062109  1
  Re  Re3  1  0.173766  0.826234  0.937658  1
  Re  Re4  1  0.173766  0.826234  0.562342  1
  Re  Re5  1  0.826459  0.173541  0.437891  1
  Si  Si6  1  0.265997  0.734003  0.250000  1
  Si  Si7  1  0.733957  0.266043  0.750000  1
  C  C8  1  0.000178  0.999822  0.999332  1
  C  C9  1  0.000178  0.999822  0.500668  1
