# generated using pymatgen
data_Lu4MgInGa4
_symmetry_space_group_name_H-M   'P 1'
_cell_length_a   7.19240900
_cell_length_b   7.19240900
_cell_length_c   4.26637000
_cell_angle_alpha   90.00000000
_cell_angle_beta   90.00000000
_cell_angle_gamma   90.00000000
_symmetry_Int_Tables_number   1
_chemical_formula_structural   Lu4MgInGa4
_chemical_formula_sum   'Lu4 Mg1 In1 Ga4'
_cell_volume   220.70250803
_cell_formula_units_Z   1
loop_
 _symmetry_equiv_pos_site_id
 _symmetry_equiv_pos_as_xyz
  1  'x, y, z'
loop_
 _atom_site_type_symbol
 _atom_site_label
 _atom_site_symmetry_multiplicity
 _atom_site_fract_x
 _atom_site_fract_y
 _atom_site_fract_z
 _atom_site_occupancy
  Lu  Lu0  1  0.173854  0.329767  0.500000  1
  Lu  Lu1  1  0.329767  0.826146  0.500000  1
  Lu  Lu2  1  0.826146  0.670233  0.500000  1
  Lu  Lu3  1  0.670233  0.173854  0.500000  1
  Mg  Mg4  1  0.000000  0.000000  0.000000  1
  In  In5  1  0.500000  0.500000  0.000000  1
  Ga  Ga6  1  0.631477  0.877987  0.000000  1
  Ga  Ga7  1  0.122013  0.631477  0.000000  1
  Ga  Ga8  1  0.877987  0.368523  0.000000  1
  Ga  Ga9  1  0.368523  0.122013  0.000000  1
