# generated using pymatgen
data_Dy5NbRuO12
_symmetry_space_group_name_H-M   'P 1'
_cell_length_a   6.83000643
_cell_length_b   6.83000503
_cell_length_c   7.49881201
_cell_angle_alpha   73.97404750
_cell_angle_beta   73.97404477
_cell_angle_gamma   50.60976348
_symmetry_Int_Tables_number   1
_chemical_formula_structural   Dy5NbRuO12
_chemical_formula_sum   'Dy5 Nb1 Ru1 O12'
_cell_volume   257.43528088
_cell_formula_units_Z   1
loop_
 _symmetry_equiv_pos_site_id
 _symmetry_equiv_pos_as_xyz
  1  'x, y, z'
loop_
 _atom_site_type_symbol
 _atom_site_label
 _atom_site_symmetry_multiplicity
 _atom_site_fract_x
 _atom_site_fract_y
 _atom_site_fract_z
 _atom_site_occupancy
  Dy  Dy0  1  0.694738  0.681741  0.674937  1
  Dy  Dy1  1  0.701365  0.690733  0.139001  1
  Dy  Dy2  1  0.000923  0.999077  0.000000  1
  Dy  Dy3  1  0.309267  0.298635  0.860999  1
  Dy  Dy4  1  0.318259  0.305262  0.325063  1
  Nb  Nb5  1  0.208239  0.791761  0.500000  1
  Ru  Ru6  1  0.753362  0.246638  0.500000  1
  O  O7  1  0.409109  0.898345  0.924511  1
  O  O8  1  0.579784  0.090235  0.584370  1
  O  O9  1  0.909765  0.420216  0.415630  1
  O  O10  1  0.101655  0.590891  0.075489  1
  O  O11  1  0.991943  0.007661  0.298989  1
  O  O12  1  0.495533  0.504287  0.684440  1
  O  O13  1  0.907429  0.402794  0.925266  1
  O  O14  1  0.100936  0.567566  0.583554  1
  O  O15  1  0.432434  0.899064  0.416446  1
  O  O16  1  0.597206  0.092571  0.074734  1
  O  O17  1  0.495713  0.504467  0.315560  1
  O  O18  1  0.992339  0.008057  0.701011  1
