# generated using pymatgen
data_Tb3Lu5(CdPt)2
_symmetry_space_group_name_H-M   'P 1'
_cell_length_a   9.56981534
_cell_length_b   9.56981570
_cell_length_c   9.56981500
_cell_angle_alpha   59.99999896
_cell_angle_beta   59.99999771
_cell_angle_gamma   60.00000371
_symmetry_Int_Tables_number   1
_chemical_formula_structural   Tb3Lu5(CdPt)2
_chemical_formula_sum   'Tb6 Lu10 Cd4 Pt4'
_cell_volume   619.72023529
_cell_formula_units_Z   2
loop_
 _symmetry_equiv_pos_site_id
 _symmetry_equiv_pos_as_xyz
  1  'x, y, z'
loop_
 _atom_site_type_symbol
 _atom_site_label
 _atom_site_symmetry_multiplicity
 _atom_site_fract_x
 _atom_site_fract_y
 _atom_site_fract_z
 _atom_site_occupancy
  Tb  Tb0  1  0.937427  0.562573  0.562573  1
  Tb  Tb1  1  0.562573  0.937427  0.937427  1
  Tb  Tb2  1  0.562573  0.937427  0.562573  1
  Tb  Tb3  1  0.937427  0.562573  0.937427  1
  Tb  Tb4  1  0.562573  0.562573  0.937427  1
  Tb  Tb5  1  0.937427  0.937427  0.562573  1
  Lu  Lu6  1  0.351725  0.351725  0.351725  1
  Lu  Lu7  1  0.351725  0.351725  0.944826  1
  Lu  Lu8  1  0.351725  0.944826  0.351725  1
  Lu  Lu9  1  0.944826  0.351725  0.351725  1
  Lu  Lu10  1  0.811863  0.188137  0.188137  1
  Lu  Lu11  1  0.188137  0.811863  0.811863  1
  Lu  Lu12  1  0.188137  0.811863  0.188137  1
  Lu  Lu13  1  0.811863  0.188137  0.811863  1
  Lu  Lu14  1  0.188137  0.188137  0.811863  1
  Lu  Lu15  1  0.811863  0.811863  0.188137  1
  Cd  Cd16  1  0.580887  0.580887  0.580887  1
  Cd  Cd17  1  0.580887  0.580887  0.257339  1
  Cd  Cd18  1  0.580887  0.257339  0.580887  1
  Cd  Cd19  1  0.257339  0.580887  0.580887  1
  Pt  Pt20  1  0.143059  0.143059  0.143059  1
  Pt  Pt21  1  0.143059  0.143059  0.570823  1
  Pt  Pt22  1  0.143059  0.570823  0.143059  1
  Pt  Pt23  1  0.570823  0.143059  0.143059  1
