# generated using pymatgen
data_Y4Co5Si10Os
_symmetry_space_group_name_H-M   'P 1'
_cell_length_a   7.93661579
_cell_length_b   7.93661529
_cell_length_c   7.93661605
_cell_angle_alpha   138.82257667
_cell_angle_beta   106.08860708
_cell_angle_gamma   88.29243888
_symmetry_Int_Tables_number   1
_chemical_formula_structural   Y4Co5Si10Os
_chemical_formula_sum   'Y4 Co5 Si10 Os1'
_cell_volume   303.36373894
_cell_formula_units_Z   1
loop_
 _symmetry_equiv_pos_site_id
 _symmetry_equiv_pos_as_xyz
  1  'x, y, z'
loop_
 _atom_site_type_symbol
 _atom_site_label
 _atom_site_symmetry_multiplicity
 _atom_site_fract_x
 _atom_site_fract_y
 _atom_site_fract_z
 _atom_site_occupancy
  Y  Y0  1  0.867726  0.627367  0.227216  1
  Y  Y1  1  0.132274  0.359490  0.759641  1
  Y  Y2  1  0.599849  0.872633  0.740359  1
  Y  Y3  1  0.400151  0.140510  0.272784  1
  Co  Co4  1  0.744097  0.132982  0.601054  1
  Co  Co5  1  0.531928  0.643045  0.898946  1
  Co  Co6  1  0.468072  0.367018  0.111116  1
  Co  Co7  1  0.000000  0.750000  0.750000  1
  Co  Co8  1  0.255903  0.856955  0.388884  1
  Si  Si9  1  0.059710  0.886571  0.151489  1
  Si  Si10  1  0.940290  0.091779  0.826862  1
  Si  Si11  1  0.264917  0.613429  0.673138  1
  Si  Si12  1  0.735083  0.408221  0.348511  1
  Si  Si13  1  0.228519  0.978519  0.750000  1
  Si  Si14  1  0.771481  0.521481  0.750000  1
  Si  Si15  1  0.773309  0.023309  0.250000  1
  Si  Si16  1  0.500000  0.250000  0.750000  1
  Si  Si17  1  0.500000  0.750000  0.250000  1
  Si  Si18  1  0.226691  0.476691  0.250000  1
  Os  Os19  1  0.000000  0.250000  0.250000  1
