# generated using pymatgen
data_Ti2MnBe8Co
_symmetry_space_group_name_H-M   'P 1'
_cell_length_a   4.30060200
_cell_length_b   4.30060273
_cell_length_c   7.02077600
_cell_angle_alpha   90.00000000
_cell_angle_beta   90.00000000
_cell_angle_gamma   119.99997903
_symmetry_Int_Tables_number   1
_chemical_formula_structural   Ti2MnBe8Co
_chemical_formula_sum   'Ti2 Mn1 Be8 Co1'
_cell_volume   112.45387338
_cell_formula_units_Z   1
loop_
 _symmetry_equiv_pos_site_id
 _symmetry_equiv_pos_as_xyz
  1  'x, y, z'
loop_
 _atom_site_type_symbol
 _atom_site_label
 _atom_site_symmetry_multiplicity
 _atom_site_fract_x
 _atom_site_fract_y
 _atom_site_fract_z
 _atom_site_occupancy
  Ti  Ti0  1  0.333333  0.666667  0.065370  1
  Ti  Ti1  1  0.666667  0.333333  0.563016  1
  Mn  Mn2  1  0.333333  0.666667  0.433102  1
  Be  Be3  1  0.000000  0.000000  0.996743  1
  Be  Be4  1  0.000000  0.000000  0.501369  1
  Be  Be5  1  0.831790  0.663581  0.252872  1
  Be  Be6  1  0.169030  0.830970  0.749785  1
  Be  Be7  1  0.661941  0.830970  0.749785  1
  Be  Be8  1  0.336419  0.168210  0.252872  1
  Be  Be9  1  0.831790  0.168210  0.252872  1
  Be  Be10  1  0.169030  0.338059  0.749785  1
  Co  Co11  1  0.666667  0.333333  0.932431  1
