# generated using pymatgen
data_Pr2Si5RuPt2
_symmetry_space_group_name_H-M   'P 1'
_cell_length_a   8.28394079
_cell_length_b   8.28394105
_cell_length_c   8.28393978
_cell_angle_alpha   137.47271095
_cell_angle_beta   105.04415018
_cell_angle_gamma   90.19945942
_symmetry_Int_Tables_number   1
_chemical_formula_structural   Pr2Si5RuPt2
_chemical_formula_sum   'Pr4 Si10 Ru2 Pt4'
_cell_volume   354.18263548
_cell_formula_units_Z   2
loop_
 _symmetry_equiv_pos_site_id
 _symmetry_equiv_pos_as_xyz
  1  'x, y, z'
loop_
 _atom_site_type_symbol
 _atom_site_label
 _atom_site_symmetry_multiplicity
 _atom_site_fract_x
 _atom_site_fract_y
 _atom_site_fract_z
 _atom_site_occupancy
  Pr  Pr0  1  0.862939  0.629343  0.233596  1
  Pr  Pr1  1  0.137061  0.370657  0.766404  1
  Pr  Pr2  1  0.395747  0.129343  0.266404  1
  Pr  Pr3  1  0.604253  0.870657  0.733596  1
  Si  Si4  1  0.500000  0.750000  0.250000  1
  Si  Si5  1  0.500000  0.250000  0.750000  1
  Si  Si6  1  0.223303  0.973303  0.750000  1
  Si  Si7  1  0.776697  0.526697  0.750000  1
  Si  Si8  1  0.776697  0.026697  0.250000  1
  Si  Si9  1  0.223303  0.473303  0.250000  1
  Si  Si10  1  0.044357  0.896107  0.148250  1
  Si  Si11  1  0.955643  0.103893  0.851750  1
  Si  Si12  1  0.747857  0.396107  0.351750  1
  Si  Si13  1  0.252143  0.603893  0.648250  1
  Ru  Ru14  1  0.000000  0.750000  0.750000  1
  Ru  Ru15  1  0.000000  0.250000  0.250000  1
  Pt  Pt16  1  0.251453  0.861673  0.389782  1
  Pt  Pt17  1  0.748547  0.138327  0.610218  1
  Pt  Pt18  1  0.471891  0.361673  0.110218  1
  Pt  Pt19  1  0.528109  0.638327  0.889782  1
