# generated using pymatgen
data_AcZrP7Ru12
_symmetry_space_group_name_H-M   'P 1'
_cell_length_a   9.50854500
_cell_length_b   9.50854466
_cell_length_c   3.94059100
_cell_angle_alpha   90.00000000
_cell_angle_beta   90.00000000
_cell_angle_gamma   119.99999676
_symmetry_Int_Tables_number   1
_chemical_formula_structural   AcZrP7Ru12
_chemical_formula_sum   'Ac1 Zr1 P7 Ru12'
_cell_volume   308.54614447
_cell_formula_units_Z   1
loop_
 _symmetry_equiv_pos_site_id
 _symmetry_equiv_pos_as_xyz
  1  'x, y, z'
loop_
 _atom_site_type_symbol
 _atom_site_label
 _atom_site_symmetry_multiplicity
 _atom_site_fract_x
 _atom_site_fract_y
 _atom_site_fract_z
 _atom_site_occupancy
  Ac  Ac0  1  0.333333  0.666667  0.000000  1
  Zr  Zr1  1  0.666667  0.333333  0.500000  1
  P  P2  1  0.610558  0.718880  0.500000  1
  P  P3  1  0.000000  0.000000  0.000000  1
  P  P4  1  0.281120  0.891677  0.500000  1
  P  P5  1  0.108323  0.389442  0.500000  1
  P  P6  1  0.887561  0.569312  0.000000  1
  P  P7  1  0.430688  0.318250  0.000000  1
  P  P8  1  0.681750  0.112439  0.000000  1
  Ru  Ru9  1  0.563492  0.964964  0.500000  1
  Ru  Ru10  1  0.401474  0.436508  0.500000  1
  Ru  Ru11  1  0.913979  0.118087  0.500000  1
  Ru  Ru12  1  0.204109  0.086021  0.500000  1
  Ru  Ru13  1  0.881913  0.795891  0.500000  1
  Ru  Ru14  1  0.728762  0.891400  0.000000  1
  Ru  Ru15  1  0.108600  0.837363  0.000000  1
  Ru  Ru16  1  0.162637  0.271238  0.000000  1
  Ru  Ru17  1  0.424330  0.077853  0.000000  1
  Ru  Ru18  1  0.922147  0.346479  0.000000  1
  Ru  Ru19  1  0.653521  0.575670  0.000000  1
  Ru  Ru20  1  0.035036  0.598526  0.500000  1
