# generated using pymatgen
data_Ti8VBi4Os
_symmetry_space_group_name_H-M   'P 1'
_cell_length_a   7.95128846
_cell_length_b   7.95128929
_cell_length_c   7.95128871
_cell_angle_alpha   95.96547054
_cell_angle_beta   95.96547795
_cell_angle_gamma   142.38609114
_symmetry_Int_Tables_number   1
_chemical_formula_structural   Ti8VBi4Os
_chemical_formula_sum   'Ti8 V1 Bi4 Os1'
_cell_volume   290.43825624
_cell_formula_units_Z   1
loop_
 _symmetry_equiv_pos_site_id
 _symmetry_equiv_pos_as_xyz
  1  'x, y, z'
loop_
 _atom_site_type_symbol
 _atom_site_label
 _atom_site_symmetry_multiplicity
 _atom_site_fract_x
 _atom_site_fract_y
 _atom_site_fract_z
 _atom_site_occupancy
  Ti  Ti0  1  0.587022  0.703322  0.281053  1
  Ti  Ti1  1  0.912978  0.194031  0.116300  1
  Ti  Ti2  1  0.305969  0.587022  0.883700  1
  Ti  Ti3  1  0.796678  0.912978  0.718947  1
  Ti  Ti4  1  0.703322  0.422270  0.116300  1
  Ti  Ti5  1  0.077730  0.796678  0.883700  1
  Ti  Ti6  1  0.422270  0.305969  0.718947  1
  Ti  Ti7  1  0.194031  0.077730  0.281053  1
  V  V8  1  0.750000  0.750000  0.000000  1
  Bi  Bi9  1  0.359755  0.859755  0.219510  1
  Bi  Bi10  1  0.140245  0.359755  0.500000  1
  Bi  Bi11  1  0.640245  0.140245  0.780490  1
  Bi  Bi12  1  0.859755  0.640245  0.500000  1
  Os  Os13  1  0.250000  0.250000  0.000000  1
