# generated using pymatgen
data_La2Dy5Y(WO6)4
_symmetry_space_group_name_H-M   'P 1'
_cell_length_a   5.47307800
_cell_length_b   7.80526915
_cell_length_c   11.60886512
_cell_angle_alpha   75.69974753
_cell_angle_beta   90.00000000
_cell_angle_gamma   90.00000000
_symmetry_Int_Tables_number   1
_chemical_formula_structural   La2Dy5Y(WO6)4
_chemical_formula_sum   'La2 Dy5 Y1 W4 O24'
_cell_volume   480.55115550
_cell_formula_units_Z   1
loop_
 _symmetry_equiv_pos_site_id
 _symmetry_equiv_pos_as_xyz
  1  'x, y, z'
loop_
 _atom_site_type_symbol
 _atom_site_label
 _atom_site_symmetry_multiplicity
 _atom_site_fract_x
 _atom_site_fract_y
 _atom_site_fract_z
 _atom_site_occupancy
  La  La0  1  0.686446  0.500000  0.750000  1
  La  La1  1  0.313529  0.500000  0.250000  1
  Dy  Dy2  1  0.258991  0.000000  0.250000  1
  Dy  Dy3  1  0.188161  0.798936  0.576228  1
  Dy  Dy4  1  0.811860  0.798956  0.076287  1
  Dy  Dy5  1  0.188161  0.201064  0.923772  1
  Dy  Dy6  1  0.811860  0.201044  0.423713  1
  Y  Y7  1  0.741121  0.000000  0.750000  1
  W  W8  1  0.252055  0.728757  0.884060  1
  W  W9  1  0.747942  0.728895  0.384015  1
  W  W10  1  0.252055  0.271243  0.615940  1
  W  W11  1  0.747942  0.271105  0.115985  1
  O  O12  1  0.040656  0.941600  0.895944  1
  O  O13  1  0.529837  0.846489  0.930812  1
  O  O14  1  0.959770  0.941681  0.395751  1
  O  O15  1  0.453651  0.795336  0.727861  1
  O  O16  1  0.469995  0.846628  0.430650  1
  O  O17  1  0.987475  0.721346  0.769249  1
  O  O18  1  0.545897  0.795673  0.227874  1
  O  O19  1  0.858164  0.643553  0.543789  1
  O  O20  1  0.346380  0.495142  0.887624  1
  O  O21  1  0.012657  0.721531  0.269232  1
  O  O22  1  0.346380  0.504858  0.612376  1
  O  O23  1  0.858164  0.356447  0.956211  1
  O  O24  1  0.141835  0.643541  0.043805  1
  O  O25  1  0.653620  0.495165  0.387630  1
  O  O26  1  0.987475  0.278654  0.730751  1
  O  O27  1  0.653620  0.504835  0.112370  1
  O  O28  1  0.141835  0.356459  0.456195  1
  O  O29  1  0.453651  0.204664  0.772139  1
  O  O30  1  0.012657  0.278469  0.230768  1
  O  O31  1  0.529837  0.153511  0.569188  1
  O  O32  1  0.545897  0.204327  0.272126  1
  O  O33  1  0.040656  0.058400  0.604056  1
  O  O34  1  0.469995  0.153372  0.069350  1
  O  O35  1  0.959770  0.058319  0.104249  1
