# generated using pymatgen
data_TbDy(LuPt)2
_symmetry_space_group_name_H-M   'P 1'
_cell_length_a   4.74517400
_cell_length_b   7.10712600
_cell_length_c   8.65665300
_cell_angle_alpha   90.00000000
_cell_angle_beta   90.00000000
_cell_angle_gamma   90.00000000
_symmetry_Int_Tables_number   1
_chemical_formula_structural   TbDy(LuPt)2
_chemical_formula_sum   'Tb2 Dy2 Lu4 Pt4'
_cell_volume   291.94172269
_cell_formula_units_Z   2
loop_
 _symmetry_equiv_pos_site_id
 _symmetry_equiv_pos_as_xyz
  1  'x, y, z'
loop_
 _atom_site_type_symbol
 _atom_site_label
 _atom_site_symmetry_multiplicity
 _atom_site_fract_x
 _atom_site_fract_y
 _atom_site_fract_z
 _atom_site_occupancy
  Tb  Tb0  1  0.750000  0.011111  0.670830  1
  Tb  Tb1  1  0.750000  0.511111  0.829170  1
  Dy  Dy2  1  0.250000  0.989024  0.329956  1
  Dy  Dy3  1  0.250000  0.489024  0.170044  1
  Lu  Lu4  1  0.250000  0.857106  0.922155  1
  Lu  Lu5  1  0.250000  0.357106  0.577845  1
  Lu  Lu6  1  0.750000  0.142942  0.078272  1
  Lu  Lu7  1  0.750000  0.642942  0.421728  1
  Pt  Pt8  1  0.250000  0.252938  0.907285  1
  Pt  Pt9  1  0.250000  0.752938  0.592715  1
  Pt  Pt10  1  0.750000  0.746879  0.093316  1
  Pt  Pt11  1  0.750000  0.246879  0.406684  1
