# generated using pymatgen
data_Ac3Cd2GaIr3
_symmetry_space_group_name_H-M   'P 1'
_cell_length_a   7.79739054
_cell_length_b   7.79738835
_cell_length_c   4.21523300
_cell_angle_alpha   90.00000000
_cell_angle_beta   90.00000000
_cell_angle_gamma   120.82331615
_symmetry_Int_Tables_number   1
_chemical_formula_structural   Ac3Cd2GaIr3
_chemical_formula_sum   'Ac3 Cd2 Ga1 Ir3'
_cell_volume   220.08351914
_cell_formula_units_Z   1
loop_
 _symmetry_equiv_pos_site_id
 _symmetry_equiv_pos_as_xyz
  1  'x, y, z'
loop_
 _atom_site_type_symbol
 _atom_site_label
 _atom_site_symmetry_multiplicity
 _atom_site_fract_x
 _atom_site_fract_y
 _atom_site_fract_z
 _atom_site_occupancy
  Ac  Ac0  1  0.426026  0.426026  0.000000  1
  Ac  Ac1  1  0.591083  0.999926  0.000000  1
  Ac  Ac2  1  0.999926  0.591083  0.000000  1
  Cd  Cd3  1  0.241322  0.007213  0.500000  1
  Cd  Cd4  1  0.007213  0.241322  0.500000  1
  Ga  Ga5  1  0.760703  0.760703  0.500000  1
  Ir  Ir6  1  0.669264  0.348051  0.500000  1
  Ir  Ir7  1  0.348051  0.669264  0.500000  1
  Ir  Ir8  1  0.956414  0.956414  0.000000  1
