# generated using pymatgen
data_Nb2TcP2Rh
_symmetry_space_group_name_H-M   'P 1'
_cell_length_a   3.75667600
_cell_length_b   6.40284900
_cell_length_c   7.27120200
_cell_angle_alpha   90.00000000
_cell_angle_beta   90.00000000
_cell_angle_gamma   90.00000000
_symmetry_Int_Tables_number   1
_chemical_formula_structural   Nb2TcP2Rh
_chemical_formula_sum   'Nb4 Tc2 P4 Rh2'
_cell_volume   174.89734229
_cell_formula_units_Z   2
loop_
 _symmetry_equiv_pos_site_id
 _symmetry_equiv_pos_as_xyz
  1  'x, y, z'
loop_
 _atom_site_type_symbol
 _atom_site_label
 _atom_site_symmetry_multiplicity
 _atom_site_fract_x
 _atom_site_fract_y
 _atom_site_fract_z
 _atom_site_occupancy
  Nb  Nb0  1  0.250000  0.027485  0.826845  1
  Nb  Nb1  1  0.250000  0.527485  0.673155  1
  Nb  Nb2  1  0.750000  0.974741  0.170265  1
  Nb  Nb3  1  0.750000  0.474741  0.329735  1
  Tc  Tc4  1  0.250000  0.141116  0.441796  1
  Tc  Tc5  1  0.250000  0.641116  0.058204  1
  P  P6  1  0.250000  0.770226  0.369909  1
  P  P7  1  0.250000  0.270226  0.130091  1
  P  P8  1  0.750000  0.236540  0.621732  1
  P  P9  1  0.750000  0.736540  0.878268  1
  Rh  Rh10  1  0.750000  0.849892  0.564879  1
  Rh  Rh11  1  0.750000  0.349892  0.935121  1
