# generated using pymatgen
data_NdDy5C2Cl7
_symmetry_space_group_name_H-M   'P 1'
_cell_length_a   10.18152657
_cell_length_b   10.18152707
_cell_length_c   11.59258300
_cell_angle_alpha   56.58371680
_cell_angle_beta   56.58372169
_cell_angle_gamma   21.15840683
_symmetry_Int_Tables_number   1
_chemical_formula_structural   NdDy5C2Cl7
_chemical_formula_sum   'Nd1 Dy5 C2 Cl7'
_cell_volume   359.29694314
_cell_formula_units_Z   1
loop_
 _symmetry_equiv_pos_site_id
 _symmetry_equiv_pos_as_xyz
  1  'x, y, z'
loop_
 _atom_site_type_symbol
 _atom_site_label
 _atom_site_symmetry_multiplicity
 _atom_site_fract_x
 _atom_site_fract_y
 _atom_site_fract_z
 _atom_site_occupancy
  Nd  Nd0  1  0.223187  0.223187  0.857714  1
  Dy  Dy1  1  0.318045  0.318045  0.358546  1
  Dy  Dy2  1  0.128167  0.128167  0.441759  1
  Dy  Dy3  1  0.871415  0.871415  0.559691  1
  Dy  Dy4  1  0.682971  0.682971  0.641252  1
  Dy  Dy5  1  0.775109  0.775109  0.149528  1
  C  C6  1  0.279910  0.279910  0.605713  1
  C  C7  1  0.721662  0.721662  0.387682  1
  Cl  Cl8  1  0.168210  0.168210  0.166661  1
  Cl  Cl9  1  0.839118  0.839118  0.834444  1
  Cl  Cl10  1  0.059712  0.059712  0.713455  1
  Cl  Cl11  1  0.940847  0.940847  0.284973  1
  Cl  Cl12  1  0.500898  0.500898  0.498236  1
  Cl  Cl13  1  0.388881  0.388881  0.067088  1
  Cl  Cl14  1  0.601866  0.601866  0.933258  1
