# generated using pymatgen
data_TbCe2Sn2Hg3
_symmetry_space_group_name_H-M   'P 1'
_cell_length_a   6.46260700
_cell_length_b   6.46260672
_cell_length_c   10.68780600
_cell_angle_alpha   90.00000000
_cell_angle_beta   90.00000000
_cell_angle_gamma   102.38036640
_symmetry_Int_Tables_number   1
_chemical_formula_structural   TbCe2Sn2Hg3
_chemical_formula_sum   'Tb2 Ce4 Sn4 Hg6'
_cell_volume   435.99909829
_cell_formula_units_Z   2
loop_
 _symmetry_equiv_pos_site_id
 _symmetry_equiv_pos_as_xyz
  1  'x, y, z'
loop_
 _atom_site_type_symbol
 _atom_site_label
 _atom_site_symmetry_multiplicity
 _atom_site_fract_x
 _atom_site_fract_y
 _atom_site_fract_z
 _atom_site_occupancy
  Tb  Tb0  1  0.632414  0.632414  0.250000  1
  Tb  Tb1  1  0.367586  0.367586  0.750000  1
  Ce  Ce2  1  0.201730  0.798270  0.500000  1
  Ce  Ce3  1  0.201730  0.798270  0.000000  1
  Ce  Ce4  1  0.798270  0.201730  0.500000  1
  Ce  Ce5  1  0.798270  0.201730  0.000000  1
  Sn  Sn6  1  0.316991  0.316991  0.046714  1
  Sn  Sn7  1  0.683009  0.683009  0.953286  1
  Sn  Sn8  1  0.316991  0.316991  0.453286  1
  Sn  Sn9  1  0.683009  0.683009  0.546714  1
  Hg  Hg10  1  0.013171  0.013171  0.250000  1
  Hg  Hg11  1  0.986829  0.986829  0.750000  1
  Hg  Hg12  1  0.507460  0.074191  0.250000  1
  Hg  Hg13  1  0.925809  0.492540  0.750000  1
  Hg  Hg14  1  0.492540  0.925809  0.750000  1
  Hg  Hg15  1  0.074191  0.507460  0.250000  1
