# generated using pymatgen
data_Mg(TiPd4)3
_symmetry_space_group_name_H-M   'P 1'
_cell_length_a   5.58828300
_cell_length_b   5.58828321
_cell_length_c   9.05961300
_cell_angle_alpha   90.00000000
_cell_angle_beta   90.00000000
_cell_angle_gamma   120.00000465
_symmetry_Int_Tables_number   1
_chemical_formula_structural   Mg(TiPd4)3
_chemical_formula_sum   'Mg1 Ti3 Pd12'
_cell_volume   245.01747335
_cell_formula_units_Z   1
loop_
 _symmetry_equiv_pos_site_id
 _symmetry_equiv_pos_as_xyz
  1  'x, y, z'
loop_
 _atom_site_type_symbol
 _atom_site_label
 _atom_site_symmetry_multiplicity
 _atom_site_fract_x
 _atom_site_fract_y
 _atom_site_fract_z
 _atom_site_occupancy
  Mg  Mg0  1  0.333333  0.666667  0.250000  1
  Ti  Ti1  1  0.000000  0.000000  0.498498  1
  Ti  Ti2  1  0.000000  0.000000  0.001502  1
  Ti  Ti3  1  0.666667  0.333333  0.750000  1
  Pd  Pd4  1  0.501847  0.498153  0.503625  1
  Pd  Pd5  1  0.501847  0.003693  0.503625  1
  Pd  Pd6  1  0.996307  0.498153  0.503625  1
  Pd  Pd7  1  0.501847  0.498153  0.996375  1
  Pd  Pd8  1  0.501847  0.003693  0.996375  1
  Pd  Pd9  1  0.996307  0.498153  0.996375  1
  Pd  Pd10  1  0.833663  0.667327  0.250000  1
  Pd  Pd11  1  0.332673  0.166337  0.250000  1
  Pd  Pd12  1  0.833663  0.166337  0.250000  1
  Pd  Pd13  1  0.165685  0.331369  0.750000  1
  Pd  Pd14  1  0.668631  0.834315  0.750000  1
  Pd  Pd15  1  0.165685  0.834315  0.750000  1
