# generated using pymatgen
data_Ca6GaSi3Pd4
_symmetry_space_group_name_H-M   'P 1'
_cell_length_a   5.71398700
_cell_length_b   8.03836500
_cell_length_c   13.47465200
_cell_angle_alpha   90.00000000
_cell_angle_beta   90.00000000
_cell_angle_gamma   90.00000000
_symmetry_Int_Tables_number   1
_chemical_formula_structural   Ca6GaSi3Pd4
_chemical_formula_sum   'Ca12 Ga2 Si6 Pd8'
_cell_volume   618.90576515
_cell_formula_units_Z   2
loop_
 _symmetry_equiv_pos_site_id
 _symmetry_equiv_pos_as_xyz
  1  'x, y, z'
loop_
 _atom_site_type_symbol
 _atom_site_label
 _atom_site_symmetry_multiplicity
 _atom_site_fract_x
 _atom_site_fract_y
 _atom_site_fract_z
 _atom_site_occupancy
  Ca  Ca0  1  0.134791  0.614624  0.105044  1
  Ca  Ca1  1  0.134791  0.885376  0.894956  1
  Ca  Ca2  1  0.865209  0.114624  0.394956  1
  Ca  Ca3  1  0.865209  0.385376  0.605044  1
  Ca  Ca4  1  0.862136  0.391851  0.894471  1
  Ca  Ca5  1  0.862136  0.108149  0.105529  1
  Ca  Ca6  1  0.137864  0.891851  0.605529  1
  Ca  Ca7  1  0.137864  0.608149  0.394471  1
  Ca  Ca8  1  0.350172  0.256212  0.249269  1
  Ca  Ca9  1  0.350172  0.243788  0.750731  1
  Ca  Ca10  1  0.649828  0.756212  0.250731  1
  Ca  Ca11  1  0.649828  0.743788  0.749269  1
  Ga  Ga12  1  0.374556  0.250000  0.000000  1
  Ga  Ga13  1  0.625444  0.750000  0.500000  1
  Si  Si14  1  0.624791  0.750000  0.000000  1
  Si  Si15  1  0.375209  0.250000  0.500000  1
  Si  Si16  1  0.837825  0.403977  0.248316  1
  Si  Si17  1  0.837825  0.096023  0.751684  1
  Si  Si18  1  0.162175  0.903977  0.251684  1
  Si  Si19  1  0.162175  0.596023  0.748316  1
  Pd  Pd20  1  0.630024  0.477668  0.090165  1
  Pd  Pd21  1  0.630024  0.022332  0.909835  1
  Pd  Pd22  1  0.369976  0.977668  0.409835  1
  Pd  Pd23  1  0.369976  0.522332  0.590165  1
  Pd  Pd24  1  0.376721  0.539301  0.908099  1
  Pd  Pd25  1  0.376721  0.960699  0.091901  1
  Pd  Pd26  1  0.623279  0.039301  0.591901  1
  Pd  Pd27  1  0.623279  0.460699  0.408099  1
