# generated using pymatgen
data_Yb3YTm4(B6Os)4
_symmetry_space_group_name_H-M   'P 1'
_cell_length_a   3.62489400
_cell_length_b   9.11284451
_cell_length_c   11.50467601
_cell_angle_alpha   89.93882808
_cell_angle_beta   90.00000000
_cell_angle_gamma   90.00000000
_symmetry_Int_Tables_number   1
_chemical_formula_structural   Yb3YTm4(B6Os)4
_chemical_formula_sum   'Yb3 Y1 Tm4 B24 Os4'
_cell_volume   380.03484344
_cell_formula_units_Z   1
loop_
 _symmetry_equiv_pos_site_id
 _symmetry_equiv_pos_as_xyz
  1  'x, y, z'
loop_
 _atom_site_type_symbol
 _atom_site_label
 _atom_site_symmetry_multiplicity
 _atom_site_fract_x
 _atom_site_fract_y
 _atom_site_fract_z
 _atom_site_occupancy
  Yb  Yb0  1  0.000000  0.324404  0.414430  1
  Yb  Yb1  1  0.000000  0.675666  0.585159  1
  Yb  Yb2  1  0.000000  0.822928  0.086260  1
  Y  Y3  1  0.000000  0.176428  0.914736  1
  Tm  Tm4  1  0.000000  0.941409  0.367852  1
  Tm  Tm5  1  0.000000  0.057687  0.630511  1
  Tm  Tm6  1  0.000000  0.443383  0.132026  1
  Tm  Tm7  1  0.000000  0.558418  0.868768  1
  B  B8  1  0.500000  0.553180  0.432968  1
  B  B9  1  0.500000  0.446322  0.567745  1
  B  B10  1  0.500000  0.053486  0.067202  1
  B  B11  1  0.500000  0.945620  0.933232  1
  B  B12  1  0.500000  0.748831  0.417491  1
  B  B13  1  0.500000  0.250965  0.582391  1
  B  B14  1  0.500000  0.249425  0.082260  1
  B  B15  1  0.500000  0.751182  0.917953  1
  B  B16  1  0.500000  0.791173  0.264260  1
  B  B17  1  0.500000  0.208446  0.735522  1
  B  B18  1  0.500000  0.291584  0.234893  1
  B  B19  1  0.500000  0.709466  0.765007  1
  B  B20  1  0.500000  0.630740  0.185784  1
  B  B21  1  0.500000  0.369536  0.814998  1
  B  B22  1  0.500000  0.130780  0.313818  1
  B  B23  1  0.500000  0.869482  0.684977  1
  B  B24  1  0.500000  0.982356  0.211062  1
  B  B25  1  0.500000  0.017097  0.788037  1
  B  B26  1  0.500000  0.483212  0.288706  1
  B  B27  1  0.500000  0.516798  0.712004  1
  B  B28  1  0.500000  0.598720  0.027340  1
  B  B29  1  0.500000  0.401108  0.972873  1
  B  B30  1  0.500000  0.096871  0.472748  1
  B  B31  1  0.500000  0.903013  0.526276  1
  Os  Os32  1  0.000000  0.638987  0.320543  1
  Os  Os33  1  0.000000  0.359996  0.680791  1
  Os  Os34  1  0.000000  0.138735  0.179596  1
  Os  Os35  1  0.000000  0.862560  0.819781  1
