# generated using pymatgen
data_Ta5Nb7Al8(IrC)4
_symmetry_space_group_name_H-M   'P 1'
_cell_length_a   8.32813681
_cell_length_b   8.32820828
_cell_length_c   8.33321101
_cell_angle_alpha   59.98225150
_cell_angle_beta   59.98435093
_cell_angle_gamma   59.95495510
_symmetry_Int_Tables_number   1
_chemical_formula_structural   Ta5Nb7Al8(IrC)4
_chemical_formula_sum   'Ta5 Nb7 Al8 Ir4 C4'
_cell_volume   408.45024196
_cell_formula_units_Z   1
loop_
 _symmetry_equiv_pos_site_id
 _symmetry_equiv_pos_as_xyz
  1  'x, y, z'
loop_
 _atom_site_type_symbol
 _atom_site_label
 _atom_site_symmetry_multiplicity
 _atom_site_fract_x
 _atom_site_fract_y
 _atom_site_fract_z
 _atom_site_occupancy
  Ta  Ta0  1  0.936940  0.563237  0.563449  1
  Ta  Ta1  1  0.563342  0.936595  0.936749  1
  Ta  Ta2  1  0.936525  0.936152  0.563720  1
  Ta  Ta3  1  0.686811  0.313350  0.686593  1
  Ta  Ta4  1  0.936384  0.563687  0.936185  1
  Nb  Nb5  1  0.563676  0.936397  0.563745  1
  Nb  Nb6  1  0.313803  0.686354  0.686302  1
  Nb  Nb7  1  0.686523  0.313574  0.313754  1
  Nb  Nb8  1  0.313324  0.686803  0.313314  1
  Nb  Nb9  1  0.686545  0.686418  0.313659  1
  Nb  Nb10  1  0.313768  0.313514  0.686433  1
  Nb  Nb11  1  0.563569  0.563511  0.936642  1
  Al  Al12  1  0.917218  0.915891  0.916771  1
  Al  Al13  1  0.999416  0.333683  0.332685  1
  Al  Al14  1  0.333674  0.999206  0.334188  1
  Al  Al15  1  0.332817  0.334327  0.999429  1
  Al  Al16  1  0.916267  0.250386  0.917314  1
  Al  Al17  1  0.915658  0.917186  0.250380  1
  Al  Al18  1  0.250628  0.916282  0.915788  1
  Al  Al19  1  0.334306  0.333048  0.333409  1
  Ir  Ir20  1  0.125274  0.125028  0.125125  1
  Ir  Ir21  1  0.625384  0.124845  0.121553  1
  Ir  Ir22  1  0.123066  0.624828  0.126189  1
  Ir  Ir23  1  0.120608  0.127224  0.625099  1
  C  C24  1  0.627824  0.622564  0.625248  1
  C  C25  1  0.122135  0.625971  0.626306  1
  C  C26  1  0.627464  0.123584  0.627109  1
  C  C27  1  0.627050  0.626354  0.122860  1
