# generated using pymatgen
data_SrLa7(Si3Pt)4
_symmetry_space_group_name_H-M   'P 1'
_cell_length_a   8.31242100
_cell_length_b   8.31242096
_cell_length_c   8.85107400
_cell_angle_alpha   90.00000000
_cell_angle_beta   90.00000000
_cell_angle_gamma   119.99999616
_symmetry_Int_Tables_number   1
_chemical_formula_structural   SrLa7(Si3Pt)4
_chemical_formula_sum   'Sr1 La7 Si12 Pt4'
_cell_volume   529.64110142
_cell_formula_units_Z   1
loop_
 _symmetry_equiv_pos_site_id
 _symmetry_equiv_pos_as_xyz
  1  'x, y, z'
loop_
 _atom_site_type_symbol
 _atom_site_label
 _atom_site_symmetry_multiplicity
 _atom_site_fract_x
 _atom_site_fract_y
 _atom_site_fract_z
 _atom_site_occupancy
  Sr  Sr0  1  0.000000  0.000000  0.250000  1
  La  La1  1  0.000000  0.000000  0.750000  1
  La  La2  1  0.500927  0.499073  0.250000  1
  La  La3  1  0.500927  0.001855  0.250000  1
  La  La4  1  0.998145  0.499073  0.250000  1
  La  La5  1  0.499224  0.500776  0.750000  1
  La  La6  1  0.499224  0.998446  0.750000  1
  La  La7  1  0.001554  0.500776  0.750000  1
  Si  Si8  1  0.166093  0.833907  0.501636  1
  Si  Si9  1  0.166093  0.332188  0.501636  1
  Si  Si10  1  0.667812  0.833907  0.501636  1
  Si  Si11  1  0.833912  0.166088  0.499754  1
  Si  Si12  1  0.833912  0.667822  0.499754  1
  Si  Si13  1  0.332178  0.166088  0.499754  1
  Si  Si14  1  0.833912  0.166088  0.000246  1
  Si  Si15  1  0.833912  0.667822  0.000246  1
  Si  Si16  1  0.332178  0.166088  0.000246  1
  Si  Si17  1  0.166093  0.833907  0.998364  1
  Si  Si18  1  0.166093  0.332188  0.998364  1
  Si  Si19  1  0.667812  0.833907  0.998364  1
  Pt  Pt20  1  0.333333  0.666667  0.496223  1
  Pt  Pt21  1  0.666667  0.333333  0.503266  1
  Pt  Pt22  1  0.666667  0.333333  0.996734  1
  Pt  Pt23  1  0.333333  0.666667  0.003777  1
