# generated using pymatgen
data_CaPr5DyIrBr12
_symmetry_space_group_name_H-M   'P 1'
_cell_length_a   9.69055927
_cell_length_b   9.60991029
_cell_length_c   9.54407538
_cell_angle_alpha   107.10483485
_cell_angle_beta   107.52208888
_cell_angle_gamma   106.73030364
_symmetry_Int_Tables_number   1
_chemical_formula_structural   CaPr5DyIrBr12
_chemical_formula_sum   'Ca1 Pr5 Dy1 Ir1 Br12'
_cell_volume   737.75292237
_cell_formula_units_Z   1
loop_
 _symmetry_equiv_pos_site_id
 _symmetry_equiv_pos_as_xyz
  1  'x, y, z'
loop_
 _atom_site_type_symbol
 _atom_site_label
 _atom_site_symmetry_multiplicity
 _atom_site_fract_x
 _atom_site_fract_y
 _atom_site_fract_z
 _atom_site_occupancy
  Ca  Ca0  1  0.499511  0.500897  0.498611  1
  Pr  Pr1  1  0.319114  0.023818  0.109967  1
  Pr  Pr2  1  0.026585  0.108919  0.312122  1
  Pr  Pr3  1  0.974909  0.896527  0.690116  1
  Pr  Pr4  1  0.681348  0.975129  0.890274  1
  Pr  Pr5  1  0.891140  0.677959  0.974185  1
  Dy  Dy6  1  0.106795  0.310829  0.026896  1
  Ir  Ir7  1  0.000723  0.000532  0.001494  1
  Br  Br8  1  0.216181  0.673355  0.070964  1
  Br  Br9  1  0.447019  0.379353  0.160508  1
  Br  Br10  1  0.684371  0.074310  0.220371  1
  Br  Br11  1  0.928094  0.783103  0.318425  1
  Br  Br12  1  0.166853  0.460189  0.368894  1
  Br  Br13  1  0.381197  0.170428  0.462562  1
  Br  Br14  1  0.619297  0.831583  0.537785  1
  Br  Br15  1  0.830661  0.540141  0.618056  1
  Br  Br16  1  0.075292  0.227083  0.696067  1
  Br  Br17  1  0.315666  0.926425  0.780023  1
  Br  Br18  1  0.540389  0.620778  0.832014  1
  Br  Br19  1  0.794861  0.318644  0.930671  1
