# generated using pymatgen
data_Hf2ZnB2Ru5
_symmetry_space_group_name_H-M   'P 1'
_cell_length_a   9.33983700
_cell_length_b   9.33983700
_cell_length_c   3.08171600
_cell_angle_alpha   90.00000000
_cell_angle_beta   90.00000000
_cell_angle_gamma   90.00000000
_symmetry_Int_Tables_number   1
_chemical_formula_structural   Hf2ZnB2Ru5
_chemical_formula_sum   'Hf4 Zn2 B4 Ru10'
_cell_volume   268.82596104
_cell_formula_units_Z   2
loop_
 _symmetry_equiv_pos_site_id
 _symmetry_equiv_pos_as_xyz
  1  'x, y, z'
loop_
 _atom_site_type_symbol
 _atom_site_label
 _atom_site_symmetry_multiplicity
 _atom_site_fract_x
 _atom_site_fract_y
 _atom_site_fract_z
 _atom_site_occupancy
  Hf  Hf0  1  0.824226  0.675774  0.000000  1
  Hf  Hf1  1  0.175774  0.324226  0.000000  1
  Hf  Hf2  1  0.324226  0.824226  0.000000  1
  Hf  Hf3  1  0.675774  0.175774  0.000000  1
  Zn  Zn4  1  0.500000  0.500000  0.000000  1
  Zn  Zn5  1  0.000000  0.000000  0.000000  1
  B  B6  1  0.625225  0.874775  0.000000  1
  B  B7  1  0.374775  0.125225  0.000000  1
  B  B8  1  0.125225  0.625225  0.000000  1
  B  B9  1  0.874775  0.374775  0.000000  1
  Ru  Ru10  1  0.571690  0.715295  0.500000  1
  Ru  Ru11  1  0.428310  0.284705  0.500000  1
  Ru  Ru12  1  0.071690  0.784705  0.500000  1
  Ru  Ru13  1  0.928310  0.215295  0.500000  1
  Ru  Ru14  1  0.284705  0.571690  0.500000  1
  Ru  Ru15  1  0.715295  0.428310  0.500000  1
  Ru  Ru16  1  0.215295  0.071690  0.500000  1
  Ru  Ru17  1  0.784705  0.928310  0.500000  1
  Ru  Ru18  1  0.500000  0.000000  0.500000  1
  Ru  Ru19  1  0.000000  0.500000  0.500000  1
