# generated using pymatgen
data_La2NdCo9
_symmetry_space_group_name_H-M   'P 1'
_cell_length_a   8.84485778
_cell_length_b   8.84477503
_cell_length_c   8.84500591
_cell_angle_alpha   33.00086508
_cell_angle_beta   32.98661375
_cell_angle_gamma   32.96771906
_symmetry_Int_Tables_number   1
_chemical_formula_structural   La2NdCo9
_chemical_formula_sum   'La2 Nd1 Co9'
_cell_volume   182.50794953
_cell_formula_units_Z   1
loop_
 _symmetry_equiv_pos_site_id
 _symmetry_equiv_pos_as_xyz
  1  'x, y, z'
loop_
 _atom_site_type_symbol
 _atom_site_label
 _atom_site_symmetry_multiplicity
 _atom_site_fract_x
 _atom_site_fract_y
 _atom_site_fract_z
 _atom_site_occupancy
  La  La0  1  0.140333  0.140127  0.139997  1
  La  La1  1  0.859667  0.859873  0.860003  1
  Nd  Nd2  1  0.000000  0.000000  0.000000  1
  Co  Co3  1  0.576734  0.576668  0.082033  1
  Co  Co4  1  0.333194  0.332783  0.332409  1
  Co  Co5  1  0.917721  0.423493  0.423580  1
  Co  Co6  1  0.423327  0.917846  0.423485  1
  Co  Co7  1  0.500000  0.500000  0.500000  1
  Co  Co8  1  0.576673  0.082154  0.576515  1
  Co  Co9  1  0.082279  0.576507  0.576420  1
  Co  Co10  1  0.666806  0.667217  0.667591  1
  Co  Co11  1  0.423266  0.423332  0.917967  1
