# generated using pymatgen
data_Tb7TmCd2(SnAu4)2
_symmetry_space_group_name_H-M   'P 1'
_cell_length_a   8.03019711
_cell_length_b   8.03019751
_cell_length_c   7.39478600
_cell_angle_alpha   89.99056034
_cell_angle_beta   89.99056034
_cell_angle_gamma   89.96619262
_symmetry_Int_Tables_number   1
_chemical_formula_structural   Tb7TmCd2(SnAu4)2
_chemical_formula_sum   'Tb7 Tm1 Cd2 Sn2 Au8'
_cell_volume   476.84579326
_cell_formula_units_Z   1
loop_
 _symmetry_equiv_pos_site_id
 _symmetry_equiv_pos_as_xyz
  1  'x, y, z'
loop_
 _atom_site_type_symbol
 _atom_site_label
 _atom_site_symmetry_multiplicity
 _atom_site_fract_x
 _atom_site_fract_y
 _atom_site_fract_z
 _atom_site_occupancy
  Tb  Tb0  1  0.838120  0.161880  0.500000  1
  Tb  Tb1  1  0.161087  0.838913  0.500000  1
  Tb  Tb2  1  0.338739  0.337964  0.000068  1
  Tb  Tb3  1  0.662036  0.661261  0.999932  1
  Tb  Tb4  1  0.681050  0.680244  0.499956  1
  Tb  Tb5  1  0.319756  0.318950  0.500044  1
  Tb  Tb6  1  0.180487  0.819513  0.000000  1
  Tm  Tm7  1  0.819876  0.180124  0.000000  1
  Cd  Cd8  1  0.500394  0.000256  0.249274  1
  Cd  Cd9  1  0.999744  0.499606  0.750726  1
  Sn  Sn10  1  0.500398  0.000136  0.750258  1
  Sn  Sn11  1  0.999864  0.499602  0.249742  1
  Au  Au12  1  0.625633  0.367064  0.266130  1
  Au  Au13  1  0.376201  0.631349  0.269400  1
  Au  Au14  1  0.122360  0.132476  0.770459  1
  Au  Au15  1  0.874966  0.869823  0.770330  1
  Au  Au16  1  0.368651  0.623799  0.730600  1
  Au  Au17  1  0.632936  0.374367  0.733870  1
  Au  Au18  1  0.867524  0.877640  0.229541  1
  Au  Au19  1  0.130177  0.125034  0.229670  1
