# generated using pymatgen
data_Ta3Fe(BOs2)2
_symmetry_space_group_name_H-M   'P 1'
_cell_length_a   9.36110900
_cell_length_b   9.36110900
_cell_length_c   3.03529100
_cell_angle_alpha   90.00000000
_cell_angle_beta   90.00000000
_cell_angle_gamma   90.00000000
_symmetry_Int_Tables_number   1
_chemical_formula_structural   Ta3Fe(BOs2)2
_chemical_formula_sum   'Ta6 Fe2 B4 Os8'
_cell_volume   265.98364822
_cell_formula_units_Z   2
loop_
 _symmetry_equiv_pos_site_id
 _symmetry_equiv_pos_as_xyz
  1  'x, y, z'
loop_
 _atom_site_type_symbol
 _atom_site_label
 _atom_site_symmetry_multiplicity
 _atom_site_fract_x
 _atom_site_fract_y
 _atom_site_fract_z
 _atom_site_occupancy
  Ta  Ta0  1  0.827386  0.672614  0.000000  1
  Ta  Ta1  1  0.172614  0.327386  0.000000  1
  Ta  Ta2  1  0.327386  0.827386  0.000000  1
  Ta  Ta3  1  0.672614  0.172614  0.000000  1
  Ta  Ta4  1  0.500000  0.500000  0.000000  1
  Ta  Ta5  1  0.000000  0.000000  0.000000  1
  Fe  Fe6  1  0.500000  0.000000  0.500000  1
  Fe  Fe7  1  0.000000  0.500000  0.500000  1
  B  B8  1  0.610192  0.889808  0.000000  1
  B  B9  1  0.389808  0.110192  0.000000  1
  B  B10  1  0.110192  0.610192  0.000000  1
  B  B11  1  0.889808  0.389808  0.000000  1
  Os  Os12  1  0.567518  0.723685  0.500000  1
  Os  Os13  1  0.432482  0.276315  0.500000  1
  Os  Os14  1  0.067518  0.776315  0.500000  1
  Os  Os15  1  0.932482  0.223685  0.500000  1
  Os  Os16  1  0.276315  0.567518  0.500000  1
  Os  Os17  1  0.723685  0.432482  0.500000  1
  Os  Os18  1  0.223685  0.067518  0.500000  1
  Os  Os19  1  0.776315  0.932482  0.500000  1
