# generated using pymatgen
data_Rb4MnCdSe4
_symmetry_space_group_name_H-M   'P 1'
_cell_length_a   8.61209401
_cell_length_b   8.61209385
_cell_length_c   8.61209407
_cell_angle_alpha   133.46571253
_cell_angle_beta   128.73575498
_cell_angle_gamma   71.72067247
_symmetry_Int_Tables_number   1
_chemical_formula_structural   Rb4MnCdSe4
_chemical_formula_sum   'Rb4 Mn1 Cd1 Se4'
_cell_volume   353.83971245
_cell_formula_units_Z   1
loop_
 _symmetry_equiv_pos_site_id
 _symmetry_equiv_pos_as_xyz
  1  'x, y, z'
loop_
 _atom_site_type_symbol
 _atom_site_label
 _atom_site_symmetry_multiplicity
 _atom_site_fract_x
 _atom_site_fract_y
 _atom_site_fract_z
 _atom_site_occupancy
  Rb  Rb0  1  0.813202  0.646169  0.167424  1
  Rb  Rb1  1  0.186798  0.354222  0.832967  1
  Rb  Rb2  1  0.521255  0.853831  0.667033  1
  Rb  Rb3  1  0.478745  0.145778  0.332576  1
  Mn  Mn4  1  0.000000  0.250000  0.250000  1
  Cd  Cd5  1  0.000000  0.750000  0.750000  1
  Se  Se6  1  0.294365  0.589511  0.676932  1
  Se  Se7  1  0.087421  0.910489  0.204854  1
  Se  Se8  1  0.912579  0.117433  0.823068  1
  Se  Se9  1  0.705635  0.382567  0.295146  1
