# generated using pymatgen
data_Ho4TmVReO12
_symmetry_space_group_name_H-M   'P 1'
_cell_length_a   6.75545665
_cell_length_b   6.75545673
_cell_length_c   7.42427205
_cell_angle_alpha   73.87230073
_cell_angle_beta   73.87229721
_cell_angle_gamma   50.28139440
_symmetry_Int_Tables_number   1
_chemical_formula_structural   Ho4TmVReO12
_chemical_formula_sum   'Ho4 Tm1 V1 Re1 O12'
_cell_volume   248.04183996
_cell_formula_units_Z   1
loop_
 _symmetry_equiv_pos_site_id
 _symmetry_equiv_pos_as_xyz
  1  'x, y, z'
loop_
 _atom_site_type_symbol
 _atom_site_label
 _atom_site_symmetry_multiplicity
 _atom_site_fract_x
 _atom_site_fract_y
 _atom_site_fract_z
 _atom_site_occupancy
  Ho  Ho0  1  0.819689  0.789523  0.359744  1
  Ho  Ho1  1  0.210477  0.180311  0.640256  1
  Ho  Ho2  1  0.187052  0.183649  0.177273  1
  Ho  Ho3  1  0.816351  0.812948  0.822727  1
  Tm  Tm4  1  0.509122  0.490878  0.500000  1
  V  V5  1  0.266859  0.733141  0.000000  1
  Re  Re6  1  0.715057  0.284943  0.000000  1
  O  O7  1  0.408603  0.929430  0.915706  1
  O  O8  1  0.070570  0.591397  0.084294  1
  O  O9  1  0.592887  0.089684  0.083296  1
  O  O10  1  0.910316  0.407113  0.916704  1
  O  O11  1  0.606673  0.092663  0.568911  1
  O  O12  1  0.907337  0.393327  0.431089  1
  O  O13  1  0.411731  0.898816  0.422617  1
  O  O14  1  0.988341  0.012350  0.818265  1
  O  O15  1  0.987650  0.011659  0.181735  1
  O  O16  1  0.493445  0.503341  0.800655  1
  O  O17  1  0.496659  0.506555  0.199345  1
  O  O18  1  0.101184  0.588269  0.577383  1
