# generated using pymatgen
data_TiV3RhSe8
_symmetry_space_group_name_H-M   'P 1'
_cell_length_a   6.92361684
_cell_length_b   6.92361639
_cell_length_c   8.41912785
_cell_angle_alpha   53.71033433
_cell_angle_beta   53.71033951
_cell_angle_gamma   61.93126825
_symmetry_Int_Tables_number   1
_chemical_formula_structural   TiV3RhSe8
_chemical_formula_sum   'Ti1 V3 Rh1 Se8'
_cell_volume   257.67671176
_cell_formula_units_Z   1
loop_
 _symmetry_equiv_pos_site_id
 _symmetry_equiv_pos_as_xyz
  1  'x, y, z'
loop_
 _atom_site_type_symbol
 _atom_site_label
 _atom_site_symmetry_multiplicity
 _atom_site_fract_x
 _atom_site_fract_y
 _atom_site_fract_z
 _atom_site_occupancy
  Ti  Ti0  1  0.741948  0.741948  0.016592  1
  V  V1  1  0.275664  0.275664  0.957529  1
  V  V2  1  0.702997  0.277476  0.514892  1
  V  V3  1  0.277476  0.702997  0.514892  1
  Rh  Rh4  1  0.991931  0.991931  0.005211  1
  Se  Se5  1  0.533212  0.042777  0.176919  1
  Se  Se6  1  0.453043  0.954723  0.828069  1
  Se  Se7  1  0.954723  0.453043  0.828069  1
  Se  Se8  1  0.042777  0.533212  0.176919  1
  Se  Se9  1  0.988204  0.988204  0.322371  1
  Se  Se10  1  0.031919  0.031919  0.661473  1
  Se  Se11  1  0.446995  0.446995  0.332396  1
  Se  Se12  1  0.559111  0.559111  0.664668  1
