# generated using pymatgen
data_Pr16MgAg3RuPt3
_symmetry_space_group_name_H-M   'P 1'
_cell_length_a   10.01644137
_cell_length_b   10.01644074
_cell_length_c   10.03248536
_cell_angle_alpha   60.05288679
_cell_angle_beta   60.05288102
_cell_angle_gamma   59.99999131
_symmetry_Int_Tables_number   1
_chemical_formula_structural   Pr16MgAg3RuPt3
_chemical_formula_sum   'Pr16 Mg1 Ag3 Ru1 Pt3'
_cell_volume   712.30677411
_cell_formula_units_Z   1
loop_
 _symmetry_equiv_pos_site_id
 _symmetry_equiv_pos_as_xyz
  1  'x, y, z'
loop_
 _atom_site_type_symbol
 _atom_site_label
 _atom_site_symmetry_multiplicity
 _atom_site_fract_x
 _atom_site_fract_y
 _atom_site_fract_z
 _atom_site_occupancy
  Pr  Pr0  1  0.064517  0.437353  0.433613  1
  Pr  Pr1  1  0.183604  0.810239  0.195916  1
  Pr  Pr2  1  0.652158  0.652158  0.645191  1
  Pr  Pr3  1  0.436711  0.436711  0.061703  1
  Pr  Pr4  1  0.064877  0.436711  0.061703  1
  Pr  Pr5  1  0.436711  0.064877  0.061703  1
  Pr  Pr6  1  0.064517  0.064517  0.433613  1
  Pr  Pr7  1  0.643067  0.643067  0.070798  1
  Pr  Pr8  1  0.652158  0.050492  0.645191  1
  Pr  Pr9  1  0.188896  0.809237  0.812970  1
  Pr  Pr10  1  0.437353  0.064517  0.433613  1
  Pr  Pr11  1  0.188896  0.188896  0.812970  1
  Pr  Pr12  1  0.050492  0.652158  0.645191  1
  Pr  Pr13  1  0.810239  0.810239  0.195916  1
  Pr  Pr14  1  0.810239  0.183604  0.195916  1
  Pr  Pr15  1  0.809237  0.188896  0.812970  1
  Mg  Mg16  1  0.431273  0.431273  0.706180  1
  Ag  Ag17  1  0.414406  0.414406  0.419600  1
  Ag  Ag18  1  0.414406  0.751590  0.419600  1
  Ag  Ag19  1  0.751590  0.414406  0.419600  1
  Ru  Ru20  1  0.856968  0.856968  0.429097  1
  Pt  Pt21  1  0.853663  0.853663  0.862316  1
  Pt  Pt22  1  0.430359  0.853663  0.862316  1
  Pt  Pt23  1  0.853663  0.430359  0.862316  1
