# generated using pymatgen
data_Ti12CuSn4Sb5
_symmetry_space_group_name_H-M   'P 1'
_cell_length_a   9.27032400
_cell_length_b   9.20728111
_cell_length_c   5.60228822
_cell_angle_alpha   89.91185889
_cell_angle_beta   90.00000000
_cell_angle_gamma   120.22675890
_symmetry_Int_Tables_number   1
_chemical_formula_structural   Ti12CuSn4Sb5
_chemical_formula_sum   'Ti12 Cu1 Sn4 Sb5'
_cell_volume   413.16622667
_cell_formula_units_Z   1
loop_
 _symmetry_equiv_pos_site_id
 _symmetry_equiv_pos_as_xyz
  1  'x, y, z'
loop_
 _atom_site_type_symbol
 _atom_site_label
 _atom_site_symmetry_multiplicity
 _atom_site_fract_x
 _atom_site_fract_y
 _atom_site_fract_z
 _atom_site_occupancy
  Ti  Ti0  1  0.847323  0.694646  0.747681  1
  Ti  Ti1  1  0.156718  0.848919  0.250826  1
  Ti  Ti2  1  0.692201  0.848919  0.250826  1
  Ti  Ti3  1  0.303565  0.151068  0.749191  1
  Ti  Ti4  1  0.847504  0.151068  0.749191  1
  Ti  Ti5  1  0.151057  0.302113  0.252180  1
  Ti  Ti6  1  0.500115  0.000229  0.499752  1
  Ti  Ti7  1  0.497787  0.500115  0.999789  1
  Ti  Ti8  1  0.002328  0.500115  0.999789  1
  Ti  Ti9  1  0.002048  0.500461  0.500002  1
  Ti  Ti10  1  0.499955  0.999910  0.000306  1
  Ti  Ti11  1  0.498412  0.500461  0.500002  1
  Cu  Cu12  1  0.997576  0.995153  0.498918  1
  Sn  Sn13  1  0.801721  0.603442  0.250231  1
  Sn  Sn14  1  0.668587  0.337174  0.751820  1
  Sn  Sn15  1  0.332902  0.665805  0.248061  1
  Sn  Sn16  1  0.998417  0.996834  0.003653  1
  Sb  Sb17  1  0.198009  0.396018  0.748590  1
  Sb  Sb18  1  0.800231  0.201637  0.251353  1
  Sb  Sb19  1  0.401406  0.201637  0.251353  1
  Sb  Sb20  1  0.602585  0.802140  0.748242  1
  Sb  Sb21  1  0.199555  0.802140  0.748242  1
