# generated using pymatgen
data_Ho2Mn3Cr2(PRh)7
_symmetry_space_group_name_H-M   'P 1'
_cell_length_a   9.39566920
_cell_length_b   9.40900844
_cell_length_c   3.80302800
_cell_angle_alpha   90.00000000
_cell_angle_beta   90.00000000
_cell_angle_gamma   119.91260519
_symmetry_Int_Tables_number   1
_chemical_formula_structural   Ho2Mn3Cr2(PRh)7
_chemical_formula_sum   'Ho2 Mn3 Cr2 P7 Rh7'
_cell_volume   291.41608401
_cell_formula_units_Z   1
loop_
 _symmetry_equiv_pos_site_id
 _symmetry_equiv_pos_as_xyz
  1  'x, y, z'
loop_
 _atom_site_type_symbol
 _atom_site_label
 _atom_site_symmetry_multiplicity
 _atom_site_fract_x
 _atom_site_fract_y
 _atom_site_fract_z
 _atom_site_occupancy
  Ho  Ho0  1  0.665366  0.333467  0.000000  1
  Ho  Ho1  1  0.334108  0.668026  0.500000  1
  Mn  Mn2  1  0.270324  0.157968  0.000000  1
  Mn  Mn3  1  0.843797  0.113597  0.000000  1
  Mn  Mn4  1  0.888345  0.728976  0.000000  1
  Cr  Cr5  1  0.782470  0.882424  0.500000  1
  Cr  Cr6  1  0.118394  0.899719  0.500000  1
  P  P7  1  0.299192  0.408329  0.000000  1
  P  P8  1  0.595281  0.890485  0.000000  1
  P  P9  1  0.111784  0.704464  0.000000  1
  P  P10  1  0.395783  0.119329  0.500000  1
  P  P11  1  0.877418  0.275792  0.500000  1
  P  P12  1  0.724009  0.605548  0.500000  1
  P  P13  1  0.998150  0.996876  0.000000  1
  Rh  Rh14  1  0.063943  0.428224  0.000000  1
  Rh  Rh15  1  0.571863  0.634950  0.000000  1
  Rh  Rh16  1  0.365741  0.935610  0.000000  1
  Rh  Rh17  1  0.443371  0.388027  0.500000  1
  Rh  Rh18  1  0.612300  0.054955  0.500000  1
  Rh  Rh19  1  0.944714  0.554981  0.500000  1
  Rh  Rh20  1  0.093645  0.218255  0.500000  1
