# generated using pymatgen
data_HoErTm2(ReC2)2
_symmetry_space_group_name_H-M   'P 1'
_cell_length_a   5.05253200
_cell_length_b   6.53367100
_cell_length_c   9.77073600
_cell_angle_alpha   90.00000000
_cell_angle_beta   90.00000000
_cell_angle_gamma   90.00000000
_symmetry_Int_Tables_number   1
_chemical_formula_structural   HoErTm2(ReC2)2
_chemical_formula_sum   'Ho2 Er2 Tm4 Re4 C8'
_cell_volume   322.54745076
_cell_formula_units_Z   2
loop_
 _symmetry_equiv_pos_site_id
 _symmetry_equiv_pos_as_xyz
  1  'x, y, z'
loop_
 _atom_site_type_symbol
 _atom_site_label
 _atom_site_symmetry_multiplicity
 _atom_site_fract_x
 _atom_site_fract_y
 _atom_site_fract_z
 _atom_site_occupancy
  Ho  Ho0  1  0.750000  0.534145  0.783182  1
  Ho  Ho1  1  0.250000  0.965855  0.283182  1
  Er  Er2  1  0.250000  0.465699  0.216829  1
  Er  Er3  1  0.750000  0.034301  0.716829  1
  Tm  Tm4  1  0.750000  0.677206  0.442143  1
  Tm  Tm5  1  0.250000  0.822794  0.942143  1
  Tm  Tm6  1  0.750000  0.177107  0.057873  1
  Tm  Tm7  1  0.250000  0.322893  0.557873  1
  Re  Re8  1  0.250000  0.281600  0.868362  1
  Re  Re9  1  0.250000  0.781746  0.631617  1
  Re  Re10  1  0.750000  0.218400  0.368362  1
  Re  Re11  1  0.750000  0.718254  0.131617  1
  C  C12  1  0.250000  0.673433  0.447769  1
  C  C13  1  0.250000  0.549412  0.758958  1
  C  C14  1  0.750000  0.450630  0.240949  1
  C  C15  1  0.750000  0.826567  0.947769  1
  C  C16  1  0.250000  0.049370  0.740949  1
  C  C17  1  0.250000  0.173631  0.052318  1
  C  C18  1  0.750000  0.326369  0.552318  1
  C  C19  1  0.750000  0.950588  0.258958  1
