# generated using pymatgen
data_Lu4Al15Si3(Ir2Os)2
_symmetry_space_group_name_H-M   'P 1'
_cell_length_a   7.49738111
_cell_length_b   7.48013861
_cell_length_c   9.28197555
_cell_angle_alpha   90.03107464
_cell_angle_beta   89.90164079
_cell_angle_gamma   119.40585309
_symmetry_Int_Tables_number   1
_chemical_formula_structural   Lu4Al15Si3(Ir2Os)2
_chemical_formula_sum   'Lu4 Al15 Si3 Ir4 Os2'
_cell_volume   453.48062645
_cell_formula_units_Z   1
loop_
 _symmetry_equiv_pos_site_id
 _symmetry_equiv_pos_as_xyz
  1  'x, y, z'
loop_
 _atom_site_type_symbol
 _atom_site_label
 _atom_site_symmetry_multiplicity
 _atom_site_fract_x
 _atom_site_fract_y
 _atom_site_fract_z
 _atom_site_occupancy
  Lu  Lu0  1  0.993579  0.672748  0.247684  1
  Lu  Lu1  1  0.005526  0.320227  0.754042  1
  Lu  Lu2  1  0.685810  0.001036  0.247589  1
  Lu  Lu3  1  0.319444  0.006231  0.749516  1
  Al  Al4  1  0.997623  0.667478  0.920270  1
  Al  Al5  1  0.998354  0.663666  0.577284  1
  Al  Al6  1  0.336141  0.999836  0.422285  1
  Al  Al7  1  0.002052  0.336424  0.426892  1
  Al  Al8  1  0.662822  0.998981  0.577261  1
  Al  Al9  1  0.657652  0.993700  0.920640  1
  Al  Al10  1  0.335567  0.000210  0.077417  1
  Al  Al11  1  0.333996  0.333608  0.555606  1
  Al  Al12  1  0.667336  0.668076  0.444229  1
  Al  Al13  1  0.667213  0.668462  0.057249  1
  Al  Al14  1  0.337554  0.333798  0.944229  1
  Al  Al15  1  0.337242  0.550196  0.250279  1
  Al  Al16  1  0.663142  0.447984  0.750252  1
  Al  Al17  1  0.548255  0.337567  0.250149  1
  Al  Al18  1  0.447275  0.660521  0.749413  1
  Si  Si19  1  0.131525  0.126144  0.251048  1
  Si  Si20  1  0.871492  0.873949  0.750170  1
  Si  Si21  1  0.002127  0.337205  0.075367  1
  Ir  Ir22  1  0.679976  0.328483  0.001933  1
  Ir  Ir23  1  0.319730  0.664257  0.000419  1
  Ir  Ir24  1  0.327156  0.671510  0.499150  1
  Ir  Ir25  1  0.672427  0.328238  0.498903  1
  Os  Os26  1  0.999337  0.008581  0.001402  1
  Os  Os27  1  0.999645  0.000883  0.499321  1
