# generated using pymatgen
data_LiMnV17Si12Ni
_symmetry_space_group_name_H-M   'P 1'
_cell_length_a   7.01578659
_cell_length_b   7.01578655
_cell_length_c   13.22796100
_cell_angle_alpha   90.00000000
_cell_angle_beta   90.00000000
_cell_angle_gamma   141.02148609
_symmetry_Int_Tables_number   1
_chemical_formula_structural   LiMnV17Si12Ni
_chemical_formula_sum   'Li1 Mn1 V17 Si12 Ni1'
_cell_volume   409.55879109
_cell_formula_units_Z   1
loop_
 _symmetry_equiv_pos_site_id
 _symmetry_equiv_pos_as_xyz
  1  'x, y, z'
loop_
 _atom_site_type_symbol
 _atom_site_label
 _atom_site_symmetry_multiplicity
 _atom_site_fract_x
 _atom_site_fract_y
 _atom_site_fract_z
 _atom_site_occupancy
  Li  Li0  1  0.502111  0.502111  0.000000  1
  Mn  Mn1  1  0.498807  0.498807  0.500000  1
  V  V2  1  0.068823  0.421718  0.400107  1
  V  V3  1  0.569478  0.930783  0.900883  1
  V  V4  1  0.421718  0.068823  0.599893  1
  V  V5  1  0.930783  0.569478  0.099117  1
  V  V6  1  0.853567  0.655684  0.677460  1
  V  V7  1  0.349758  0.150472  0.179858  1
  V  V8  1  0.655684  0.853567  0.322540  1
  V  V9  1  0.150472  0.349758  0.820142  1
  V  V10  1  0.655684  0.853567  0.677460  1
  V  V11  1  0.150472  0.349758  0.179858  1
  V  V12  1  0.853567  0.655684  0.322540  1
  V  V13  1  0.349758  0.150472  0.820142  1
  V  V14  1  0.421718  0.068823  0.400107  1
  V  V15  1  0.930783  0.569478  0.900883  1
  V  V16  1  0.068823  0.421718  0.599893  1
  V  V17  1  0.569478  0.930783  0.099117  1
  V  V18  1  0.997673  0.997673  0.500000  1
  Si  Si19  1  0.250558  0.749436  0.749892  1
  Si  Si20  1  0.749436  0.250558  0.250108  1
  Si  Si21  1  0.749436  0.250558  0.749892  1
  Si  Si22  1  0.250558  0.749436  0.250108  1
  Si  Si23  1  0.257649  0.257649  0.661561  1
  Si  Si24  1  0.752033  0.752033  0.158122  1
  Si  Si25  1  0.257649  0.257649  0.338439  1
  Si  Si26  1  0.752033  0.752033  0.841878  1
  Si  Si27  1  0.577821  0.903610  0.500000  1
  Si  Si28  1  0.092145  0.406276  0.000000  1
  Si  Si29  1  0.903610  0.577821  0.500000  1
  Si  Si30  1  0.406276  0.092145  0.000000  1
  Ni  Ni31  1  0.001640  0.001640  0.000000  1
