# generated using pymatgen
data_Y8Al(Si5Tc4)3
_symmetry_space_group_name_H-M   'P 1'
_cell_length_a   6.81454300
_cell_length_b   6.83896876
_cell_length_c   12.68829600
_cell_angle_alpha   90.00000000
_cell_angle_beta   90.00000000
_cell_angle_gamma   89.37355974
_symmetry_Int_Tables_number   1
_chemical_formula_structural   Y8Al(Si5Tc4)3
_chemical_formula_sum   'Y8 Al1 Si15 Tc12'
_cell_volume   591.29567112
_cell_formula_units_Z   1
loop_
 _symmetry_equiv_pos_site_id
 _symmetry_equiv_pos_as_xyz
  1  'x, y, z'
loop_
 _atom_site_type_symbol
 _atom_site_label
 _atom_site_symmetry_multiplicity
 _atom_site_fract_x
 _atom_site_fract_y
 _atom_site_fract_z
 _atom_site_occupancy
  Y  Y0  1  0.497948  0.337757  0.093795  1
  Y  Y1  1  0.989602  0.161366  0.405795  1
  Y  Y2  1  0.511889  0.667133  0.592537  1
  Y  Y3  1  0.997574  0.834926  0.904873  1
  Y  Y4  1  0.511889  0.667133  0.907463  1
  Y  Y5  1  0.997574  0.834926  0.595127  1
  Y  Y6  1  0.497948  0.337757  0.406205  1
  Y  Y7  1  0.989602  0.161366  0.094205  1
  Al  Al8  1  0.535301  0.337622  0.750000  1
  Si  Si9  1  0.646869  0.064118  0.555819  1
  Si  Si10  1  0.168823  0.454843  0.953222  1
  Si  Si11  1  0.339646  0.953242  0.048105  1
  Si  Si12  1  0.852722  0.557514  0.445532  1
  Si  Si13  1  0.339646  0.953242  0.451895  1
  Si  Si14  1  0.852722  0.557514  0.054468  1
  Si  Si15  1  0.646869  0.064118  0.944181  1
  Si  Si16  1  0.168823  0.454843  0.546778  1
  Si  Si17  1  0.013848  0.152007  0.750000  1
  Si  Si18  1  0.475725  0.649710  0.250000  1
  Si  Si19  1  0.967115  0.848112  0.250000  1
  Si  Si20  1  0.810999  0.605315  0.750000  1
  Si  Si21  1  0.305926  0.859280  0.750000  1
  Si  Si22  1  0.190246  0.366878  0.250000  1
  Si  Si23  1  0.690795  0.126016  0.250000  1
  Tc  Tc24  1  0.852702  0.347545  0.607957  1
  Tc  Tc25  1  0.299843  0.144564  0.876648  1
  Tc  Tc26  1  0.190536  0.655888  0.126763  1
  Tc  Tc27  1  0.662711  0.850200  0.375828  1
  Tc  Tc28  1  0.190536  0.655888  0.373237  1
  Tc  Tc29  1  0.662711  0.850200  0.124172  1
  Tc  Tc30  1  0.852702  0.347545  0.892043  1
  Tc  Tc31  1  0.299843  0.144564  0.623352  1
  Tc  Tc32  1  0.665702  0.979953  0.750000  1
  Tc  Tc33  1  0.171811  0.506179  0.750000  1
  Tc  Tc34  1  0.321590  0.014653  0.250000  1
  Tc  Tc35  1  0.829219  0.496087  0.250000  1
