# generated using pymatgen
data_NdHo3(WF7)4
_symmetry_space_group_name_H-M   'P 1'
_cell_length_a   5.71016433
_cell_length_b   9.15956135
_cell_length_c   12.27993200
_cell_angle_alpha   63.41937549
_cell_angle_beta   89.92944091
_cell_angle_gamma   90.13833426
_symmetry_Int_Tables_number   1
_chemical_formula_structural   NdHo3(WF7)4
_chemical_formula_sum   'Nd1 Ho3 W4 F28'
_cell_volume   574.38419238
_cell_formula_units_Z   1
loop_
 _symmetry_equiv_pos_site_id
 _symmetry_equiv_pos_as_xyz
  1  'x, y, z'
loop_
 _atom_site_type_symbol
 _atom_site_label
 _atom_site_symmetry_multiplicity
 _atom_site_fract_x
 _atom_site_fract_y
 _atom_site_fract_z
 _atom_site_occupancy
  Nd  Nd0  1  0.740384  0.814253  0.266679  1
  Ho  Ho1  1  0.759119  0.816211  0.765457  1
  Ho  Ho2  1  0.260611  0.186224  0.734037  1
  Ho  Ho3  1  0.239105  0.192833  0.231887  1
  W  W4  1  0.756146  0.275872  0.954459  1
  W  W5  1  0.253982  0.726047  0.548684  1
  W  W6  1  0.247193  0.725842  0.038445  1
  W  W7  1  0.745776  0.269239  0.458269  1
  F  F8  1  0.460303  0.707000  0.916364  1
  F  F9  1  0.964204  0.290183  0.577749  1
  F  F10  1  0.532710  0.291888  0.076111  1
  F  F11  1  0.037744  0.706864  0.426055  1
  F  F12  1  0.456619  0.278501  0.557486  1
  F  F13  1  0.953096  0.719718  0.941759  1
  F  F14  1  0.542980  0.715733  0.454309  1
  F  F15  1  0.043451  0.283608  0.052485  1
  F  F16  1  0.761873  0.518115  0.856620  1
  F  F17  1  0.259449  0.482065  0.645242  1
  F  F18  1  0.238943  0.482657  0.138467  1
  F  F19  1  0.735935  0.511348  0.360282  1
  F  F20  1  0.758379  0.033385  0.050790  1
  F  F21  1  0.255140  0.967606  0.451636  1
  F  F22  1  0.246476  0.968284  0.943750  1
  F  F23  1  0.745380  0.027119  0.554676  1
  F  F24  1  0.973956  0.734888  0.649891  1
  F  F25  1  0.480420  0.263998  0.851701  1
  F  F26  1  0.024845  0.267173  0.351600  1
  F  F27  1  0.527772  0.730725  0.141293  1
  F  F28  1  0.042838  0.747156  0.163353  1
  F  F29  1  0.531637  0.247249  0.335623  1
  F  F30  1  0.974552  0.251066  0.833084  1
  F  F31  1  0.469007  0.748767  0.671549  1
  F  F32  1  0.421632  0.983127  0.235930  1
  F  F33  1  0.937078  0.032889  0.264909  1
  F  F34  1  0.560936  0.019733  0.764500  1
  F  F35  1  0.060330  0.982636  0.734868  1
