# generated using pymatgen
data_Nb5(Re5Tc3)3
_symmetry_space_group_name_H-M   'P 1'
_cell_length_a   8.39959658
_cell_length_b   8.39959659
_cell_length_c   8.39959732
_cell_angle_alpha   109.50713258
_cell_angle_beta   109.50713136
_cell_angle_gamma   109.50713948
_symmetry_Int_Tables_number   1
_chemical_formula_structural   Nb5(Re5Tc3)3
_chemical_formula_sum   'Nb5 Re15 Tc9'
_cell_volume   455.59045329
_cell_formula_units_Z   1
loop_
 _symmetry_equiv_pos_site_id
 _symmetry_equiv_pos_as_xyz
  1  'x, y, z'
loop_
 _atom_site_type_symbol
 _atom_site_label
 _atom_site_symmetry_multiplicity
 _atom_site_fract_x
 _atom_site_fract_y
 _atom_site_fract_z
 _atom_site_occupancy
  Nb  Nb0  1  0.997735  0.997735  0.997735  1
  Nb  Nb1  1  0.632343  0.998347  0.998347  1
  Nb  Nb2  1  0.998347  0.632343  0.998347  1
  Nb  Nb3  1  0.998347  0.998347  0.632343  1
  Nb  Nb4  1  0.364493  0.364493  0.364493  1
  Re  Re5  1  0.600372  0.600372  0.281007  1
  Re  Re6  1  0.281007  0.600372  0.600372  1
  Re  Re7  1  0.600372  0.281007  0.600372  1
  Re  Re8  1  0.378450  0.195571  0.001427  1
  Re  Re9  1  0.180800  0.805911  0.805911  1
  Re  Re10  1  0.378450  0.001427  0.195571  1
  Re  Re11  1  0.195571  0.378450  0.001427  1
  Re  Re12  1  0.001427  0.378450  0.195571  1
  Re  Re13  1  0.805911  0.180800  0.805911  1
  Re  Re14  1  0.805911  0.805911  0.180800  1
  Re  Re15  1  0.001427  0.195571  0.378450  1
  Re  Re16  1  0.195571  0.001427  0.378450  1
  Re  Re17  1  0.619920  0.619920  0.814113  1
  Re  Re18  1  0.814113  0.619920  0.619920  1
  Re  Re19  1  0.619920  0.814113  0.619920  1
  Tc  Tc20  1  0.400937  0.685056  0.002543  1
  Tc  Tc21  1  0.719208  0.316618  0.316618  1
  Tc  Tc22  1  0.400937  0.002543  0.685056  1
  Tc  Tc23  1  0.685056  0.400937  0.002543  1
  Tc  Tc24  1  0.002543  0.400937  0.685056  1
  Tc  Tc25  1  0.316618  0.719208  0.316618  1
  Tc  Tc26  1  0.316618  0.316618  0.719208  1
  Tc  Tc27  1  0.002543  0.685056  0.400937  1
  Tc  Tc28  1  0.685056  0.002543  0.400937  1
