# generated using pymatgen
data_DyY3HgIr
_symmetry_space_group_name_H-M   'P 1'
_cell_length_a   9.61868650
_cell_length_b   9.61868567
_cell_length_c   9.61868600
_cell_angle_alpha   59.99999888
_cell_angle_beta   60.00000171
_cell_angle_gamma   60.00000228
_symmetry_Int_Tables_number   1
_chemical_formula_structural   DyY3HgIr
_chemical_formula_sum   'Dy4 Y12 Hg4 Ir4'
_cell_volume   629.26309463
_cell_formula_units_Z   4
loop_
 _symmetry_equiv_pos_site_id
 _symmetry_equiv_pos_as_xyz
  1  'x, y, z'
loop_
 _atom_site_type_symbol
 _atom_site_label
 _atom_site_symmetry_multiplicity
 _atom_site_fract_x
 _atom_site_fract_y
 _atom_site_fract_z
 _atom_site_occupancy
  Dy  Dy0  1  0.350233  0.350233  0.350233  1
  Dy  Dy1  1  0.350233  0.350233  0.949303  1
  Dy  Dy2  1  0.350233  0.949303  0.350233  1
  Dy  Dy3  1  0.949303  0.350233  0.350233  1
  Y  Y4  1  0.809255  0.190745  0.190745  1
  Y  Y5  1  0.190745  0.809255  0.809255  1
  Y  Y6  1  0.190745  0.809255  0.190745  1
  Y  Y7  1  0.809255  0.190745  0.809255  1
  Y  Y8  1  0.190745  0.190745  0.809255  1
  Y  Y9  1  0.809255  0.809255  0.190745  1
  Y  Y10  1  0.938776  0.561224  0.561224  1
  Y  Y11  1  0.561224  0.938776  0.938776  1
  Y  Y12  1  0.561224  0.938776  0.561224  1
  Y  Y13  1  0.938776  0.561224  0.938776  1
  Y  Y14  1  0.561224  0.561224  0.938776  1
  Y  Y15  1  0.938776  0.938776  0.561224  1
  Hg  Hg16  1  0.584528  0.584528  0.584528  1
  Hg  Hg17  1  0.584528  0.584528  0.246417  1
  Hg  Hg18  1  0.584528  0.246417  0.584528  1
  Hg  Hg19  1  0.246417  0.584528  0.584528  1
  Ir  Ir20  1  0.142477  0.142477  0.142477  1
  Ir  Ir21  1  0.142477  0.142477  0.572570  1
  Ir  Ir22  1  0.142477  0.572570  0.142477  1
  Ir  Ir23  1  0.572570  0.142477  0.142477  1
