# generated using pymatgen
data_Gd6Dy3ErPb6
_symmetry_space_group_name_H-M   'P 1'
_cell_length_a   9.07170300
_cell_length_b   9.07170253
_cell_length_c   6.63824800
_cell_angle_alpha   90.00000000
_cell_angle_beta   90.00000000
_cell_angle_gamma   119.99999807
_symmetry_Int_Tables_number   1
_chemical_formula_structural   Gd6Dy3ErPb6
_chemical_formula_sum   'Gd6 Dy3 Er1 Pb6'
_cell_volume   473.10957508
_cell_formula_units_Z   1
loop_
 _symmetry_equiv_pos_site_id
 _symmetry_equiv_pos_as_xyz
  1  'x, y, z'
loop_
 _atom_site_type_symbol
 _atom_site_label
 _atom_site_symmetry_multiplicity
 _atom_site_fract_x
 _atom_site_fract_y
 _atom_site_fract_z
 _atom_site_occupancy
  Gd  Gd0  1  0.760334  0.760479  0.750279  1
  Gd  Gd1  1  0.239521  0.999854  0.750279  1
  Gd  Gd2  1  0.000146  0.239666  0.750279  1
  Gd  Gd3  1  0.239521  0.239666  0.249721  1
  Gd  Gd4  1  0.760334  0.999854  0.249721  1
  Gd  Gd5  1  0.000146  0.760479  0.249721  1
  Dy  Dy6  1  0.666667  0.333333  0.000000  1
  Dy  Dy7  1  0.333333  0.666667  0.000000  1
  Dy  Dy8  1  0.333333  0.666667  0.500000  1
  Er  Er9  1  0.666667  0.333333  0.500000  1
  Pb  Pb10  1  0.395733  0.395234  0.749556  1
  Pb  Pb11  1  0.604766  0.000499  0.749556  1
  Pb  Pb12  1  0.999501  0.604267  0.749556  1
  Pb  Pb13  1  0.604766  0.604267  0.250444  1
  Pb  Pb14  1  0.395733  0.000499  0.250444  1
  Pb  Pb15  1  0.999501  0.395234  0.250444  1
