# generated using pymatgen
data_Tb4YbRh2
_symmetry_space_group_name_H-M   'P 1'
_cell_length_a   6.43174599
_cell_length_b   7.26868084
_cell_length_c   8.55820200
_cell_angle_alpha   96.72586379
_cell_angle_beta   112.07161170
_cell_angle_gamma   90.00000549
_symmetry_Int_Tables_number   1
_chemical_formula_structural   Tb4YbRh2
_chemical_formula_sum   'Tb8 Yb2 Rh4'
_cell_volume   367.80435949
_cell_formula_units_Z   2
loop_
 _symmetry_equiv_pos_site_id
 _symmetry_equiv_pos_as_xyz
  1  'x, y, z'
loop_
 _atom_site_type_symbol
 _atom_site_label
 _atom_site_symmetry_multiplicity
 _atom_site_fract_x
 _atom_site_fract_y
 _atom_site_fract_z
 _atom_site_occupancy
  Tb  Tb0  1  0.020532  0.083055  0.811900  1
  Tb  Tb1  1  0.208632  0.416945  0.188100  1
  Tb  Tb2  1  0.640181  0.813138  0.436052  1
  Tb  Tb3  1  0.204130  0.686862  0.563948  1
  Tb  Tb4  1  0.349997  0.190153  0.562606  1
  Tb  Tb5  1  0.787390  0.309847  0.437394  1
  Tb  Tb6  1  0.430829  0.750000  0.000000  1
  Tb  Tb7  1  0.579255  0.250000  0.000000  1
  Yb  Yb8  1  0.984313  0.916498  0.187767  1
  Yb  Yb9  1  0.796547  0.583502  0.812233  1
  Rh  Rh10  1  0.823554  0.569358  0.232466  1
  Rh  Rh11  1  0.591088  0.930642  0.767534  1
  Rh  Rh12  1  0.183666  0.425031  0.783780  1
  Rh  Rh13  1  0.399886  0.074969  0.216220  1
