# generated using pymatgen
data_Ac8MgPd6
_symmetry_space_group_name_H-M   'P 1'
_cell_length_a   8.08759870
_cell_length_b   8.08759705
_cell_length_c   8.08759789
_cell_angle_alpha   72.07925861
_cell_angle_beta   72.07926018
_cell_angle_gamma   72.07925715
_symmetry_Int_Tables_number   1
_chemical_formula_structural   Ac8MgPd6
_chemical_formula_sum   'Ac8 Mg1 Pd6'
_cell_volume   465.47100553
_cell_formula_units_Z   1
loop_
 _symmetry_equiv_pos_site_id
 _symmetry_equiv_pos_as_xyz
  1  'x, y, z'
loop_
 _atom_site_type_symbol
 _atom_site_label
 _atom_site_symmetry_multiplicity
 _atom_site_fract_x
 _atom_site_fract_y
 _atom_site_fract_z
 _atom_site_occupancy
  Ac  Ac0  1  0.802439  0.802439  0.802439  1
  Ac  Ac1  1  0.197561  0.197561  0.197561  1
  Ac  Ac2  1  0.322037  0.626224  0.836456  1
  Ac  Ac3  1  0.836456  0.322037  0.626224  1
  Ac  Ac4  1  0.626223  0.836456  0.322037  1
  Ac  Ac5  1  0.677963  0.373776  0.163544  1
  Ac  Ac6  1  0.163544  0.677963  0.373776  1
  Ac  Ac7  1  0.373776  0.163544  0.677963  1
  Mg  Mg8  1  0.000000  0.000000  0.000000  1
  Pd  Pd9  1  0.152569  0.960851  0.591635  1
  Pd  Pd10  1  0.591635  0.152569  0.960851  1
  Pd  Pd11  1  0.960851  0.591635  0.152569  1
  Pd  Pd12  1  0.847431  0.039149  0.408365  1
  Pd  Pd13  1  0.408365  0.847431  0.039149  1
  Pd  Pd14  1  0.039149  0.408365  0.847431  1
