# generated using pymatgen
data_Hf8TiFeBi4
_symmetry_space_group_name_H-M   'P 1'
_cell_length_a   8.28542731
_cell_length_b   8.28548073
_cell_length_c   8.28542752
_cell_angle_alpha   96.11498494
_cell_angle_beta   96.12693313
_cell_angle_gamma   141.88175624
_symmetry_Int_Tables_number   1
_chemical_formula_structural   Hf8TiFeBi4
_chemical_formula_sum   'Hf8 Ti1 Fe1 Bi4'
_cell_volume   331.85716325
_cell_formula_units_Z   1
loop_
 _symmetry_equiv_pos_site_id
 _symmetry_equiv_pos_as_xyz
  1  'x, y, z'
loop_
 _atom_site_type_symbol
 _atom_site_label
 _atom_site_symmetry_multiplicity
 _atom_site_fract_x
 _atom_site_fract_y
 _atom_site_fract_z
 _atom_site_occupancy
  Hf  Hf0  1  0.581216  0.695190  0.278643  1
  Hf  Hf1  1  0.918786  0.197426  0.113977  1
  Hf  Hf2  1  0.302595  0.581233  0.886038  1
  Hf  Hf3  1  0.804805  0.918767  0.721362  1
  Hf  Hf4  1  0.695196  0.416557  0.113960  1
  Hf  Hf5  1  0.083453  0.804810  0.886026  1
  Hf  Hf6  1  0.416551  0.302574  0.721360  1
  Hf  Hf7  1  0.197403  0.083443  0.278639  1
  Ti  Ti8  1  0.749993  0.750000  0.999993  1
  Fe  Fe9  1  0.249991  0.250000  0.999991  1
  Bi  Bi10  1  0.361879  0.861865  0.223743  1
  Bi  Bi11  1  0.138124  0.361871  0.500001  1
  Bi  Bi12  1  0.638130  0.138129  0.776252  1
  Bi  Bi13  1  0.861877  0.638135  0.500013  1
