# generated using pymatgen
data_Er3Mg3CuSi2
_symmetry_space_group_name_H-M   'P 1'
_cell_length_a   7.15024100
_cell_length_b   7.15024131
_cell_length_c   4.22790000
_cell_angle_alpha   90.00000000
_cell_angle_beta   90.00000000
_cell_angle_gamma   119.99999392
_symmetry_Int_Tables_number   1
_chemical_formula_structural   Er3Mg3CuSi2
_chemical_formula_sum   'Er3 Mg3 Cu1 Si2'
_cell_volume   187.19607737
_cell_formula_units_Z   1
loop_
 _symmetry_equiv_pos_site_id
 _symmetry_equiv_pos_as_xyz
  1  'x, y, z'
loop_
 _atom_site_type_symbol
 _atom_site_label
 _atom_site_symmetry_multiplicity
 _atom_site_fract_x
 _atom_site_fract_y
 _atom_site_fract_z
 _atom_site_occupancy
  Er  Er0  1  0.584182  0.000000  0.000000  1
  Er  Er1  1  0.000000  0.584182  0.000000  1
  Er  Er2  1  0.415818  0.415818  0.000000  1
  Mg  Mg3  1  0.242872  0.000000  0.500000  1
  Mg  Mg4  1  0.000000  0.242872  0.500000  1
  Mg  Mg5  1  0.757128  0.757128  0.500000  1
  Cu  Cu6  1  0.000000  0.000000  0.000000  1
  Si  Si7  1  0.333333  0.666667  0.500000  1
  Si  Si8  1  0.666667  0.333333  0.500000  1
