# generated using pymatgen
data_Pa3NbFe7CoP6
_symmetry_space_group_name_H-M   'P 1'
_cell_length_a   3.73772200
_cell_length_b   10.62225900
_cell_length_c   12.29695700
_cell_angle_alpha   90.00000000
_cell_angle_beta   90.00000000
_cell_angle_gamma   90.00000000
_symmetry_Int_Tables_number   1
_chemical_formula_structural   Pa3NbFe7CoP6
_chemical_formula_sum   'Pa6 Nb2 Fe14 Co2 P12'
_cell_volume   488.22671281
_cell_formula_units_Z   2
loop_
 _symmetry_equiv_pos_site_id
 _symmetry_equiv_pos_as_xyz
  1  'x, y, z'
loop_
 _atom_site_type_symbol
 _atom_site_label
 _atom_site_symmetry_multiplicity
 _atom_site_fract_x
 _atom_site_fract_y
 _atom_site_fract_z
 _atom_site_occupancy
  Pa  Pa0  1  0.000000  0.500000  0.528675  1
  Pa  Pa1  1  0.500000  0.000000  0.471325  1
  Pa  Pa2  1  0.500000  0.817997  0.205464  1
  Pa  Pa3  1  0.500000  0.182003  0.205464  1
  Pa  Pa4  1  0.000000  0.682003  0.794536  1
  Pa  Pa5  1  0.000000  0.317997  0.794536  1
  Nb  Nb6  1  0.500000  0.500000  0.149593  1
  Nb  Nb7  1  0.000000  0.000000  0.850407  1
  Fe  Fe8  1  0.000000  0.500000  0.981627  1
  Fe  Fe9  1  0.500000  0.000000  0.018373  1
  Fe  Fe10  1  0.500000  0.332185  0.993202  1
  Fe  Fe11  1  0.500000  0.667815  0.993202  1
  Fe  Fe12  1  0.000000  0.167815  0.006798  1
  Fe  Fe13  1  0.000000  0.832185  0.006798  1
  Fe  Fe14  1  0.500000  0.301708  0.430827  1
  Fe  Fe15  1  0.500000  0.698292  0.430827  1
  Fe  Fe16  1  0.000000  0.198292  0.569173  1
  Fe  Fe17  1  0.000000  0.801708  0.569173  1
  Fe  Fe18  1  0.500000  0.876741  0.710235  1
  Fe  Fe19  1  0.500000  0.123259  0.710235  1
  Fe  Fe20  1  0.000000  0.623259  0.289765  1
  Fe  Fe21  1  0.000000  0.376741  0.289765  1
  Co  Co22  1  0.500000  0.500000  0.700143  1
  Co  Co23  1  0.000000  0.000000  0.299857  1
  P  P24  1  0.500000  0.500000  0.886235  1
  P  P25  1  0.000000  0.000000  0.113765  1
  P  P26  1  0.500000  0.500000  0.352510  1
  P  P27  1  0.000000  0.000000  0.647490  1
  P  P28  1  0.500000  0.302828  0.612157  1
  P  P29  1  0.500000  0.697172  0.612157  1
  P  P30  1  0.000000  0.197172  0.387843  1
  P  P31  1  0.000000  0.802828  0.387843  1
  P  P32  1  0.500000  0.842702  0.898813  1
  P  P33  1  0.500000  0.157298  0.898813  1
  P  P34  1  0.000000  0.657298  0.101187  1
  P  P35  1  0.000000  0.342702  0.101187  1
