# generated using pymatgen
data_NpPa3CuTe12
_symmetry_space_group_name_H-M   'P 1'
_cell_length_a   7.48149002
_cell_length_b   7.48148979
_cell_length_c   11.21221065
_cell_angle_alpha   70.68040871
_cell_angle_beta   70.68041115
_cell_angle_gamma   68.93166489
_symmetry_Int_Tables_number   1
_chemical_formula_structural   NpPa3CuTe12
_chemical_formula_sum   'Np1 Pa3 Cu1 Te12'
_cell_volume   536.40804618
_cell_formula_units_Z   1
loop_
 _symmetry_equiv_pos_site_id
 _symmetry_equiv_pos_as_xyz
  1  'x, y, z'
loop_
 _atom_site_type_symbol
 _atom_site_label
 _atom_site_symmetry_multiplicity
 _atom_site_fract_x
 _atom_site_fract_y
 _atom_site_fract_z
 _atom_site_occupancy
  Np  Np0  1  0.809581  0.809581  0.835706  1
  Pa  Pa1  1  0.312276  0.312276  0.834640  1
  Pa  Pa2  1  0.689151  0.189933  0.167085  1
  Pa  Pa3  1  0.189933  0.689151  0.167085  1
  Cu  Cu4  1  0.814559  0.814559  0.530141  1
  Te  Te5  1  0.013718  0.013718  0.324458  1
  Te  Te6  1  0.503428  0.503428  0.328444  1
  Te  Te7  1  0.487831  0.995659  0.669393  1
  Te  Te8  1  0.995659  0.487831  0.669393  1
  Te  Te9  1  0.257557  0.257557  0.331733  1
  Te  Te10  1  0.751951  0.751951  0.327814  1
  Te  Te11  1  0.246646  0.740423  0.669619  1
  Te  Te12  1  0.740423  0.246646  0.669619  1
  Te  Te13  1  0.022562  0.022562  0.944496  1
  Te  Te14  1  0.518321  0.518321  0.945514  1
  Te  Te15  1  0.474770  0.982933  0.059631  1
  Te  Te16  1  0.982933  0.474770  0.059631  1
