# generated using pymatgen
data_Ho10Si5P
_symmetry_space_group_name_H-M   'P 1'
_cell_length_a   8.36863600
_cell_length_b   8.37806760
_cell_length_c   6.26381000
_cell_angle_alpha   90.00000000
_cell_angle_beta   90.00000000
_cell_angle_gamma   119.96276752
_symmetry_Int_Tables_number   1
_chemical_formula_structural   Ho10Si5P
_chemical_formula_sum   'Ho10 Si5 P1'
_cell_volume   380.47888652
_cell_formula_units_Z   1
loop_
 _symmetry_equiv_pos_site_id
 _symmetry_equiv_pos_as_xyz
  1  'x, y, z'
loop_
 _atom_site_type_symbol
 _atom_site_label
 _atom_site_symmetry_multiplicity
 _atom_site_fract_x
 _atom_site_fract_y
 _atom_site_fract_z
 _atom_site_occupancy
  Ho  Ho0  1  0.001237  0.757231  0.750000  1
  Ho  Ho1  1  0.000894  0.243998  0.250000  1
  Ho  Ho2  1  0.756896  0.756002  0.250000  1
  Ho  Ho3  1  0.755362  0.000000  0.750000  1
  Ho  Ho4  1  0.244006  0.242769  0.750000  1
  Ho  Ho5  1  0.243439  0.000000  0.250000  1
  Ho  Ho6  1  0.333720  0.667467  0.500536  1
  Ho  Ho7  1  0.666254  0.332533  0.999464  1
  Ho  Ho8  1  0.666254  0.332533  0.500536  1
  Ho  Ho9  1  0.333720  0.667467  0.999464  1
  Si  Si10  1  0.394385  0.393773  0.250000  1
  Si  Si11  1  0.000612  0.606227  0.250000  1
  Si  Si12  1  0.000090  0.393728  0.750000  1
  Si  Si13  1  0.606362  0.606272  0.750000  1
  Si  Si14  1  0.607021  0.000000  0.250000  1
  P  P15  1  0.389748  0.000000  0.750000  1
