# generated using pymatgen
data_RbCa(PrB12)2
_symmetry_space_group_name_H-M   'P 1'
_cell_length_a   7.22658924
_cell_length_b   7.22659083
_cell_length_c   5.90437500
_cell_angle_alpha   90.00000000
_cell_angle_beta   90.00000000
_cell_angle_gamma   109.40124572
_symmetry_Int_Tables_number   1
_chemical_formula_structural   RbCa(PrB12)2
_chemical_formula_sum   'Rb1 Ca1 Pr2 B24'
_cell_volume   290.83834717
_cell_formula_units_Z   1
loop_
 _symmetry_equiv_pos_site_id
 _symmetry_equiv_pos_as_xyz
  1  'x, y, z'
loop_
 _atom_site_type_symbol
 _atom_site_label
 _atom_site_symmetry_multiplicity
 _atom_site_fract_x
 _atom_site_fract_y
 _atom_site_fract_z
 _atom_site_occupancy
  Rb  Rb0  1  0.750830  0.249170  0.500000  1
  Ca  Ca1  1  0.997230  0.002770  0.000000  1
  Pr  Pr2  1  0.502216  0.497784  0.000000  1
  Pr  Pr3  1  0.249787  0.750213  0.500000  1
  B  B4  1  0.176431  0.325704  0.648968  1
  B  B5  1  0.927199  0.576224  0.149351  1
  B  B6  1  0.674296  0.823568  0.648968  1
  B  B7  1  0.423776  0.072801  0.149351  1
  B  B8  1  0.176431  0.325704  0.351032  1
  B  B9  1  0.927199  0.576224  0.850649  1
  B  B10  1  0.674296  0.823568  0.351032  1
  B  B11  1  0.423776  0.072801  0.850649  1
  B  B12  1  0.400575  0.397573  0.500000  1
  B  B13  1  0.149468  0.650970  0.000000  1
  B  B14  1  0.898236  0.900553  0.500000  1
  B  B15  1  0.648574  0.147662  0.000000  1
  B  B16  1  0.323258  0.174129  0.649129  1
  B  B17  1  0.076461  0.427370  0.149162  1
  B  B18  1  0.825871  0.676742  0.649129  1
  B  B19  1  0.572630  0.923539  0.149161  1
  B  B20  1  0.099447  0.101764  0.500000  1
  B  B21  1  0.852338  0.351426  0.000000  1
  B  B22  1  0.602427  0.599425  0.500000  1
  B  B23  1  0.349030  0.850532  0.000000  1
  B  B24  1  0.323258  0.174129  0.350871  1
  B  B25  1  0.076461  0.427370  0.850838  1
  B  B26  1  0.825871  0.676742  0.350871  1
  B  B27  1  0.572630  0.923539  0.850839  1
