# generated using pymatgen
data_YTm2Zr(Al3Ir)6
_symmetry_space_group_name_H-M   'P 1'
_cell_length_a   7.52829401
_cell_length_b   7.52118342
_cell_length_c   9.39550600
_cell_angle_alpha   90.00000000
_cell_angle_beta   90.00000000
_cell_angle_gamma   119.60689622
_symmetry_Int_Tables_number   1
_chemical_formula_structural   YTm2Zr(Al3Ir)6
_chemical_formula_sum   'Y1 Tm2 Zr1 Al18 Ir6'
_cell_volume   462.53039861
_cell_formula_units_Z   1
loop_
 _symmetry_equiv_pos_site_id
 _symmetry_equiv_pos_as_xyz
  1  'x, y, z'
loop_
 _atom_site_type_symbol
 _atom_site_label
 _atom_site_symmetry_multiplicity
 _atom_site_fract_x
 _atom_site_fract_y
 _atom_site_fract_z
 _atom_site_occupancy
  Y  Y0  1  0.006047  0.327342  0.750000  1
  Tm  Tm1  1  0.671423  0.995733  0.250000  1
  Tm  Tm2  1  0.328514  0.006607  0.750000  1
  Zr  Zr3  1  0.996510  0.671960  0.250000  1
  Al  Al4  1  0.125706  0.123498  0.250000  1
  Al  Al5  1  0.870839  0.869160  0.750000  1
  Al  Al6  1  0.999926  0.337386  0.078864  1
  Al  Al7  1  0.999680  0.665331  0.928818  1
  Al  Al8  1  0.999680  0.665331  0.571182  1
  Al  Al9  1  0.332925  0.998309  0.421343  1
  Al  Al10  1  0.999926  0.337386  0.421136  1
  Al  Al11  1  0.663943  0.998249  0.574861  1
  Al  Al12  1  0.663943  0.998249  0.925139  1
  Al  Al13  1  0.332925  0.998309  0.078657  1
  Al  Al14  1  0.334040  0.333682  0.551388  1
  Al  Al15  1  0.668991  0.667407  0.443030  1
  Al  Al16  1  0.668991  0.667407  0.056970  1
  Al  Al17  1  0.334040  0.333682  0.948612  1
  Al  Al18  1  0.336360  0.550124  0.250000  1
  Al  Al19  1  0.660205  0.451399  0.750000  1
  Al  Al20  1  0.554822  0.343606  0.250000  1
  Al  Al21  1  0.450845  0.659880  0.750000  1
  Ir  Ir22  1  0.672104  0.327680  0.000745  1
  Ir  Ir23  1  0.328193  0.672756  0.001464  1
  Ir  Ir24  1  0.328193  0.672756  0.498536  1
  Ir  Ir25  1  0.672104  0.327680  0.499255  1
  Ir  Ir26  1  0.999564  0.999545  0.000672  1
  Ir  Ir27  1  0.999564  0.999545  0.499328  1
