# generated using pymatgen
data_Hf5BPb3
_symmetry_space_group_name_H-M   'P 1'
_cell_length_a   8.63436704
_cell_length_b   8.63436703
_cell_length_c   5.83734100
_cell_angle_alpha   90.00001023
_cell_angle_beta   90.00001645
_cell_angle_gamma   119.99436883
_symmetry_Int_Tables_number   1
_chemical_formula_structural   Hf5BPb3
_chemical_formula_sum   'Hf10 B2 Pb6'
_cell_volume   376.90452250
_cell_formula_units_Z   2
loop_
 _symmetry_equiv_pos_site_id
 _symmetry_equiv_pos_as_xyz
  1  'x, y, z'
loop_
 _atom_site_type_symbol
 _atom_site_label
 _atom_site_symmetry_multiplicity
 _atom_site_fract_x
 _atom_site_fract_y
 _atom_site_fract_z
 _atom_site_occupancy
  Hf  Hf0  1  0.666674  0.333338  0.000075  1
  Hf  Hf1  1  0.333338  0.666674  0.000075  1
  Hf  Hf2  1  0.779300  0.779300  0.249995  1
  Hf  Hf3  1  0.220751  0.999995  0.250000  1
  Hf  Hf4  1  0.999995  0.220751  0.250000  1
  Hf  Hf5  1  0.666674  0.333336  0.499938  1
  Hf  Hf6  1  0.333336  0.666674  0.499938  1
  Hf  Hf7  1  0.220696  0.220696  0.749998  1
  Hf  Hf8  1  0.779287  0.000001  0.749998  1
  Hf  Hf9  1  0.000001  0.779287  0.749998  1
  B  B10  1  0.000008  0.000008  0.000004  1
  B  B11  1  0.000002  0.000002  0.499997  1
  Pb  Pb12  1  0.601210  0.999971  0.250009  1
  Pb  Pb13  1  0.999971  0.601210  0.250009  1
  Pb  Pb14  1  0.398763  0.398763  0.249994  1
  Pb  Pb15  1  0.398956  0.000010  0.750011  1
  Pb  Pb16  1  0.000010  0.398956  0.750011  1
  Pb  Pb17  1  0.601031  0.601031  0.749999  1
