# generated using pymatgen
data_Sm2Ni3PPt5
_symmetry_space_group_name_H-M   'P 1'
_cell_length_a   9.09680554
_cell_length_b   9.09680432
_cell_length_c   3.97669000
_cell_angle_alpha   90.00000000
_cell_angle_beta   90.00000000
_cell_angle_gamma   145.68498971
_symmetry_Int_Tables_number   1
_chemical_formula_structural   Sm2Ni3PPt5
_chemical_formula_sum   'Sm2 Ni3 P1 Pt5'
_cell_volume   185.51551643
_cell_formula_units_Z   1
loop_
 _symmetry_equiv_pos_site_id
 _symmetry_equiv_pos_as_xyz
  1  'x, y, z'
loop_
 _atom_site_type_symbol
 _atom_site_label
 _atom_site_symmetry_multiplicity
 _atom_site_fract_x
 _atom_site_fract_y
 _atom_site_fract_z
 _atom_site_occupancy
  Sm  Sm0  1  0.617473  0.366137  0.500000  1
  Sm  Sm1  1  0.366137  0.617473  0.500000  1
  Ni  Ni2  1  0.192210  0.787966  0.500000  1
  Ni  Ni3  1  0.787966  0.192210  0.500000  1
  Ni  Ni4  1  0.008907  0.008907  0.500000  1
  P  P5  1  0.225314  0.225314  0.000000  1
  Pt  Pt6  1  0.112818  0.888742  0.000000  1
  Pt  Pt7  1  0.888742  0.112818  0.000000  1
  Pt  Pt8  1  0.487725  0.982973  0.000000  1
  Pt  Pt9  1  0.982973  0.487725  0.000000  1
  Pt  Pt10  1  0.643336  0.643336  0.000000  1
