# generated using pymatgen
data_Hf3ScCo17(NiP4)3
_symmetry_space_group_name_H-M   'P 1'
_cell_length_a   3.59540500
_cell_length_b   10.11133047
_cell_length_c   11.66946708
_cell_angle_alpha   90.02431758
_cell_angle_beta   90.00000000
_cell_angle_gamma   90.00000000
_symmetry_Int_Tables_number   1
_chemical_formula_structural   Hf3ScCo17(NiP4)3
_chemical_formula_sum   'Hf3 Sc1 Co17 Ni3 P12'
_cell_volume   424.23559721
_cell_formula_units_Z   1
loop_
 _symmetry_equiv_pos_site_id
 _symmetry_equiv_pos_as_xyz
  1  'x, y, z'
loop_
 _atom_site_type_symbol
 _atom_site_label
 _atom_site_symmetry_multiplicity
 _atom_site_fract_x
 _atom_site_fract_y
 _atom_site_fract_z
 _atom_site_occupancy
  Hf  Hf0  1  0.250000  0.579722  0.702620  1
  Hf  Hf1  1  0.250000  0.921963  0.202801  1
  Hf  Hf2  1  0.750000  0.421959  0.299297  1
  Sc  Sc3  1  0.750000  0.079032  0.796872  1
  Co  Co4  1  0.750000  0.218530  0.505351  1
  Co  Co5  1  0.250000  0.409670  0.484157  1
  Co  Co6  1  0.250000  0.090701  0.984945  1
  Co  Co7  1  0.750000  0.590359  0.517683  1
  Co  Co8  1  0.750000  0.907977  0.018867  1
  Co  Co9  1  0.250000  0.225834  0.180134  1
  Co  Co10  1  0.250000  0.277196  0.675051  1
  Co  Co11  1  0.750000  0.774904  0.822812  1
  Co  Co12  1  0.750000  0.724360  0.321885  1
  Co  Co13  1  0.250000  0.880145  0.700592  1
  Co  Co14  1  0.250000  0.618111  0.201030  1
  Co  Co15  1  0.750000  0.117430  0.298804  1
  Co  Co16  1  0.750000  0.381737  0.798131  1
  Co  Co17  1  0.250000  0.464844  0.930563  1
  Co  Co18  1  0.250000  0.034648  0.430174  1
  Co  Co19  1  0.750000  0.533739  0.069156  1
  Co  Co20  1  0.750000  0.965265  0.568142  1
  Ni  Ni21  1  0.250000  0.715926  0.991957  1
  Ni  Ni22  1  0.250000  0.783411  0.492217  1
  Ni  Ni23  1  0.750000  0.283083  0.005952  1
  P  P24  1  0.250000  0.421498  0.115895  1
  P  P25  1  0.250000  0.078557  0.615036  1
  P  P26  1  0.750000  0.577783  0.884093  1
  P  P27  1  0.750000  0.920862  0.384360  1
  P  P28  1  0.250000  0.263578  0.865664  1
  P  P29  1  0.250000  0.235644  0.369127  1
  P  P30  1  0.750000  0.734739  0.133441  1
  P  P31  1  0.750000  0.765042  0.633595  1
  P  P32  1  0.250000  0.600972  0.389702  1
  P  P33  1  0.250000  0.900466  0.889645  1
  P  P34  1  0.750000  0.399364  0.610247  1
  P  P35  1  0.750000  0.100948  0.110002  1
