# generated using pymatgen
data_Y9LuBiPb5
_symmetry_space_group_name_H-M   'P 1'
_cell_length_a   6.66608900
_cell_length_b   9.02540607
_cell_length_c   9.04006400
_cell_angle_alpha   119.94113974
_cell_angle_beta   89.99800593
_cell_angle_gamma   89.97945555
_symmetry_Int_Tables_number   1
_chemical_formula_structural   Y9LuBiPb5
_chemical_formula_sum   'Y9 Lu1 Bi1 Pb5'
_cell_volume   471.29977844
_cell_formula_units_Z   1
loop_
 _symmetry_equiv_pos_site_id
 _symmetry_equiv_pos_as_xyz
  1  'x, y, z'
loop_
 _atom_site_type_symbol
 _atom_site_label
 _atom_site_symmetry_multiplicity
 _atom_site_fract_x
 _atom_site_fract_y
 _atom_site_fract_z
 _atom_site_occupancy
  Y  Y0  1  0.750958  0.235463  0.000407  1
  Y  Y1  1  0.750982  0.761164  0.758484  1
  Y  Y2  1  0.750230  0.002215  0.241177  1
  Y  Y3  1  0.249618  0.762971  0.000318  1
  Y  Y4  1  0.249514  0.239667  0.239991  1
  Y  Y5  1  0.249132  0.999323  0.759609  1
  Y  Y6  1  0.498280  0.331726  0.664063  1
  Y  Y7  1  0.498457  0.667728  0.335846  1
  Y  Y8  1  0.001560  0.667358  0.335694  1
  Lu  Lu9  1  0.001448  0.331511  0.664176  1
  Bi  Bi10  1  0.751746  0.603930  0.998587  1
  Pb  Pb11  1  0.752207  0.395167  0.396593  1
  Pb  Pb12  1  0.751829  0.001733  0.605082  1
  Pb  Pb13  1  0.248235  0.395101  0.998495  1
  Pb  Pb14  1  0.247837  0.603819  0.605649  1
  Pb  Pb15  1  0.247966  0.001124  0.395830  1
