# generated using pymatgen
data_TbNdBi2(Rh2O7)2
_symmetry_space_group_name_H-M   'P 1'
_cell_length_a   7.33057520
_cell_length_b   7.33057560
_cell_length_c   7.29904760
_cell_angle_alpha   60.23469996
_cell_angle_beta   60.23469887
_cell_angle_gamma   60.48549978
_symmetry_Int_Tables_number   1
_chemical_formula_structural   TbNdBi2(Rh2O7)2
_chemical_formula_sum   'Tb1 Nd1 Bi2 Rh4 O14'
_cell_volume   279.34339862
_cell_formula_units_Z   1
loop_
 _symmetry_equiv_pos_site_id
 _symmetry_equiv_pos_as_xyz
  1  'x, y, z'
loop_
 _atom_site_type_symbol
 _atom_site_label
 _atom_site_symmetry_multiplicity
 _atom_site_fract_x
 _atom_site_fract_y
 _atom_site_fract_z
 _atom_site_occupancy
  Tb  Tb0  1  0.125000  0.125000  0.125000  1
  Nd  Nd1  1  0.125000  0.125000  0.625000  1
  Bi  Bi2  1  0.125000  0.625000  0.125000  1
  Bi  Bi3  1  0.625000  0.125000  0.125000  1
  Rh  Rh4  1  0.625000  0.625000  0.625000  1
  Rh  Rh5  1  0.625000  0.625000  0.125000  1
  Rh  Rh6  1  0.125000  0.625000  0.625000  1
  Rh  Rh7  1  0.625000  0.125000  0.625000  1
  O  O8  1  0.250864  0.250864  0.242000  1
  O  O9  1  0.290870  0.714073  0.289187  1
  O  O10  1  0.960013  0.960013  0.535402  1
  O  O11  1  0.541008  0.958489  0.541500  1
  O  O12  1  0.705991  0.705991  0.293559  1
  O  O13  1  0.958489  0.541008  0.541500  1
  O  O14  1  0.708992  0.291511  0.708500  1
  O  O15  1  0.289987  0.289987  0.714598  1
  O  O16  1  0.714073  0.290870  0.289187  1
  O  O17  1  0.291511  0.708992  0.708500  1
  O  O18  1  0.959130  0.535927  0.960813  1
  O  O19  1  0.544009  0.544009  0.956441  1
  O  O20  1  0.999136  0.999136  0.008000  1
  O  O21  1  0.535927  0.959130  0.960813  1
