# generated using pymatgen
data_LiYb3SbO6
_symmetry_space_group_name_H-M   'P 1'
_cell_length_a   6.45949592
_cell_length_b   6.45949651
_cell_length_c   6.45949705
_cell_angle_alpha   91.99668113
_cell_angle_beta   91.99667831
_cell_angle_gamma   91.99667140
_symmetry_Int_Tables_number   1
_chemical_formula_structural   LiYb3SbO6
_chemical_formula_sum   'Li2 Yb6 Sb2 O12'
_cell_volume   269.02046195
_cell_formula_units_Z   2
loop_
 _symmetry_equiv_pos_site_id
 _symmetry_equiv_pos_as_xyz
  1  'x, y, z'
loop_
 _atom_site_type_symbol
 _atom_site_label
 _atom_site_symmetry_multiplicity
 _atom_site_fract_x
 _atom_site_fract_y
 _atom_site_fract_z
 _atom_site_occupancy
  Li  Li0  1  0.250000  0.250000  0.250000  1
  Li  Li1  1  0.750000  0.750000  0.750000  1
  Yb  Yb2  1  0.600265  0.899735  0.250000  1
  Yb  Yb3  1  0.250000  0.600265  0.899735  1
  Yb  Yb4  1  0.899735  0.250000  0.600265  1
  Yb  Yb5  1  0.750000  0.399735  0.100265  1
  Yb  Yb6  1  0.100265  0.750000  0.399735  1
  Yb  Yb7  1  0.399735  0.100265  0.750000  1
  Sb  Sb8  1  0.000000  0.000000  0.000000  1
  Sb  Sb9  1  0.500000  0.500000  0.500000  1
  O  O10  1  0.295629  0.948273  0.075840  1
  O  O11  1  0.075840  0.295629  0.948273  1
  O  O12  1  0.948273  0.075840  0.295629  1
  O  O13  1  0.575840  0.448273  0.795629  1
  O  O14  1  0.795629  0.575840  0.448273  1
  O  O15  1  0.448273  0.795629  0.575840  1
  O  O16  1  0.704371  0.051727  0.924160  1
  O  O17  1  0.924160  0.704371  0.051727  1
  O  O18  1  0.051727  0.924160  0.704371  1
  O  O19  1  0.424160  0.551727  0.204371  1
  O  O20  1  0.204371  0.424160  0.551727  1
  O  O21  1  0.551727  0.204371  0.424160  1
