# generated using pymatgen
data_LiDy5P12(Ir8Ru)2
_symmetry_space_group_name_H-M   'P 1'
_cell_length_a   12.69211575
_cell_length_b   12.73401651
_cell_length_c   3.96377500
_cell_angle_alpha   90.00000000
_cell_angle_beta   90.00000000
_cell_angle_gamma   120.10926431
_symmetry_Int_Tables_number   1
_chemical_formula_structural   LiDy5P12(Ir8Ru)2
_chemical_formula_sum   'Li1 Dy5 P12 Ir16 Ru2'
_cell_volume   554.19147149
_cell_formula_units_Z   1
loop_
 _symmetry_equiv_pos_site_id
 _symmetry_equiv_pos_as_xyz
  1  'x, y, z'
loop_
 _atom_site_type_symbol
 _atom_site_label
 _atom_site_symmetry_multiplicity
 _atom_site_fract_x
 _atom_site_fract_y
 _atom_site_fract_z
 _atom_site_occupancy
  Li  Li0  1  0.000000  0.444301  0.500000  1
  Dy  Dy1  1  0.330805  0.664810  0.500000  1
  Dy  Dy2  1  0.669195  0.334004  0.500000  1
  Dy  Dy3  1  0.000000  0.809964  0.000000  1
  Dy  Dy4  1  0.188105  0.185758  0.000000  1
  Dy  Dy5  1  0.811895  0.997653  0.000000  1
  P  P6  1  0.000000  0.633814  0.500000  1
  P  P7  1  0.362102  0.361446  0.500000  1
  P  P8  1  0.637898  0.999344  0.500000  1
  P  P9  1  0.513842  0.686091  0.000000  1
  P  P10  1  0.311455  0.830228  0.000000  1
  P  P11  1  0.168132  0.484017  0.000000  1
  P  P12  1  0.486158  0.172250  0.000000  1
  P  P13  1  0.688545  0.518772  0.000000  1
  P  P14  1  0.831868  0.315886  0.000000  1
  P  P15  1  0.000000  0.179325  0.500000  1
  P  P16  1  0.821850  0.823014  0.500000  1
  P  P17  1  0.178150  0.001164  0.500000  1
  Ir  Ir18  1  0.507019  0.868341  0.000000  1
  Ir  Ir19  1  0.131838  0.643140  0.000000  1
  Ir  Ir20  1  0.359223  0.490910  0.000000  1
  Ir  Ir21  1  0.492981  0.361321  0.000000  1
  Ir  Ir22  1  0.868162  0.511301  0.000000  1
  Ir  Ir23  1  0.640777  0.131686  0.000000  1
  Ir  Ir24  1  0.000000  0.281810  0.000000  1
  Ir  Ir25  1  0.711656  0.715208  0.000000  1
  Ir  Ir26  1  0.288344  0.003552  0.000000  1
  Ir  Ir27  1  0.622110  0.803951  0.500000  1
  Ir  Ir28  1  0.197206  0.825115  0.500000  1
  Ir  Ir29  1  0.181890  0.374432  0.500000  1
  Ir  Ir30  1  0.377890  0.181843  0.500000  1
  Ir  Ir31  1  0.802794  0.627908  0.500000  1
  Ir  Ir32  1  0.818110  0.192542  0.500000  1
  Ir  Ir33  1  0.000000  0.001866  0.500000  1
  Ru  Ru34  1  0.542277  0.542753  0.500000  1
  Ru  Ru35  1  0.457723  0.000476  0.500000  1
