# generated using pymatgen
data_Hf3In3NiIr2
_symmetry_space_group_name_H-M   'P 1'
_cell_length_a   7.61374600
_cell_length_b   7.61374597
_cell_length_c   3.30830000
_cell_angle_alpha   90.00000000
_cell_angle_beta   90.00000000
_cell_angle_gamma   119.99999143
_symmetry_Int_Tables_number   1
_chemical_formula_structural   Hf3In3NiIr2
_chemical_formula_sum   'Hf3 In3 Ni1 Ir2'
_cell_volume   166.08573061
_cell_formula_units_Z   1
loop_
 _symmetry_equiv_pos_site_id
 _symmetry_equiv_pos_as_xyz
  1  'x, y, z'
loop_
 _atom_site_type_symbol
 _atom_site_label
 _atom_site_symmetry_multiplicity
 _atom_site_fract_x
 _atom_site_fract_y
 _atom_site_fract_z
 _atom_site_occupancy
  Hf  Hf0  1  0.399568  0.399568  0.500000  1
  Hf  Hf1  1  0.600432  0.000000  0.500000  1
  Hf  Hf2  1  0.000000  0.600432  0.500000  1
  In  In3  1  0.738781  0.738781  0.000000  1
  In  In4  1  0.261219  0.000000  0.000000  1
  In  In5  1  0.000000  0.261219  0.000000  1
  Ni  Ni6  1  0.000000  0.000000  0.500000  1
  Ir  Ir7  1  0.666667  0.333333  0.000000  1
  Ir  Ir8  1  0.333333  0.666667  0.000000  1
