# generated using pymatgen
data_Tb2PaIn2GaPt3
_symmetry_space_group_name_H-M   'P 1'
_cell_length_a   7.58485068
_cell_length_b   7.53487117
_cell_length_c   3.93164600
_cell_angle_alpha   90.00000000
_cell_angle_beta   90.00000000
_cell_angle_gamma   120.49475276
_symmetry_Int_Tables_number   1
_chemical_formula_structural   Tb2PaIn2GaPt3
_chemical_formula_sum   'Tb2 Pa1 In2 Ga1 Pt3'
_cell_volume   193.61593090
_cell_formula_units_Z   1
loop_
 _symmetry_equiv_pos_site_id
 _symmetry_equiv_pos_as_xyz
  1  'x, y, z'
loop_
 _atom_site_type_symbol
 _atom_site_label
 _atom_site_symmetry_multiplicity
 _atom_site_fract_x
 _atom_site_fract_y
 _atom_site_fract_z
 _atom_site_occupancy
  Tb  Tb0  1  0.005413  0.405476  0.000000  1
  Tb  Tb1  1  0.577950  0.581676  0.000000  1
  Pa  Pa2  1  0.410932  0.002296  0.000000  1
  In  In3  1  0.984313  0.733311  0.500000  1
  In  In4  1  0.756976  0.998819  0.500000  1
  Ga  Ga5  1  0.255738  0.265210  0.500000  1
  Pt  Pt6  1  0.038060  0.022834  0.000000  1
  Pt  Pt7  1  0.638441  0.310021  0.500000  1
  Pt  Pt8  1  0.332175  0.680357  0.500000  1
