# generated using pymatgen
data_BaPr3(ZnSn)4
_symmetry_space_group_name_H-M   'P 1'
_cell_length_a   4.64900500
_cell_length_b   4.64900488
_cell_length_c   17.46385200
_cell_angle_alpha   90.00000000
_cell_angle_beta   90.00000000
_cell_angle_gamma   120.00000800
_symmetry_Int_Tables_number   1
_chemical_formula_structural   BaPr3(ZnSn)4
_chemical_formula_sum   'Ba1 Pr3 Zn4 Sn4'
_cell_volume   326.88173455
_cell_formula_units_Z   1
loop_
 _symmetry_equiv_pos_site_id
 _symmetry_equiv_pos_as_xyz
  1  'x, y, z'
loop_
 _atom_site_type_symbol
 _atom_site_label
 _atom_site_symmetry_multiplicity
 _atom_site_fract_x
 _atom_site_fract_y
 _atom_site_fract_z
 _atom_site_occupancy
  Ba  Ba0  1  0.000000  0.000000  0.500000  1
  Pr  Pr1  1  0.000000  0.000000  0.000000  1
  Pr  Pr2  1  0.000000  0.000000  0.239212  1
  Pr  Pr3  1  0.000000  0.000000  0.760788  1
  Zn  Zn4  1  0.333333  0.666667  0.325301  1
  Zn  Zn5  1  0.666667  0.333333  0.674699  1
  Zn  Zn6  1  0.666667  0.333333  0.849389  1
  Zn  Zn7  1  0.333333  0.666667  0.150611  1
  Sn  Sn8  1  0.333333  0.666667  0.890992  1
  Sn  Sn9  1  0.666667  0.333333  0.109008  1
  Sn  Sn10  1  0.666667  0.333333  0.363152  1
  Sn  Sn11  1  0.333333  0.666667  0.636848  1
