# generated using pymatgen
data_TbEr2CI3
_symmetry_space_group_name_H-M   'P 1'
_cell_length_a   3.89410000
_cell_length_b   8.67279159
_cell_length_c   11.84837735
_cell_angle_alpha   92.18457539
_cell_angle_beta   90.00000000
_cell_angle_gamma   90.00000000
_symmetry_Int_Tables_number   1
_chemical_formula_structural   TbEr2CI3
_chemical_formula_sum   'Tb2 Er4 C2 I6'
_cell_volume   399.86107906
_cell_formula_units_Z   2
loop_
 _symmetry_equiv_pos_site_id
 _symmetry_equiv_pos_as_xyz
  1  'x, y, z'
loop_
 _atom_site_type_symbol
 _atom_site_label
 _atom_site_symmetry_multiplicity
 _atom_site_fract_x
 _atom_site_fract_y
 _atom_site_fract_z
 _atom_site_occupancy
  Tb  Tb0  1  0.250000  0.917497  0.599734  1
  Tb  Tb1  1  0.750000  0.082503  0.400266  1
  Er  Er2  1  0.250000  0.886569  0.188174  1
  Er  Er3  1  0.750000  0.113431  0.811826  1
  Er  Er4  1  0.250000  0.290753  0.615675  1
  Er  Er5  1  0.750000  0.709247  0.384325  1
  C  C6  1  0.250000  0.879645  0.385130  1
  C  C7  1  0.750000  0.120355  0.614870  1
  I  I8  1  0.250000  0.860937  0.873788  1
  I  I9  1  0.750000  0.139063  0.126212  1
  I  I10  1  0.250000  0.374562  0.871070  1
  I  I11  1  0.750000  0.625438  0.128930  1
  I  I12  1  0.250000  0.384915  0.368814  1
  I  I13  1  0.750000  0.615085  0.631186  1
