# generated using pymatgen
data_La6Pr4SnBi5Br2
_symmetry_space_group_name_H-M   'P 1'
_cell_length_a   9.79776200
_cell_length_b   9.76977436
_cell_length_c   6.81211900
_cell_angle_alpha   90.00000000
_cell_angle_beta   90.00000000
_cell_angle_gamma   120.09480943
_symmetry_Int_Tables_number   1
_chemical_formula_structural   La6Pr4SnBi5Br2
_chemical_formula_sum   'La6 Pr4 Sn1 Bi5 Br2'
_cell_volume   564.16816323
_cell_formula_units_Z   1
loop_
 _symmetry_equiv_pos_site_id
 _symmetry_equiv_pos_as_xyz
  1  'x, y, z'
loop_
 _atom_site_type_symbol
 _atom_site_label
 _atom_site_symmetry_multiplicity
 _atom_site_fract_x
 _atom_site_fract_y
 _atom_site_fract_z
 _atom_site_occupancy
  La  La0  1  0.274625  0.000000  0.750000  1
  La  La1  1  0.727024  0.000000  0.250000  1
  La  La2  1  0.996106  0.269079  0.750000  1
  La  La3  1  0.000261  0.728446  0.250000  1
  La  La4  1  0.727028  0.730921  0.750000  1
  La  La5  1  0.271815  0.271554  0.250000  1
  Pr  Pr6  1  0.334948  0.668530  0.501132  1
  Pr  Pr7  1  0.666419  0.331470  0.501132  1
  Pr  Pr8  1  0.666419  0.331470  0.998868  1
  Pr  Pr9  1  0.334948  0.668530  0.998868  1
  Sn  Sn10  1  0.615021  0.000000  0.750000  1
  Bi  Bi11  1  0.385194  0.000000  0.250000  1
  Bi  Bi12  1  0.999300  0.615765  0.750000  1
  Bi  Bi13  1  0.999986  0.384347  0.250000  1
  Bi  Bi14  1  0.383535  0.384235  0.750000  1
  Bi  Bi15  1  0.615639  0.615653  0.250000  1
  Br  Br16  1  0.000867  0.000000  0.499651  1
  Br  Br17  1  0.000867  0.000000  0.000349  1
