# generated using pymatgen
data_Ta3AlGaCoC
_symmetry_space_group_name_H-M   'P 1'
_cell_length_a   8.20210600
_cell_length_b   8.20210716
_cell_length_c   8.19764961
_cell_angle_alpha   120.01799019
_cell_angle_beta   90.00000000
_cell_angle_gamma   120.00000338
_symmetry_Int_Tables_number   1
_chemical_formula_structural   Ta3AlGaCoC
_chemical_formula_sum   'Ta12 Al4 Ga4 Co4 C4'
_cell_volume   389.85849345
_cell_formula_units_Z   4
loop_
 _symmetry_equiv_pos_site_id
 _symmetry_equiv_pos_as_xyz
  1  'x, y, z'
loop_
 _atom_site_type_symbol
 _atom_site_label
 _atom_site_symmetry_multiplicity
 _atom_site_fract_x
 _atom_site_fract_y
 _atom_site_fract_z
 _atom_site_occupancy
  Ta  Ta0  1  0.434537  0.749249  0.063959  1
  Ta  Ta1  1  0.814711  0.749249  0.063959  1
  Ta  Ta2  1  0.814711  0.129423  0.063959  1
  Ta  Ta3  1  0.564575  0.250203  0.314776  1
  Ta  Ta4  1  0.564575  0.629149  0.314776  1
  Ta  Ta5  1  0.185628  0.250203  0.314777  1
  Ta  Ta6  1  0.436263  0.750197  0.686459  1
  Ta  Ta7  1  0.813933  0.750197  0.686459  1
  Ta  Ta8  1  0.436263  0.372526  0.686459  1
  Ta  Ta9  1  0.562803  0.249059  0.935314  1
  Ta  Ta10  1  0.186256  0.249059  0.935315  1
  Ta  Ta11  1  0.186256  0.872512  0.935315  1
  Al  Al12  1  0.206214  0.912428  0.618642  1
  Al  Al13  1  0.120035  0.413262  0.706488  1
  Al  Al14  1  0.793227  0.086453  0.706488  1
  Al  Al15  1  0.793227  0.413262  0.706489  1
  Ga  Ga16  1  0.208271  0.583823  0.292095  1
  Ga  Ga17  1  0.875552  0.583823  0.292095  1
  Ga  Ga18  1  0.208271  0.916543  0.292095  1
  Ga  Ga19  1  0.792091  0.084182  0.376273  1
  Co  Co20  1  0.998793  0.497587  0.996380  1
  Co  Co21  1  0.001371  0.001633  0.503004  1
  Co  Co22  1  0.500263  0.001633  0.503004  1
  Co  Co23  1  0.001371  0.502741  0.503004  1
  C  C24  1  0.999592  0.000314  0.001036  1
  C  C25  1  0.500722  0.000314  0.001036  1
  C  C26  1  0.500722  0.501444  0.001036  1
  C  C27  1  0.499770  0.499541  0.499311  1
