# generated using pymatgen
data_Dy2V2Fe10P7
_symmetry_space_group_name_H-M   'P 1'
_cell_length_a   9.09304939
_cell_length_b   9.01381480
_cell_length_c   3.64187500
_cell_angle_alpha   90.00000000
_cell_angle_beta   90.00000000
_cell_angle_gamma   119.65949068
_symmetry_Int_Tables_number   1
_chemical_formula_structural   Dy2V2Fe10P7
_chemical_formula_sum   'Dy2 V2 Fe10 P7'
_cell_volume   259.39033818
_cell_formula_units_Z   1
loop_
 _symmetry_equiv_pos_site_id
 _symmetry_equiv_pos_as_xyz
  1  'x, y, z'
loop_
 _atom_site_type_symbol
 _atom_site_label
 _atom_site_symmetry_multiplicity
 _atom_site_fract_x
 _atom_site_fract_y
 _atom_site_fract_z
 _atom_site_occupancy
  Dy  Dy0  1  0.663227  0.328465  0.000000  1
  Dy  Dy1  1  0.335534  0.669684  0.500000  1
  V  V2  1  0.106856  0.218771  0.500000  1
  V  V3  1  0.783719  0.884976  0.500000  1
  Fe  Fe4  1  0.369134  0.945675  0.000000  1
  Fe  Fe5  1  0.052031  0.431363  0.000000  1
  Fe  Fe6  1  0.571312  0.623595  0.000000  1
  Fe  Fe7  1  0.881601  0.721505  0.000000  1
  Fe  Fe8  1  0.273958  0.154667  0.000000  1
  Fe  Fe9  1  0.846358  0.118035  0.000000  1
  Fe  Fe10  1  0.955047  0.566437  0.500000  1
  Fe  Fe11  1  0.433671  0.386082  0.500000  1
  Fe  Fe12  1  0.612997  0.047785  0.500000  1
  Fe  Fe13  1  0.118716  0.906237  0.500000  1
  P  P14  1  0.118296  0.712408  0.000000  1
  P  P15  1  0.298592  0.412682  0.000000  1
  P  P16  1  0.587727  0.891035  0.000000  1
  P  P17  1  0.711323  0.591123  0.500000  1
  P  P18  1  0.398607  0.110183  0.500000  1
  P  P19  1  0.877739  0.281939  0.500000  1
  P  P20  1  0.003555  0.997352  0.000000  1
