# generated using pymatgen
data_KSm2(H6Rh)2
_symmetry_space_group_name_H-M   'P 1'
_cell_length_a   5.02297500
_cell_length_b   5.02297529
_cell_length_c   9.54323300
_cell_angle_alpha   90.00000000
_cell_angle_beta   90.00000000
_cell_angle_gamma   120.00000467
_symmetry_Int_Tables_number   1
_chemical_formula_structural   KSm2(H6Rh)2
_chemical_formula_sum   'K1 Sm2 H12 Rh2'
_cell_volume   208.52023084
_cell_formula_units_Z   1
loop_
 _symmetry_equiv_pos_site_id
 _symmetry_equiv_pos_as_xyz
  1  'x, y, z'
loop_
 _atom_site_type_symbol
 _atom_site_label
 _atom_site_symmetry_multiplicity
 _atom_site_fract_x
 _atom_site_fract_y
 _atom_site_fract_z
 _atom_site_occupancy
  K  K0  1  0.000000  0.000000  0.000000  1
  Sm  Sm1  1  0.666667  0.333333  0.371953  1
  Sm  Sm2  1  0.333333  0.666667  0.628047  1
  H  H3  1  0.174044  0.825956  0.396751  1
  H  H4  1  0.651912  0.825956  0.396751  1
  H  H5  1  0.174044  0.348088  0.396751  1
  H  H6  1  0.825956  0.174044  0.603249  1
  H  H7  1  0.348088  0.174044  0.603249  1
  H  H8  1  0.825956  0.651912  0.603249  1
  H  H9  1  0.513921  0.027844  0.813761  1
  H  H10  1  0.513921  0.486079  0.813761  1
  H  H11  1  0.972156  0.486079  0.813761  1
  H  H12  1  0.486079  0.972156  0.186239  1
  H  H13  1  0.486079  0.513921  0.186239  1
  H  H14  1  0.027844  0.513921  0.186239  1
  Rh  Rh15  1  0.666667  0.333333  0.706856  1
  Rh  Rh16  1  0.333333  0.666667  0.293144  1
