# generated using pymatgen
data_SrInIO6
_symmetry_space_group_name_H-M   'P 1'
_cell_length_a   5.46716900
_cell_length_b   5.46716941
_cell_length_c   5.34892600
_cell_angle_alpha   90.00000000
_cell_angle_beta   90.00000000
_cell_angle_gamma   119.99999148
_symmetry_Int_Tables_number   1
_chemical_formula_structural   SrInIO6
_chemical_formula_sum   'Sr1 In1 I1 O6'
_cell_volume   138.45935012
_cell_formula_units_Z   1
loop_
 _symmetry_equiv_pos_site_id
 _symmetry_equiv_pos_as_xyz
  1  'x, y, z'
loop_
 _atom_site_type_symbol
 _atom_site_label
 _atom_site_symmetry_multiplicity
 _atom_site_fract_x
 _atom_site_fract_y
 _atom_site_fract_z
 _atom_site_occupancy
  Sr  Sr0  1  0.666667  0.333333  0.000000  1
  In  In1  1  0.333333  0.666666  0.500000  1
  I  I2  1  0.000000  0.000000  0.500000  1
  O  O3  1  0.019025  0.295678  0.293890  1
  O  O4  1  0.704321  0.723346  0.293890  1
  O  O5  1  0.276654  0.980974  0.293890  1
  O  O6  1  0.276653  0.295678  0.706110  1
  O  O7  1  0.019025  0.723346  0.706110  1
  O  O8  1  0.704322  0.980974  0.706110  1
