# generated using pymatgen
data_Tc12PbBr25
_symmetry_space_group_name_H-M   'P 1'
_cell_length_a   9.86206250
_cell_length_b   10.93052074
_cell_length_c   11.74726076
_cell_angle_alpha   85.25092342
_cell_angle_beta   75.29666835
_cell_angle_gamma   87.40486786
_symmetry_Int_Tables_number   1
_chemical_formula_structural   Tc12PbBr25
_chemical_formula_sum   'Tc12 Pb1 Br25'
_cell_volume   1220.26481769
_cell_formula_units_Z   1
loop_
 _symmetry_equiv_pos_site_id
 _symmetry_equiv_pos_as_xyz
  1  'x, y, z'
loop_
 _atom_site_type_symbol
 _atom_site_label
 _atom_site_symmetry_multiplicity
 _atom_site_fract_x
 _atom_site_fract_y
 _atom_site_fract_z
 _atom_site_occupancy
  Tc  Tc0  1  0.826890  0.251918  0.123705  1
  Tc  Tc1  1  0.173110  0.748082  0.876295  1
  Tc  Tc2  1  0.754088  0.120250  0.278149  1
  Tc  Tc3  1  0.245912  0.879750  0.721851  1
  Tc  Tc4  1  0.065227  0.271588  0.188199  1
  Tc  Tc5  1  0.934773  0.728412  0.811801  1
  Tc  Tc6  1  0.847771  0.425541  0.263811  1
  Tc  Tc7  1  0.152229  0.574459  0.736189  1
  Tc  Tc8  1  0.771023  0.295532  0.420521  1
  Tc  Tc9  1  0.228977  0.704468  0.579479  1
  Tc  Tc10  1  0.989664  0.144115  0.345923  1
  Tc  Tc11  1  0.010336  0.855885  0.654077  1
  Pb  Pb12  1  0.500000  0.000000  0.000000  1
  Br  Br13  1  0.939740  0.955772  0.259618  1
  Br  Br14  1  0.060260  0.044228  0.740382  1
  Br  Br15  1  0.972148  0.276687  0.512167  1
  Br  Br16  1  0.027852  0.723313  0.487833  1
  Br  Br17  1  0.648456  0.422769  0.167171  1
  Br  Br18  1  0.351544  0.577231  0.832829  1
  Br  Br19  1  0.092548  0.464815  0.278042  1
  Br  Br20  1  0.907452  0.535185  0.721958  1
  Br  Br21  1  0.000000  0.500000  0.000000  1
  Br  Br22  1  0.595046  0.958066  0.231381  1
  Br  Br23  1  0.404954  0.041934  0.768619  1
  Br  Br24  1  0.196702  0.032937  0.403203  1
  Br  Br25  1  0.803298  0.967063  0.596797  1
  Br  Br26  1  0.542729  0.220374  0.401277  1
  Br  Br27  1  0.457271  0.779626  0.598723  1
  Br  Br28  1  0.053373  0.154701  0.019246  1
  Br  Br29  1  0.946627  0.845299  0.980754  1
  Br  Br30  1  0.777287  0.640563  0.315510  1
  Br  Br31  1  0.222713  0.359437  0.684490  1
  Br  Br32  1  0.724634  0.201234  0.949068  1
  Br  Br33  1  0.275366  0.798766  0.050932  1
  Br  Br34  1  0.334324  0.243909  0.115450  1
  Br  Br35  1  0.665676  0.756091  0.884550  1
  Br  Br36  1  0.639137  0.406234  0.593457  1
  Br  Br37  1  0.360863  0.593766  0.406543  1
