# generated using pymatgen
data_Ho(CrTc2)4
_symmetry_space_group_name_H-M   'P 1'
_cell_length_a   4.81429877
_cell_length_b   6.76690015
_cell_length_c   6.76690099
_cell_angle_alpha   82.73033054
_cell_angle_beta   69.16217792
_cell_angle_gamma   69.16216889
_symmetry_Int_Tables_number   1
_chemical_formula_structural   Ho(CrTc2)4
_chemical_formula_sum   'Ho1 Cr4 Tc8'
_cell_volume   192.55546415
_cell_formula_units_Z   1
loop_
 _symmetry_equiv_pos_site_id
 _symmetry_equiv_pos_as_xyz
  1  'x, y, z'
loop_
 _atom_site_type_symbol
 _atom_site_label
 _atom_site_symmetry_multiplicity
 _atom_site_fract_x
 _atom_site_fract_y
 _atom_site_fract_z
 _atom_site_occupancy
  Ho  Ho0  1  0.000000  0.000000  0.000000  1
  Cr  Cr1  1  0.000000  0.000000  0.500000  1
  Cr  Cr2  1  0.500000  0.000000  0.500000  1
  Cr  Cr3  1  0.500000  0.500000  0.000000  1
  Cr  Cr4  1  0.000000  0.500000  0.000000  1
  Tc  Tc5  1  0.000000  0.356938  0.643062  1
  Tc  Tc6  1  0.000000  0.643062  0.356938  1
  Tc  Tc7  1  0.643062  0.356938  0.356938  1
  Tc  Tc8  1  0.356938  0.643062  0.643062  1
  Tc  Tc9  1  0.500000  0.779773  0.220227  1
  Tc  Tc10  1  0.500000  0.220227  0.779773  1
  Tc  Tc11  1  0.720227  0.779773  0.779773  1
  Tc  Tc12  1  0.279773  0.220227  0.220227  1
