# generated using pymatgen
data_Y7Ho3(Tl2Pd)4
_symmetry_space_group_name_H-M   'P 1'
_cell_length_a   3.66413100
_cell_length_b   8.22470749
_cell_length_c   18.37666200
_cell_angle_alpha   89.96550288
_cell_angle_beta   90.00000000
_cell_angle_gamma   90.00000000
_symmetry_Int_Tables_number   1
_chemical_formula_structural   Y7Ho3(Tl2Pd)4
_chemical_formula_sum   'Y7 Ho3 Tl8 Pd4'
_cell_volume   553.80644075
_cell_formula_units_Z   1
loop_
 _symmetry_equiv_pos_site_id
 _symmetry_equiv_pos_as_xyz
  1  'x, y, z'
loop_
 _atom_site_type_symbol
 _atom_site_label
 _atom_site_symmetry_multiplicity
 _atom_site_fract_x
 _atom_site_fract_y
 _atom_site_fract_z
 _atom_site_occupancy
  Y  Y0  1  0.000000  0.500029  0.500264  1
  Y  Y1  1  0.000000  0.001260  0.999089  1
  Y  Y2  1  0.000000  0.738834  0.283041  1
  Y  Y3  1  0.000000  0.260626  0.717098  1
  Y  Y4  1  0.000000  0.760070  0.782764  1
  Y  Y5  1  0.000000  0.239905  0.217503  1
  Y  Y6  1  0.000000  0.616817  0.084841  1
  Ho  Ho7  1  0.000000  0.384069  0.913794  1
  Ho  Ho8  1  0.000000  0.884713  0.586402  1
  Ho  Ho9  1  0.000000  0.115324  0.414250  1
  Tl  Tl10  1  0.500000  0.705837  0.934304  1
  Tl  Tl11  1  0.500000  0.294560  0.064844  1
  Tl  Tl12  1  0.500000  0.795079  0.435633  1
  Tl  Tl13  1  0.500000  0.204561  0.564611  1
  Tl  Tl14  1  0.500000  0.585425  0.649991  1
  Tl  Tl15  1  0.500000  0.414285  0.350491  1
  Tl  Tl16  1  0.500000  0.915649  0.149944  1
  Tl  Tl17  1  0.500000  0.085363  0.849507  1
  Pd  Pd18  1  0.500000  0.525271  0.196855  1
  Pd  Pd19  1  0.500000  0.472392  0.804053  1
  Pd  Pd20  1  0.500000  0.974409  0.696395  1
  Pd  Pd21  1  0.500000  0.025523  0.304329  1
