# generated using pymatgen
data_Dy4Tc3MoF28
_symmetry_space_group_name_H-M   'P 1'
_cell_length_a   5.60106870
_cell_length_b   8.92807182
_cell_length_c   12.00102100
_cell_angle_alpha   62.80168205
_cell_angle_beta   90.06582644
_cell_angle_gamma   90.03644071
_symmetry_Int_Tables_number   1
_chemical_formula_structural   Dy4Tc3MoF28
_chemical_formula_sum   'Dy4 Tc3 Mo1 F28'
_cell_volume   533.77490570
_cell_formula_units_Z   1
loop_
 _symmetry_equiv_pos_site_id
 _symmetry_equiv_pos_as_xyz
  1  'x, y, z'
loop_
 _atom_site_type_symbol
 _atom_site_label
 _atom_site_symmetry_multiplicity
 _atom_site_fract_x
 _atom_site_fract_y
 _atom_site_fract_z
 _atom_site_occupancy
  Dy  Dy0  1  0.758595  0.811330  0.766166  1
  Dy  Dy1  1  0.260012  0.186089  0.734896  1
  Dy  Dy2  1  0.239348  0.187636  0.234444  1
  Dy  Dy3  1  0.740508  0.815862  0.264296  1
  Tc  Tc4  1  0.756576  0.273339  0.956319  1
  Tc  Tc5  1  0.256380  0.726559  0.543294  1
  Tc  Tc6  1  0.243199  0.726806  0.043677  1
  Mo  Mo7  1  0.744459  0.273731  0.456677  1
  F  F8  1  0.449372  0.705665  0.919878  1
  F  F9  1  0.948387  0.292448  0.583874  1
  F  F10  1  0.548336  0.294153  0.079292  1
  F  F11  1  0.048229  0.706811  0.419264  1
  F  F12  1  0.439843  0.279351  0.548327  1
  F  F13  1  0.951810  0.718684  0.954037  1
  F  F14  1  0.545916  0.718123  0.452647  1
  F  F15  1  0.046014  0.281680  0.046909  1
  F  F16  1  0.769831  0.519506  0.857936  1
  F  F17  1  0.267124  0.480913  0.642664  1
  F  F18  1  0.231975  0.480848  0.140821  1
  F  F19  1  0.731859  0.521594  0.357382  1
  F  F20  1  0.756492  0.027708  0.052670  1
  F  F21  1  0.259355  0.972059  0.447099  1
  F  F22  1  0.244340  0.972043  0.947867  1
  F  F23  1  0.744203  0.026119  0.552579  1
  F  F24  1  0.977357  0.730824  0.640590  1
  F  F25  1  0.478505  0.269668  0.858250  1
  F  F26  1  0.037772  0.271241  0.357935  1
  F  F27  1  0.523059  0.729840  0.141296  1
  F  F28  1  0.042801  0.747106  0.171295  1
  F  F29  1  0.546408  0.253390  0.326643  1
  F  F30  1  0.958885  0.252961  0.829832  1
  F  F31  1  0.458162  0.746421  0.670733  1
  F  F32  1  0.419740  0.972144  0.232281  1
  F  F33  1  0.918517  0.029284  0.268307  1
  F  F34  1  0.579493  0.026575  0.767105  1
  F  F35  1  0.077139  0.971486  0.732720  1
