# generated using pymatgen
data_Tb6HoCo6Sn23
_symmetry_space_group_name_H-M   'P 1'
_cell_length_a   9.71048207
_cell_length_b   9.71048138
_cell_length_c   9.98072301
_cell_angle_alpha   90.00353030
_cell_angle_beta   89.99646770
_cell_angle_gamma   120.01317560
_symmetry_Int_Tables_number   1
_chemical_formula_structural   Tb6HoCo6Sn23
_chemical_formula_sum   'Tb6 Ho1 Co6 Sn23'
_cell_volume   814.92287544
_cell_formula_units_Z   1
loop_
 _symmetry_equiv_pos_site_id
 _symmetry_equiv_pos_as_xyz
  1  'x, y, z'
loop_
 _atom_site_type_symbol
 _atom_site_label
 _atom_site_symmetry_multiplicity
 _atom_site_fract_x
 _atom_site_fract_y
 _atom_site_fract_z
 _atom_site_occupancy
  Tb  Tb0  1  0.999958  0.000042  0.000075  1
  Tb  Tb1  1  0.521595  0.478405  0.694266  1
  Tb  Tb2  1  0.478391  0.956849  0.305586  1
  Tb  Tb3  1  0.521531  0.043114  0.694386  1
  Tb  Tb4  1  0.043151  0.521609  0.305586  1
  Tb  Tb5  1  0.956886  0.478469  0.694386  1
  Ho  Ho6  1  0.478760  0.521240  0.305521  1
  Co  Co7  1  0.832613  0.167387  0.196955  1
  Co  Co8  1  0.167473  0.832527  0.803235  1
  Co  Co9  1  0.831947  0.664784  0.197035  1
  Co  Co10  1  0.167500  0.334977  0.803146  1
  Co  Co11  1  0.335216  0.168053  0.197035  1
  Co  Co12  1  0.665023  0.832500  0.803146  1
  Sn  Sn13  1  0.345558  0.000085  0.000076  1
  Sn  Sn14  1  0.654445  0.999970  0.000060  1
  Sn  Sn15  1  0.000030  0.345555  0.000060  1
  Sn  Sn16  1  0.999915  0.654442  0.000076  1
  Sn  Sn17  1  0.654340  0.654381  0.000160  1
  Sn  Sn18  1  0.345619  0.345660  0.000160  1
  Sn  Sn19  1  0.333333  0.666667  0.817962  1
  Sn  Sn20  1  0.666569  0.333431  0.182195  1
  Sn  Sn21  1  0.999939  0.000061  0.499887  1
  Sn  Sn22  1  0.781105  0.218895  0.451506  1
  Sn  Sn23  1  0.218864  0.781136  0.548414  1
  Sn  Sn24  1  0.780513  0.562248  0.451165  1
  Sn  Sn25  1  0.219184  0.437825  0.548059  1
  Sn  Sn26  1  0.437752  0.219487  0.451165  1
  Sn  Sn27  1  0.562175  0.780816  0.548059  1
  Sn  Sn28  1  0.333977  0.666023  0.116333  1
  Sn  Sn29  1  0.666619  0.333381  0.884265  1
  Sn  Sn30  1  0.117699  0.882301  0.274848  1
  Sn  Sn31  1  0.882278  0.117722  0.725072  1
  Sn  Sn32  1  0.118386  0.236092  0.274950  1
  Sn  Sn33  1  0.882199  0.764453  0.725112  1
  Sn  Sn34  1  0.763908  0.881614  0.274950  1
  Sn  Sn35  1  0.235547  0.117801  0.725112  1
