# generated using pymatgen
data_Y5In4CoPd
_symmetry_space_group_name_H-M   'P 1'
_cell_length_a   3.59559900
_cell_length_b   8.11500172
_cell_length_c   18.19764117
_cell_angle_alpha   90.14772615
_cell_angle_beta   90.00000000
_cell_angle_gamma   90.00000000
_symmetry_Int_Tables_number   1
_chemical_formula_structural   Y5In4CoPd
_chemical_formula_sum   'Y10 In8 Co2 Pd2'
_cell_volume   530.97432426
_cell_formula_units_Z   2
loop_
 _symmetry_equiv_pos_site_id
 _symmetry_equiv_pos_as_xyz
  1  'x, y, z'
loop_
 _atom_site_type_symbol
 _atom_site_label
 _atom_site_symmetry_multiplicity
 _atom_site_fract_x
 _atom_site_fract_y
 _atom_site_fract_z
 _atom_site_occupancy
  Y  Y0  1  0.500000  0.226662  0.776878  1
  Y  Y1  1  0.500000  0.773338  0.223122  1
  Y  Y2  1  0.500000  0.241302  0.281530  1
  Y  Y3  1  0.500000  0.758698  0.718470  1
  Y  Y4  1  0.500000  0.114313  0.588843  1
  Y  Y5  1  0.500000  0.885687  0.411157  1
  Y  Y6  1  0.500000  0.380814  0.084205  1
  Y  Y7  1  0.500000  0.619186  0.915795  1
  Y  Y8  1  0.500000  0.000000  0.000000  1
  Y  Y9  1  0.500000  0.500000  0.500000  1
  In  In10  1  0.000000  0.075539  0.152503  1
  In  In11  1  0.000000  0.924461  0.847497  1
  In  In12  1  0.000000  0.422369  0.650729  1
  In  In13  1  0.000000  0.577631  0.349271  1
  In  In14  1  0.000000  0.204914  0.430933  1
  In  In15  1  0.000000  0.795086  0.569067  1
  In  In16  1  0.000000  0.291970  0.931092  1
  In  In17  1  0.000000  0.708030  0.068908  1
  Co  Co18  1  0.000000  0.019157  0.694443  1
  Co  Co19  1  0.000000  0.980843  0.305557  1
  Pd  Pd20  1  0.000000  0.479066  0.197051  1
  Pd  Pd21  1  0.000000  0.520934  0.802949  1
