# generated using pymatgen
data_Ho3TmBeOs7
_symmetry_space_group_name_H-M   'P 1'
_cell_length_a   5.23873783
_cell_length_b   5.23929532
_cell_length_c   8.77382280
_cell_angle_alpha   89.91882095
_cell_angle_beta   89.92007057
_cell_angle_gamma   61.09717918
_symmetry_Int_Tables_number   1
_chemical_formula_structural   Ho3TmBeOs7
_chemical_formula_sum   'Ho3 Tm1 Be1 Os7'
_cell_volume   210.82134203
_cell_formula_units_Z   1
loop_
 _symmetry_equiv_pos_site_id
 _symmetry_equiv_pos_as_xyz
  1  'x, y, z'
loop_
 _atom_site_type_symbol
 _atom_site_label
 _atom_site_symmetry_multiplicity
 _atom_site_fract_x
 _atom_site_fract_y
 _atom_site_fract_z
 _atom_site_occupancy
  Ho  Ho0  1  0.666467  0.666994  0.434862  1
  Ho  Ho1  1  0.666287  0.666585  0.065001  1
  Ho  Ho2  1  0.330724  0.330441  0.936593  1
  Tm  Tm3  1  0.330762  0.330676  0.563604  1
  Be  Be4  1  0.170634  0.170999  0.250881  1
  Os  Os5  1  0.995244  0.995439  0.495948  1
  Os  Os6  1  0.994813  0.994806  0.004209  1
  Os  Os7  1  0.827261  0.347179  0.749223  1
  Os  Os8  1  0.347314  0.827012  0.749228  1
  Os  Os9  1  0.834781  0.834404  0.749421  1
  Os  Os10  1  0.180012  0.655613  0.250493  1
  Os  Os11  1  0.655705  0.179849  0.250534  1
