# generated using pymatgen
data_Tb3Pa7O20
_symmetry_space_group_name_H-M   'P 1'
_cell_length_a   10.16817088
_cell_length_b   10.16817077
_cell_length_c   6.65641758
_cell_angle_alpha   83.74159168
_cell_angle_beta   83.74160098
_cell_angle_gamma   141.66471370
_symmetry_Int_Tables_number   1
_chemical_formula_structural   Tb3Pa7O20
_chemical_formula_sum   'Tb3 Pa7 O20'
_cell_volume   402.66040908
_cell_formula_units_Z   1
loop_
 _symmetry_equiv_pos_site_id
 _symmetry_equiv_pos_as_xyz
  1  'x, y, z'
loop_
 _atom_site_type_symbol
 _atom_site_label
 _atom_site_symmetry_multiplicity
 _atom_site_fract_x
 _atom_site_fract_y
 _atom_site_fract_z
 _atom_site_occupancy
  Tb  Tb0  1  0.500000  0.500000  0.000000  1
  Tb  Tb1  1  0.201349  0.798651  0.500000  1
  Tb  Tb2  1  0.798651  0.201349  0.500000  1
  Pa  Pa3  1  0.899893  0.100107  0.000000  1
  Pa  Pa4  1  0.398771  0.601229  0.500000  1
  Pa  Pa5  1  0.100107  0.899893  0.000000  1
  Pa  Pa6  1  0.000000  0.000000  0.500000  1
  Pa  Pa7  1  0.699628  0.300372  0.000000  1
  Pa  Pa8  1  0.601229  0.398771  0.500000  1
  Pa  Pa9  1  0.300372  0.699628  0.000000  1
  O  O10  1  0.271149  0.472718  0.874626  1
  O  O11  1  0.881010  0.881010  0.872019  1
  O  O12  1  0.776134  0.973052  0.372838  1
  O  O13  1  0.026948  0.223866  0.627162  1
  O  O14  1  0.472718  0.271149  0.874626  1
  O  O15  1  0.372619  0.372619  0.380340  1
  O  O16  1  0.627381  0.627381  0.619660  1
  O  O17  1  0.073126  0.673560  0.882248  1
  O  O18  1  0.527282  0.728851  0.125374  1
  O  O19  1  0.973052  0.776134  0.372838  1
  O  O20  1  0.223866  0.026948  0.627162  1
  O  O21  1  0.673560  0.073126  0.882248  1
  O  O22  1  0.118990  0.118990  0.127981  1
  O  O23  1  0.577993  0.182271  0.368634  1
  O  O24  1  0.817729  0.422007  0.631366  1
  O  O25  1  0.422007  0.817729  0.631366  1
  O  O26  1  0.728851  0.527282  0.125374  1
  O  O27  1  0.182271  0.577993  0.368634  1
  O  O28  1  0.326440  0.926874  0.117752  1
  O  O29  1  0.926874  0.326440  0.117752  1
