# generated using pymatgen
data_TbY11Tc4
_symmetry_space_group_name_H-M   'P 1'
_cell_length_a   6.27264552
_cell_length_b   7.46614455
_cell_length_c   9.25439200
_cell_angle_alpha   90.00000000
_cell_angle_beta   90.00000000
_cell_angle_gamma   89.84296736
_symmetry_Int_Tables_number   1
_chemical_formula_structural   TbY11Tc4
_chemical_formula_sum   'Tb1 Y11 Tc4'
_cell_volume   433.40448356
_cell_formula_units_Z   1
loop_
 _symmetry_equiv_pos_site_id
 _symmetry_equiv_pos_as_xyz
  1  'x, y, z'
loop_
 _atom_site_type_symbol
 _atom_site_label
 _atom_site_symmetry_multiplicity
 _atom_site_fract_x
 _atom_site_fract_y
 _atom_site_fract_z
 _atom_site_occupancy
  Tb  Tb0  1  0.369368  0.956014  0.750000  1
  Y  Y1  1  0.336230  0.674765  0.063520  1
  Y  Y2  1  0.164456  0.174375  0.436633  1
  Y  Y3  1  0.663856  0.324942  0.563922  1
  Y  Y4  1  0.835739  0.825782  0.936570  1
  Y  Y5  1  0.663856  0.324942  0.936078  1
  Y  Y6  1  0.835739  0.825782  0.563430  1
  Y  Y7  1  0.336230  0.674765  0.436480  1
  Y  Y8  1  0.164456  0.174375  0.063367  1
  Y  Y9  1  0.870769  0.542339  0.250000  1
  Y  Y10  1  0.629689  0.042704  0.250000  1
  Y  Y11  1  0.128371  0.457964  0.750000  1
  Tc  Tc12  1  0.039930  0.885332  0.250000  1
  Tc  Tc13  1  0.458745  0.385005  0.250000  1
  Tc  Tc14  1  0.963683  0.114152  0.750000  1
  Tc  Tc15  1  0.538881  0.616764  0.750000  1
