# generated using pymatgen
data_CaDyYZn11
_symmetry_space_group_name_H-M   'P 1'
_cell_length_a   8.19791769
_cell_length_b   8.19791829
_cell_length_c   8.19791800
_cell_angle_alpha   148.35052745
_cell_angle_beta   115.77134504
_cell_angle_gamma   73.37807366
_symmetry_Int_Tables_number   1
_chemical_formula_structural   CaDyYZn11
_chemical_formula_sum   'Ca1 Dy1 Y1 Zn11'
_cell_volume   256.18703430
_cell_formula_units_Z   1
loop_
 _symmetry_equiv_pos_site_id
 _symmetry_equiv_pos_as_xyz
  1  'x, y, z'
loop_
 _atom_site_type_symbol
 _atom_site_label
 _atom_site_symmetry_multiplicity
 _atom_site_fract_x
 _atom_site_fract_y
 _atom_site_fract_z
 _atom_site_occupancy
  Ca  Ca0  1  0.000012  0.000012  0.000000  1
  Dy  Dy1  1  0.298112  0.298112  0.000000  1
  Y  Y2  1  0.701927  0.701927  0.000000  1
  Zn  Zn3  1  0.499989  0.999989  0.500000  1
  Zn  Zn4  1  0.678727  0.499962  0.178765  1
  Zn  Zn5  1  0.321197  0.499962  0.821235  1
  Zn  Zn6  1  0.693471  0.337528  0.355943  1
  Zn  Zn7  1  0.306483  0.662493  0.643990  1
  Zn  Zn8  1  0.981586  0.337528  0.644057  1
  Zn  Zn9  1  0.018503  0.662493  0.356010  1
  Zn  Zn10  1  0.422506  0.137290  0.285216  1
  Zn  Zn11  1  0.577397  0.862707  0.714690  1
  Zn  Zn12  1  0.852074  0.137290  0.714784  1
  Zn  Zn13  1  0.148016  0.862707  0.285310  1
