# generated using pymatgen
data_Pr20Ir6RuPt5
_symmetry_space_group_name_H-M   'P 1'
_cell_length_a   11.46679340
_cell_length_b   11.46293322
_cell_length_c   6.60598355
_cell_angle_alpha   90.06352016
_cell_angle_beta   90.04643954
_cell_angle_gamma   89.85282035
_symmetry_Int_Tables_number   1
_chemical_formula_structural   Pr20Ir6RuPt5
_chemical_formula_sum   'Pr20 Ir6 Ru1 Pt5'
_cell_volume   868.30718869
_cell_formula_units_Z   1
loop_
 _symmetry_equiv_pos_site_id
 _symmetry_equiv_pos_as_xyz
  1  'x, y, z'
loop_
 _atom_site_type_symbol
 _atom_site_label
 _atom_site_symmetry_multiplicity
 _atom_site_fract_x
 _atom_site_fract_y
 _atom_site_fract_z
 _atom_site_occupancy
  Pr  Pr0  1  0.296178  0.091261  0.376173  1
  Pr  Pr1  1  0.297051  0.908057  0.877308  1
  Pr  Pr2  1  0.703155  0.087259  0.877799  1
  Pr  Pr3  1  0.703158  0.907548  0.375192  1
  Pr  Pr4  1  0.587124  0.791364  0.884223  1
  Pr  Pr5  1  0.585469  0.205463  0.376502  1
  Pr  Pr6  1  0.412262  0.792505  0.382165  1
  Pr  Pr7  1  0.409611  0.206611  0.884641  1
  Pr  Pr8  1  0.209939  0.411698  0.616992  1
  Pr  Pr9  1  0.208171  0.588506  0.117222  1
  Pr  Pr10  1  0.793543  0.413634  0.122484  1
  Pr  Pr11  1  0.792324  0.591775  0.616444  1
  Pr  Pr12  1  0.907614  0.704700  0.123387  1
  Pr  Pr13  1  0.911282  0.295478  0.624638  1
  Pr  Pr14  1  0.093636  0.704191  0.624793  1
  Pr  Pr15  1  0.093475  0.295857  0.124085  1
  Pr  Pr16  1  0.999782  0.999633  0.498646  1
  Pr  Pr17  1  0.000323  0.000167  0.999480  1
  Pr  Pr18  1  0.498174  0.501418  0.999193  1
  Pr  Pr19  1  0.498670  0.501723  0.498457  1
  Ir  Ir20  1  0.654254  0.652877  0.249553  1
  Ir  Ir21  1  0.346577  0.346186  0.249737  1
  Ir  Ir22  1  0.345373  0.654401  0.749398  1
  Ir  Ir23  1  0.500299  0.001052  0.619608  1
  Ir  Ir24  1  0.998827  0.499682  0.882067  1
  Ir  Ir25  1  0.999589  0.499499  0.383528  1
  Ru  Ru26  1  0.500654  0.000705  0.118330  1
  Pt  Pt27  1  0.846061  0.154430  0.249875  1
  Pt  Pt28  1  0.846432  0.847258  0.749670  1
  Pt  Pt29  1  0.152539  0.153743  0.749214  1
  Pt  Pt30  1  0.153623  0.846103  0.249830  1
  Pt  Pt31  1  0.654831  0.345216  0.749369  1
