# generated using pymatgen
data_Sc8Si16IrRu11
_symmetry_space_group_name_H-M   'P 1'
_cell_length_a   9.95039810
_cell_length_b   9.94779529
_cell_length_c   13.39232572
_cell_angle_alpha   53.80552346
_cell_angle_beta   53.82230386
_cell_angle_gamma   31.04761825
_symmetry_Int_Tables_number   1
_chemical_formula_structural   Sc8Si16IrRu11
_chemical_formula_sum   'Sc8 Si16 Ir1 Ru11'
_cell_volume   540.30140995
_cell_formula_units_Z   1
loop_
 _symmetry_equiv_pos_site_id
 _symmetry_equiv_pos_as_xyz
  1  'x, y, z'
loop_
 _atom_site_type_symbol
 _atom_site_label
 _atom_site_symmetry_multiplicity
 _atom_site_fract_x
 _atom_site_fract_y
 _atom_site_fract_z
 _atom_site_occupancy
  Sc  Sc0  1  0.294046  0.559562  0.644988  1
  Sc  Sc1  1  0.708909  0.962184  0.860791  1
  Sc  Sc2  1  0.292412  0.037801  0.138865  1
  Sc  Sc3  1  0.441420  0.706509  0.852835  1
  Sc  Sc4  1  0.038499  0.291325  0.638306  1
  Sc  Sc5  1  0.558680  0.293879  0.145200  1
  Sc  Sc6  1  0.961724  0.708028  0.361841  1
  Sc  Sc7  1  0.706255  0.440931  0.355698  1
  Si  Si8  1  0.020742  0.747656  0.107371  1
  Si  Si9  1  0.614812  0.856095  0.601600  1
  Si  Si10  1  0.975444  0.253603  0.890464  1
  Si  Si11  1  0.384534  0.616075  0.250740  1
  Si  Si12  1  0.385013  0.143651  0.398496  1
  Si  Si13  1  0.573744  0.081020  0.066388  1
  Si  Si14  1  0.145580  0.384950  0.897481  1
  Si  Si15  1  0.252204  0.976007  0.392680  1
  Si  Si16  1  0.079737  0.574748  0.566984  1
  Si  Si17  1  0.426341  0.920270  0.933105  1
  Si  Si18  1  0.128322  0.871802  0.749746  1
  Si  Si19  1  0.747345  0.024394  0.607620  1
  Si  Si20  1  0.869350  0.131032  0.251327  1
  Si  Si21  1  0.617072  0.382723  0.750046  1
  Si  Si22  1  0.919877  0.425444  0.433593  1
  Si  Si23  1  0.856703  0.614065  0.101752  1
  Ir  Ir24  1  0.140592  0.895144  0.086738  1
  Ru  Ru25  1  0.169627  0.352009  0.217631  1
  Ru  Ru26  1  0.352458  0.168100  0.717666  1
  Ru  Ru27  1  0.831417  0.646953  0.783420  1
  Ru  Ru28  1  0.508063  0.248883  0.430765  1
  Ru  Ru29  1  0.858870  0.102914  0.913902  1
  Ru  Ru30  1  0.648142  0.830860  0.282506  1
  Ru  Ru31  1  0.248019  0.509013  0.931795  1
  Ru  Ru32  1  0.752643  0.490307  0.069427  1
  Ru  Ru33  1  0.103276  0.858877  0.413435  1
  Ru  Ru34  1  0.896480  0.141684  0.586113  1
  Ru  Ru35  1  0.491650  0.751502  0.568686  1
