# generated using pymatgen
data_In6Sn3Pd13
_symmetry_space_group_name_H-M   'P 1'
_cell_length_a   7.22798008
_cell_length_b   7.22797909
_cell_length_c   9.66777958
_cell_angle_alpha   62.29907038
_cell_angle_beta   62.29907540
_cell_angle_gamma   75.60340724
_symmetry_Int_Tables_number   1
_chemical_formula_structural   In6Sn3Pd13
_chemical_formula_sum   'In6 Sn3 Pd13'
_cell_volume   395.59561959
_cell_formula_units_Z   1
loop_
 _symmetry_equiv_pos_site_id
 _symmetry_equiv_pos_as_xyz
  1  'x, y, z'
loop_
 _atom_site_type_symbol
 _atom_site_label
 _atom_site_symmetry_multiplicity
 _atom_site_fract_x
 _atom_site_fract_y
 _atom_site_fract_z
 _atom_site_occupancy
  In  In0  1  0.248172  0.829674  0.190035  1
  In  In1  1  0.829674  0.248172  0.190035  1
  In  In2  1  0.501583  0.501583  0.998267  1
  In  In3  1  0.750773  0.169563  0.810134  1
  In  In4  1  0.169563  0.750773  0.810134  1
  In  In5  1  0.824029  0.824029  0.613548  1
  Sn  Sn6  1  0.175463  0.175463  0.387543  1
  Sn  Sn7  1  0.292438  0.292438  0.667354  1
  Sn  Sn8  1  0.709107  0.709107  0.332279  1
  Pd  Pd9  1  0.538594  0.063925  0.161862  1
  Pd  Pd10  1  0.498731  0.001645  0.499568  1
  Pd  Pd11  1  0.546405  0.546405  0.676407  1
  Pd  Pd12  1  0.063925  0.538594  0.161862  1
  Pd  Pd13  1  0.453708  0.453708  0.323056  1
  Pd  Pd14  1  0.255435  0.746060  0.499217  1
  Pd  Pd15  1  0.261264  0.261264  0.987086  1
  Pd  Pd16  1  0.937743  0.457508  0.839260  1
  Pd  Pd17  1  0.738835  0.738835  0.013580  1
  Pd  Pd18  1  0.457508  0.937743  0.839260  1
  Pd  Pd19  1  0.746060  0.255435  0.499217  1
  Pd  Pd20  1  0.999346  0.999346  0.000730  1
  Pd  Pd21  1  0.001645  0.498731  0.499568  1
