# generated using pymatgen
data_TbY2LuCdNi
_symmetry_space_group_name_H-M   'P 1'
_cell_length_a   9.52412164
_cell_length_b   9.52412197
_cell_length_c   9.53341500
_cell_angle_alpha   59.96771419
_cell_angle_beta   59.96771304
_cell_angle_gamma   60.06456435
_symmetry_Int_Tables_number   1
_chemical_formula_structural   TbY2LuCdNi
_chemical_formula_sum   'Tb4 Y8 Lu4 Cd4 Ni4'
_cell_volume   611.48038135
_cell_formula_units_Z   4
loop_
 _symmetry_equiv_pos_site_id
 _symmetry_equiv_pos_as_xyz
  1  'x, y, z'
loop_
 _atom_site_type_symbol
 _atom_site_label
 _atom_site_symmetry_multiplicity
 _atom_site_fract_x
 _atom_site_fract_y
 _atom_site_fract_z
 _atom_site_occupancy
  Tb  Tb0  1  0.599846  0.599846  0.598314  1
  Tb  Tb1  1  0.599846  0.599846  0.201995  1
  Tb  Tb2  1  0.598314  0.201995  0.599846  1
  Tb  Tb3  1  0.201995  0.598314  0.599846  1
  Y  Y4  1  0.436010  0.436010  0.063990  1
  Y  Y5  1  0.063990  0.063990  0.436010  1
  Y  Y6  1  0.186969  0.813031  0.813031  1
  Y  Y7  1  0.813031  0.186969  0.186969  1
  Y  Y8  1  0.813031  0.186969  0.813031  1
  Y  Y9  1  0.186969  0.813031  0.186969  1
  Y  Y10  1  0.813277  0.813277  0.186723  1
  Y  Y11  1  0.186723  0.186723  0.813277  1
  Lu  Lu12  1  0.062503  0.437497  0.437497  1
  Lu  Lu13  1  0.437497  0.062503  0.062503  1
  Lu  Lu14  1  0.437497  0.062503  0.437497  1
  Lu  Lu15  1  0.062503  0.437497  0.062503  1
  Cd  Cd16  1  0.831191  0.831191  0.831592  1
  Cd  Cd17  1  0.831191  0.831191  0.506026  1
  Cd  Cd18  1  0.831592  0.506026  0.831191  1
  Cd  Cd19  1  0.506026  0.831592  0.831191  1
  Ni  Ni20  1  0.390544  0.390544  0.395107  1
  Ni  Ni21  1  0.390544  0.390544  0.823807  1
  Ni  Ni22  1  0.395107  0.823807  0.390544  1
  Ni  Ni23  1  0.823807  0.395107  0.390544  1
