# generated using pymatgen
data_Zr8Ti9Si16Mo3
_symmetry_space_group_name_H-M   'P 1'
_cell_length_a   6.60730002
_cell_length_b   6.76945120
_cell_length_c   13.00773200
_cell_angle_alpha   90.00000000
_cell_angle_beta   90.00000000
_cell_angle_gamma   89.99023555
_symmetry_Int_Tables_number   1
_chemical_formula_structural   Zr8Ti9Si16Mo3
_chemical_formula_sum   'Zr8 Ti9 Si16 Mo3'
_cell_volume   581.80716178
_cell_formula_units_Z   1
loop_
 _symmetry_equiv_pos_site_id
 _symmetry_equiv_pos_as_xyz
  1  'x, y, z'
loop_
 _atom_site_type_symbol
 _atom_site_label
 _atom_site_symmetry_multiplicity
 _atom_site_fract_x
 _atom_site_fract_y
 _atom_site_fract_z
 _atom_site_occupancy
  Zr  Zr0  1  0.996041  0.172553  0.094186  1
  Zr  Zr1  1  0.002288  0.827703  0.905522  1
  Zr  Zr2  1  0.501786  0.673385  0.905842  1
  Zr  Zr3  1  0.002288  0.827703  0.594478  1
  Zr  Zr4  1  0.498102  0.327711  0.093877  1
  Zr  Zr5  1  0.996041  0.172553  0.405814  1
  Zr  Zr6  1  0.498102  0.327711  0.406123  1
  Zr  Zr7  1  0.501786  0.673385  0.594158  1
  Ti  Ti8  1  0.162498  0.492402  0.750000  1
  Ti  Ti9  1  0.335554  0.170411  0.625240  1
  Ti  Ti10  1  0.664779  0.830304  0.374962  1
  Ti  Ti11  1  0.164582  0.670075  0.374649  1
  Ti  Ti12  1  0.664779  0.830304  0.125038  1
  Ti  Ti13  1  0.835077  0.328592  0.625044  1
  Ti  Ti14  1  0.335554  0.170411  0.874760  1
  Ti  Ti15  1  0.835077  0.328592  0.874956  1
  Ti  Ti16  1  0.164582  0.670075  0.125351  1
  Si  Si17  1  0.037026  0.118947  0.750000  1
  Si  Si18  1  0.963833  0.881948  0.250000  1
  Si  Si19  1  0.464604  0.617762  0.250000  1
  Si  Si20  1  0.536639  0.381773  0.750000  1
  Si  Si21  1  0.296647  0.863387  0.750000  1
  Si  Si22  1  0.702040  0.136716  0.250000  1
  Si  Si23  1  0.203069  0.362096  0.250000  1
  Si  Si24  1  0.798042  0.635137  0.750000  1
  Si  Si25  1  0.168801  0.460909  0.538538  1
  Si  Si26  1  0.831444  0.539426  0.461283  1
  Si  Si27  1  0.330731  0.961253  0.461276  1
  Si  Si28  1  0.831444  0.539426  0.038717  1
  Si  Si29  1  0.669088  0.039494  0.539103  1
  Si  Si30  1  0.168801  0.460909  0.961462  1
  Si  Si31  1  0.669088  0.039494  0.960897  1
  Si  Si32  1  0.330731  0.961253  0.038724  1
  Mo  Mo33  1  0.838488  0.507754  0.250000  1
  Mo  Mo34  1  0.338347  0.991312  0.250000  1
  Mo  Mo35  1  0.662220  0.007129  0.750000  1
