# generated using pymatgen
data_Eu4Si10OsPt5
_symmetry_space_group_name_H-M   'P 1'
_cell_length_a   8.35447158
_cell_length_b   8.35447261
_cell_length_c   8.35447236
_cell_angle_alpha   138.16421658
_cell_angle_beta   104.92091397
_cell_angle_gamma   89.85417474
_symmetry_Int_Tables_number   1
_chemical_formula_structural   Eu4Si10OsPt5
_chemical_formula_sum   'Eu4 Si10 Os1 Pt5'
_cell_volume   359.24921544
_cell_formula_units_Z   1
loop_
 _symmetry_equiv_pos_site_id
 _symmetry_equiv_pos_as_xyz
  1  'x, y, z'
loop_
 _atom_site_type_symbol
 _atom_site_label
 _atom_site_symmetry_multiplicity
 _atom_site_fract_x
 _atom_site_fract_y
 _atom_site_fract_z
 _atom_site_occupancy
  Eu  Eu0  1  0.862268  0.629345  0.231265  1
  Eu  Eu1  1  0.137732  0.368997  0.767076  1
  Eu  Eu2  1  0.398080  0.131003  0.268735  1
  Eu  Eu3  1  0.601920  0.870655  0.732924  1
  Si  Si4  1  0.500000  0.750000  0.250000  1
  Si  Si5  1  0.500000  0.250000  0.750000  1
  Si  Si6  1  0.225330  0.975330  0.750000  1
  Si  Si7  1  0.774670  0.524670  0.750000  1
  Si  Si8  1  0.771300  0.021300  0.250000  1
  Si  Si9  1  0.228700  0.478700  0.250000  1
  Si  Si10  1  0.042329  0.884176  0.142141  1
  Si  Si11  1  0.957671  0.099813  0.841848  1
  Si  Si12  1  0.742034  0.400187  0.357859  1
  Si  Si13  1  0.257966  0.615824  0.658152  1
  Os  Os14  1  0.000000  0.750000  0.750000  1
  Pt  Pt15  1  0.000000  0.250000  0.250000  1
  Pt  Pt16  1  0.250751  0.864024  0.389030  1
  Pt  Pt17  1  0.749249  0.138278  0.613272  1
  Pt  Pt18  1  0.474994  0.361722  0.110970  1
  Pt  Pt19  1  0.525006  0.635976  0.886728  1
