# generated using pymatgen
data_La2Cu2SbAsH2
_symmetry_space_group_name_H-M   'P 1'
_cell_length_a   4.24477800
_cell_length_b   4.24477800
_cell_length_c   7.72599400
_cell_angle_alpha   90.00000000
_cell_angle_beta   90.00000000
_cell_angle_gamma   90.00000000
_symmetry_Int_Tables_number   1
_chemical_formula_structural   La2Cu2SbAsH2
_chemical_formula_sum   'La2 Cu2 Sb1 As1 H2'
_cell_volume   139.20804361
_cell_formula_units_Z   1
loop_
 _symmetry_equiv_pos_site_id
 _symmetry_equiv_pos_as_xyz
  1  'x, y, z'
loop_
 _atom_site_type_symbol
 _atom_site_label
 _atom_site_symmetry_multiplicity
 _atom_site_fract_x
 _atom_site_fract_y
 _atom_site_fract_z
 _atom_site_occupancy
  La  La0  1  0.000000  0.500000  0.847699  1
  La  La1  1  0.500000  0.000000  0.172666  1
  Cu  Cu2  1  0.500000  0.500000  0.487392  1
  Cu  Cu3  1  0.000000  0.000000  0.487392  1
  Sb  Sb4  1  0.500000  0.000000  0.691639  1
  As  As5  1  0.000000  0.500000  0.303421  1
  H  H6  1  0.500000  0.500000  0.004896  1
  H  H7  1  0.000000  0.000000  0.004896  1
