# generated using pymatgen
data_PrTh2(GeRh)3
_symmetry_space_group_name_H-M   'P 1'
_cell_length_a   7.31836808
_cell_length_b   7.33599472
_cell_length_c   3.98729700
_cell_angle_alpha   90.00000000
_cell_angle_beta   90.00000000
_cell_angle_gamma   120.07970420
_symmetry_Int_Tables_number   1
_chemical_formula_structural   PrTh2(GeRh)3
_chemical_formula_sum   'Pr1 Th2 Ge3 Rh3'
_cell_volume   185.23929158
_cell_formula_units_Z   1
loop_
 _symmetry_equiv_pos_site_id
 _symmetry_equiv_pos_as_xyz
  1  'x, y, z'
loop_
 _atom_site_type_symbol
 _atom_site_label
 _atom_site_symmetry_multiplicity
 _atom_site_fract_x
 _atom_site_fract_y
 _atom_site_fract_z
 _atom_site_occupancy
  Pr  Pr0  1  0.000000  0.589193  0.500001  1
  Th  Th1  1  0.585534  0.999404  0.500001  1
  Th  Th2  1  0.414466  0.413871  0.500001  1
  Ge  Ge3  1  0.239853  0.995575  0.000000  1
  Ge  Ge4  1  0.000000  0.250489  0.000000  1
  Ge  Ge5  1  0.760147  0.755721  0.000000  1
  Rh  Rh6  1  0.649643  0.318208  0.000000  1
  Rh  Rh7  1  0.350357  0.668565  0.000000  1
  Rh  Rh8  1  0.000000  0.008974  0.500001  1
