# generated using pymatgen
data_Dy2U2Ga12Ru
_symmetry_space_group_name_H-M   'P 1'
_cell_length_a   7.44015617
_cell_length_b   7.49140053
_cell_length_c   7.49140026
_cell_angle_alpha   109.93414432
_cell_angle_beta   109.37803959
_cell_angle_gamma   109.37805635
_symmetry_Int_Tables_number   1
_chemical_formula_structural   Dy2U2Ga12Ru
_chemical_formula_sum   'Dy2 U2 Ga12 Ru1'
_cell_volume   320.32043581
_cell_formula_units_Z   1
loop_
 _symmetry_equiv_pos_site_id
 _symmetry_equiv_pos_as_xyz
  1  'x, y, z'
loop_
 _atom_site_type_symbol
 _atom_site_label
 _atom_site_symmetry_multiplicity
 _atom_site_fract_x
 _atom_site_fract_y
 _atom_site_fract_z
 _atom_site_occupancy
  Dy  Dy0  1  0.000000  0.000000  0.500000  1
  Dy  Dy1  1  0.000000  0.500000  0.000000  1
  U  U2  1  0.500000  0.500000  0.500000  1
  U  U3  1  0.500000  0.000000  0.000000  1
  Ga  Ga4  1  0.500000  0.750000  0.250000  1
  Ga  Ga5  1  0.500000  0.250000  0.750000  1
  Ga  Ga6  1  0.250190  0.500991  0.749199  1
  Ga  Ga7  1  0.749810  0.499009  0.250801  1
  Ga  Ga8  1  0.749810  0.250801  0.499009  1
  Ga  Ga9  1  0.250190  0.749199  0.500991  1
  Ga  Ga10  1  0.000000  0.290041  0.290041  1
  Ga  Ga11  1  0.000000  0.709959  0.709959  1
  Ga  Ga12  1  0.292670  0.002779  0.289891  1
  Ga  Ga13  1  0.707330  0.997221  0.710109  1
  Ga  Ga14  1  0.292670  0.289891  0.002779  1
  Ga  Ga15  1  0.707330  0.710109  0.997221  1
  Ru  Ru16  1  0.000000  0.000000  0.000000  1
