# generated using pymatgen
data_PrSb12OsRu2Pt
_symmetry_space_group_name_H-M   'P 1'
_cell_length_a   8.17972187
_cell_length_b   8.18339232
_cell_length_c   8.17263150
_cell_angle_alpha   109.45518411
_cell_angle_beta   109.37685253
_cell_angle_gamma   109.45760165
_symmetry_Int_Tables_number   1
_chemical_formula_structural   PrSb12OsRu2Pt
_chemical_formula_sum   'Pr1 Sb12 Os1 Ru2 Pt1'
_cell_volume   421.76903175
_cell_formula_units_Z   1
loop_
 _symmetry_equiv_pos_site_id
 _symmetry_equiv_pos_as_xyz
  1  'x, y, z'
loop_
 _atom_site_type_symbol
 _atom_site_label
 _atom_site_symmetry_multiplicity
 _atom_site_fract_x
 _atom_site_fract_y
 _atom_site_fract_z
 _atom_site_occupancy
  Pr  Pr0  1  0.000000  0.000000  0.000000  1
  Sb  Sb1  1  0.662204  0.849915  0.505120  1
  Sb  Sb2  1  0.337796  0.150085  0.494880  1
  Sb  Sb3  1  0.841303  0.179115  0.335944  1
  Sb  Sb4  1  0.820645  0.662550  0.157323  1
  Sb  Sb5  1  0.849835  0.504902  0.663472  1
  Sb  Sb6  1  0.179355  0.337450  0.842677  1
  Sb  Sb7  1  0.158697  0.820885  0.664056  1
  Sb  Sb8  1  0.504968  0.663668  0.850009  1
  Sb  Sb9  1  0.495032  0.336332  0.149991  1
  Sb  Sb10  1  0.150165  0.495098  0.336528  1
  Sb  Sb11  1  0.336038  0.841642  0.178416  1
  Sb  Sb12  1  0.663962  0.158358  0.821584  1
  Os  Os13  1  0.000000  0.000000  0.500000  1
  Ru  Ru14  1  0.500000  0.000000  0.000000  1
  Ru  Ru15  1  0.000000  0.500000  0.000000  1
  Pt  Pt16  1  0.500000  0.500000  0.500000  1
