# generated using pymatgen
data_NdPAu2S3O16
_symmetry_space_group_name_H-M   'P 1'
_cell_length_a   6.64627533
_cell_length_b   6.38445137
_cell_length_c   9.11884204
_cell_angle_alpha   73.98857411
_cell_angle_beta   73.04311774
_cell_angle_gamma   87.79098267
_symmetry_Int_Tables_number   1
_chemical_formula_structural   NdPAu2S3O16
_chemical_formula_sum   'Nd1 P1 Au2 S3 O16'
_cell_volume   355.38822176
_cell_formula_units_Z   1
loop_
 _symmetry_equiv_pos_site_id
 _symmetry_equiv_pos_as_xyz
  1  'x, y, z'
loop_
 _atom_site_type_symbol
 _atom_site_label
 _atom_site_symmetry_multiplicity
 _atom_site_fract_x
 _atom_site_fract_y
 _atom_site_fract_z
 _atom_site_occupancy
  Nd  Nd0  1  0.001022  0.003685  0.987249  1
  P  P1  1  0.091943  0.593289  0.743819  1
  Au  Au2  1  0.999458  0.996206  0.500654  1
  Au  Au3  1  0.501246  0.501686  0.501610  1
  S  S4  1  0.593639  0.090462  0.744211  1
  S  S5  1  0.908963  0.407083  0.260610  1
  S  S6  1  0.404814  0.908498  0.252998  1
  O  O7  1  0.338294  0.641140  0.668573  1
  O  O8  1  0.635930  0.337354  0.672123  1
  O  O9  1  0.671365  0.358323  0.330875  1
  O  O10  1  0.368227  0.661363  0.328370  1
  O  O11  1  0.028971  0.729706  0.861839  1
  O  O12  1  0.704237  0.030478  0.864549  1
  O  O13  1  0.977367  0.284077  0.143341  1
  O  O14  1  0.288151  0.961564  0.136102  1
  O  O15  1  0.984147  0.674037  0.604709  1
  O  O16  1  0.682419  0.978530  0.610906  1
  O  O17  1  0.011366  0.326508  0.395328  1
  O  O18  1  0.316066  0.020810  0.386423  1
  O  O19  1  0.036332  0.349676  0.810328  1
  O  O20  1  0.369477  0.033030  0.800568  1
  O  O21  1  0.957923  0.641313  0.202033  1
  O  O22  1  0.628643  0.971182  0.192785  1
