# generated using pymatgen
data_Tl3Ga(SO4)6
_symmetry_space_group_name_H-M   'P 1'
_cell_length_a   8.67139033
_cell_length_b   8.67065480
_cell_length_c   9.36287300
_cell_angle_alpha   62.39810595
_cell_angle_beta   62.42953451
_cell_angle_gamma   60.04712107
_symmetry_Int_Tables_number   1
_chemical_formula_structural   Tl3Ga(SO4)6
_chemical_formula_sum   'Tl3 Ga1 S6 O24'
_cell_volume   515.36671138
_cell_formula_units_Z   1
loop_
 _symmetry_equiv_pos_site_id
 _symmetry_equiv_pos_as_xyz
  1  'x, y, z'
loop_
 _atom_site_type_symbol
 _atom_site_label
 _atom_site_symmetry_multiplicity
 _atom_site_fract_x
 _atom_site_fract_y
 _atom_site_fract_z
 _atom_site_occupancy
  Tl  Tl0  1  0.644465  0.643796  0.067950  1
  Tl  Tl1  1  0.353377  0.353230  0.939831  1
  Tl  Tl2  1  0.153006  0.153234  0.541449  1
  Ga  Ga3  1  0.842810  0.842996  0.471121  1
  S  S4  1  0.745304  0.467321  0.742964  1
  S  S5  1  0.043944  0.745405  0.743378  1
  S  S6  1  0.562850  0.953792  0.254808  1
  S  S7  1  0.954061  0.228453  0.254849  1
  S  S8  1  0.228509  0.563246  0.254550  1
  S  S9  1  0.467424  0.043979  0.743011  1
  O  O10  1  0.922877  0.680193  0.916310  1
  O  O11  1  0.482425  0.922420  0.915315  1
  O  O12  1  0.674585  0.970365  0.325521  1
  O  O13  1  0.370546  0.968551  0.372897  1
  O  O14  1  0.003832  0.946520  0.705624  1
  O  O15  1  0.718181  0.655453  0.613055  1
  O  O16  1  0.679453  0.482401  0.915222  1
  O  O17  1  0.657166  0.765931  0.229123  1
  O  O18  1  0.946223  0.343659  0.706449  1
  O  O19  1  0.241928  0.631200  0.742485  1
  O  O20  1  0.631173  0.383784  0.742586  1
  O  O21  1  0.011337  0.717576  0.614862  1
  O  O22  1  0.968620  0.288909  0.372379  1
  O  O23  1  0.347826  0.658228  0.227756  1
  O  O24  1  0.766500  0.347235  0.228485  1
  O  O25  1  0.029797  0.674673  0.325723  1
  O  O26  1  0.384034  0.241943  0.742474  1
  O  O27  1  0.247607  0.556353  0.090379  1
  O  O28  1  0.288516  0.371039  0.372898  1
  O  O29  1  0.970419  0.029477  0.326596  1
  O  O30  1  0.655497  0.012809  0.613267  1
  O  O31  1  0.343680  0.003186  0.706365  1
  O  O32  1  0.556558  0.104982  0.090047  1
  O  O33  1  0.105470  0.247658  0.090270  1
