# generated using pymatgen
data_PaInI6
_symmetry_space_group_name_H-M   'P 1'
_cell_length_a   8.39623898
_cell_length_b   8.40917273
_cell_length_c   8.70553224
_cell_angle_alpha   89.80258529
_cell_angle_beta   118.24310856
_cell_angle_gamma   119.79012068
_symmetry_Int_Tables_number   1
_chemical_formula_structural   PaInI6
_chemical_formula_sum   'Pa1 In1 I6'
_cell_volume   447.83319604
_cell_formula_units_Z   1
loop_
 _symmetry_equiv_pos_site_id
 _symmetry_equiv_pos_as_xyz
  1  'x, y, z'
loop_
 _atom_site_type_symbol
 _atom_site_label
 _atom_site_symmetry_multiplicity
 _atom_site_fract_x
 _atom_site_fract_y
 _atom_site_fract_z
 _atom_site_occupancy
  Pa  Pa0  1  0.579229  0.289496  0.868880  1
  In  In1  1  0.239542  0.622101  0.859982  1
  I  I2  1  0.458779  0.070118  0.105004  1
  I  I3  1  0.136144  0.210020  0.638832  1
  I  I4  1  0.709773  0.500949  0.633699  1
  I  I5  1  0.434262  0.930045  0.637640  1
  I  I6  1  0.711878  0.642471  0.102188  1
  I  I7  1  0.029390  0.384302  0.102273  1
