# generated using pymatgen
data_Tb8Sc12Si15Au
_symmetry_space_group_name_H-M   'P 1'
_cell_length_a   7.14079544
_cell_length_b   7.39450603
_cell_length_c   14.09230479
_cell_angle_alpha   89.94786279
_cell_angle_beta   89.70600813
_cell_angle_gamma   90.17076458
_symmetry_Int_Tables_number   1
_chemical_formula_structural   Tb8Sc12Si15Au
_chemical_formula_sum   'Tb8 Sc12 Si15 Au1'
_cell_volume   744.09768801
_cell_formula_units_Z   1
loop_
 _symmetry_equiv_pos_site_id
 _symmetry_equiv_pos_as_xyz
  1  'x, y, z'
loop_
 _atom_site_type_symbol
 _atom_site_label
 _atom_site_symmetry_multiplicity
 _atom_site_fract_x
 _atom_site_fract_y
 _atom_site_fract_z
 _atom_site_occupancy
  Tb  Tb0  1  0.012676  0.175035  0.097722  1
  Tb  Tb1  1  0.987056  0.825315  0.903146  1
  Tb  Tb2  1  0.486969  0.675912  0.903005  1
  Tb  Tb3  1  0.987591  0.828312  0.597874  1
  Tb  Tb4  1  0.512494  0.324443  0.097018  1
  Tb  Tb5  1  0.010897  0.173680  0.399946  1
  Tb  Tb6  1  0.511005  0.324946  0.400726  1
  Tb  Tb7  1  0.490703  0.675742  0.599122  1
  Sc  Sc8  1  0.162224  0.501049  0.750945  1
  Sc  Sc9  1  0.838150  0.498622  0.250649  1
  Sc  Sc10  1  0.338492  0.000731  0.249393  1
  Sc  Sc11  1  0.663295  0.996660  0.750830  1
  Sc  Sc12  1  0.336908  0.175797  0.625571  1
  Sc  Sc13  1  0.667730  0.823736  0.374091  1
  Sc  Sc14  1  0.169241  0.674060  0.373815  1
  Sc  Sc15  1  0.670461  0.824013  0.124950  1
  Sc  Sc16  1  0.828053  0.325205  0.625143  1
  Sc  Sc17  1  0.328723  0.175389  0.875848  1
  Sc  Sc18  1  0.829845  0.322692  0.875730  1
  Sc  Sc19  1  0.169794  0.676748  0.124952  1
  Si  Si20  1  0.034878  0.119848  0.750743  1
  Si  Si21  1  0.966608  0.882551  0.249439  1
  Si  Si22  1  0.466669  0.617461  0.248756  1
  Si  Si23  1  0.534878  0.383293  0.751925  1
  Si  Si24  1  0.284558  0.875109  0.750651  1
  Si  Si25  1  0.713434  0.126408  0.249109  1
  Si  Si26  1  0.214890  0.372850  0.248496  1
  Si  Si27  1  0.786643  0.625752  0.752217  1
  Si  Si28  1  0.836034  0.537521  0.459209  1
  Si  Si29  1  0.342468  0.963314  0.460128  1
  Si  Si30  1  0.844522  0.535662  0.038899  1
  Si  Si31  1  0.656416  0.036121  0.538244  1
  Si  Si32  1  0.155060  0.464153  0.961412  1
  Si  Si33  1  0.656093  0.035119  0.960860  1
  Si  Si34  1  0.343885  0.964223  0.039267  1
  Au  Au35  1  0.160655  0.462529  0.540169  1
