# generated using pymatgen
data_TbY7(Si4W3)4
_symmetry_space_group_name_H-M   'P 1'
_cell_length_a   6.78476301
_cell_length_b   6.95107130
_cell_length_c   12.91928474
_cell_angle_alpha   90.04848715
_cell_angle_beta   89.97815879
_cell_angle_gamma   89.98242993
_symmetry_Int_Tables_number   1
_chemical_formula_structural   TbY7(Si4W3)4
_chemical_formula_sum   'Tb1 Y7 Si16 W12'
_cell_volume   609.29089516
_cell_formula_units_Z   1
loop_
 _symmetry_equiv_pos_site_id
 _symmetry_equiv_pos_as_xyz
  1  'x, y, z'
loop_
 _atom_site_type_symbol
 _atom_site_label
 _atom_site_symmetry_multiplicity
 _atom_site_fract_x
 _atom_site_fract_y
 _atom_site_fract_z
 _atom_site_occupancy
  Tb  Tb0  1  0.995457  0.832231  0.593276  1
  Y  Y1  1  0.495718  0.667471  0.593480  1
  Y  Y2  1  0.996003  0.832531  0.906505  1
  Y  Y3  1  0.504514  0.332465  0.093640  1
  Y  Y4  1  0.004189  0.167559  0.406687  1
  Y  Y5  1  0.504064  0.332574  0.406705  1
  Y  Y6  1  0.004081  0.167856  0.093582  1
  Y  Y7  1  0.495697  0.667445  0.906405  1
  Si  Si8  1  0.660966  0.957377  0.452916  1
  Si  Si9  1  0.161343  0.542754  0.047243  1
  Si  Si10  1  0.339191  0.043037  0.952631  1
  Si  Si11  1  0.838624  0.456838  0.547211  1
  Si  Si12  1  0.338699  0.042523  0.547118  1
  Si  Si13  1  0.838938  0.457382  0.952633  1
  Si  Si14  1  0.661119  0.957001  0.047314  1
  Si  Si15  1  0.161142  0.542914  0.452859  1
  Si  Si16  1  0.463666  0.369550  0.750035  1
  Si  Si17  1  0.963966  0.129925  0.749653  1
  Si  Si18  1  0.536276  0.630397  0.249976  1
  Si  Si19  1  0.036223  0.870023  0.250119  1
  Si  Si20  1  0.696998  0.867353  0.749909  1
  Si  Si21  1  0.196557  0.632225  0.749733  1
  Si  Si22  1  0.303131  0.132756  0.250138  1
  Si  Si23  1  0.803129  0.367734  0.250317  1
  W  W24  1  0.667737  0.163199  0.625886  1
  W  W25  1  0.167714  0.336452  0.874081  1
  W  W26  1  0.331942  0.836910  0.125595  1
  W  W27  1  0.831969  0.663552  0.374494  1
  W  W28  1  0.332065  0.836552  0.374227  1
  W  W29  1  0.832398  0.663407  0.125860  1
  W  W30  1  0.668422  0.163257  0.874349  1
  W  W31  1  0.168071  0.336572  0.625531  1
  W  W32  1  0.833851  0.498740  0.749767  1
  W  W33  1  0.333897  0.001138  0.749763  1
  W  W34  1  0.166174  0.501441  0.250132  1
  W  W35  1  0.666069  0.998855  0.250228  1
