# generated using pymatgen
data_LiYb3VO6
_symmetry_space_group_name_H-M   'P 1'
_cell_length_a   6.21452476
_cell_length_b   6.21452636
_cell_length_c   6.21452700
_cell_angle_alpha   91.64940254
_cell_angle_beta   91.64936607
_cell_angle_gamma   91.64934866
_symmetry_Int_Tables_number   1
_chemical_formula_structural   LiYb3VO6
_chemical_formula_sum   'Li2 Yb6 V2 O12'
_cell_volume   239.70289993
_cell_formula_units_Z   2
loop_
 _symmetry_equiv_pos_site_id
 _symmetry_equiv_pos_as_xyz
  1  'x, y, z'
loop_
 _atom_site_type_symbol
 _atom_site_label
 _atom_site_symmetry_multiplicity
 _atom_site_fract_x
 _atom_site_fract_y
 _atom_site_fract_z
 _atom_site_occupancy
  Li  Li0  1  0.250000  0.250000  0.250000  1
  Li  Li1  1  0.750000  0.750000  0.750000  1
  Yb  Yb2  1  0.612532  0.250000  0.887467  1
  Yb  Yb3  1  0.387468  0.750000  0.112533  1
  Yb  Yb4  1  0.887467  0.612532  0.250000  1
  Yb  Yb5  1  0.112533  0.387468  0.750000  1
  Yb  Yb6  1  0.250000  0.887467  0.612532  1
  Yb  Yb7  1  0.750000  0.112533  0.387468  1
  V  V8  1  0.000000  0.000000  0.000000  1
  V  V9  1  0.500000  0.500001  0.500000  1
  O  O10  1  0.211332  0.552194  0.419782  1
  O  O11  1  0.788668  0.447806  0.580218  1
  O  O12  1  0.080216  0.947807  0.288668  1
  O  O13  1  0.919783  0.052194  0.711332  1
  O  O14  1  0.419782  0.211332  0.552195  1
  O  O15  1  0.580218  0.788667  0.447806  1
  O  O16  1  0.947806  0.288668  0.080216  1
  O  O17  1  0.052194  0.711332  0.919784  1
  O  O18  1  0.552195  0.419782  0.211332  1
  O  O19  1  0.447806  0.580218  0.788668  1
  O  O20  1  0.288669  0.080216  0.947806  1
  O  O21  1  0.711331  0.919784  0.052194  1
