# generated using pymatgen
data_Er8Lu2Sn5Sb
_symmetry_space_group_name_H-M   'P 1'
_cell_length_a   8.86069600
_cell_length_b   8.87700621
_cell_length_c   6.43330340
_cell_angle_alpha   89.96494180
_cell_angle_beta   90.00000000
_cell_angle_gamma   119.93923937
_symmetry_Int_Tables_number   1
_chemical_formula_structural   Er8Lu2Sn5Sb
_chemical_formula_sum   'Er8 Lu2 Sn5 Sb1'
_cell_volume   438.49484810
_cell_formula_units_Z   1
loop_
 _symmetry_equiv_pos_site_id
 _symmetry_equiv_pos_as_xyz
  1  'x, y, z'
loop_
 _atom_site_type_symbol
 _atom_site_label
 _atom_site_symmetry_multiplicity
 _atom_site_fract_x
 _atom_site_fract_y
 _atom_site_fract_z
 _atom_site_occupancy
  Er  Er0  1  0.997225  0.760379  0.749771  1
  Er  Er1  1  0.001101  0.238570  0.249883  1
  Er  Er2  1  0.762531  0.761430  0.250117  1
  Er  Er3  1  0.762148  0.000000  0.750000  1
  Er  Er4  1  0.236846  0.239621  0.750229  1
  Er  Er5  1  0.238492  0.000000  0.250000  1
  Er  Er6  1  0.667317  0.333701  0.499775  1
  Er  Er7  1  0.333616  0.666299  0.000225  1
  Lu  Lu8  1  0.333618  0.666040  0.499493  1
  Lu  Lu9  1  0.667579  0.333960  0.000507  1
  Sn  Sn10  1  0.395410  0.394150  0.249872  1
  Sn  Sn11  1  0.001260  0.605850  0.250128  1
  Sn  Sn12  1  0.999530  0.395203  0.749940  1
  Sn  Sn13  1  0.604328  0.604797  0.750060  1
  Sn  Sn14  1  0.605739  0.000000  0.250000  1
  Sb  Sb15  1  0.393259  0.000000  0.750000  1
