# generated using pymatgen
data_Tb4SmGdTa2O14
_symmetry_space_group_name_H-M   'P 1'
_cell_length_a   6.50044744
_cell_length_b   6.50044782
_cell_length_c   7.56638248
_cell_angle_alpha   90.03340800
_cell_angle_beta   89.96658859
_cell_angle_gamma   109.30899553
_symmetry_Int_Tables_number   1
_chemical_formula_structural   Tb4SmGdTa2O14
_chemical_formula_sum   'Tb4 Sm1 Gd1 Ta2 O14'
_cell_volume   301.73885295
_cell_formula_units_Z   1
loop_
 _symmetry_equiv_pos_site_id
 _symmetry_equiv_pos_as_xyz
  1  'x, y, z'
loop_
 _atom_site_type_symbol
 _atom_site_label
 _atom_site_symmetry_multiplicity
 _atom_site_fract_x
 _atom_site_fract_y
 _atom_site_fract_z
 _atom_site_occupancy
  Tb  Tb0  1  0.534260  0.000237  0.749546  1
  Tb  Tb1  1  0.000237  0.534260  0.250454  1
  Tb  Tb2  1  0.465740  0.999763  0.250454  1
  Tb  Tb3  1  0.999763  0.465740  0.749546  1
  Sm  Sm4  1  0.500000  0.500000  0.000000  1
  Gd  Gd5  1  0.500000  0.500000  0.500000  1
  Ta  Ta6  1  0.000000  0.000000  0.500000  1
  Ta  Ta7  1  0.000000  0.000000  0.000000  1
  O  O8  1  0.679892  0.929521  0.468371  1
  O  O9  1  0.929521  0.679892  0.531629  1
  O  O10  1  0.679878  0.929683  0.031583  1
  O  O11  1  0.929683  0.679878  0.968417  1
  O  O12  1  0.320108  0.070479  0.531629  1
  O  O13  1  0.070479  0.320108  0.468371  1
  O  O14  1  0.320122  0.070317  0.968417  1
  O  O15  1  0.070317  0.320122  0.031583  1
  O  O16  1  0.936117  0.063883  0.750142  1
  O  O17  1  0.063883  0.936117  0.249858  1
  O  O18  1  0.368172  0.631827  0.748321  1
  O  O19  1  0.631827  0.368172  0.251679  1
  O  O20  1  0.638271  0.361729  0.748664  1
  O  O21  1  0.361729  0.638271  0.251336  1
