# generated using pymatgen
data_TbTm3Re4F28
_symmetry_space_group_name_H-M   'P 1'
_cell_length_a   5.53387038
_cell_length_b   8.85360133
_cell_length_c   11.98755457
_cell_angle_alpha   62.60209198
_cell_angle_beta   90.05277188
_cell_angle_gamma   90.00915493
_symmetry_Int_Tables_number   1
_chemical_formula_structural   TbTm3Re4F28
_chemical_formula_sum   'Tb1 Tm3 Re4 F28'
_cell_volume   521.44706099
_cell_formula_units_Z   1
loop_
 _symmetry_equiv_pos_site_id
 _symmetry_equiv_pos_as_xyz
  1  'x, y, z'
loop_
 _atom_site_type_symbol
 _atom_site_label
 _atom_site_symmetry_multiplicity
 _atom_site_fract_x
 _atom_site_fract_y
 _atom_site_fract_z
 _atom_site_occupancy
  Tb  Tb0  1  0.241833  0.815854  0.764056  1
  Tm  Tm1  1  0.257998  0.816034  0.263834  1
  Tm  Tm2  1  0.740930  0.187109  0.736024  1
  Tm  Tm3  1  0.758235  0.184444  0.236228  1
  Re  Re4  1  0.757904  0.726236  0.044924  1
  Re  Re5  1  0.241557  0.271116  0.958315  1
  Re  Re6  1  0.258925  0.275031  0.456033  1
  Re  Re7  1  0.742510  0.726387  0.540694  1
  F  F8  1  0.942999  0.707584  0.411757  1
  F  F9  1  0.057330  0.292872  0.585126  1
  F  F10  1  0.443871  0.291204  0.086479  1
  F  F11  1  0.559876  0.707019  0.915224  1
  F  F12  1  0.467034  0.728750  0.140108  1
  F  F13  1  0.531854  0.271338  0.861694  1
  F  F14  1  0.969216  0.271483  0.360056  1
  F  F15  1  0.034150  0.726683  0.635727  1
  F  F16  1  0.953535  0.745319  0.176701  1
  F  F17  1  0.044964  0.253496  0.825919  1
  F  F18  1  0.455653  0.255238  0.324607  1
  F  F19  1  0.551425  0.743414  0.674157  1
  F  F20  1  0.771587  0.475303  0.143311  1
  F  F21  1  0.226564  0.520838  0.858911  1
  F  F22  1  0.273108  0.525411  0.357118  1
  F  F23  1  0.727743  0.475882  0.641078  1
  F  F24  1  0.940642  0.275504  0.047974  1
  F  F25  1  0.059201  0.721096  0.956829  1
  F  F26  1  0.439134  0.723644  0.452050  1
  F  F27  1  0.559565  0.277668  0.546604  1
  F  F28  1  0.741670  0.976983  0.444330  1
  F  F29  1  0.259616  0.024710  0.552373  1
  F  F30  1  0.240625  0.020743  0.055538  1
  F  F31  1  0.759528  0.976433  0.946375  1
  F  F32  1  0.580910  0.971122  0.232577  1
  F  F33  1  0.417129  0.035812  0.768227  1
  F  F34  1  0.081157  0.029284  0.267496  1
  F  F35  1  0.910024  0.972959  0.731545  1
