# generated using pymatgen
data_Gd6Cr3FeC12
_symmetry_space_group_name_H-M   'P 1'
_cell_length_a   8.15119500
_cell_length_b   8.15119617
_cell_length_c   5.06150200
_cell_angle_alpha   90.00000000
_cell_angle_beta   90.00000000
_cell_angle_gamma   119.99999229
_symmetry_Int_Tables_number   1
_chemical_formula_structural   Gd6Cr3FeC12
_chemical_formula_sum   'Gd6 Cr3 Fe1 C12'
_cell_volume   291.24112908
_cell_formula_units_Z   1
loop_
 _symmetry_equiv_pos_site_id
 _symmetry_equiv_pos_as_xyz
  1  'x, y, z'
loop_
 _atom_site_type_symbol
 _atom_site_label
 _atom_site_symmetry_multiplicity
 _atom_site_fract_x
 _atom_site_fract_y
 _atom_site_fract_z
 _atom_site_occupancy
  Gd  Gd0  1  0.621951  0.686729  0.750000  1
  Gd  Gd1  1  0.932917  0.617412  0.250000  1
  Gd  Gd2  1  0.684495  0.067083  0.250000  1
  Gd  Gd3  1  0.313271  0.935221  0.750000  1
  Gd  Gd4  1  0.064779  0.378049  0.750000  1
  Gd  Gd5  1  0.382588  0.315505  0.250000  1
  Cr  Cr6  1  0.000000  0.000000  0.499590  1
  Cr  Cr7  1  0.000000  0.000000  0.000410  1
  Cr  Cr8  1  0.666667  0.333333  0.750000  1
  Fe  Fe9  1  0.333333  0.666667  0.250000  1
  C  C10  1  0.961291  0.776170  0.750000  1
  C  C11  1  0.190545  0.958321  0.250000  1
  C  C12  1  0.767777  0.809455  0.250000  1
  C  C13  1  0.223830  0.185122  0.750000  1
  C  C14  1  0.814878  0.038709  0.750000  1
  C  C15  1  0.041679  0.232223  0.250000  1
  C  C16  1  0.864000  0.580021  0.750000  1
  C  C17  1  0.289263  0.864378  0.250000  1
  C  C18  1  0.575114  0.710737  0.250000  1
  C  C19  1  0.419979  0.283979  0.750000  1
  C  C20  1  0.135622  0.424886  0.250000  1
  C  C21  1  0.716021  0.136000  0.750000  1
