# generated using pymatgen
data_TbNdEr(Si3Pd10)2
_symmetry_space_group_name_H-M   'P 1'
_cell_length_a   8.73964754
_cell_length_b   8.73965953
_cell_length_c   8.73965800
_cell_angle_alpha   59.99999055
_cell_angle_beta   59.99980605
_cell_angle_gamma   59.99987447
_symmetry_Int_Tables_number   1
_chemical_formula_structural   TbNdEr(Si3Pd10)2
_chemical_formula_sum   'Tb1 Nd1 Er1 Si6 Pd20'
_cell_volume   472.02694837
_cell_formula_units_Z   1
loop_
 _symmetry_equiv_pos_site_id
 _symmetry_equiv_pos_as_xyz
  1  'x, y, z'
loop_
 _atom_site_type_symbol
 _atom_site_label
 _atom_site_symmetry_multiplicity
 _atom_site_fract_x
 _atom_site_fract_y
 _atom_site_fract_z
 _atom_site_occupancy
  Tb  Tb0  1  0.750001  0.750000  0.749999  1
  Nd  Nd1  1  0.250002  0.249996  0.249999  1
  Er  Er2  1  0.000003  0.000000  0.999999  1
  Si  Si3  1  0.733178  0.266821  0.266822  1
  Si  Si4  1  0.266820  0.733180  0.733179  1
  Si  Si5  1  0.266819  0.733181  0.266820  1
  Si  Si6  1  0.733179  0.266820  0.733181  1
  Si  Si7  1  0.266821  0.266819  0.733180  1
  Si  Si8  1  0.733179  0.733180  0.266821  1
  Pd  Pd9  1  0.345813  0.999199  0.999199  1
  Pd  Pd10  1  0.655790  0.999198  0.999199  1
  Pd  Pd11  1  0.999201  0.345810  0.655788  1
  Pd  Pd12  1  0.999198  0.655790  0.345813  1
  Pd  Pd13  1  0.999202  0.345810  0.999201  1
  Pd  Pd14  1  0.655788  0.999202  0.345810  1
  Pd  Pd15  1  0.999199  0.655791  0.999198  1
  Pd  Pd16  1  0.345810  0.999200  0.655790  1
  Pd  Pd17  1  0.999198  0.999200  0.345811  1
  Pd  Pd18  1  0.999198  0.999200  0.655790  1
  Pd  Pd19  1  0.655791  0.345809  0.999201  1
  Pd  Pd20  1  0.345812  0.655791  0.999199  1
  Pd  Pd21  1  0.385896  0.385899  0.385895  1
  Pd  Pd22  1  0.616461  0.616459  0.616463  1
  Pd  Pd23  1  0.385898  0.385898  0.842309  1
  Pd  Pd24  1  0.385895  0.842312  0.385896  1
  Pd  Pd25  1  0.616460  0.616462  0.150614  1
  Pd  Pd26  1  0.616462  0.150615  0.616464  1
  Pd  Pd27  1  0.842307  0.385897  0.385898  1
  Pd  Pd28  1  0.150617  0.616460  0.616460  1
