# generated using pymatgen
data_Tb3ZnIn3GaCu
_symmetry_space_group_name_H-M   'P 1'
_cell_length_a   7.28887200
_cell_length_b   7.28887136
_cell_length_c   4.35434300
_cell_angle_alpha   90.00000000
_cell_angle_beta   90.00000000
_cell_angle_gamma   120.00001198
_symmetry_Int_Tables_number   1
_chemical_formula_structural   Tb3ZnIn3GaCu
_chemical_formula_sum   'Tb3 Zn1 In3 Ga1 Cu1'
_cell_volume   200.34283942
_cell_formula_units_Z   1
loop_
 _symmetry_equiv_pos_site_id
 _symmetry_equiv_pos_as_xyz
  1  'x, y, z'
loop_
 _atom_site_type_symbol
 _atom_site_label
 _atom_site_symmetry_multiplicity
 _atom_site_fract_x
 _atom_site_fract_y
 _atom_site_fract_z
 _atom_site_occupancy
  Tb  Tb0  1  0.001513  0.588599  0.500000  1
  Tb  Tb1  1  0.411401  0.412913  0.500000  1
  Tb  Tb2  1  0.587087  0.998487  0.500000  1
  Zn  Zn3  1  0.666667  0.333333  0.000000  1
  In  In4  1  0.756538  0.748851  0.000000  1
  In  In5  1  0.992313  0.243462  0.000000  1
  In  In6  1  0.251149  0.007687  0.000000  1
  Ga  Ga7  1  0.333333  0.666667  0.000000  1
  Cu  Cu8  1  0.000000  0.000000  0.500000  1
