# generated using pymatgen
data_Y12Al2GaSi5Rh8
_symmetry_space_group_name_H-M   'P 1'
_cell_length_a   5.57661000
_cell_length_b   7.91560462
_cell_length_c   13.22073900
_cell_angle_alpha   90.22833529
_cell_angle_beta   90.00000000
_cell_angle_gamma   90.00000000
_symmetry_Int_Tables_number   1
_chemical_formula_structural   Y12Al2GaSi5Rh8
_chemical_formula_sum   'Y12 Al2 Ga1 Si5 Rh8'
_cell_volume   583.58839792
_cell_formula_units_Z   1
loop_
 _symmetry_equiv_pos_site_id
 _symmetry_equiv_pos_as_xyz
  1  'x, y, z'
loop_
 _atom_site_type_symbol
 _atom_site_label
 _atom_site_symmetry_multiplicity
 _atom_site_fract_x
 _atom_site_fract_y
 _atom_site_fract_z
 _atom_site_occupancy
  Y  Y0  1  0.144835  0.603067  0.104189  1
  Y  Y1  1  0.144835  0.896933  0.895811  1
  Y  Y2  1  0.857613  0.105485  0.397555  1
  Y  Y3  1  0.857613  0.394515  0.602445  1
  Y  Y4  1  0.856101  0.398811  0.896138  1
  Y  Y5  1  0.856101  0.101189  0.103862  1
  Y  Y6  1  0.143242  0.896614  0.602634  1
  Y  Y7  1  0.143242  0.603386  0.397366  1
  Y  Y8  1  0.367170  0.245641  0.252413  1
  Y  Y9  1  0.367170  0.254359  0.747587  1
  Y  Y10  1  0.633678  0.744646  0.252406  1
  Y  Y11  1  0.633678  0.755354  0.747594  1
  Al  Al12  1  0.375818  0.250000  0.000000  1
  Al  Al13  1  0.624578  0.750000  0.000000  1
  Ga  Ga14  1  0.631149  0.750000  0.500000  1
  Si  Si15  1  0.862098  0.391470  0.250738  1
  Si  Si16  1  0.862098  0.108530  0.749262  1
  Si  Si17  1  0.140666  0.890621  0.252374  1
  Si  Si18  1  0.140666  0.609379  0.747626  1
  Si  Si19  1  0.380609  0.250000  0.500000  1
  Rh  Rh20  1  0.641440  0.469944  0.094566  1
  Rh  Rh21  1  0.641440  0.030056  0.905434  1
  Rh  Rh22  1  0.356816  0.978790  0.408010  1
  Rh  Rh23  1  0.356816  0.521210  0.591990  1
  Rh  Rh24  1  0.356363  0.529646  0.905507  1
  Rh  Rh25  1  0.356363  0.970354  0.094493  1
  Rh  Rh26  1  0.633903  0.036968  0.593786  1
  Rh  Rh27  1  0.633903  0.463032  0.406214  1
