# generated using pymatgen
data_Tb3Al3HgGePd
_symmetry_space_group_name_H-M   'P 1'
_cell_length_a   7.11122100
_cell_length_b   7.11122122
_cell_length_c   4.32523800
_cell_angle_alpha   90.00000000
_cell_angle_beta   90.00000000
_cell_angle_gamma   120.00000364
_symmetry_Int_Tables_number   1
_chemical_formula_structural   Tb3Al3HgGePd
_chemical_formula_sum   'Tb3 Al3 Hg1 Ge1 Pd1'
_cell_volume   189.42137740
_cell_formula_units_Z   1
loop_
 _symmetry_equiv_pos_site_id
 _symmetry_equiv_pos_as_xyz
  1  'x, y, z'
loop_
 _atom_site_type_symbol
 _atom_site_label
 _atom_site_symmetry_multiplicity
 _atom_site_fract_x
 _atom_site_fract_y
 _atom_site_fract_z
 _atom_site_occupancy
  Tb  Tb0  1  0.006821  0.591027  0.500000  1
  Tb  Tb1  1  0.408973  0.415795  0.500000  1
  Tb  Tb2  1  0.584205  0.993179  0.500000  1
  Al  Al3  1  0.769103  0.768407  0.000000  1
  Al  Al4  1  0.231593  0.000696  0.000000  1
  Al  Al5  1  0.999304  0.230897  0.000000  1
  Hg  Hg6  1  0.666667  0.333333  0.000000  1
  Ge  Ge7  1  0.333333  0.666667  0.000000  1
  Pd  Pd8  1  0.000000  0.000000  0.500000  1
