# generated using pymatgen
data_Li3YHo2Si2Ag
_symmetry_space_group_name_H-M   'P 1'
_cell_length_a   7.17212645
_cell_length_b   7.17212591
_cell_length_c   4.16430700
_cell_angle_alpha   90.00000000
_cell_angle_beta   90.00000000
_cell_angle_gamma   120.07289632
_symmetry_Int_Tables_number   1
_chemical_formula_structural   Li3YHo2Si2Ag
_chemical_formula_sum   'Li3 Y1 Ho2 Si2 Ag1'
_cell_volume   185.37438922
_cell_formula_units_Z   1
loop_
 _symmetry_equiv_pos_site_id
 _symmetry_equiv_pos_as_xyz
  1  'x, y, z'
loop_
 _atom_site_type_symbol
 _atom_site_label
 _atom_site_symmetry_multiplicity
 _atom_site_fract_x
 _atom_site_fract_y
 _atom_site_fract_z
 _atom_site_occupancy
  Li  Li0  1  0.247961  0.999904  0.500000  1
  Li  Li1  1  0.752244  0.752244  0.500000  1
  Li  Li2  1  0.999904  0.247961  0.500000  1
  Y  Y3  1  0.431229  0.431229  0.000000  1
  Ho  Ho4  1  0.000111  0.568961  0.000000  1
  Ho  Ho5  1  0.568961  0.000111  0.000000  1
  Si  Si6  1  0.333068  0.667253  0.500000  1
  Si  Si7  1  0.667253  0.333068  0.500000  1
  Ag  Ag8  1  0.999269  0.999269  0.000000  1
