# generated using pymatgen
data_ReTcRu5Rh
_symmetry_space_group_name_H-M   'P 1'
_cell_length_a   5.49739100
_cell_length_b   5.48953285
_cell_length_c   4.34400800
_cell_angle_alpha   90.00000000
_cell_angle_beta   90.00000000
_cell_angle_gamma   120.04737025
_symmetry_Int_Tables_number   1
_chemical_formula_structural   ReTcRu5Rh
_chemical_formula_sum   'Re1 Tc1 Ru5 Rh1'
_cell_volume   113.47645560
_cell_formula_units_Z   1
loop_
 _symmetry_equiv_pos_site_id
 _symmetry_equiv_pos_as_xyz
  1  'x, y, z'
loop_
 _atom_site_type_symbol
 _atom_site_label
 _atom_site_symmetry_multiplicity
 _atom_site_fract_x
 _atom_site_fract_y
 _atom_site_fract_z
 _atom_site_occupancy
  Re  Re0  1  0.665029  0.330055  0.250000  1
  Tc  Tc1  1  0.335027  0.670056  0.750000  1
  Ru  Ru2  1  0.662966  0.834746  0.250000  1
  Ru  Ru3  1  0.171779  0.834746  0.250000  1
  Ru  Ru4  1  0.833556  0.667110  0.750000  1
  Ru  Ru5  1  0.332824  0.164318  0.750000  1
  Ru  Ru6  1  0.831495  0.164318  0.750000  1
  Rh  Rh7  1  0.167324  0.334648  0.250000  1
