# generated using pymatgen
data_Dy11ErCu2(Si4Ni)2
_symmetry_space_group_name_H-M   'P 1'
_cell_length_a   4.14132700
_cell_length_b   11.25622378
_cell_length_c   11.27009777
_cell_angle_alpha   90.08039513
_cell_angle_beta   90.00000000
_cell_angle_gamma   90.00000000
_symmetry_Int_Tables_number   1
_chemical_formula_structural   Dy11ErCu2(Si4Ni)2
_chemical_formula_sum   'Dy11 Er1 Cu2 Si8 Ni2'
_cell_volume   525.36301812
_cell_formula_units_Z   1
loop_
 _symmetry_equiv_pos_site_id
 _symmetry_equiv_pos_as_xyz
  1  'x, y, z'
loop_
 _atom_site_type_symbol
 _atom_site_label
 _atom_site_symmetry_multiplicity
 _atom_site_fract_x
 _atom_site_fract_y
 _atom_site_fract_z
 _atom_site_occupancy
  Dy  Dy0  1  0.250000  0.440825  0.377769  1
  Dy  Dy1  1  0.750000  0.936774  0.116986  1
  Dy  Dy2  1  0.750000  0.563278  0.617115  1
  Dy  Dy3  1  0.250000  0.119318  0.558304  1
  Dy  Dy4  1  0.250000  0.380354  0.057583  1
  Dy  Dy5  1  0.750000  0.873689  0.440696  1
  Dy  Dy6  1  0.750000  0.626406  0.940720  1
  Dy  Dy7  1  0.250000  0.804106  0.713987  1
  Dy  Dy8  1  0.250000  0.696141  0.213842  1
  Dy  Dy9  1  0.750000  0.196226  0.290523  1
  Dy  Dy10  1  0.750000  0.303196  0.790645  1
  Er  Er11  1  0.250000  0.058358  0.878000  1
  Cu  Cu12  1  0.250000  0.364521  0.630693  1
  Cu  Cu13  1  0.250000  0.135407  0.130194  1
  Si  Si14  1  0.250000  0.815725  0.975009  1
  Si  Si15  1  0.250000  0.684927  0.475316  1
  Si  Si16  1  0.750000  0.187466  0.023866  1
  Si  Si17  1  0.750000  0.311575  0.524606  1
  Si  Si18  1  0.250000  0.496584  0.805749  1
  Si  Si19  1  0.250000  0.003448  0.305662  1
  Si  Si20  1  0.750000  0.507294  0.195437  1
  Si  Si21  1  0.750000  0.993568  0.696612  1
  Ni  Ni22  1  0.750000  0.633785  0.370250  1
  Ni  Ni23  1  0.750000  0.867030  0.870433  1
