# generated using pymatgen
data_Ho11TmRu4
_symmetry_space_group_name_H-M   'P 1'
_cell_length_a   6.28288310
_cell_length_b   7.30682822
_cell_length_c   9.11001434
_cell_angle_alpha   90.00315599
_cell_angle_beta   90.06207256
_cell_angle_gamma   89.97227142
_symmetry_Int_Tables_number   1
_chemical_formula_structural   Ho11TmRu4
_chemical_formula_sum   'Ho11 Tm1 Ru4'
_cell_volume   418.22176555
_cell_formula_units_Z   1
loop_
 _symmetry_equiv_pos_site_id
 _symmetry_equiv_pos_as_xyz
  1  'x, y, z'
loop_
 _atom_site_type_symbol
 _atom_site_label
 _atom_site_symmetry_multiplicity
 _atom_site_fract_x
 _atom_site_fract_y
 _atom_site_fract_z
 _atom_site_occupancy
  Ho  Ho0  1  0.633244  0.041001  0.250178  1
  Ho  Ho1  1  0.367033  0.959263  0.749859  1
  Ho  Ho2  1  0.132954  0.458960  0.749765  1
  Ho  Ho3  1  0.866681  0.540712  0.250225  1
  Ho  Ho4  1  0.169435  0.176403  0.063873  1
  Ho  Ho5  1  0.830551  0.823699  0.936079  1
  Ho  Ho6  1  0.669325  0.323597  0.935806  1
  Ho  Ho7  1  0.830416  0.823625  0.563845  1
  Ho  Ho8  1  0.330721  0.676328  0.063844  1
  Ho  Ho9  1  0.169446  0.176486  0.436301  1
  Ho  Ho10  1  0.330891  0.676077  0.436322  1
  Tm  Tm11  1  0.669280  0.323883  0.564067  1
  Ru  Ru12  1  0.461630  0.384942  0.250410  1
  Ru  Ru13  1  0.538768  0.614654  0.749754  1
  Ru  Ru14  1  0.960977  0.115288  0.749738  1
  Ru  Ru15  1  0.038650  0.885082  0.249936  1
