# generated using pymatgen
data_LiLa16Hg3Rh4
_symmetry_space_group_name_H-M   'P 1'
_cell_length_a   10.10413469
_cell_length_b   10.10413533
_cell_length_c   10.10413473
_cell_angle_alpha   59.90946548
_cell_angle_beta   59.90946273
_cell_angle_gamma   59.90946636
_symmetry_Int_Tables_number   1
_chemical_formula_structural   LiLa16Hg3Rh4
_chemical_formula_sum   'Li1 La16 Hg3 Rh4'
_cell_volume   727.92985235
_cell_formula_units_Z   1
loop_
 _symmetry_equiv_pos_site_id
 _symmetry_equiv_pos_as_xyz
  1  'x, y, z'
loop_
 _atom_site_type_symbol
 _atom_site_label
 _atom_site_symmetry_multiplicity
 _atom_site_fract_x
 _atom_site_fract_y
 _atom_site_fract_z
 _atom_site_occupancy
  Li  Li0  1  0.563992  0.563992  0.563992  1
  La  La1  1  0.349199  0.349199  0.349199  1
  La  La2  1  0.348035  0.348035  0.955807  1
  La  La3  1  0.348035  0.955807  0.348035  1
  La  La4  1  0.955807  0.348035  0.348035  1
  La  La5  1  0.809164  0.192775  0.192775  1
  La  La6  1  0.188451  0.812299  0.812299  1
  La  La7  1  0.192775  0.809163  0.192775  1
  La  La8  1  0.812299  0.188452  0.812299  1
  La  La9  1  0.192775  0.192775  0.809164  1
  La  La10  1  0.812298  0.812299  0.188452  1
  La  La11  1  0.936774  0.563199  0.563199  1
  La  La12  1  0.561259  0.939890  0.939890  1
  La  La13  1  0.563199  0.936774  0.563199  1
  La  La14  1  0.939890  0.561259  0.939890  1
  La  La15  1  0.563199  0.563199  0.936774  1
  La  La16  1  0.939890  0.939890  0.561259  1
  Hg  Hg17  1  0.586739  0.586739  0.247707  1
  Hg  Hg18  1  0.586739  0.247707  0.586739  1
  Hg  Hg19  1  0.247707  0.586739  0.586739  1
  Rh  Rh20  1  0.141937  0.141937  0.141937  1
  Rh  Rh21  1  0.141213  0.141213  0.577412  1
  Rh  Rh22  1  0.141213  0.577412  0.141213  1
  Rh  Rh23  1  0.577412  0.141213  0.141213  1
