# generated using pymatgen
data_Dy2YSi3Os2
_symmetry_space_group_name_H-M   'P 1'
_cell_length_a   5.76098204
_cell_length_b   5.76098163
_cell_length_c   13.71009400
_cell_angle_alpha   90.00000000
_cell_angle_beta   90.00000000
_cell_angle_gamma   137.30650943
_symmetry_Int_Tables_number   1
_chemical_formula_structural   Dy2YSi3Os2
_chemical_formula_sum   'Dy4 Y2 Si6 Os4'
_cell_volume   308.54032055
_cell_formula_units_Z   2
loop_
 _symmetry_equiv_pos_site_id
 _symmetry_equiv_pos_as_xyz
  1  'x, y, z'
loop_
 _atom_site_type_symbol
 _atom_site_label
 _atom_site_symmetry_multiplicity
 _atom_site_fract_x
 _atom_site_fract_y
 _atom_site_fract_z
 _atom_site_occupancy
  Dy  Dy0  1  0.576567  0.423433  0.615582  1
  Dy  Dy1  1  0.423433  0.576567  0.384418  1
  Dy  Dy2  1  0.423433  0.576567  0.115582  1
  Dy  Dy3  1  0.576567  0.423433  0.884418  1
  Y  Y4  1  0.139411  0.860589  0.250000  1
  Y  Y5  1  0.860589  0.139411  0.750000  1
  Si  Si6  1  0.882413  0.117587  0.537944  1
  Si  Si7  1  0.117587  0.882413  0.462056  1
  Si  Si8  1  0.117587  0.882413  0.037944  1
  Si  Si9  1  0.882413  0.117587  0.962056  1
  Si  Si10  1  0.823848  0.176152  0.250000  1
  Si  Si11  1  0.176152  0.823848  0.750000  1
  Os  Os12  1  0.286454  0.713546  0.918264  1
  Os  Os13  1  0.713546  0.286454  0.081736  1
  Os  Os14  1  0.713546  0.286454  0.418264  1
  Os  Os15  1  0.286454  0.713546  0.581736  1
