# generated using pymatgen
data_DyIn(BiO4)2
_symmetry_space_group_name_H-M   'P 1'
_cell_length_a   5.51021145
_cell_length_b   7.83987003
_cell_length_c   7.82310996
_cell_angle_alpha   81.87118378
_cell_angle_beta   92.45847216
_cell_angle_gamma   87.97657656
_symmetry_Int_Tables_number   1
_chemical_formula_structural   DyIn(BiO4)2
_chemical_formula_sum   'Dy2 In2 Bi4 O16'
_cell_volume   333.95715580
_cell_formula_units_Z   2
loop_
 _symmetry_equiv_pos_site_id
 _symmetry_equiv_pos_as_xyz
  1  'x, y, z'
loop_
 _atom_site_type_symbol
 _atom_site_label
 _atom_site_symmetry_multiplicity
 _atom_site_fract_x
 _atom_site_fract_y
 _atom_site_fract_z
 _atom_site_occupancy
  Dy  Dy0  1  0.248636  0.624115  0.123258  1
  Dy  Dy1  1  0.751364  0.375885  0.876742  1
  In  In2  1  0.770585  0.860303  0.832510  1
  In  In3  1  0.229415  0.139697  0.167490  1
  Bi  Bi4  1  0.744149  0.824256  0.321970  1
  Bi  Bi5  1  0.255851  0.175744  0.678030  1
  Bi  Bi6  1  0.271706  0.678245  0.656337  1
  Bi  Bi7  1  0.728294  0.321755  0.343663  1
  O  O8  1  0.413345  0.894787  0.181318  1
  O  O9  1  0.586655  0.105213  0.818682  1
  O  O10  1  0.001270  0.607149  0.835759  1
  O  O11  1  0.998730  0.392851  0.164241  1
  O  O12  1  0.926539  0.812277  0.090143  1
  O  O13  1  0.073461  0.187723  0.909857  1
  O  O14  1  0.495304  0.669640  0.893445  1
  O  O15  1  0.504696  0.330360  0.106555  1
  O  O16  1  0.573546  0.576624  0.323301  1
  O  O17  1  0.426454  0.423376  0.676699  1
  O  O18  1  0.098643  0.928397  0.682601  1
  O  O19  1  0.901357  0.071603  0.317399  1
  O  O20  1  0.595698  0.816321  0.573725  1
  O  O21  1  0.404302  0.183679  0.426275  1
  O  O22  1  0.081159  0.678610  0.413438  1
  O  O23  1  0.918841  0.321390  0.586562  1
