# generated using pymatgen
data_CdNi20(B3W)2
_symmetry_space_group_name_H-M   'P 1'
_cell_length_a   7.48944557
_cell_length_b   7.48944490
_cell_length_c   7.48944500
_cell_angle_alpha   59.99999515
_cell_angle_beta   59.99999810
_cell_angle_gamma   60.00000088
_symmetry_Int_Tables_number   1
_chemical_formula_structural   CdNi20(B3W)2
_chemical_formula_sum   'Cd1 Ni20 B6 W2'
_cell_volume   297.05298280
_cell_formula_units_Z   1
loop_
 _symmetry_equiv_pos_site_id
 _symmetry_equiv_pos_as_xyz
  1  'x, y, z'
loop_
 _atom_site_type_symbol
 _atom_site_label
 _atom_site_symmetry_multiplicity
 _atom_site_fract_x
 _atom_site_fract_y
 _atom_site_fract_z
 _atom_site_occupancy
  Cd  Cd0  1  0.750000  0.750000  0.750000  1
  Ni  Ni1  1  0.610420  0.610420  0.168738  1
  Ni  Ni2  1  0.610420  0.168738  0.610420  1
  Ni  Ni3  1  0.168738  0.610420  0.610420  1
  Ni  Ni4  1  0.610420  0.610420  0.610420  1
  Ni  Ni5  1  0.380786  0.380786  0.857641  1
  Ni  Ni6  1  0.380786  0.857641  0.380786  1
  Ni  Ni7  1  0.857641  0.380786  0.380786  1
  Ni  Ni8  1  0.380786  0.380786  0.380786  1
  Ni  Ni9  1  0.003055  0.003055  0.337186  1
  Ni  Ni10  1  0.656703  0.003055  0.337186  1
  Ni  Ni11  1  0.003055  0.656703  0.337186  1
  Ni  Ni12  1  0.656703  0.337186  0.003055  1
  Ni  Ni13  1  0.003055  0.337186  0.003055  1
  Ni  Ni14  1  0.003055  0.337186  0.656703  1
  Ni  Ni15  1  0.337186  0.656703  0.003055  1
  Ni  Ni16  1  0.337186  0.003055  0.656703  1
  Ni  Ni17  1  0.337186  0.003055  0.003055  1
  Ni  Ni18  1  0.003055  0.003055  0.656703  1
  Ni  Ni19  1  0.003055  0.656703  0.003055  1
  Ni  Ni20  1  0.656703  0.003055  0.003055  1
  B  B21  1  0.729725  0.729725  0.270275  1
  B  B22  1  0.270275  0.729725  0.270275  1
  B  B23  1  0.729725  0.270275  0.270275  1
  B  B24  1  0.270275  0.270275  0.729725  1
  B  B25  1  0.729725  0.270275  0.729725  1
  B  B26  1  0.270275  0.729725  0.729725  1
  W  W27  1  0.000000  0.000000  0.000000  1
  W  W28  1  0.250000  0.250000  0.250000  1
