# generated using pymatgen
data_TbY3(Si5Os3)2
_symmetry_space_group_name_H-M   'P 1'
_cell_length_a   8.13963539
_cell_length_b   8.14396024
_cell_length_c   5.80352173
_cell_angle_alpha   70.53077119
_cell_angle_beta   70.48859458
_cell_angle_gamma   93.94391045
_symmetry_Int_Tables_number   1
_chemical_formula_structural   TbY3(Si5Os3)2
_chemical_formula_sum   'Tb1 Y3 Si10 Os6'
_cell_volume   334.78836089
_cell_formula_units_Z   1
loop_
 _symmetry_equiv_pos_site_id
 _symmetry_equiv_pos_as_xyz
  1  'x, y, z'
loop_
 _atom_site_type_symbol
 _atom_site_label
 _atom_site_symmetry_multiplicity
 _atom_site_fract_x
 _atom_site_fract_y
 _atom_site_fract_z
 _atom_site_occupancy
  Tb  Tb0  1  0.600862  0.868680  0.254796  1
  Y  Y1  1  0.868667  0.602043  0.752623  1
  Y  Y2  1  0.398314  0.132154  0.745911  1
  Y  Y3  1  0.132015  0.397484  0.246849  1
  Si  Si4  1  0.066934  0.261092  0.834283  1
  Si  Si5  1  0.737915  0.932842  0.666905  1
  Si  Si6  1  0.932471  0.738965  0.165355  1
  Si  Si7  1  0.262106  0.066591  0.333615  1
  Si  Si8  1  0.207213  0.793715  0.748238  1
  Si  Si9  1  0.793122  0.206414  0.251186  1
  Si  Si10  1  0.512689  0.487834  0.749832  1
  Si  Si11  1  0.487934  0.512353  0.250145  1
  Si  Si12  1  0.774151  0.225791  0.749327  1
  Si  Si13  1  0.225609  0.774441  0.250712  1
  Os  Os14  1  0.255791  0.542947  0.631404  1
  Os  Os15  1  0.455577  0.743845  0.869995  1
  Os  Os16  1  0.744552  0.456745  0.368345  1
  Os  Os17  1  0.544265  0.256317  0.130338  1
  Os  Os18  1  0.002489  0.997475  0.749788  1
  Os  Os19  1  0.997327  0.002273  0.250353  1
