# generated using pymatgen
data_Cs2V9Tc3Te14
_symmetry_space_group_name_H-M   'P 1'
_cell_length_a   10.25207629
_cell_length_b   10.25207593
_cell_length_c   10.25207588
_cell_angle_alpha   61.28301348
_cell_angle_beta   61.28302194
_cell_angle_gamma   61.28302961
_symmetry_Int_Tables_number   1
_chemical_formula_structural   Cs2V9Tc3Te14
_chemical_formula_sum   'Cs2 V9 Tc3 Te14'
_cell_volume   783.91685986
_cell_formula_units_Z   1
loop_
 _symmetry_equiv_pos_site_id
 _symmetry_equiv_pos_as_xyz
  1  'x, y, z'
loop_
 _atom_site_type_symbol
 _atom_site_label
 _atom_site_symmetry_multiplicity
 _atom_site_fract_x
 _atom_site_fract_y
 _atom_site_fract_z
 _atom_site_occupancy
  Cs  Cs0  1  0.615996  0.615996  0.615996  1
  Cs  Cs1  1  0.381355  0.381355  0.381355  1
  V  V2  1  0.692813  0.879483  0.013108  1
  V  V3  1  0.013108  0.692813  0.879483  1
  V  V4  1  0.879483  0.013108  0.692813  1
  V  V5  1  0.290279  0.114440  0.000694  1
  V  V6  1  0.000694  0.290279  0.114440  1
  V  V7  1  0.114440  0.000694  0.290279  1
  V  V8  1  0.946509  0.821998  0.099417  1
  V  V9  1  0.099417  0.946509  0.821998  1
  V  V10  1  0.821998  0.099417  0.946509  1
  Tc  Tc11  1  0.056811  0.184272  0.892407  1
  Tc  Tc12  1  0.892407  0.056811  0.184272  1
  Tc  Tc13  1  0.184272  0.892407  0.056811  1
  Te  Te14  1  0.417514  0.808384  0.170486  1
  Te  Te15  1  0.170486  0.417514  0.808384  1
  Te  Te16  1  0.808384  0.170486  0.417514  1
  Te  Te17  1  0.579319  0.184933  0.844726  1
  Te  Te18  1  0.844726  0.579319  0.184933  1
  Te  Te19  1  0.184933  0.844726  0.579319  1
  Te  Te20  1  0.638091  0.980853  0.247266  1
  Te  Te21  1  0.247266  0.638091  0.980853  1
  Te  Te22  1  0.980853  0.247266  0.638091  1
  Te  Te23  1  0.360446  0.017069  0.760192  1
  Te  Te24  1  0.760192  0.360446  0.017069  1
  Te  Te25  1  0.017069  0.760192  0.360446  1
  Te  Te26  1  0.777318  0.777318  0.777318  1
  Te  Te27  1  0.223823  0.223823  0.223823  1
