# generated using pymatgen
data_Li4Nd3SmPt4
_symmetry_space_group_name_H-M   'P 1'
_cell_length_a   4.06937200
_cell_length_b   7.20795034
_cell_length_c   8.59943300
_cell_angle_alpha   89.46150501
_cell_angle_beta   90.00000000
_cell_angle_gamma   90.00000000
_symmetry_Int_Tables_number   1
_chemical_formula_structural   Li4Nd3SmPt4
_chemical_formula_sum   'Li4 Nd3 Sm1 Pt4'
_cell_volume   252.22597787
_cell_formula_units_Z   1
loop_
 _symmetry_equiv_pos_site_id
 _symmetry_equiv_pos_as_xyz
  1  'x, y, z'
loop_
 _atom_site_type_symbol
 _atom_site_label
 _atom_site_symmetry_multiplicity
 _atom_site_fract_x
 _atom_site_fract_y
 _atom_site_fract_z
 _atom_site_occupancy
  Li  Li0  1  0.250000  0.375183  0.556591  1
  Li  Li1  1  0.250000  0.874535  0.943285  1
  Li  Li2  1  0.750000  0.621667  0.445959  1
  Li  Li3  1  0.750000  0.127777  0.054463  1
  Nd  Nd4  1  0.250000  0.950841  0.315980  1
  Nd  Nd5  1  0.250000  0.453621  0.183621  1
  Nd  Nd6  1  0.750000  0.047270  0.685561  1
  Sm  Sm7  1  0.750000  0.548120  0.816578  1
  Pt  Pt8  1  0.250000  0.254798  0.879137  1
  Pt  Pt9  1  0.250000  0.749629  0.621812  1
  Pt  Pt10  1  0.750000  0.749887  0.117203  1
  Pt  Pt11  1  0.750000  0.246672  0.379809  1
