# generated using pymatgen
data_Tb2Pr4Al24Os5Pt3
_symmetry_space_group_name_H-M   'P 1'
_cell_length_a   8.89144075
_cell_length_b   8.90917351
_cell_length_c   9.65385782
_cell_angle_alpha   90.04076688
_cell_angle_beta   89.86845070
_cell_angle_gamma   119.62931257
_symmetry_Int_Tables_number   1
_chemical_formula_structural   Tb2Pr4Al24Os5Pt3
_chemical_formula_sum   'Tb2 Pr4 Al24 Os5 Pt3'
_cell_volume   664.73725195
_cell_formula_units_Z   1
loop_
 _symmetry_equiv_pos_site_id
 _symmetry_equiv_pos_as_xyz
  1  'x, y, z'
loop_
 _atom_site_type_symbol
 _atom_site_label
 _atom_site_symmetry_multiplicity
 _atom_site_fract_x
 _atom_site_fract_y
 _atom_site_fract_z
 _atom_site_occupancy
  Tb  Tb0  1  0.194806  0.809214  0.250872  1
  Tb  Tb1  1  0.805194  0.190786  0.749128  1
  Pr  Pr2  1  0.187328  0.379342  0.249855  1
  Pr  Pr3  1  0.812672  0.620658  0.750145  1
  Pr  Pr4  1  0.617898  0.813832  0.251763  1
  Pr  Pr5  1  0.382102  0.186168  0.748237  1
  Al  Al6  1  0.334771  0.671716  0.026014  1
  Al  Al7  1  0.665229  0.328284  0.973986  1
  Al  Al8  1  0.670125  0.330868  0.524416  1
  Al  Al9  1  0.329875  0.669132  0.475584  1
  Al  Al10  1  0.157051  0.325584  0.574042  1
  Al  Al11  1  0.842949  0.674416  0.425958  1
  Al  Al12  1  0.673574  0.842114  0.575099  1
  Al  Al13  1  0.838009  0.675828  0.076983  1
  Al  Al14  1  0.326426  0.157886  0.424901  1
  Al  Al15  1  0.161991  0.324172  0.923017  1
  Al  Al16  1  0.164539  0.834797  0.573145  1
  Al  Al17  1  0.325887  0.157548  0.075176  1
  Al  Al18  1  0.835461  0.165203  0.426855  1
  Al  Al19  1  0.674113  0.842452  0.924824  1
  Al  Al20  1  0.831561  0.159758  0.074838  1
  Al  Al21  1  0.168439  0.840242  0.925162  1
  Al  Al22  1  0.560378  0.125340  0.249599  1
  Al  Al23  1  0.439622  0.874660  0.750401  1
  Al  Al24  1  0.873523  0.438101  0.253095  1
  Al  Al25  1  0.126477  0.561899  0.746905  1
  Al  Al26  1  0.563947  0.435274  0.249567  1
  Al  Al27  1  0.436053  0.564726  0.750433  1
  Al  Al28  1  0.000328  0.000901  0.250178  1
  Al  Al29  1  0.999672  0.999099  0.749822  1
  Os  Os30  1  0.500000  0.000000  0.000000  1
  Os  Os31  1  0.500000  0.000000  0.500000  1
  Os  Os32  1  0.000000  0.500000  0.500000  1
  Os  Os33  1  0.000000  0.000000  0.000000  1
  Os  Os34  1  0.000000  0.000000  0.500000  1
  Pt  Pt35  1  0.000000  0.500000  0.000000  1
  Pt  Pt36  1  0.500000  0.500000  0.000000  1
  Pt  Pt37  1  0.500000  0.500000  0.500000  1
