# generated using pymatgen
data_ZnCrAg2F7
_symmetry_space_group_name_H-M   'P 1'
_cell_length_a   7.57936705
_cell_length_b   7.57936721
_cell_length_c   7.57936780
_cell_angle_alpha   120.67003709
_cell_angle_beta   118.44661490
_cell_angle_gamma   90.77735986
_symmetry_Int_Tables_number   1
_chemical_formula_structural   ZnCrAg2F7
_chemical_formula_sum   'Zn2 Cr2 Ag4 F14'
_cell_volume   309.76276010
_cell_formula_units_Z   2
loop_
 _symmetry_equiv_pos_site_id
 _symmetry_equiv_pos_as_xyz
  1  'x, y, z'
loop_
 _atom_site_type_symbol
 _atom_site_label
 _atom_site_symmetry_multiplicity
 _atom_site_fract_x
 _atom_site_fract_y
 _atom_site_fract_z
 _atom_site_occupancy
  Zn  Zn0  1  0.000000  0.500000  0.500000  1
  Zn  Zn1  1  0.500000  0.000000  0.500000  1
  Cr  Cr2  1  0.500000  0.500000  0.500000  1
  Cr  Cr3  1  0.500000  0.000000  0.000000  1
  Ag  Ag4  1  0.500000  0.500000  0.000000  1
  Ag  Ag5  1  0.000000  0.000000  0.000000  1
  Ag  Ag6  1  0.000000  0.500000  0.000000  1
  Ag  Ag7  1  0.000000  0.000000  0.500000  1
  F  F8  1  0.866506  0.594594  0.271913  1
  F  F9  1  0.177319  0.905406  0.271913  1
  F  F10  1  0.201638  0.821576  0.778439  1
  F  F11  1  0.456862  0.678424  0.380062  1
  F  F12  1  0.456862  0.076801  0.778439  1
  F  F13  1  0.201638  0.423199  0.380062  1
  F  F14  1  0.798362  0.576801  0.619938  1
  F  F15  1  0.543138  0.923199  0.221561  1
  F  F16  1  0.543138  0.321576  0.619938  1
  F  F17  1  0.798362  0.178424  0.221561  1
  F  F18  1  0.416724  0.250000  0.166724  1
  F  F19  1  0.133494  0.405406  0.728087  1
  F  F20  1  0.822681  0.094594  0.728087  1
  F  F21  1  0.583276  0.750000  0.833276  1
