# generated using pymatgen
data_Ca3Yb3Y2(Si3Pd)4
_symmetry_space_group_name_H-M   'P 1'
_cell_length_a   8.26732065
_cell_length_b   8.25268509
_cell_length_c   8.22454600
_cell_angle_alpha   90.00000000
_cell_angle_beta   90.00000000
_cell_angle_gamma   120.17041074
_symmetry_Int_Tables_number   1
_chemical_formula_structural   Ca3Yb3Y2(Si3Pd)4
_chemical_formula_sum   'Ca3 Yb3 Y2 Si12 Pd4'
_cell_volume   485.12571836
_cell_formula_units_Z   1
loop_
 _symmetry_equiv_pos_site_id
 _symmetry_equiv_pos_as_xyz
  1  'x, y, z'
loop_
 _atom_site_type_symbol
 _atom_site_label
 _atom_site_symmetry_multiplicity
 _atom_site_fract_x
 _atom_site_fract_y
 _atom_site_fract_z
 _atom_site_occupancy
  Ca  Ca0  1  0.001664  0.500654  0.750000  1
  Ca  Ca1  1  0.500937  0.499036  0.250000  1
  Ca  Ca2  1  0.499035  0.500797  0.750000  1
  Yb  Yb3  1  0.500945  0.001944  0.250000  1
  Yb  Yb4  1  0.499387  0.998478  0.750000  1
  Yb  Yb5  1  0.997918  0.499022  0.250000  1
  Y  Y6  1  0.999974  0.000114  0.250000  1
  Y  Y7  1  0.999891  0.999912  0.750000  1
  Si  Si8  1  0.164749  0.329513  0.002129  1
  Si  Si9  1  0.835321  0.670543  0.999310  1
  Si  Si10  1  0.671557  0.835636  0.001114  1
  Si  Si11  1  0.835321  0.670543  0.500690  1
  Si  Si12  1  0.328375  0.164322  0.998442  1
  Si  Si13  1  0.164749  0.329513  0.497871  1
  Si  Si14  1  0.163783  0.835879  0.002203  1
  Si  Si15  1  0.328375  0.164322  0.501558  1
  Si  Si16  1  0.836303  0.164120  0.998886  1
  Si  Si17  1  0.671557  0.835636  0.498886  1
  Si  Si18  1  0.836303  0.164120  0.501114  1
  Si  Si19  1  0.163783  0.835879  0.497797  1
  Pd  Pd20  1  0.333410  0.668865  0.004649  1
  Pd  Pd21  1  0.666629  0.331144  0.000889  1
  Pd  Pd22  1  0.666629  0.331144  0.499111  1
  Pd  Pd23  1  0.333410  0.668865  0.495351  1
