# generated using pymatgen
data_PrAs12Ru3Rh
_symmetry_space_group_name_H-M   'P 1'
_cell_length_a   7.45344455
_cell_length_b   7.45344551
_cell_length_c   7.45344507
_cell_angle_alpha   109.44052306
_cell_angle_beta   109.44052937
_cell_angle_gamma   109.44052726
_symmetry_Int_Tables_number   1
_chemical_formula_structural   PrAs12Ru3Rh
_chemical_formula_sum   'Pr1 As12 Ru3 Rh1'
_cell_volume   319.11104091
_cell_formula_units_Z   1
loop_
 _symmetry_equiv_pos_site_id
 _symmetry_equiv_pos_as_xyz
  1  'x, y, z'
loop_
 _atom_site_type_symbol
 _atom_site_label
 _atom_site_symmetry_multiplicity
 _atom_site_fract_x
 _atom_site_fract_y
 _atom_site_fract_z
 _atom_site_occupancy
  Pr  Pr0  1  0.000000  0.000000  0.000000  1
  As  As1  1  0.150241  0.802746  0.652799  1
  As  As2  1  0.849759  0.197254  0.347201  1
  As  As3  1  0.147187  0.497545  0.346943  1
  As  As4  1  0.852813  0.502455  0.653057  1
  As  As5  1  0.652799  0.150241  0.802746  1
  As  As6  1  0.347201  0.849759  0.197254  1
  As  As7  1  0.346943  0.147187  0.497545  1
  As  As8  1  0.653057  0.852813  0.502455  1
  As  As9  1  0.802746  0.652799  0.150241  1
  As  As10  1  0.197254  0.347201  0.849759  1
  As  As11  1  0.497545  0.346943  0.147187  1
  As  As12  1  0.502455  0.653057  0.852813  1
  Ru  Ru13  1  0.500000  0.000000  0.000000  1
  Ru  Ru14  1  0.000000  0.000000  0.500000  1
  Ru  Ru15  1  0.000000  0.500000  0.000000  1
  Rh  Rh16  1  0.500000  0.500000  0.500000  1
