# generated using pymatgen
data_Ce2ZnFe2Si2Pd
_symmetry_space_group_name_H-M   'P 1'
_cell_length_a   9.02541040
_cell_length_b   9.02541066
_cell_length_c   4.06385900
_cell_angle_alpha   90.00000000
_cell_angle_beta   90.00000000
_cell_angle_gamma   154.47022669
_symmetry_Int_Tables_number   1
_chemical_formula_structural   Ce2ZnFe2Si2Pd
_chemical_formula_sum   'Ce2 Zn1 Fe2 Si2 Pd1'
_cell_volume   142.66904022
_cell_formula_units_Z   1
loop_
 _symmetry_equiv_pos_site_id
 _symmetry_equiv_pos_as_xyz
  1  'x, y, z'
loop_
 _atom_site_type_symbol
 _atom_site_label
 _atom_site_symmetry_multiplicity
 _atom_site_fract_x
 _atom_site_fract_y
 _atom_site_fract_z
 _atom_site_occupancy
  Ce  Ce0  1  0.620174  0.379826  0.250000  1
  Ce  Ce1  1  0.375537  0.624463  0.750000  1
  Zn  Zn2  1  0.959238  0.040762  0.250000  1
  Fe  Fe3  1  0.249869  0.750131  0.250000  1
  Fe  Fe4  1  0.751925  0.248075  0.750000  1
  Si  Si5  1  0.811815  0.188185  0.250000  1
  Si  Si6  1  0.186790  0.813210  0.750000  1
  Pd  Pd7  1  0.044652  0.955348  0.750000  1
