# generated using pymatgen
data_Tb4Ho12Cd4Ni3Ru
_symmetry_space_group_name_H-M   'P 1'
_cell_length_a   9.57365416
_cell_length_b   9.57123433
_cell_length_c   9.57338101
_cell_angle_alpha   59.57242595
_cell_angle_beta   59.58510868
_cell_angle_gamma   59.56967816
_symmetry_Int_Tables_number   1
_chemical_formula_structural   Tb4Ho12Cd4Ni3Ru
_chemical_formula_sum   'Tb4 Ho12 Cd4 Ni3 Ru1'
_cell_volume   614.30940526
_cell_formula_units_Z   1
loop_
 _symmetry_equiv_pos_site_id
 _symmetry_equiv_pos_as_xyz
  1  'x, y, z'
loop_
 _atom_site_type_symbol
 _atom_site_label
 _atom_site_symmetry_multiplicity
 _atom_site_fract_x
 _atom_site_fract_y
 _atom_site_fract_z
 _atom_site_occupancy
  Tb  Tb0  1  0.347783  0.348261  0.347909  1
  Tb  Tb1  1  0.350987  0.350864  0.952817  1
  Tb  Tb2  1  0.350779  0.953048  0.350800  1
  Tb  Tb3  1  0.952755  0.350875  0.351028  1
  Ho  Ho4  1  0.810564  0.187813  0.187892  1
  Ho  Ho5  1  0.186480  0.811715  0.811847  1
  Ho  Ho6  1  0.187832  0.810588  0.187743  1
  Ho  Ho7  1  0.811976  0.186171  0.811946  1
  Ho  Ho8  1  0.187906  0.187743  0.810549  1
  Ho  Ho9  1  0.811931  0.811777  0.186370  1
  Ho  Ho10  1  0.935909  0.566036  0.565966  1
  Ho  Ho11  1  0.559522  0.937311  0.937332  1
  Ho  Ho12  1  0.565963  0.935875  0.566011  1
  Ho  Ho13  1  0.937363  0.559597  0.937285  1
  Ho  Ho14  1  0.565995  0.566108  0.935822  1
  Ho  Ho15  1  0.937352  0.937254  0.559610  1
  Cd  Cd16  1  0.580504  0.580360  0.580475  1
  Cd  Cd17  1  0.580443  0.580302  0.254949  1
  Cd  Cd18  1  0.580364  0.255031  0.580314  1
  Cd  Cd19  1  0.254948  0.580328  0.580418  1
  Ni  Ni20  1  0.141986  0.142214  0.575656  1
  Ni  Ni21  1  0.142087  0.575481  0.142187  1
  Ni  Ni22  1  0.575500  0.142237  0.142087  1
  Ru  Ru23  1  0.143071  0.143010  0.142987  1
