# generated using pymatgen
data_Ca4Ru2O9
_symmetry_space_group_name_H-M   'P 1'
_cell_length_a   5.63705657
_cell_length_b   5.63752963
_cell_length_c   15.19641900
_cell_angle_alpha   89.98991285
_cell_angle_beta   90.01943319
_cell_angle_gamma   119.99590601
_symmetry_Int_Tables_number   1
_chemical_formula_structural   Ca4Ru2O9
_chemical_formula_sum   'Ca8 Ru4 O18'
_cell_volume   418.24524451
_cell_formula_units_Z   2
loop_
 _symmetry_equiv_pos_site_id
 _symmetry_equiv_pos_as_xyz
  1  'x, y, z'
loop_
 _atom_site_type_symbol
 _atom_site_label
 _atom_site_symmetry_multiplicity
 _atom_site_fract_x
 _atom_site_fract_y
 _atom_site_fract_z
 _atom_site_occupancy
  Ca  Ca0  1  0.000250  0.000540  0.266698  1
  Ca  Ca1  1  0.000000  0.000000  0.500000  1
  Ca  Ca2  1  0.000000  0.000000  0.000000  1
  Ca  Ca3  1  0.332862  0.667131  0.359075  1
  Ca  Ca4  1  0.335301  0.666922  0.138882  1
  Ca  Ca5  1  0.664699  0.333078  0.861118  1
  Ca  Ca6  1  0.667138  0.332869  0.640925  1
  Ca  Ca7  1  0.999750  0.999460  0.733302  1
  Ru  Ru8  1  0.331568  0.665995  0.845430  1
  Ru  Ru9  1  0.333539  0.666327  0.659573  1
  Ru  Ru10  1  0.666461  0.333673  0.340427  1
  Ru  Ru11  1  0.668432  0.334005  0.154570  1
  O  O12  1  0.023044  0.600676  0.749731  1
  O  O13  1  0.274390  0.931582  0.600671  1
  O  O14  1  0.280817  0.932798  0.902897  1
  O  O15  1  0.068811  0.341457  0.600885  1
  O  O16  1  0.064543  0.350962  0.903936  1
  O  O17  1  0.577153  0.975315  0.750240  1
  O  O18  1  0.397696  0.421759  0.750366  1
  O  O19  1  0.354373  0.285080  0.095246  1
  O  O20  1  0.340554  0.273508  0.398561  1
  O  O21  1  0.659446  0.726492  0.601439  1
  O  O22  1  0.645627  0.714920  0.904754  1
  O  O23  1  0.602304  0.578241  0.249634  1
  O  O24  1  0.422847  0.024685  0.249760  1
  O  O25  1  0.935457  0.649038  0.096064  1
  O  O26  1  0.931189  0.658543  0.399115  1
  O  O27  1  0.719183  0.067202  0.097103  1
  O  O28  1  0.725610  0.068418  0.399329  1
  O  O29  1  0.976956  0.399324  0.250269  1
