# generated using pymatgen
data_Nd8ThZrIr4
_symmetry_space_group_name_H-M   'P 1'
_cell_length_a   6.67619888
_cell_length_b   7.28741332
_cell_length_c   9.00743200
_cell_angle_alpha   96.52269856
_cell_angle_beta   111.75225319
_cell_angle_gamma   89.99999839
_symmetry_Int_Tables_number   1
_chemical_formula_structural   Nd8ThZrIr4
_chemical_formula_sum   'Nd8 Th1 Zr1 Ir4'
_cell_volume   403.97152021
_cell_formula_units_Z   1
loop_
 _symmetry_equiv_pos_site_id
 _symmetry_equiv_pos_as_xyz
  1  'x, y, z'
loop_
 _atom_site_type_symbol
 _atom_site_label
 _atom_site_symmetry_multiplicity
 _atom_site_fract_x
 _atom_site_fract_y
 _atom_site_fract_z
 _atom_site_occupancy
  Nd  Nd0  1  0.974393  0.928743  0.183535  1
  Nd  Nd1  1  0.790858  0.571257  0.816465  1
  Nd  Nd2  1  0.017763  0.082144  0.814399  1
  Nd  Nd3  1  0.203364  0.417856  0.185601  1
  Nd  Nd4  1  0.653512  0.815810  0.434648  1
  Nd  Nd5  1  0.218863  0.684190  0.565352  1
  Nd  Nd6  1  0.356997  0.184017  0.573854  1
  Nd  Nd7  1  0.783143  0.315983  0.426146  1
  Th  Th8  1  0.428700  0.750000  0.000000  1
  Zr  Zr9  1  0.556465  0.250000  0.000000  1
  Ir  Ir10  1  0.790731  0.562897  0.193947  1
  Ir  Ir11  1  0.596784  0.937103  0.806053  1
  Ir  Ir12  1  0.214102  0.427370  0.799780  1
  Ir  Ir13  1  0.414321  0.072630  0.200220  1
