# generated using pymatgen
data_DyYMoRu3
_symmetry_space_group_name_H-M   'P 1'
_cell_length_a   5.21446275
_cell_length_b   5.21446352
_cell_length_c   5.21446350
_cell_angle_alpha   64.82406711
_cell_angle_beta   64.82407696
_cell_angle_gamma   64.82406673
_symmetry_Int_Tables_number   1
_chemical_formula_structural   DyYMoRu3
_chemical_formula_sum   'Dy1 Y1 Mo1 Ru3'
_cell_volume   110.83442040
_cell_formula_units_Z   1
loop_
 _symmetry_equiv_pos_site_id
 _symmetry_equiv_pos_as_xyz
  1  'x, y, z'
loop_
 _atom_site_type_symbol
 _atom_site_label
 _atom_site_symmetry_multiplicity
 _atom_site_fract_x
 _atom_site_fract_y
 _atom_site_fract_z
 _atom_site_occupancy
  Dy  Dy0  1  0.127229  0.127229  0.127229  1
  Y  Y1  1  0.872881  0.872881  0.872881  1
  Mo  Mo2  1  0.499999  0.499999  0.499999  1
  Ru  Ru3  1  0.499904  0.000084  0.499904  1
  Ru  Ru4  1  0.000084  0.499904  0.499904  1
  Ru  Ru5  1  0.499904  0.499904  0.000084  1
