# generated using pymatgen
data_Tb2Hf2ZrSi4
_symmetry_space_group_name_H-M   'P 1'
_cell_length_a   7.31463100
_cell_length_b   7.31463100
_cell_length_c   13.44658900
_cell_angle_alpha   90.00000000
_cell_angle_beta   90.00000000
_cell_angle_gamma   90.00000000
_symmetry_Int_Tables_number   1
_chemical_formula_structural   Tb2Hf2ZrSi4
_chemical_formula_sum   'Tb8 Hf8 Zr4 Si16'
_cell_volume   719.44396711
_cell_formula_units_Z   4
loop_
 _symmetry_equiv_pos_site_id
 _symmetry_equiv_pos_as_xyz
  1  'x, y, z'
loop_
 _atom_site_type_symbol
 _atom_site_label
 _atom_site_symmetry_multiplicity
 _atom_site_fract_x
 _atom_site_fract_y
 _atom_site_fract_z
 _atom_site_occupancy
  Tb  Tb0  1  0.996492  0.343802  0.214992  1
  Tb  Tb1  1  0.003508  0.656198  0.714992  1
  Tb  Tb2  1  0.156198  0.496492  0.464992  1
  Tb  Tb3  1  0.503508  0.843802  0.035008  1
  Tb  Tb4  1  0.843802  0.503508  0.964992  1
  Tb  Tb5  1  0.496492  0.156198  0.535008  1
  Tb  Tb6  1  0.343802  0.996492  0.785008  1
  Tb  Tb7  1  0.656198  0.003508  0.285008  1
  Hf  Hf8  1  0.149526  0.995387  0.374466  1
  Hf  Hf9  1  0.850474  0.004613  0.874466  1
  Hf  Hf10  1  0.504613  0.649526  0.624466  1
  Hf  Hf11  1  0.350474  0.495387  0.875534  1
  Hf  Hf12  1  0.495387  0.350474  0.124466  1
  Hf  Hf13  1  0.649526  0.504613  0.375534  1
  Hf  Hf14  1  0.995387  0.149526  0.625534  1
  Hf  Hf15  1  0.004613  0.850474  0.125534  1
  Zr  Zr16  1  0.174460  0.174460  0.000000  1
  Zr  Zr17  1  0.825540  0.825540  0.500000  1
  Zr  Zr18  1  0.325540  0.674460  0.250000  1
  Zr  Zr19  1  0.674460  0.325540  0.750000  1
  Si  Si20  1  0.363581  0.293959  0.317051  1
  Si  Si21  1  0.636419  0.706041  0.817051  1
  Si  Si22  1  0.206041  0.863581  0.567051  1
  Si  Si23  1  0.136419  0.793959  0.932949  1
  Si  Si24  1  0.793959  0.136419  0.067051  1
  Si  Si25  1  0.863581  0.206041  0.432949  1
  Si  Si26  1  0.293959  0.363581  0.682949  1
  Si  Si27  1  0.706041  0.636419  0.182949  1
  Si  Si28  1  0.295200  0.049309  0.186325  1
  Si  Si29  1  0.704800  0.950691  0.686325  1
  Si  Si30  1  0.450691  0.795200  0.436325  1
  Si  Si31  1  0.204800  0.549309  0.063675  1
  Si  Si32  1  0.549309  0.204800  0.936325  1
  Si  Si33  1  0.795200  0.450691  0.563675  1
  Si  Si34  1  0.049309  0.295200  0.813675  1
  Si  Si35  1  0.950691  0.704800  0.313675  1
