# generated using pymatgen
data_Tm3Lu3P13Rh20
_symmetry_space_group_name_H-M   'P 1'
_cell_length_a   13.30056500
_cell_length_b   13.30056410
_cell_length_c   3.89100500
_cell_angle_alpha   90.00000000
_cell_angle_beta   90.00000000
_cell_angle_gamma   119.99999478
_symmetry_Int_Tables_number   1
_chemical_formula_structural   Tm3Lu3P13Rh20
_chemical_formula_sum   'Tm3 Lu3 P13 Rh20'
_cell_volume   596.11849158
_cell_formula_units_Z   1
loop_
 _symmetry_equiv_pos_site_id
 _symmetry_equiv_pos_as_xyz
  1  'x, y, z'
loop_
 _atom_site_type_symbol
 _atom_site_label
 _atom_site_symmetry_multiplicity
 _atom_site_fract_x
 _atom_site_fract_y
 _atom_site_fract_z
 _atom_site_occupancy
  Tm  Tm0  1  0.528782  0.717407  0.248712  1
  Tm  Tm1  1  0.282593  0.811375  0.248712  1
  Tm  Tm2  1  0.188625  0.471218  0.248712  1
  Lu  Lu3  1  0.471307  0.282642  0.751296  1
  Lu  Lu4  1  0.717358  0.188665  0.751296  1
  Lu  Lu5  1  0.811335  0.528693  0.751296  1
  P  P6  1  0.527527  0.140373  0.250338  1
  P  P7  1  0.859627  0.387154  0.250338  1
  P  P8  1  0.612846  0.472473  0.250338  1
  P  P9  1  0.944092  0.713529  0.254426  1
  P  P10  1  0.286471  0.230562  0.254426  1
  P  P11  1  0.769438  0.055908  0.254426  1
  P  P12  1  0.387143  0.527324  0.749758  1
  P  P13  1  0.472676  0.859819  0.749758  1
  P  P14  1  0.140181  0.612857  0.749758  1
  P  P15  1  0.713814  0.769560  0.745577  1
  P  P16  1  0.230440  0.944255  0.745577  1
  P  P17  1  0.055745  0.286186  0.745577  1
  P  P18  1  0.000000  0.000000  0.000019  1
  Rh  Rh19  1  0.333333  0.666667  0.752317  1
  Rh  Rh20  1  0.919482  0.250384  0.253168  1
  Rh  Rh21  1  0.749616  0.669099  0.253168  1
  Rh  Rh22  1  0.330901  0.080518  0.253168  1
  Rh  Rh23  1  0.437760  0.021200  0.751349  1
  Rh  Rh24  1  0.978800  0.416560  0.751349  1
  Rh  Rh25  1  0.583440  0.562240  0.751349  1
  Rh  Rh26  1  0.666667  0.333333  0.247535  1
  Rh  Rh27  1  0.094568  0.187815  0.247869  1
  Rh  Rh28  1  0.812185  0.906752  0.247869  1
  Rh  Rh29  1  0.093248  0.905432  0.247869  1
  Rh  Rh30  1  0.020816  0.583345  0.248585  1
  Rh  Rh31  1  0.416655  0.437471  0.248585  1
  Rh  Rh32  1  0.562529  0.979184  0.248585  1
  Rh  Rh33  1  0.669371  0.919941  0.746845  1
  Rh  Rh34  1  0.080059  0.749430  0.746845  1
  Rh  Rh35  1  0.250570  0.330629  0.746845  1
  Rh  Rh36  1  0.905615  0.812248  0.752119  1
  Rh  Rh37  1  0.187752  0.093367  0.752119  1
  Rh  Rh38  1  0.906633  0.094385  0.752119  1
