# generated using pymatgen
data_Zr3Ti2Ga2Se
_symmetry_space_group_name_H-M   'P 1'
_cell_length_a   8.03456600
_cell_length_b   7.92675900
_cell_length_c   5.37072600
_cell_angle_alpha   90.00000000
_cell_angle_beta   90.00000000
_cell_angle_gamma   120.45092633
_symmetry_Int_Tables_number   1
_chemical_formula_structural   Zr3Ti2Ga2Se
_chemical_formula_sum   'Zr6 Ti4 Ga4 Se2'
_cell_volume   294.86984107
_cell_formula_units_Z   2
loop_
 _symmetry_equiv_pos_site_id
 _symmetry_equiv_pos_as_xyz
  1  'x, y, z'
loop_
 _atom_site_type_symbol
 _atom_site_label
 _atom_site_symmetry_multiplicity
 _atom_site_fract_x
 _atom_site_fract_y
 _atom_site_fract_z
 _atom_site_occupancy
  Zr  Zr0  1  0.260549  0.000000  0.250000  1
  Zr  Zr1  1  0.239530  0.246852  0.750000  1
  Zr  Zr2  1  0.992678  0.753148  0.750000  1
  Zr  Zr3  1  0.007322  0.246852  0.250000  1
  Zr  Zr4  1  0.760470  0.753148  0.250000  1
  Zr  Zr5  1  0.739451  0.000000  0.750000  1
  Ti  Ti6  1  0.665219  0.330437  0.000000  1
  Ti  Ti7  1  0.334781  0.669563  0.500000  1
  Ti  Ti8  1  0.665219  0.330437  0.500000  1
  Ti  Ti9  1  0.334781  0.669563  0.000000  1
  Ga  Ga10  1  0.000228  0.596891  0.250000  1
  Ga  Ga11  1  0.999772  0.403109  0.750000  1
  Ga  Ga12  1  0.596663  0.596891  0.750000  1
  Ga  Ga13  1  0.403337  0.403109  0.250000  1
  Se  Se14  1  0.614240  0.000000  0.250000  1
  Se  Se15  1  0.385760  0.000000  0.750000  1
