# generated using pymatgen
data_SmGd3(RhO3)4
_symmetry_space_group_name_H-M   'P 1'
_cell_length_a   5.30950600
_cell_length_b   5.83464983
_cell_length_c   7.70616500
_cell_angle_alpha   90.00000000
_cell_angle_beta   90.00000000
_cell_angle_gamma   90.06562652
_symmetry_Int_Tables_number   1
_chemical_formula_structural   SmGd3(RhO3)4
_chemical_formula_sum   'Sm1 Gd3 Rh4 O12'
_cell_volume   238.72996325
_cell_formula_units_Z   1
loop_
 _symmetry_equiv_pos_site_id
 _symmetry_equiv_pos_as_xyz
  1  'x, y, z'
loop_
 _atom_site_type_symbol
 _atom_site_label
 _atom_site_symmetry_multiplicity
 _atom_site_fract_x
 _atom_site_fract_y
 _atom_site_fract_z
 _atom_site_occupancy
  Sm  Sm0  1  0.470843  0.916717  0.250000  1
  Gd  Gd1  1  0.030160  0.416976  0.250000  1
  Gd  Gd2  1  0.970022  0.583421  0.750000  1
  Gd  Gd3  1  0.529771  0.083625  0.750000  1
  Rh  Rh4  1  0.000157  0.000218  0.999311  1
  Rh  Rh5  1  0.499783  0.499904  0.999226  1
  Rh  Rh6  1  0.000157  0.000218  0.500689  1
  Rh  Rh7  1  0.499783  0.499904  0.500774  1
  O  O8  1  0.321359  0.192857  0.058607  1
  O  O9  1  0.677386  0.809056  0.940456  1
  O  O10  1  0.821637  0.308120  0.939452  1
  O  O11  1  0.677386  0.809056  0.559544  1
  O  O12  1  0.177318  0.690904  0.058843  1
  O  O13  1  0.321359  0.192857  0.441393  1
  O  O14  1  0.177318  0.690904  0.441157  1
  O  O15  1  0.821637  0.308120  0.560548  1
  O  O16  1  0.629058  0.543015  0.250000  1
  O  O17  1  0.370849  0.453650  0.750000  1
  O  O18  1  0.128541  0.953299  0.750000  1
  O  O19  1  0.875481  0.047178  0.250000  1
