# generated using pymatgen
data_Pa4Al24MoPt8
_symmetry_space_group_name_H-M   'P 1'
_cell_length_a   7.57959661
_cell_length_b   7.67567420
_cell_length_c   13.05256300
_cell_angle_alpha   85.02397065
_cell_angle_beta   79.18757745
_cell_angle_gamma   59.54978627
_symmetry_Int_Tables_number   1
_chemical_formula_structural   Pa4Al24MoPt8
_chemical_formula_sum   'Pa4 Al24 Mo1 Pt8'
_cell_volume   642.98433254
_cell_formula_units_Z   1
loop_
 _symmetry_equiv_pos_site_id
 _symmetry_equiv_pos_as_xyz
  1  'x, y, z'
loop_
 _atom_site_type_symbol
 _atom_site_label
 _atom_site_symmetry_multiplicity
 _atom_site_fract_x
 _atom_site_fract_y
 _atom_site_fract_z
 _atom_site_occupancy
  Pa  Pa0  1  0.378561  0.182450  0.810826  1
  Pa  Pa1  1  0.621439  0.817550  0.189174  1
  Pa  Pa2  1  0.747594  0.498411  0.810654  1
  Pa  Pa3  1  0.252406  0.501589  0.189346  1
  Al  Al4  1  0.684502  0.838067  0.942818  1
  Al  Al5  1  0.315498  0.161933  0.057182  1
  Al  Al6  1  0.145698  0.831559  0.561737  1
  Al  Al7  1  0.854302  0.168441  0.438263  1
  Al  Al8  1  0.482542  0.165922  0.559541  1
  Al  Al9  1  0.517458  0.834078  0.440459  1
  Al  Al10  1  0.220016  0.159976  0.327402  1
  Al  Al11  1  0.779984  0.840024  0.672598  1
  Al  Al12  1  0.438903  0.509825  0.673059  1
  Al  Al13  1  0.561097  0.490175  0.326941  1
  Al  Al14  1  0.111293  0.156565  0.666226  1
  Al  Al15  1  0.888707  0.843435  0.333774  1
  Al  Al16  1  0.353475  0.503545  0.942735  1
  Al  Al17  1  0.646525  0.496455  0.057265  1
  Al  Al18  1  0.013539  0.167114  0.959065  1
  Al  Al19  1  0.986461  0.832886  0.040935  1
  Al  Al20  1  0.187970  0.498842  0.441829  1
  Al  Al21  1  0.812030  0.501158  0.558171  1
  Al  Al22  1  0.733655  0.157054  0.183437  1
  Al  Al23  1  0.266345  0.842946  0.816563  1
  Al  Al24  1  0.060572  0.643800  0.817196  1
  Al  Al25  1  0.939428  0.356200  0.182804  1
  Al  Al26  1  0.854668  0.049303  0.816372  1
  Al  Al27  1  0.145332  0.950697  0.183628  1
  Mo  Mo28  1  0.000000  0.500000  0.000000  1
  Pt  Pt29  1  0.119528  0.491098  0.641306  1
  Pt  Pt30  1  0.880472  0.508902  0.358694  1
  Pt  Pt31  1  0.654741  0.172802  0.000008  1
  Pt  Pt32  1  0.345259  0.827198  0.999992  1
  Pt  Pt33  1  0.535830  0.167216  0.361708  1
  Pt  Pt34  1  0.464170  0.832784  0.638292  1
  Pt  Pt35  1  0.778368  0.176200  0.637368  1
  Pt  Pt36  1  0.221632  0.823800  0.362632  1
