# generated using pymatgen
data_La7Ho(Si3Pt)4
_symmetry_space_group_name_H-M   'P 1'
_cell_length_a   8.27994100
_cell_length_b   8.27994140
_cell_length_c   8.73623300
_cell_angle_alpha   90.00000000
_cell_angle_beta   90.00000000
_cell_angle_gamma   119.99999440
_symmetry_Int_Tables_number   1
_chemical_formula_structural   La7Ho(Si3Pt)4
_chemical_formula_sum   'La7 Ho1 Si12 Pt4'
_cell_volume   518.69178528
_cell_formula_units_Z   1
loop_
 _symmetry_equiv_pos_site_id
 _symmetry_equiv_pos_as_xyz
  1  'x, y, z'
loop_
 _atom_site_type_symbol
 _atom_site_label
 _atom_site_symmetry_multiplicity
 _atom_site_fract_x
 _atom_site_fract_y
 _atom_site_fract_z
 _atom_site_occupancy
  La  La0  1  0.000000  0.000000  0.750000  1
  La  La1  1  0.500516  0.499484  0.250000  1
  La  La2  1  0.500516  0.001034  0.250000  1
  La  La3  1  0.998966  0.499484  0.250000  1
  La  La4  1  0.499524  0.500476  0.750000  1
  La  La5  1  0.499524  0.999046  0.750000  1
  La  La6  1  0.000954  0.500476  0.750000  1
  Ho  Ho7  1  0.000000  0.000000  0.250000  1
  Si  Si8  1  0.164628  0.835372  0.497802  1
  Si  Si9  1  0.164628  0.329256  0.497802  1
  Si  Si10  1  0.670744  0.835372  0.497802  1
  Si  Si11  1  0.835437  0.164563  0.496930  1
  Si  Si12  1  0.835437  0.670874  0.496930  1
  Si  Si13  1  0.329126  0.164563  0.496930  1
  Si  Si14  1  0.835437  0.164563  0.003070  1
  Si  Si15  1  0.835437  0.670874  0.003070  1
  Si  Si16  1  0.329126  0.164563  0.003070  1
  Si  Si17  1  0.164628  0.835372  0.002198  1
  Si  Si18  1  0.164628  0.329256  0.002198  1
  Si  Si19  1  0.670744  0.835372  0.002198  1
  Pt  Pt20  1  0.333333  0.666667  0.496445  1
  Pt  Pt21  1  0.666667  0.333333  0.500290  1
  Pt  Pt22  1  0.666667  0.333333  0.999710  1
  Pt  Pt23  1  0.333333  0.666667  0.003555  1
