# generated using pymatgen
data_Mn3Cr3CoMoP4
_symmetry_space_group_name_H-M   'P 1'
_cell_length_a   3.57183400
_cell_length_b   5.86289466
_cell_length_c   6.70502441
_cell_angle_alpha   90.03715239
_cell_angle_beta   90.00000000
_cell_angle_gamma   90.00000000
_symmetry_Int_Tables_number   1
_chemical_formula_structural   Mn3Cr3CoMoP4
_chemical_formula_sum   'Mn3 Cr3 Co1 Mo1 P4'
_cell_volume   140.41180745
_cell_formula_units_Z   1
loop_
 _symmetry_equiv_pos_site_id
 _symmetry_equiv_pos_as_xyz
  1  'x, y, z'
loop_
 _atom_site_type_symbol
 _atom_site_label
 _atom_site_symmetry_multiplicity
 _atom_site_fract_x
 _atom_site_fract_y
 _atom_site_fract_z
 _atom_site_occupancy
  Mn  Mn0  1  0.750000  0.640236  0.441610  1
  Mn  Mn1  1  0.250000  0.856603  0.940529  1
  Mn  Mn2  1  0.750000  0.142094  0.058390  1
  Cr  Cr3  1  0.250000  0.470163  0.172969  1
  Cr  Cr4  1  0.250000  0.980654  0.325530  1
  Cr  Cr5  1  0.750000  0.023710  0.670588  1
  Co  Co6  1  0.250000  0.351897  0.561162  1
  Mo  Mo7  1  0.750000  0.529968  0.830796  1
  P  P8  1  0.250000  0.743431  0.615618  1
  P  P9  1  0.250000  0.228489  0.871735  1
  P  P10  1  0.750000  0.263799  0.376490  1
  P  P11  1  0.750000  0.768957  0.134584  1
