# generated using pymatgen
data_Tb10Tl3In5(PdRh)2
_symmetry_space_group_name_H-M   'P 1'
_cell_length_a   8.18606899
_cell_length_b   18.42810995
_cell_length_c   3.64738100
_cell_angle_alpha   90.00000000
_cell_angle_beta   90.00000000
_cell_angle_gamma   89.90903298
_symmetry_Int_Tables_number   1
_chemical_formula_structural   Tb10Tl3In5(PdRh)2
_chemical_formula_sum   'Tb10 Tl3 In5 Pd2 Rh2'
_cell_volume   550.22051531
_cell_formula_units_Z   1
loop_
 _symmetry_equiv_pos_site_id
 _symmetry_equiv_pos_as_xyz
  1  'x, y, z'
loop_
 _atom_site_type_symbol
 _atom_site_label
 _atom_site_symmetry_multiplicity
 _atom_site_fract_x
 _atom_site_fract_y
 _atom_site_fract_z
 _atom_site_occupancy
  Tb  Tb0  1  0.498302  0.500196  0.000000  1
  Tb  Tb1  1  0.000040  0.000027  0.000000  1
  Tb  Tb2  1  0.734120  0.279086  0.000000  1
  Tb  Tb3  1  0.266158  0.720797  0.000000  1
  Tb  Tb4  1  0.744617  0.779776  0.000000  1
  Tb  Tb5  1  0.254845  0.220003  0.000000  1
  Tb  Tb6  1  0.615399  0.088520  0.000000  1
  Tb  Tb7  1  0.384805  0.911440  0.000000  1
  Tb  Tb8  1  0.883021  0.585949  0.000000  1
  Tb  Tb9  1  0.118188  0.414821  0.000000  1
  Tl  Tl10  1  0.709056  0.932268  0.500000  1
  Tl  Tl11  1  0.291157  0.067646  0.500000  1
  Tl  Tl12  1  0.791927  0.432886  0.500000  1
  In  In13  1  0.207741  0.568104  0.500000  1
  In  In14  1  0.574737  0.649432  0.500000  1
  In  In15  1  0.422724  0.350003  0.500000  1
  In  In16  1  0.922301  0.150830  0.500000  1
  In  In17  1  0.077388  0.849077  0.500000  1
  Pd  Pd18  1  0.977463  0.696594  0.500000  1
  Pd  Pd19  1  0.025439  0.302522  0.500000  1
  Rh  Rh20  1  0.526228  0.196826  0.500000  1
  Rh  Rh21  1  0.474344  0.803195  0.500000  1
