# generated using pymatgen
data_Lu5GaCuSb
_symmetry_space_group_name_H-M   'P 1'
_cell_length_a   8.34543793
_cell_length_b   8.34543788
_cell_length_c   8.45977956
_cell_angle_alpha   124.52450308
_cell_angle_beta   124.52450650
_cell_angle_gamma   81.42825917
_symmetry_Int_Tables_number   1
_chemical_formula_structural   Lu5GaCuSb
_chemical_formula_sum   'Lu10 Ga2 Cu2 Sb2'
_cell_volume   386.85638291
_cell_formula_units_Z   2
loop_
 _symmetry_equiv_pos_site_id
 _symmetry_equiv_pos_as_xyz
  1  'x, y, z'
loop_
 _atom_site_type_symbol
 _atom_site_label
 _atom_site_symmetry_multiplicity
 _atom_site_fract_x
 _atom_site_fract_y
 _atom_site_fract_z
 _atom_site_occupancy
  Lu  Lu0  1  0.000000  0.000000  0.000000  1
  Lu  Lu1  1  0.500000  0.500000  0.000000  1
  Lu  Lu2  1  0.792187  0.292187  0.797140  1
  Lu  Lu3  1  0.207813  0.707813  0.202860  1
  Lu  Lu4  1  0.495047  0.995047  0.202860  1
  Lu  Lu5  1  0.301760  0.476121  0.500000  1
  Lu  Lu6  1  0.023879  0.198240  0.500000  1
  Lu  Lu7  1  0.504953  0.004953  0.797140  1
  Lu  Lu8  1  0.698240  0.523879  0.500000  1
  Lu  Lu9  1  0.976121  0.801760  0.500000  1
  Ga  Ga10  1  0.141459  0.641459  0.782918  1
  Ga  Ga11  1  0.858541  0.358541  0.217082  1
  Cu  Cu12  1  0.626142  0.873858  0.500000  1
  Cu  Cu13  1  0.373858  0.126142  0.500000  1
  Sb  Sb14  1  0.250000  0.250000  0.000000  1
  Sb  Sb15  1  0.750000  0.750000  0.000000  1
