# generated using pymatgen
data_Ho20Ir6PtRh5
_symmetry_space_group_name_H-M   'P 1'
_cell_length_a   10.87476382
_cell_length_b   10.87476382
_cell_length_c   6.35654306
_cell_angle_alpha   90.00236519
_cell_angle_beta   90.00236939
_cell_angle_gamma   89.70004230
_symmetry_Int_Tables_number   1
_chemical_formula_structural   Ho20Ir6PtRh5
_chemical_formula_sum   'Ho20 Ir6 Pt1 Rh5'
_cell_volume   751.71758219
_cell_formula_units_Z   1
loop_
 _symmetry_equiv_pos_site_id
 _symmetry_equiv_pos_as_xyz
  1  'x, y, z'
loop_
 _atom_site_type_symbol
 _atom_site_label
 _atom_site_symmetry_multiplicity
 _atom_site_fract_x
 _atom_site_fract_y
 _atom_site_fract_z
 _atom_site_occupancy
  Ho  Ho0  1  0.290188  0.088749  0.379982  1
  Ho  Ho1  1  0.290559  0.910813  0.879368  1
  Ho  Ho2  1  0.709289  0.085219  0.879044  1
  Ho  Ho3  1  0.708883  0.909035  0.379612  1
  Ho  Ho4  1  0.588955  0.789993  0.879897  1
  Ho  Ho5  1  0.586216  0.207901  0.375481  1
  Ho  Ho6  1  0.410237  0.790815  0.378896  1
  Ho  Ho7  1  0.408161  0.208090  0.880402  1
  Ho  Ho8  1  0.210007  0.411045  0.620103  1
  Ho  Ho9  1  0.209185  0.589763  0.121104  1
  Ho  Ho10  1  0.792099  0.413784  0.124519  1
  Ho  Ho11  1  0.791910  0.591839  0.619598  1
  Ho  Ho12  1  0.911251  0.709812  0.120018  1
  Ho  Ho13  1  0.914781  0.290711  0.620956  1
  Ho  Ho14  1  0.089187  0.709441  0.620632  1
  Ho  Ho15  1  0.090965  0.291117  0.120388  1
  Ho  Ho16  1  0.999797  0.999649  0.499555  1
  Ho  Ho17  1  0.000351  0.000203  0.000445  1
  Ho  Ho18  1  0.498523  0.500976  0.999642  1
  Ho  Ho19  1  0.499024  0.501477  0.500358  1
  Ir  Ir20  1  0.845718  0.846916  0.750405  1
  Ir  Ir21  1  0.153084  0.154282  0.749595  1
  Ir  Ir22  1  0.154121  0.845879  0.250000  1
  Ir  Ir23  1  0.654514  0.652900  0.249797  1
  Ir  Ir24  1  0.347100  0.345486  0.250203  1
  Ir  Ir25  1  0.345778  0.654222  0.750000  1
  Pt  Pt26  1  0.655096  0.344904  0.750000  1
  Rh  Rh27  1  0.844801  0.155199  0.250000  1
  Rh  Rh28  1  0.501055  0.000741  0.123564  1
  Rh  Rh29  1  0.500580  0.000674  0.624159  1
  Rh  Rh30  1  0.999326  0.499420  0.875841  1
  Rh  Rh31  1  0.999259  0.498945  0.376436  1
