# generated using pymatgen
data_La12Nd4Cd4CoPt3
_symmetry_space_group_name_H-M   'P 1'
_cell_length_a   10.06740310
_cell_length_b   10.07749456
_cell_length_c   10.07749411
_cell_angle_alpha   60.24225594
_cell_angle_beta   60.33822366
_cell_angle_gamma   60.33822844
_symmetry_Int_Tables_number   1
_chemical_formula_structural   La12Nd4Cd4CoPt3
_chemical_formula_sum   'La12 Nd4 Cd4 Co1 Pt3'
_cell_volume   727.95727566
_cell_formula_units_Z   1
loop_
 _symmetry_equiv_pos_site_id
 _symmetry_equiv_pos_as_xyz
  1  'x, y, z'
loop_
 _atom_site_type_symbol
 _atom_site_label
 _atom_site_symmetry_multiplicity
 _atom_site_fract_x
 _atom_site_fract_y
 _atom_site_fract_z
 _atom_site_occupancy
  La  La0  1  0.349925  0.350229  0.350229  1
  La  La1  1  0.343982  0.343507  0.955834  1
  La  La2  1  0.343982  0.955834  0.343507  1
  La  La3  1  0.956168  0.343023  0.343023  1
  La  La4  1  0.819277  0.191156  0.191156  1
  La  La5  1  0.194335  0.805827  0.805827  1
  La  La6  1  0.191314  0.819561  0.190817  1
  La  La7  1  0.806385  0.194692  0.806309  1
  La  La8  1  0.191314  0.190817  0.819561  1
  La  La9  1  0.806385  0.806309  0.194692  1
  La  La10  1  0.935512  0.565084  0.565084  1
  La  La11  1  0.566238  0.931936  0.931936  1
  Nd  Nd12  1  0.562596  0.938280  0.562343  1
  Nd  Nd13  1  0.933899  0.564066  0.934817  1
  Nd  Nd14  1  0.562596  0.562343  0.938280  1
  Nd  Nd15  1  0.933899  0.934817  0.564066  1
  Cd  Cd16  1  0.579051  0.580020  0.580020  1
  Cd  Cd17  1  0.581596  0.580355  0.258285  1
  Cd  Cd18  1  0.581596  0.258285  0.580355  1
  Cd  Cd19  1  0.258280  0.581594  0.581594  1
  Co  Co20  1  0.140431  0.142225  0.142225  1
  Pt  Pt21  1  0.143622  0.142813  0.573661  1
  Pt  Pt22  1  0.143622  0.573661  0.142813  1
  Pt  Pt23  1  0.573993  0.143564  0.143564  1
