# generated using pymatgen
data_Ho6Ga6Co16W
_symmetry_space_group_name_H-M   'P 1'
_cell_length_a   8.47054735
_cell_length_b   8.47054826
_cell_length_c   8.47054800
_cell_angle_alpha   60.00000100
_cell_angle_beta   59.99999746
_cell_angle_gamma   60.00000410
_symmetry_Int_Tables_number   1
_chemical_formula_structural   Ho6Ga6Co16W
_chemical_formula_sum   'Ho6 Ga6 Co16 W1'
_cell_volume   429.75359039
_cell_formula_units_Z   1
loop_
 _symmetry_equiv_pos_site_id
 _symmetry_equiv_pos_as_xyz
  1  'x, y, z'
loop_
 _atom_site_type_symbol
 _atom_site_label
 _atom_site_symmetry_multiplicity
 _atom_site_fract_x
 _atom_site_fract_y
 _atom_site_fract_z
 _atom_site_occupancy
  Ho  Ho0  1  0.717551  0.282449  0.282449  1
  Ho  Ho1  1  0.717551  0.282449  0.717551  1
  Ho  Ho2  1  0.717551  0.717551  0.282449  1
  Ho  Ho3  1  0.282449  0.717551  0.717551  1
  Ho  Ho4  1  0.282449  0.717551  0.282449  1
  Ho  Ho5  1  0.282449  0.282449  0.717551  1
  Ga  Ga6  1  0.500000  0.000000  0.000000  1
  Ga  Ga7  1  0.500000  0.000000  0.500000  1
  Ga  Ga8  1  0.500000  0.500000  0.000000  1
  Ga  Ga9  1  0.000000  0.500000  0.500000  1
  Ga  Ga10  1  0.000000  0.500000  0.000000  1
  Ga  Ga11  1  0.000000  0.000000  0.500000  1
  Co  Co12  1  0.631687  0.122771  0.122771  1
  Co  Co13  1  0.122771  0.631687  0.122771  1
  Co  Co14  1  0.122771  0.122771  0.631687  1
  Co  Co15  1  0.122771  0.122771  0.122771  1
  Co  Co16  1  0.368313  0.877229  0.877229  1
  Co  Co17  1  0.877229  0.368313  0.877229  1
  Co  Co18  1  0.877229  0.877229  0.368313  1
  Co  Co19  1  0.877229  0.877229  0.877229  1
  Co  Co20  1  0.035093  0.321636  0.321636  1
  Co  Co21  1  0.321636  0.035093  0.321636  1
  Co  Co22  1  0.321636  0.321636  0.035093  1
  Co  Co23  1  0.321636  0.321636  0.321636  1
  Co  Co24  1  0.964907  0.678364  0.678364  1
  Co  Co25  1  0.678364  0.964907  0.678364  1
  Co  Co26  1  0.678364  0.678364  0.964907  1
  Co  Co27  1  0.678364  0.678364  0.678364  1
  W  W28  1  0.000000  0.000000  0.000000  1
