# generated using pymatgen
data_TbDy3(Fe2Te)2
_symmetry_space_group_name_H-M   'P 1'
_cell_length_a   3.96939000
_cell_length_b   3.96938950
_cell_length_c   16.32377100
_cell_angle_alpha   90.00000000
_cell_angle_beta   90.00000000
_cell_angle_gamma   120.00000417
_symmetry_Int_Tables_number   1
_chemical_formula_structural   TbDy3(Fe2Te)2
_chemical_formula_sum   'Tb1 Dy3 Fe4 Te2'
_cell_volume   222.74019464
_cell_formula_units_Z   1
loop_
 _symmetry_equiv_pos_site_id
 _symmetry_equiv_pos_as_xyz
  1  'x, y, z'
loop_
 _atom_site_type_symbol
 _atom_site_label
 _atom_site_symmetry_multiplicity
 _atom_site_fract_x
 _atom_site_fract_y
 _atom_site_fract_z
 _atom_site_occupancy
  Tb  Tb0  1  0.000000  0.000000  0.117563  1
  Dy  Dy1  1  0.000000  0.000000  0.382874  1
  Dy  Dy2  1  0.000000  0.000000  0.617312  1
  Dy  Dy3  1  0.000000  0.000000  0.882465  1
  Fe  Fe4  1  0.333334  0.666667  0.001451  1
  Fe  Fe5  1  0.333334  0.666667  0.498169  1
  Fe  Fe6  1  0.666666  0.333334  0.501926  1
  Fe  Fe7  1  0.666666  0.333334  0.997641  1
  Te  Te8  1  0.666666  0.333334  0.250638  1
  Te  Te9  1  0.333334  0.666667  0.749961  1
