# generated using pymatgen
data_Ac3Cd5Pd
_symmetry_space_group_name_H-M   'P 1'
_cell_length_a   8.22744800
_cell_length_b   8.22744815
_cell_length_c   4.42943900
_cell_angle_alpha   90.00000000
_cell_angle_beta   90.00000000
_cell_angle_gamma   119.99999457
_symmetry_Int_Tables_number   1
_chemical_formula_structural   Ac3Cd5Pd
_chemical_formula_sum   'Ac3 Cd5 Pd1'
_cell_volume   259.66276719
_cell_formula_units_Z   1
loop_
 _symmetry_equiv_pos_site_id
 _symmetry_equiv_pos_as_xyz
  1  'x, y, z'
loop_
 _atom_site_type_symbol
 _atom_site_label
 _atom_site_symmetry_multiplicity
 _atom_site_fract_x
 _atom_site_fract_y
 _atom_site_fract_z
 _atom_site_occupancy
  Ac  Ac0  1  0.596221  0.022043  0.000000  1
  Ac  Ac1  1  0.977957  0.574178  0.000000  1
  Ac  Ac2  1  0.425822  0.403779  0.000000  1
  Cd  Cd3  1  0.251484  0.999915  0.500000  1
  Cd  Cd4  1  0.000085  0.251568  0.500000  1
  Cd  Cd5  1  0.748432  0.748516  0.500000  1
  Cd  Cd6  1  0.333333  0.666667  0.500000  1
  Cd  Cd7  1  0.000000  0.000000  0.000000  1
  Pd  Pd8  1  0.666667  0.333333  0.500000  1
