# generated using pymatgen
data_CaLu2U(ReB6)2
_symmetry_space_group_name_H-M   'P 1'
_cell_length_a   3.65153800
_cell_length_b   9.10325093
_cell_length_c   11.47364745
_cell_angle_alpha   90.44406389
_cell_angle_beta   90.00000000
_cell_angle_gamma   90.00000000
_symmetry_Int_Tables_number   1
_chemical_formula_structural   CaLu2U(ReB6)2
_chemical_formula_sum   'Ca2 Lu4 U2 Re4 B24'
_cell_volume   381.38253045
_cell_formula_units_Z   2
loop_
 _symmetry_equiv_pos_site_id
 _symmetry_equiv_pos_as_xyz
  1  'x, y, z'
loop_
 _atom_site_type_symbol
 _atom_site_label
 _atom_site_symmetry_multiplicity
 _atom_site_fract_x
 _atom_site_fract_y
 _atom_site_fract_z
 _atom_site_occupancy
  Ca  Ca0  1  0.000000  0.823762  0.085077  1
  Ca  Ca1  1  0.000000  0.176238  0.914923  1
  Lu  Lu2  1  0.000000  0.944773  0.371699  1
  Lu  Lu3  1  0.000000  0.055227  0.628301  1
  Lu  Lu4  1  0.000000  0.443053  0.128172  1
  Lu  Lu5  1  0.000000  0.556947  0.871828  1
  U  U6  1  0.000000  0.321038  0.413679  1
  U  U7  1  0.000000  0.678962  0.586321  1
  Re  Re8  1  0.000000  0.634472  0.326488  1
  Re  Re9  1  0.000000  0.365528  0.673512  1
  Re  Re10  1  0.000000  0.144513  0.186574  1
  Re  Re11  1  0.000000  0.855487  0.813426  1
  B  B12  1  0.500000  0.552816  0.434466  1
  B  B13  1  0.500000  0.447184  0.565534  1
  B  B14  1  0.500000  0.054298  0.068486  1
  B  B15  1  0.500000  0.945702  0.931514  1
  B  B16  1  0.500000  0.749553  0.420375  1
  B  B17  1  0.500000  0.250447  0.579625  1
  B  B18  1  0.500000  0.250117  0.082472  1
  B  B19  1  0.500000  0.749883  0.917528  1
  B  B20  1  0.500000  0.791765  0.267025  1
  B  B21  1  0.500000  0.208235  0.732975  1
  B  B22  1  0.500000  0.294441  0.236808  1
  B  B23  1  0.500000  0.705559  0.763192  1
  B  B24  1  0.500000  0.629698  0.186248  1
  B  B25  1  0.500000  0.370302  0.813752  1
  B  B26  1  0.500000  0.133293  0.316824  1
  B  B27  1  0.500000  0.866707  0.683176  1
  B  B28  1  0.500000  0.983237  0.213516  1
  B  B29  1  0.500000  0.016763  0.786484  1
  B  B30  1  0.500000  0.481213  0.288655  1
  B  B31  1  0.500000  0.518787  0.711345  1
  B  B32  1  0.500000  0.596628  0.027164  1
  B  B33  1  0.500000  0.403372  0.972836  1
  B  B34  1  0.500000  0.108469  0.470628  1
  B  B35  1  0.500000  0.891531  0.529372  1
