# generated using pymatgen
data_Dy6ZrSn23Os6
_symmetry_space_group_name_H-M   'P 1'
_cell_length_a   9.85698030
_cell_length_b   9.85717884
_cell_length_c   10.07966793
_cell_angle_alpha   90.06130341
_cell_angle_beta   89.93845627
_cell_angle_gamma   120.20502178
_symmetry_Int_Tables_number   1
_chemical_formula_structural   Dy6ZrSn23Os6
_chemical_formula_sum   'Dy6 Zr1 Sn23 Os6'
_cell_volume   846.39309613
_cell_formula_units_Z   1
loop_
 _symmetry_equiv_pos_site_id
 _symmetry_equiv_pos_as_xyz
  1  'x, y, z'
loop_
 _atom_site_type_symbol
 _atom_site_label
 _atom_site_symmetry_multiplicity
 _atom_site_fract_x
 _atom_site_fract_y
 _atom_site_fract_z
 _atom_site_occupancy
  Dy  Dy0  1  0.998872  0.001123  0.999984  1
  Dy  Dy1  1  0.514724  0.485275  0.698635  1
  Dy  Dy2  1  0.484590  0.970474  0.302587  1
  Dy  Dy3  1  0.515158  0.029681  0.697268  1
  Dy  Dy4  1  0.029523  0.515412  0.302583  1
  Dy  Dy5  1  0.970318  0.484841  0.697267  1
  Zr  Zr6  1  0.489875  0.510124  0.299156  1
  Sn  Sn7  1  0.349841  0.001914  0.000791  1
  Sn  Sn8  1  0.649761  0.999966  0.999525  1
  Sn  Sn9  1  0.000033  0.350234  0.999526  1
  Sn  Sn10  1  0.998091  0.650122  0.000784  1
  Sn  Sn11  1  0.649725  0.649854  0.999588  1
  Sn  Sn12  1  0.350145  0.350279  0.999585  1
  Sn  Sn13  1  0.332773  0.667228  0.826380  1
  Sn  Sn14  1  0.667175  0.332826  0.173198  1
  Sn  Sn15  1  0.999385  0.000615  0.498862  1
  Sn  Sn16  1  0.779769  0.220230  0.463123  1
  Sn  Sn17  1  0.220321  0.779679  0.537363  1
  Sn  Sn18  1  0.776378  0.559167  0.462567  1
  Sn  Sn19  1  0.222821  0.442273  0.534569  1
  Sn  Sn20  1  0.440835  0.223621  0.462565  1
  Sn  Sn21  1  0.557731  0.777187  0.534579  1
  Sn  Sn22  1  0.339889  0.660110  0.135552  1
  Sn  Sn23  1  0.666703  0.333299  0.870706  1
  Sn  Sn24  1  0.115862  0.884142  0.277196  1
  Sn  Sn25  1  0.883449  0.116551  0.722253  1
  Sn  Sn26  1  0.119539  0.238280  0.278144  1
  Sn  Sn27  1  0.882835  0.765797  0.722391  1
  Sn  Sn28  1  0.761735  0.880468  0.278140  1
  Sn  Sn29  1  0.234201  0.117163  0.722392  1
  Os  Os30  1  0.830056  0.169941  0.202316  1
  Os  Os31  1  0.170294  0.829717  0.798953  1
  Os  Os32  1  0.824725  0.656820  0.203117  1
  Os  Os33  1  0.170978  0.341289  0.797615  1
  Os  Os34  1  0.343180  0.175276  0.203123  1
  Os  Os35  1  0.658710  0.829024  0.797615  1
