# generated using pymatgen
data_DyTh3(InNi2)2
_symmetry_space_group_name_H-M   'P 1'
_cell_length_a   7.62829460
_cell_length_b   7.62829460
_cell_length_c   3.66460900
_cell_angle_alpha   90.00000000
_cell_angle_beta   90.00000000
_cell_angle_gamma   88.86285275
_symmetry_Int_Tables_number   1
_chemical_formula_structural   DyTh3(InNi2)2
_chemical_formula_sum   'Dy1 Th3 In2 Ni4'
_cell_volume   213.20481912
_cell_formula_units_Z   1
loop_
 _symmetry_equiv_pos_site_id
 _symmetry_equiv_pos_as_xyz
  1  'x, y, z'
loop_
 _atom_site_type_symbol
 _atom_site_label
 _atom_site_symmetry_multiplicity
 _atom_site_fract_x
 _atom_site_fract_y
 _atom_site_fract_z
 _atom_site_occupancy
  Dy  Dy0  1  0.673182  0.173182  0.500000  1
  Th  Th1  1  0.330555  0.830555  0.500000  1
  Th  Th2  1  0.171073  0.325459  0.500000  1
  Th  Th3  1  0.825459  0.671073  0.500000  1
  In  In4  1  0.503300  0.491444  0.000000  1
  In  In5  1  0.991444  0.003300  0.000000  1
  Ni  Ni6  1  0.128627  0.628627  0.000000  1
  Ni  Ni7  1  0.882213  0.382213  0.000000  1
  Ni  Ni8  1  0.622534  0.871614  0.000000  1
  Ni  Ni9  1  0.371614  0.122534  0.000000  1
