# generated using pymatgen
data_Tm2Lu6Tc3B24Rh
_symmetry_space_group_name_H-M   'P 1'
_cell_length_a   3.61726000
_cell_length_b   9.05268100
_cell_length_c   11.41880801
_cell_angle_alpha   90.12561256
_cell_angle_beta   90.00000000
_cell_angle_gamma   90.00000000
_symmetry_Int_Tables_number   1
_chemical_formula_structural   Tm2Lu6Tc3B24Rh
_chemical_formula_sum   'Tm2 Lu6 Tc3 B24 Rh1'
_cell_volume   373.91825671
_cell_formula_units_Z   1
loop_
 _symmetry_equiv_pos_site_id
 _symmetry_equiv_pos_as_xyz
  1  'x, y, z'
loop_
 _atom_site_type_symbol
 _atom_site_label
 _atom_site_symmetry_multiplicity
 _atom_site_fract_x
 _atom_site_fract_y
 _atom_site_fract_z
 _atom_site_occupancy
  Tm  Tm0  1  0.500000  0.317257  0.415845  1
  Tm  Tm1  1  0.500000  0.678926  0.591232  1
  Lu  Lu2  1  0.500000  0.177935  0.912762  1
  Lu  Lu3  1  0.500000  0.826930  0.080677  1
  Lu  Lu4  1  0.500000  0.440478  0.128474  1
  Lu  Lu5  1  0.500000  0.557250  0.871221  1
  Lu  Lu6  1  0.500000  0.056276  0.629515  1
  Lu  Lu7  1  0.500000  0.943729  0.370002  1
  Tc  Tc8  1  0.500000  0.138134  0.180266  1
  Tc  Tc9  1  0.500000  0.861907  0.820719  1
  Tc  Tc10  1  0.500000  0.362408  0.678211  1
  B  B11  1  0.000000  0.100132  0.471813  1
  B  B12  1  0.000000  0.896738  0.527765  1
  B  B13  1  0.000000  0.398368  0.972205  1
  B  B14  1  0.000000  0.602808  0.028915  1
  B  B15  1  0.000000  0.129958  0.315884  1
  B  B16  1  0.000000  0.869417  0.684611  1
  B  B17  1  0.000000  0.370045  0.815262  1
  B  B18  1  0.000000  0.631016  0.183075  1
  B  B19  1  0.000000  0.053279  0.065917  1
  B  B20  1  0.000000  0.947727  0.933253  1
  B  B21  1  0.000000  0.446592  0.566041  1
  B  B22  1  0.000000  0.553780  0.434360  1
  B  B23  1  0.000000  0.481694  0.287777  1
  B  B24  1  0.000000  0.519352  0.712477  1
  B  B25  1  0.000000  0.019251  0.787182  1
  B  B26  1  0.000000  0.981006  0.211940  1
  B  B27  1  0.000000  0.250033  0.080525  1
  B  B28  1  0.000000  0.750929  0.919600  1
  B  B29  1  0.000000  0.249288  0.580564  1
  B  B30  1  0.000000  0.749762  0.420733  1
  B  B31  1  0.000000  0.292448  0.235936  1
  B  B32  1  0.000000  0.707794  0.765295  1
  B  B33  1  0.000000  0.207845  0.735056  1
  B  B34  1  0.000000  0.791649  0.264134  1
  Rh  Rh35  1  0.500000  0.637857  0.320760  1
