# generated using pymatgen
data_Li3Zr6InCBr18
_symmetry_space_group_name_H-M   'P 1'
_cell_length_a   10.18247221
_cell_length_b   10.25605410
_cell_length_c   10.25568989
_cell_angle_alpha   119.15693777
_cell_angle_beta   101.22927180
_cell_angle_gamma   100.58644245
_symmetry_Int_Tables_number   1
_chemical_formula_structural   Li3Zr6InCBr18
_chemical_formula_sum   'Li3 Zr6 In1 C1 Br18'
_cell_volume   867.52613434
_cell_formula_units_Z   1
loop_
 _symmetry_equiv_pos_site_id
 _symmetry_equiv_pos_as_xyz
  1  'x, y, z'
loop_
 _atom_site_type_symbol
 _atom_site_label
 _atom_site_symmetry_multiplicity
 _atom_site_fract_x
 _atom_site_fract_y
 _atom_site_fract_z
 _atom_site_occupancy
  Li  Li0  1  0.025020  0.731953  0.378553  1
  Li  Li1  1  0.919577  0.971602  0.812474  1
  Li  Li2  1  0.094898  0.022482  0.189855  1
  Zr  Zr3  1  0.351233  0.411769  0.755050  1
  Zr  Zr4  1  0.366627  0.648926  0.122987  1
  Zr  Zr5  1  0.638300  0.711082  0.008720  1
  Zr  Zr6  1  0.652586  0.586172  0.251516  1
  Zr  Zr7  1  0.365721  0.286711  0.997356  1
  Zr  Zr8  1  0.639229  0.349599  0.885363  1
  In  In9  1  0.855614  0.273976  0.512111  1
  C  C10  1  0.501653  0.498713  0.003017  1
  Br  Br11  1  0.837215  0.430994  0.155145  1
  Br  Br12  1  0.519216  0.767941  0.424742  1
  Br  Br13  1  0.182051  0.020168  0.972565  1
  Br  Br14  1  0.174602  0.574011  0.854410  1
  Br  Br15  1  0.830710  0.853172  0.303595  1
  Br  Br16  1  0.522177  0.355657  0.282084  1
  Br  Br17  1  0.814152  0.166827  0.743387  1
  Br  Br18  1  0.174394  0.151948  0.708566  1
  Br  Br19  1  0.505430  0.916939  0.150920  1
  Br  Br20  1  0.818820  0.573387  0.878967  1
  Br  Br21  1  0.189646  0.834265  0.269403  1
  Br  Br22  1  0.149794  0.295310  0.449005  1
  Br  Br23  1  0.485874  0.643604  0.726811  1
  Br  Br24  1  0.825643  0.975741  0.031733  1
  Br  Br25  1  0.488874  0.230457  0.583833  1
  Br  Br26  1  0.191244  0.428457  0.134891  1
  Br  Br27  1  0.876013  0.702669  0.550723  1
  Br  Br28  1  0.503688  0.085470  0.862219  1
