# generated using pymatgen
data_Th8Ta11Si16Tc
_symmetry_space_group_name_H-M   'P 1'
_cell_length_a   7.15593924
_cell_length_b   7.15558142
_cell_length_c   13.35166488
_cell_angle_alpha   89.84191966
_cell_angle_beta   90.04916711
_cell_angle_gamma   89.95385004
_symmetry_Int_Tables_number   1
_chemical_formula_structural   Th8Ta11Si16Tc
_chemical_formula_sum   'Th8 Ta11 Si16 Tc1'
_cell_volume   683.66766662
_cell_formula_units_Z   1
loop_
 _symmetry_equiv_pos_site_id
 _symmetry_equiv_pos_as_xyz
  1  'x, y, z'
loop_
 _atom_site_type_symbol
 _atom_site_label
 _atom_site_symmetry_multiplicity
 _atom_site_fract_x
 _atom_site_fract_y
 _atom_site_fract_z
 _atom_site_occupancy
  Th  Th0  1  0.000969  0.337049  0.220320  1
  Th  Th1  1  0.001419  0.664273  0.717484  1
  Th  Th2  1  0.161996  0.501660  0.468619  1
  Th  Th3  1  0.499836  0.836187  0.032692  1
  Th  Th4  1  0.836268  0.501104  0.968857  1
  Th  Th5  1  0.498015  0.161472  0.529414  1
  Th  Th6  1  0.335550  0.998939  0.780850  1
  Th  Th7  1  0.665308  0.999683  0.280554  1
  Ta  Ta8  1  0.167443  0.166688  0.000797  1
  Ta  Ta9  1  0.829783  0.832176  0.499636  1
  Ta  Ta10  1  0.331104  0.665844  0.249526  1
  Ta  Ta11  1  0.667369  0.331927  0.749050  1
  Ta  Ta12  1  0.837837  0.005541  0.873739  1
  Ta  Ta13  1  0.499761  0.662185  0.624223  1
  Ta  Ta14  1  0.337765  0.496337  0.876151  1
  Ta  Ta15  1  0.494203  0.334271  0.124370  1
  Ta  Ta16  1  0.662800  0.503573  0.375420  1
  Ta  Ta17  1  0.994525  0.161768  0.627186  1
  Ta  Ta18  1  0.002722  0.835668  0.124556  1
  Si  Si19  1  0.286187  0.034327  0.189711  1
  Si  Si20  1  0.709691  0.960364  0.684954  1
  Si  Si21  1  0.460016  0.788587  0.434981  1
  Si  Si22  1  0.210871  0.536711  0.063904  1
  Si  Si23  1  0.538263  0.210585  0.935834  1
  Si  Si24  1  0.785835  0.461145  0.563810  1
  Si  Si25  1  0.039900  0.289852  0.814610  1
  Si  Si26  1  0.969419  0.722303  0.314509  1
  Si  Si27  1  0.378074  0.297594  0.314894  1
  Si  Si28  1  0.623439  0.701262  0.813976  1
  Si  Si29  1  0.195882  0.878207  0.560334  1
  Si  Si30  1  0.123253  0.800275  0.936091  1
  Si  Si31  1  0.799135  0.123264  0.065082  1
  Si  Si32  1  0.883266  0.195374  0.436569  1
  Si  Si33  1  0.298408  0.375546  0.685440  1
  Si  Si34  1  0.700447  0.620280  0.186197  1
  Tc  Tc35  1  0.173244  0.007978  0.375661  1
