# generated using pymatgen
data_Nb4Al5Zn3
_symmetry_space_group_name_H-M   'P 1'
_cell_length_a   5.02722978
_cell_length_b   5.10964311
_cell_length_c   8.41323000
_cell_angle_alpha   90.00000000
_cell_angle_beta   90.00000000
_cell_angle_gamma   120.18172099
_symmetry_Int_Tables_number   1
_chemical_formula_structural   Nb4Al5Zn3
_chemical_formula_sum   'Nb4 Al5 Zn3'
_cell_volume   186.81619637
_cell_formula_units_Z   1
loop_
 _symmetry_equiv_pos_site_id
 _symmetry_equiv_pos_as_xyz
  1  'x, y, z'
loop_
 _atom_site_type_symbol
 _atom_site_label
 _atom_site_symmetry_multiplicity
 _atom_site_fract_x
 _atom_site_fract_y
 _atom_site_fract_z
 _atom_site_occupancy
  Nb  Nb0  1  0.672256  0.340108  0.561707  1
  Nb  Nb1  1  0.326726  0.662178  0.442494  1
  Nb  Nb2  1  0.326726  0.662178  0.057506  1
  Nb  Nb3  1  0.672256  0.340108  0.938293  1
  Al  Al4  1  0.997203  0.003396  0.496368  1
  Al  Al5  1  0.997203  0.003396  0.003632  1
  Al  Al6  1  0.182507  0.350678  0.750000  1
  Al  Al7  1  0.183132  0.837874  0.750000  1
  Al  Al8  1  0.817028  0.642155  0.250000  1
  Zn  Zn9  1  0.670235  0.837668  0.750000  1
  Zn  Zn10  1  0.820586  0.161502  0.250000  1
  Zn  Zn11  1  0.334140  0.158761  0.250000  1
