# generated using pymatgen
data_Er4CoMo2Os5
_symmetry_space_group_name_H-M   'P 1'
_cell_length_a   5.46641459
_cell_length_b   5.46641428
_cell_length_c   8.44799900
_cell_angle_alpha   90.00000000
_cell_angle_beta   90.00000000
_cell_angle_gamma   121.44829885
_symmetry_Int_Tables_number   1
_chemical_formula_structural   Er4CoMo2Os5
_chemical_formula_sum   'Er4 Co1 Mo2 Os5'
_cell_volume   215.35980836
_cell_formula_units_Z   1
loop_
 _symmetry_equiv_pos_site_id
 _symmetry_equiv_pos_as_xyz
  1  'x, y, z'
loop_
 _atom_site_type_symbol
 _atom_site_label
 _atom_site_symmetry_multiplicity
 _atom_site_fract_x
 _atom_site_fract_y
 _atom_site_fract_z
 _atom_site_occupancy
  Er  Er0  1  0.334701  0.665299  0.434554  1
  Er  Er1  1  0.666524  0.333476  0.562841  1
  Er  Er2  1  0.666524  0.333476  0.937159  1
  Er  Er3  1  0.334701  0.665299  0.065446  1
  Co  Co4  1  0.828718  0.171282  0.250000  1
  Mo  Mo5  1  0.002222  0.997778  0.496284  1
  Mo  Mo6  1  0.002222  0.997778  0.003716  1
  Os  Os7  1  0.827339  0.653196  0.250000  1
  Os  Os8  1  0.346804  0.172661  0.250000  1
  Os  Os9  1  0.168141  0.831859  0.750000  1
  Os  Os10  1  0.171219  0.349116  0.750000  1
  Os  Os11  1  0.650884  0.828781  0.750000  1
