# generated using pymatgen
data_Nd11Y(SiBr3)4
_symmetry_space_group_name_H-M   'P 1'
_cell_length_a   10.45842658
_cell_length_b   10.44961644
_cell_length_c   10.40219860
_cell_angle_alpha   109.47156124
_cell_angle_beta   109.50617496
_cell_angle_gamma   109.63109253
_symmetry_Int_Tables_number   1
_chemical_formula_structural   Nd11Y(SiBr3)4
_chemical_formula_sum   'Nd11 Y1 Si4 Br12'
_cell_volume   873.00911325
_cell_formula_units_Z   1
loop_
 _symmetry_equiv_pos_site_id
 _symmetry_equiv_pos_as_xyz
  1  'x, y, z'
loop_
 _atom_site_type_symbol
 _atom_site_label
 _atom_site_symmetry_multiplicity
 _atom_site_fract_x
 _atom_site_fract_y
 _atom_site_fract_z
 _atom_site_occupancy
  Nd  Nd0  1  0.261743  0.011788  0.023498  1
  Nd  Nd1  1  0.024559  0.262879  0.012334  1
  Nd  Nd2  1  0.487757  0.749423  0.012348  1
  Nd  Nd3  1  0.751121  0.238677  0.263144  1
  Nd  Nd4  1  0.012049  0.024495  0.263157  1
  Nd  Nd5  1  0.012294  0.488968  0.751134  1
  Nd  Nd6  1  0.238844  0.262135  0.751148  1
  Nd  Nd7  1  0.261123  0.748039  0.237126  1
  Nd  Nd8  1  0.238734  0.477414  0.490138  1
  Nd  Nd9  1  0.476003  0.489081  0.237149  1
  Nd  Nd10  1  0.751444  0.012764  0.490171  1
  Y  Y11  1  0.484519  0.234539  0.469067  1
  Si  Si12  1  0.000201  0.250197  0.500410  1
  Si  Si13  1  0.250050  0.500047  0.000111  1
  Si  Si14  1  0.500297  0.002477  0.252880  1
  Si  Si15  1  0.252576  0.250403  0.252867  1
  Br  Br16  1  0.755086  0.745880  0.250514  1
  Br  Br17  1  0.504651  0.249566  0.995917  1
  Br  Br18  1  0.258784  0.004006  0.505510  1
  Br  Br19  1  0.509016  0.497402  0.748408  1
  Br  Br20  1  0.995669  0.990969  0.746061  1
  Br  Br21  1  0.745617  0.995596  0.991224  1
  Br  Br22  1  0.504620  0.754613  0.509220  1
  Br  Br23  1  0.746731  0.501526  0.505545  1
  Br  Br24  1  0.995413  0.504647  0.250517  1
  Br  Br25  1  0.991314  0.746382  0.995929  1
  Br  Br26  1  0.250406  0.755082  0.746081  1
  Br  Br27  1  0.739376  0.251004  0.748394  1
