# generated using pymatgen
data_Nb16Co3Cu5N4
_symmetry_space_group_name_H-M   'P 1'
_cell_length_a   8.28660246
_cell_length_b   8.29168217
_cell_length_c   8.29168200
_cell_angle_alpha   60.00000066
_cell_angle_beta   59.97972062
_cell_angle_gamma   59.97971747
_symmetry_Int_Tables_number   1
_chemical_formula_structural   Nb16Co3Cu5N4
_chemical_formula_sum   'Nb16 Co3 Cu5 N4'
_cell_volume   402.72963962
_cell_formula_units_Z   1
loop_
 _symmetry_equiv_pos_site_id
 _symmetry_equiv_pos_as_xyz
  1  'x, y, z'
loop_
 _atom_site_type_symbol
 _atom_site_label
 _atom_site_symmetry_multiplicity
 _atom_site_fract_x
 _atom_site_fract_y
 _atom_site_fract_z
 _atom_site_occupancy
  Nb  Nb0  1  0.112940  0.629020  0.629020  1
  Nb  Nb1  1  0.634541  0.118688  0.623385  1
  Nb  Nb2  1  0.634541  0.623385  0.118688  1
  Nb  Nb3  1  0.634541  0.623385  0.623385  1
  Nb  Nb4  1  0.819273  0.817542  0.181593  1
  Nb  Nb5  1  0.179635  0.185000  0.817683  1
  Nb  Nb6  1  0.819273  0.181593  0.817542  1
  Nb  Nb7  1  0.179635  0.817683  0.185000  1
  Nb  Nb8  1  0.179635  0.817683  0.817683  1
  Nb  Nb9  1  0.819273  0.181593  0.181593  1
  Nb  Nb10  1  0.435178  0.434774  0.065024  1
  Nb  Nb11  1  0.067513  0.065243  0.433622  1
  Nb  Nb12  1  0.435178  0.065024  0.434774  1
  Nb  Nb13  1  0.067513  0.433622  0.065243  1
  Nb  Nb14  1  0.067513  0.433622  0.433622  1
  Nb  Nb15  1  0.435178  0.065024  0.065024  1
  Co  Co16  1  0.824294  0.517303  0.829201  1
  Co  Co17  1  0.824294  0.829201  0.517303  1
  Co  Co18  1  0.824294  0.829201  0.829201  1
  Cu  Cu19  1  0.751401  0.416200  0.416200  1
  Cu  Cu20  1  0.417696  0.746980  0.417662  1
  Cu  Cu21  1  0.417696  0.417662  0.746980  1
  Cu  Cu22  1  0.417696  0.417662  0.417662  1
  Cu  Cu23  1  0.498324  0.833892  0.833892  1
  N  N24  1  0.623030  0.125657  0.125657  1
  N  N25  1  0.126638  0.622065  0.125648  1
  N  N26  1  0.126638  0.125648  0.622065  1
  N  N27  1  0.126638  0.125648  0.125648  1
