# generated using pymatgen
data_DyY15(ErPb4)4
_symmetry_space_group_name_H-M   'P 1'
_cell_length_a   8.22734583
_cell_length_b   8.28379624
_cell_length_c   15.67406736
_cell_angle_alpha   89.91906638
_cell_angle_beta   89.97482222
_cell_angle_gamma   90.04888512
_symmetry_Int_Tables_number   1
_chemical_formula_structural   DyY15(ErPb4)4
_chemical_formula_sum   'Dy1 Y15 Er4 Pb16'
_cell_volume   1068.24344331
_cell_formula_units_Z   1
loop_
 _symmetry_equiv_pos_site_id
 _symmetry_equiv_pos_as_xyz
  1  'x, y, z'
loop_
 _atom_site_type_symbol
 _atom_site_label
 _atom_site_symmetry_multiplicity
 _atom_site_fract_x
 _atom_site_fract_y
 _atom_site_fract_z
 _atom_site_occupancy
  Dy  Dy0  1  0.038717  0.174431  0.899397  1
  Y  Y1  1  0.378259  0.842338  0.878958  1
  Y  Y2  1  0.877260  0.657558  0.621471  1
  Y  Y3  1  0.622819  0.157737  0.378792  1
  Y  Y4  1  0.121462  0.342113  0.120689  1
  Y  Y5  1  0.621706  0.157658  0.120955  1
  Y  Y6  1  0.122831  0.342204  0.378784  1
  Y  Y7  1  0.376907  0.842345  0.621342  1
  Y  Y8  1  0.877613  0.657700  0.879130  1
  Y  Y9  1  0.537420  0.324999  0.899930  1
  Y  Y10  1  0.036383  0.175242  0.599902  1
  Y  Y11  1  0.463494  0.675431  0.400216  1
  Y  Y12  1  0.962311  0.825273  0.099994  1
  Y  Y13  1  0.462294  0.675111  0.099998  1
  Y  Y14  1  0.963503  0.824476  0.400123  1
  Y  Y15  1  0.536839  0.324524  0.600202  1
  Er  Er16  1  0.209720  0.504392  0.750303  1
  Er  Er17  1  0.709892  0.995734  0.750180  1
  Er  Er18  1  0.790255  0.495530  0.249977  1
  Er  Er19  1  0.290138  0.004406  0.249711  1
  Pb  Pb20  1  0.280227  0.032998  0.042964  1
  Pb  Pb21  1  0.781380  0.466610  0.456691  1
  Pb  Pb22  1  0.718429  0.966236  0.543381  1
  Pb  Pb23  1  0.219055  0.532455  0.956370  1
  Pb  Pb24  1  0.720605  0.968682  0.956340  1
  Pb  Pb25  1  0.218782  0.533017  0.543578  1
  Pb  Pb26  1  0.281487  0.033324  0.456583  1
  Pb  Pb27  1  0.780173  0.467712  0.043609  1
  Pb  Pb28  1  0.572419  0.625687  0.750084  1
  Pb  Pb29  1  0.072424  0.874427  0.750385  1
  Pb  Pb30  1  0.427304  0.374386  0.249882  1
  Pb  Pb31  1  0.927482  0.125443  0.249760  1
  Pb  Pb32  1  0.349371  0.154947  0.749921  1
  Pb  Pb33  1  0.850247  0.344923  0.750330  1
  Pb  Pb34  1  0.650386  0.845199  0.250134  1
  Pb  Pb35  1  0.150407  0.654750  0.249937  1
