# generated using pymatgen
data_Zr4Sc4Os3Ru5
_symmetry_space_group_name_H-M   'P 1'
_cell_length_a   6.48104400
_cell_length_b   4.60363600
_cell_length_c   9.20786600
_cell_angle_alpha   90.00000000
_cell_angle_beta   90.00134391
_cell_angle_gamma   90.00000000
_symmetry_Int_Tables_number   1
_chemical_formula_structural   Zr4Sc4Os3Ru5
_chemical_formula_sum   'Zr4 Sc4 Os3 Ru5'
_cell_volume   274.72927361
_cell_formula_units_Z   1
loop_
 _symmetry_equiv_pos_site_id
 _symmetry_equiv_pos_as_xyz
  1  'x, y, z'
loop_
 _atom_site_type_symbol
 _atom_site_label
 _atom_site_symmetry_multiplicity
 _atom_site_fract_x
 _atom_site_fract_y
 _atom_site_fract_z
 _atom_site_occupancy
  Zr  Zr0  1  0.749504  0.250000  0.125024  1
  Zr  Zr1  1  0.250291  0.750000  0.374873  1
  Zr  Zr2  1  0.749677  0.250000  0.624920  1
  Zr  Zr3  1  0.250447  0.750000  0.875180  1
  Sc  Sc4  1  0.249912  0.250000  0.124880  1
  Sc  Sc5  1  0.749724  0.750000  0.375147  1
  Sc  Sc6  1  0.250350  0.250000  0.625049  1
  Sc  Sc7  1  0.749997  0.750000  0.874914  1
  Os  Os8  1  0.499867  0.750000  0.124876  1
  Os  Os9  1  0.999908  0.750000  0.124835  1
  Os  Os10  1  0.499885  0.250000  0.375328  1
  Ru  Ru11  1  0.999892  0.250000  0.375294  1
  Ru  Ru12  1  0.999898  0.750000  0.625165  1
  Ru  Ru13  1  0.500375  0.750000  0.625061  1
  Ru  Ru14  1  0.000289  0.250000  0.874720  1
  Ru  Ru15  1  0.499982  0.250000  0.874733  1
