# generated using pymatgen
data_NiIr3F12
_symmetry_space_group_name_H-M   'P 1'
_cell_length_a   7.35263089
_cell_length_b   7.35263074
_cell_length_c   7.45737008
_cell_angle_alpha   60.46353678
_cell_angle_beta   60.46353402
_cell_angle_gamma   60.00000374
_symmetry_Int_Tables_number   1
_chemical_formula_structural   NiIr3F12
_chemical_formula_sum   'Ni1 Ir3 F12'
_cell_volume   287.05411329
_cell_formula_units_Z   1
loop_
 _symmetry_equiv_pos_site_id
 _symmetry_equiv_pos_as_xyz
  1  'x, y, z'
loop_
 _atom_site_type_symbol
 _atom_site_label
 _atom_site_symmetry_multiplicity
 _atom_site_fract_x
 _atom_site_fract_y
 _atom_site_fract_z
 _atom_site_occupancy
  Ni  Ni0  1  0.625000  0.625000  0.125000  1
  Ir  Ir1  1  0.625000  0.125000  0.625000  1
  Ir  Ir2  1  0.625000  0.625000  0.625000  1
  Ir  Ir3  1  0.125000  0.625000  0.625000  1
  F  F4  1  0.694922  0.301708  0.308450  1
  F  F5  1  0.694922  0.694922  0.308450  1
  F  F6  1  0.301708  0.694922  0.308450  1
  F  F7  1  0.548212  0.953493  0.544803  1
  F  F8  1  0.953493  0.953493  0.544803  1
  F  F9  1  0.953493  0.548212  0.544803  1
  F  F10  1  0.701788  0.296507  0.705197  1
  F  F11  1  0.555078  0.948292  0.941550  1
  F  F12  1  0.948292  0.555078  0.941550  1
  F  F13  1  0.296507  0.701788  0.705197  1
  F  F14  1  0.555078  0.555078  0.941550  1
  F  F15  1  0.296507  0.296507  0.705197  1
