# generated using pymatgen
data_La3Al24Pd8W
_symmetry_space_group_name_H-M   'P 1'
_cell_length_a   8.50239987
_cell_length_b   8.50279159
_cell_length_c   8.48903000
_cell_angle_alpha   89.55878104
_cell_angle_beta   89.55031003
_cell_angle_gamma   89.82642951
_symmetry_Int_Tables_number   1
_chemical_formula_structural   La3Al24Pd8W
_chemical_formula_sum   'La3 Al24 Pd8 W1'
_cell_volume   613.66727025
_cell_formula_units_Z   1
loop_
 _symmetry_equiv_pos_site_id
 _symmetry_equiv_pos_as_xyz
  1  'x, y, z'
loop_
 _atom_site_type_symbol
 _atom_site_label
 _atom_site_symmetry_multiplicity
 _atom_site_fract_x
 _atom_site_fract_y
 _atom_site_fract_z
 _atom_site_occupancy
  La  La0  1  0.000000  0.500000  0.000000  1
  La  La1  1  0.500000  0.000000  0.000000  1
  La  La2  1  0.000000  0.000000  0.500000  1
  Al  Al3  1  0.992841  0.637524  0.637676  1
  Al  Al4  1  0.638018  0.638013  0.992881  1
  Al  Al5  1  0.637515  0.992841  0.637664  1
  Al  Al6  1  0.007159  0.362476  0.362324  1
  Al  Al7  1  0.361982  0.361987  0.007119  1
  Al  Al8  1  0.362485  0.007159  0.362336  1
  Al  Al9  1  0.732713  0.499996  0.267960  1
  Al  Al10  1  0.267287  0.500004  0.732040  1
  Al  Al11  1  0.500001  0.267275  0.732038  1
  Al  Al12  1  0.499999  0.732725  0.267962  1
  Al  Al13  1  0.267422  0.732598  0.500001  1
  Al  Al14  1  0.732578  0.267402  0.499999  1
  Al  Al15  1  0.834510  0.143901  0.834794  1
  Al  Al16  1  0.143877  0.834536  0.834827  1
  Al  Al17  1  0.835752  0.835744  0.143089  1
  Al  Al18  1  0.165490  0.856099  0.165206  1
  Al  Al19  1  0.856123  0.165464  0.165173  1
  Al  Al20  1  0.164248  0.164256  0.856911  1
  Al  Al21  1  0.727817  0.491465  0.727622  1
  Al  Al22  1  0.491489  0.727820  0.727623  1
  Al  Al23  1  0.727773  0.727780  0.492404  1
  Al  Al24  1  0.272183  0.508535  0.272378  1
  Al  Al25  1  0.508511  0.272180  0.272377  1
  Al  Al26  1  0.272227  0.272220  0.507596  1
  Pd  Pd27  1  0.826741  0.826775  0.825834  1
  Pd  Pd28  1  0.173259  0.173225  0.174166  1
  Pd  Pd29  1  0.662828  0.337177  0.000011  1
  Pd  Pd30  1  0.000458  0.336840  0.663305  1
  Pd  Pd31  1  0.336823  0.000448  0.663315  1
  Pd  Pd32  1  0.337172  0.662823  0.999989  1
  Pd  Pd33  1  0.999542  0.663160  0.336695  1
  Pd  Pd34  1  0.663177  0.999552  0.336685  1
  W  W35  1  0.500000  0.500000  0.500000  1
