# generated using pymatgen
data_Rb2TbHo5F20
_symmetry_space_group_name_H-M   'P 1'
_cell_length_a   8.26089530
_cell_length_b   8.26089544
_cell_length_c   8.25480300
_cell_angle_alpha   60.02438943
_cell_angle_beta   60.02438885
_cell_angle_gamma   59.95121870
_symmetry_Int_Tables_number   1
_chemical_formula_structural   Rb2TbHo5F20
_chemical_formula_sum   'Rb2 Tb1 Ho5 F20'
_cell_volume   398.33225664
_cell_formula_units_Z   1
loop_
 _symmetry_equiv_pos_site_id
 _symmetry_equiv_pos_as_xyz
  1  'x, y, z'
loop_
 _atom_site_type_symbol
 _atom_site_label
 _atom_site_symmetry_multiplicity
 _atom_site_fract_x
 _atom_site_fract_y
 _atom_site_fract_z
 _atom_site_occupancy
  Rb  Rb0  1  0.249948  0.249948  0.250052  1
  Rb  Rb1  1  0.749948  0.749948  0.750052  1
  Tb  Tb2  1  0.759765  0.759765  0.240235  1
  Ho  Ho3  1  0.759544  0.240280  0.240456  1
  Ho  Ho4  1  0.240280  0.759544  0.759720  1
  Ho  Ho5  1  0.240280  0.759544  0.240456  1
  Ho  Ho6  1  0.759544  0.240280  0.759720  1
  Ho  Ho7  1  0.240364  0.240364  0.759636  1
  F  F8  1  0.830261  0.498136  0.501864  1
  F  F9  1  0.170444  0.500016  0.499984  1
  F  F10  1  0.498136  0.830261  0.169739  1
  F  F11  1  0.500016  0.170444  0.829556  1
  F  F12  1  0.498136  0.830261  0.501864  1
  F  F13  1  0.170444  0.500016  0.829556  1
  F  F14  1  0.500016  0.170444  0.499984  1
  F  F15  1  0.830261  0.498136  0.169739  1
  F  F16  1  0.499990  0.499990  0.829474  1
  F  F17  1  0.499990  0.499990  0.170545  1
  F  F18  1  0.170526  0.829455  0.500010  1
  F  F19  1  0.829455  0.170526  0.500010  1
  F  F20  1  0.110589  0.110589  0.110442  1
  F  F21  1  0.890073  0.890073  0.887765  1
  F  F22  1  0.110589  0.110589  0.668380  1
  F  F23  1  0.112235  0.667911  0.109927  1
  F  F24  1  0.890073  0.890073  0.332089  1
  F  F25  1  0.889558  0.331620  0.889411  1
  F  F26  1  0.667911  0.112235  0.109927  1
  F  F27  1  0.331620  0.889558  0.889411  1
