# generated using pymatgen
data_Hf(ZrH5)3
_symmetry_space_group_name_H-M   'P 1'
_cell_length_a   7.00167744
_cell_length_b   7.00233215
_cell_length_c   6.98730352
_cell_angle_alpha   109.47917557
_cell_angle_beta   109.47537502
_cell_angle_gamma   109.54421714
_symmetry_Int_Tables_number   1
_chemical_formula_structural   Hf(ZrH5)3
_chemical_formula_sum   'Hf2 Zr6 H30'
_cell_volume   263.43616086
_cell_formula_units_Z   2
loop_
 _symmetry_equiv_pos_site_id
 _symmetry_equiv_pos_as_xyz
  1  'x, y, z'
loop_
 _atom_site_type_symbol
 _atom_site_label
 _atom_site_symmetry_multiplicity
 _atom_site_fract_x
 _atom_site_fract_y
 _atom_site_fract_z
 _atom_site_occupancy
  Hf  Hf0  1  0.904553  0.905381  0.905081  1
  Hf  Hf1  1  0.499471  0.000299  0.094919  1
  Zr  Zr2  1  0.999582  0.092482  0.498528  1
  Zr  Zr3  1  0.093347  0.500468  0.000080  1
  Zr  Zr4  1  0.001054  0.593954  0.501472  1
  Zr  Zr5  1  0.593266  0.500387  0.999920  1
  Zr  Zr6  1  0.500829  0.000183  0.593056  1
  Zr  Zr7  1  0.407772  0.407127  0.406944  1
  H  H8  1  0.653377  0.967163  0.381445  1
  H  H9  1  0.230830  0.313429  0.845644  1
  H  H10  1  0.186387  0.417225  0.531605  1
  H  H11  1  0.080320  0.265534  0.110980  1
  H  H12  1  0.268780  0.109760  0.079819  1
  H  H13  1  0.110993  0.079285  0.265322  1
  H  H14  1  0.469339  0.154554  0.889020  1
  H  H15  1  0.731136  0.345337  0.812692  1
  H  H16  1  0.624282  0.372295  0.249465  1
  H  H17  1  0.250417  0.625107  0.375286  1
  H  H18  1  0.748496  0.875602  0.122760  1
  H  H19  1  0.125735  0.752841  0.877240  1
  H  H20  1  0.375131  0.249821  0.624714  1
  H  H21  1  0.874818  0.122830  0.750535  1
  H  H22  1  0.771932  0.585719  0.618555  1
  H  H23  1  0.314217  0.847085  0.228778  1
  H  H24  1  0.386501  0.659648  0.968713  1
  H  H25  1  0.966784  0.384757  0.654629  1
  H  H26  1  0.532322  0.185501  0.414678  1
  H  H27  1  0.418444  0.532646  0.187308  1
  H  H28  1  0.840841  0.227751  0.309426  1
  H  H29  1  0.917786  0.690934  0.031287  1
  H  H30  1  0.812156  0.730128  0.345371  1
  H  H31  1  0.154784  0.885622  0.468395  1
  H  H32  1  0.688961  0.029941  0.920181  1
  H  H33  1  0.345671  0.813963  0.734678  1
  H  H34  1  0.885187  0.467785  0.154356  1
  H  H35  1  0.617643  0.770824  0.585322  1
  H  H36  1  0.585439  0.618307  0.771222  1
  H  H37  1  0.031416  0.918325  0.690574  1
