# generated using pymatgen
data_Rb8TaNb(SbBr12)2
_symmetry_space_group_name_H-M   'P 1'
_cell_length_a   13.64443802
_cell_length_b   13.64415414
_cell_length_c   13.64421029
_cell_angle_alpha   131.95899778
_cell_angle_beta   131.96099638
_cell_angle_gamma   70.29178779
_symmetry_Int_Tables_number   1
_chemical_formula_structural   Rb8TaNb(SbBr12)2
_chemical_formula_sum   'Rb8 Ta1 Nb1 Sb2 Br24'
_cell_volume   1376.59462993
_cell_formula_units_Z   1
loop_
 _symmetry_equiv_pos_site_id
 _symmetry_equiv_pos_as_xyz
  1  'x, y, z'
loop_
 _atom_site_type_symbol
 _atom_site_label
 _atom_site_symmetry_multiplicity
 _atom_site_fract_x
 _atom_site_fract_y
 _atom_site_fract_z
 _atom_site_occupancy
  Rb  Rb0  1  0.374670  0.340260  0.463664  1
  Rb  Rb1  1  0.088986  0.625338  0.965579  1
  Rb  Rb2  1  0.876586  0.911015  0.536335  1
  Rb  Rb3  1  0.091014  0.128016  0.466546  1
  Rb  Rb4  1  0.375524  0.908975  0.036985  1
  Rb  Rb5  1  0.661463  0.624474  0.533447  1
  Rb  Rb6  1  0.659765  0.123408  0.034427  1
  Rb  Rb7  1  0.871986  0.338540  0.963008  1
  Ta  Ta8  1  0.249998  0.750000  0.499997  1
  Nb  Nb9  1  0.500020  0.499970  0.000029  1
  Sb  Sb10  1  0.749991  0.250000  0.499993  1
  Sb  Sb11  1  0.000001  0.000001  0.999999  1
  Br  Br12  1  0.019903  0.770743  0.294451  1
  Br  Br13  1  0.022609  0.258413  0.270960  1
  Br  Br14  1  0.274544  0.980096  0.750821  1
  Br  Br15  1  0.008701  0.238210  0.736298  1
  Br  Br16  1  0.136237  0.636237  0.500000  1
  Br  Br17  1  0.273060  0.525428  0.793411  1
  Br  Br18  1  0.476283  0.725451  0.705545  1
  Br  Br19  1  0.501903  0.272401  0.263693  1
  Br  Br20  1  0.474571  0.267960  0.747595  1
  Br  Br21  1  0.614365  0.614370  0.999999  1
  Br  Br22  1  0.520364  0.726969  0.252398  1
  Br  Br23  1  0.126519  0.126502  0.000018  1
  Br  Br24  1  0.873493  0.873498  0.999985  1
  Br  Br25  1  0.987439  0.751648  0.729031  1
  Br  Br26  1  0.741589  0.012562  0.764205  1
  Br  Br27  1  0.248350  0.977384  0.235790  1
  Br  Br28  1  0.732059  0.479649  0.206646  1
  Br  Br29  1  0.229258  0.523716  0.249166  1
  Br  Br30  1  0.363761  0.863765  0.499996  1
  Br  Br31  1  0.876457  0.376463  0.499997  1
  Br  Br32  1  0.385607  0.385604  0.000001  1
  Br  Br33  1  0.623534  0.123537  0.499998  1
  Br  Br34  1  0.761792  0.498084  0.770472  1
  Br  Br35  1  0.727600  0.991313  0.229516  1
