# generated using pymatgen
data_Sm2Er2ReTcB12
_symmetry_space_group_name_H-M   'P 1'
_cell_length_a   3.70155700
_cell_length_b   9.19183020
_cell_length_c   11.61660106
_cell_angle_alpha   90.04184999
_cell_angle_beta   90.00000000
_cell_angle_gamma   90.00000000
_symmetry_Int_Tables_number   1
_chemical_formula_structural   Sm2Er2ReTcB12
_chemical_formula_sum   'Sm4 Er4 Re2 Tc2 B24'
_cell_volume   395.24409798
_cell_formula_units_Z   2
loop_
 _symmetry_equiv_pos_site_id
 _symmetry_equiv_pos_as_xyz
  1  'x, y, z'
loop_
 _atom_site_type_symbol
 _atom_site_label
 _atom_site_symmetry_multiplicity
 _atom_site_fract_x
 _atom_site_fract_y
 _atom_site_fract_z
 _atom_site_occupancy
  Sm  Sm0  1  0.000000  0.323534  0.414121  1
  Sm  Sm1  1  0.000000  0.676466  0.585879  1
  Sm  Sm2  1  0.000000  0.822986  0.086039  1
  Sm  Sm3  1  0.000000  0.177014  0.913961  1
  Er  Er4  1  0.000000  0.942271  0.369534  1
  Er  Er5  1  0.000000  0.057729  0.630466  1
  Er  Er6  1  0.000000  0.443705  0.130834  1
  Er  Er7  1  0.000000  0.556295  0.869166  1
  Re  Re8  1  0.000000  0.139426  0.180346  1
  Re  Re9  1  0.000000  0.860574  0.819654  1
  Tc  Tc10  1  0.000000  0.639564  0.319674  1
  Tc  Tc11  1  0.000000  0.360436  0.680326  1
  B  B12  1  0.500000  0.554494  0.431441  1
  B  B13  1  0.500000  0.445506  0.568559  1
  B  B14  1  0.500000  0.054373  0.068403  1
  B  B15  1  0.500000  0.945627  0.931597  1
  B  B16  1  0.500000  0.749716  0.417121  1
  B  B17  1  0.500000  0.250284  0.582879  1
  B  B18  1  0.500000  0.250202  0.082793  1
  B  B19  1  0.500000  0.749798  0.917207  1
  B  B20  1  0.500000  0.791833  0.266163  1
  B  B21  1  0.500000  0.208167  0.733837  1
  B  B22  1  0.500000  0.292163  0.234014  1
  B  B23  1  0.500000  0.707837  0.765986  1
  B  B24  1  0.500000  0.630097  0.186182  1
  B  B25  1  0.500000  0.369903  0.813818  1
  B  B26  1  0.500000  0.129889  0.314170  1
  B  B27  1  0.500000  0.870111  0.685830  1
  B  B28  1  0.500000  0.983003  0.212826  1
  B  B29  1  0.500000  0.016997  0.787174  1
  B  B30  1  0.500000  0.483345  0.287305  1
  B  B31  1  0.500000  0.516655  0.712695  1
  B  B32  1  0.500000  0.597565  0.027027  1
  B  B33  1  0.500000  0.402435  0.972973  1
  B  B34  1  0.500000  0.097408  0.472771  1
  B  B35  1  0.500000  0.902592  0.527229  1
