# generated using pymatgen
data_Lu12Si12Ir3Os
_symmetry_space_group_name_H-M   'P 1'
_cell_length_a   4.17897900
_cell_length_b   10.46412815
_cell_length_c   12.03435832
_cell_angle_alpha   90.05364850
_cell_angle_beta   90.00000000
_cell_angle_gamma   90.00000000
_symmetry_Int_Tables_number   1
_chemical_formula_structural   Lu12Si12Ir3Os
_chemical_formula_sum   'Lu12 Si12 Ir3 Os1'
_cell_volume   526.25469835
_cell_formula_units_Z   1
loop_
 _symmetry_equiv_pos_site_id
 _symmetry_equiv_pos_as_xyz
  1  'x, y, z'
loop_
 _atom_site_type_symbol
 _atom_site_label
 _atom_site_symmetry_multiplicity
 _atom_site_fract_x
 _atom_site_fract_y
 _atom_site_fract_z
 _atom_site_occupancy
  Lu  Lu0  1  0.250000  0.878545  0.019833  1
  Lu  Lu1  1  0.250000  0.620118  0.520906  1
  Lu  Lu2  1  0.750000  0.120398  0.980053  1
  Lu  Lu3  1  0.750000  0.378675  0.480483  1
  Lu  Lu4  1  0.250000  0.920021  0.603295  1
  Lu  Lu5  1  0.250000  0.580638  0.103935  1
  Lu  Lu6  1  0.750000  0.079740  0.396175  1
  Lu  Lu7  1  0.750000  0.420148  0.896410  1
  Lu  Lu8  1  0.250000  0.659952  0.799106  1
  Lu  Lu9  1  0.250000  0.840364  0.300044  1
  Lu  Lu10  1  0.750000  0.341007  0.199496  1
  Lu  Lu11  1  0.750000  0.159377  0.700099  1
  Si  Si12  1  0.250000  0.012666  0.821340  1
  Si  Si13  1  0.250000  0.487522  0.321155  1
  Si  Si14  1  0.750000  0.987169  0.178863  1
  Si  Si15  1  0.750000  0.510650  0.679852  1
  Si  Si16  1  0.250000  0.249162  0.840393  1
  Si  Si17  1  0.250000  0.251568  0.341128  1
  Si  Si18  1  0.750000  0.751866  0.158701  1
  Si  Si19  1  0.750000  0.749242  0.658566  1
  Si  Si20  1  0.250000  0.198659  0.545027  1
  Si  Si21  1  0.250000  0.302093  0.044058  1
  Si  Si22  1  0.750000  0.802808  0.455667  1
  Si  Si23  1  0.750000  0.696688  0.955250  1
  Ir  Ir24  1  0.250000  0.108959  0.178274  1
  Ir  Ir25  1  0.750000  0.609839  0.321786  1
  Ir  Ir26  1  0.750000  0.891051  0.822145  1
  Os  Os27  1  0.250000  0.391080  0.677961  1
