# generated using pymatgen
data_Dy10Zn3Bi2Au
_symmetry_space_group_name_H-M   'P 1'
_cell_length_a   8.67181198
_cell_length_b   8.67181176
_cell_length_c   8.67872426
_cell_angle_alpha   123.81306770
_cell_angle_beta   123.81306394
_cell_angle_gamma   83.46227151
_symmetry_Int_Tables_number   1
_chemical_formula_structural   Dy10Zn3Bi2Au
_chemical_formula_sum   'Dy10 Zn3 Bi2 Au1'
_cell_volume   432.02931153
_cell_formula_units_Z   1
loop_
 _symmetry_equiv_pos_site_id
 _symmetry_equiv_pos_as_xyz
  1  'x, y, z'
loop_
 _atom_site_type_symbol
 _atom_site_label
 _atom_site_symmetry_multiplicity
 _atom_site_fract_x
 _atom_site_fract_y
 _atom_site_fract_z
 _atom_site_occupancy
  Dy  Dy0  1  0.499473  0.499756  0.999229  1
  Dy  Dy1  1  0.000244  0.000527  0.000771  1
  Dy  Dy2  1  0.509750  0.011159  0.806019  1
  Dy  Dy3  1  0.203731  0.705140  0.193981  1
  Dy  Dy4  1  0.011680  0.204587  0.500000  1
  Dy  Dy5  1  0.704768  0.511144  0.500000  1
  Dy  Dy6  1  0.488841  0.990250  0.193981  1
  Dy  Dy7  1  0.794860  0.296269  0.806019  1
  Dy  Dy8  1  0.988856  0.795232  0.500000  1
  Dy  Dy9  1  0.295413  0.488320  0.500000  1
  Zn  Zn10  1  0.137486  0.639249  0.776735  1
  Zn  Zn11  1  0.860751  0.362514  0.223265  1
  Zn  Zn12  1  0.639687  0.860313  0.500000  1
  Bi  Bi13  1  0.249143  0.250857  0.000000  1
  Bi  Bi14  1  0.749143  0.750857  0.000000  1
  Au  Au15  1  0.366175  0.133825  0.500000  1
