# generated using pymatgen
data_TcRh3Pb4O13
_symmetry_space_group_name_H-M   'P 1'
_cell_length_a   7.33104605
_cell_length_b   7.29269046
_cell_length_c   7.29269100
_cell_angle_alpha   60.00000207
_cell_angle_beta   60.17292285
_cell_angle_gamma   60.17291311
_symmetry_Int_Tables_number   1
_chemical_formula_structural   TcRh3Pb4O13
_chemical_formula_sum   'Tc1 Rh3 Pb4 O13'
_cell_volume   276.41188569
_cell_formula_units_Z   1
loop_
 _symmetry_equiv_pos_site_id
 _symmetry_equiv_pos_as_xyz
  1  'x, y, z'
loop_
 _atom_site_type_symbol
 _atom_site_label
 _atom_site_symmetry_multiplicity
 _atom_site_fract_x
 _atom_site_fract_y
 _atom_site_fract_z
 _atom_site_occupancy
  Tc  Tc0  1  0.374087  0.875304  0.875304  1
  Rh  Rh1  1  0.874597  0.375344  0.875029  1
  Rh  Rh2  1  0.874597  0.875029  0.375344  1
  Rh  Rh3  1  0.874597  0.875029  0.875029  1
  Pb  Pb4  1  0.873961  0.375346  0.375346  1
  Pb  Pb5  1  0.373031  0.371913  0.371913  1
  Pb  Pb6  1  0.373031  0.371913  0.883145  1
  Pb  Pb7  1  0.373031  0.883145  0.371913  1
  O  O8  1  0.201866  0.803058  0.803058  1
  O  O9  1  0.201866  0.803058  0.192017  1
  O  O10  1  0.551769  0.943413  0.943413  1
  O  O11  1  0.551769  0.943413  0.561403  1
  O  O12  1  0.959908  0.949947  0.545072  1
  O  O13  1  0.791160  0.794242  0.207299  1
  O  O14  1  0.551769  0.561403  0.943413  1
  O  O15  1  0.791160  0.207299  0.794242  1
  O  O16  1  0.791160  0.207299  0.207299  1
  O  O17  1  0.959908  0.545072  0.949947  1
  O  O18  1  0.959908  0.545072  0.545072  1
  O  O19  1  0.201866  0.192017  0.803058  1
  O  O20  1  0.494959  0.501681  0.501681  1
