# generated using pymatgen
data_Tb4Dy15SnIr12
_symmetry_space_group_name_H-M   'P 1'
_cell_length_a   10.88338205
_cell_length_b   10.88152005
_cell_length_c   6.33666400
_cell_angle_alpha   90.00000000
_cell_angle_beta   90.00000000
_cell_angle_gamma   89.98853289
_symmetry_Int_Tables_number   1
_chemical_formula_structural   Tb4Dy15SnIr12
_chemical_formula_sum   'Tb4 Dy15 Sn1 Ir12'
_cell_volume   750.43678218
_cell_formula_units_Z   1
loop_
 _symmetry_equiv_pos_site_id
 _symmetry_equiv_pos_as_xyz
  1  'x, y, z'
loop_
 _atom_site_type_symbol
 _atom_site_label
 _atom_site_symmetry_multiplicity
 _atom_site_fract_x
 _atom_site_fract_y
 _atom_site_fract_z
 _atom_site_occupancy
  Tb  Tb0  1  0.284207  0.084984  0.380208  1
  Tb  Tb1  1  0.291569  0.910802  0.882486  1
  Tb  Tb2  1  0.708431  0.089198  0.882486  1
  Tb  Tb3  1  0.715793  0.915016  0.380208  1
  Dy  Dy4  1  0.589165  0.791182  0.882446  1
  Dy  Dy5  1  0.588299  0.208293  0.378951  1
  Dy  Dy6  1  0.411701  0.791707  0.378951  1
  Dy  Dy7  1  0.410835  0.208818  0.882446  1
  Dy  Dy8  1  0.208057  0.411750  0.621070  1
  Dy  Dy9  1  0.208601  0.589083  0.117525  1
  Dy  Dy10  1  0.791399  0.410917  0.117525  1
  Dy  Dy11  1  0.791943  0.588250  0.621070  1
  Dy  Dy12  1  0.911012  0.708031  0.117231  1
  Dy  Dy13  1  0.915205  0.284523  0.619532  1
  Dy  Dy14  1  0.084795  0.715477  0.619532  1
  Dy  Dy15  1  0.088988  0.291969  0.117231  1
  Dy  Dy16  1  0.000000  0.000000  0.000099  1
  Dy  Dy17  1  0.500000  0.500000  0.000057  1
  Dy  Dy18  1  0.500000  0.500000  0.500052  1
  Sn  Sn19  1  0.000000  0.000000  0.500197  1
  Ir  Ir20  1  0.848218  0.155460  0.248275  1
  Ir  Ir21  1  0.844957  0.847781  0.752333  1
  Ir  Ir22  1  0.155043  0.152219  0.752333  1
  Ir  Ir23  1  0.151782  0.844540  0.248275  1
  Ir  Ir24  1  0.654716  0.347247  0.746000  1
  Ir  Ir25  1  0.652871  0.654584  0.253751  1
  Ir  Ir26  1  0.347129  0.345416  0.253751  1
  Ir  Ir27  1  0.345284  0.652753  0.746000  1
  Ir  Ir28  1  0.500000  0.000000  0.126211  1
  Ir  Ir29  1  0.500000  0.000000  0.621118  1
  Ir  Ir30  1  0.000000  0.500000  0.873758  1
  Ir  Ir31  1  0.000000  0.500000  0.378890  1
