# generated using pymatgen
data_PaI10Cl
_symmetry_space_group_name_H-M   'P 1'
_cell_length_a   8.85855657
_cell_length_b   9.12194709
_cell_length_c   9.36390254
_cell_angle_alpha   87.66931722
_cell_angle_beta   88.23874586
_cell_angle_gamma   110.25611148
_symmetry_Int_Tables_number   1
_chemical_formula_structural   PaI10Cl
_chemical_formula_sum   'Pa1 I10 Cl1'
_cell_volume   708.47645517
_cell_formula_units_Z   1
loop_
 _symmetry_equiv_pos_site_id
 _symmetry_equiv_pos_as_xyz
  1  'x, y, z'
loop_
 _atom_site_type_symbol
 _atom_site_label
 _atom_site_symmetry_multiplicity
 _atom_site_fract_x
 _atom_site_fract_y
 _atom_site_fract_z
 _atom_site_occupancy
  Pa  Pa0  1  0.001144  0.498506  0.504853  1
  I  I1  1  0.000795  0.003210  0.002135  1
  I  I2  1  0.688509  0.773568  0.934246  1
  I  I3  1  0.312776  0.230932  0.070880  1
  I  I4  1  0.690420  0.215320  0.546146  1
  I  I5  1  0.308619  0.784442  0.459149  1
  I  I6  1  0.498610  0.770194  0.187832  1
  I  I7  1  0.504938  0.230987  0.818918  1
  I  I8  1  0.825704  0.712902  0.555146  1
  I  I9  1  0.179939  0.287482  0.453460  1
  I  I10  1  0.939920  0.507140  0.201273  1
  Cl  Cl11  1  0.048624  0.485315  0.765961  1
