# generated using pymatgen
data_LiHo8CdRh2
_symmetry_space_group_name_H-M   'P 1'
_cell_length_a   9.59717312
_cell_length_b   9.59717305
_cell_length_c   9.62806400
_cell_angle_alpha   59.89347410
_cell_angle_beta   59.89347433
_cell_angle_gamma   59.73812503
_symmetry_Int_Tables_number   1
_chemical_formula_structural   LiHo8CdRh2
_chemical_formula_sum   'Li2 Ho16 Cd2 Rh4'
_cell_volume   624.80621258
_cell_formula_units_Z   2
loop_
 _symmetry_equiv_pos_site_id
 _symmetry_equiv_pos_as_xyz
  1  'x, y, z'
loop_
 _atom_site_type_symbol
 _atom_site_label
 _atom_site_symmetry_multiplicity
 _atom_site_fract_x
 _atom_site_fract_y
 _atom_site_fract_z
 _atom_site_occupancy
  Li  Li0  1  0.822876  0.822876  0.825840  1
  Li  Li1  1  0.822876  0.822876  0.528409  1
  Ho  Ho2  1  0.184322  0.184322  0.815678  1
  Ho  Ho3  1  0.598835  0.598835  0.202091  1
  Ho  Ho4  1  0.436227  0.063403  0.437915  1
  Ho  Ho5  1  0.439461  0.439461  0.060539  1
  Ho  Ho6  1  0.814469  0.186095  0.814807  1
  Ho  Ho7  1  0.186095  0.814469  0.184630  1
  Ho  Ho8  1  0.436227  0.063403  0.062456  1
  Ho  Ho9  1  0.186095  0.814469  0.814807  1
  Ho  Ho10  1  0.063403  0.436227  0.062456  1
  Ho  Ho11  1  0.813048  0.813048  0.186952  1
  Ho  Ho12  1  0.209893  0.595835  0.597136  1
  Ho  Ho13  1  0.063403  0.436227  0.437915  1
  Ho  Ho14  1  0.066166  0.066166  0.433834  1
  Ho  Ho15  1  0.814469  0.186095  0.184630  1
  Ho  Ho16  1  0.595835  0.209893  0.597136  1
  Ho  Ho17  1  0.598835  0.598835  0.600239  1
  Cd  Cd18  1  0.505950  0.834137  0.829957  1
  Cd  Cd19  1  0.834137  0.505950  0.829957  1
  Rh  Rh20  1  0.395592  0.823197  0.390606  1
  Rh  Rh21  1  0.394297  0.394297  0.388698  1
  Rh  Rh22  1  0.823197  0.395592  0.390606  1
  Rh  Rh23  1  0.394297  0.394297  0.822710  1
