# generated using pymatgen
data_Ac4Al2Ga3Cl2
_symmetry_space_group_name_H-M   'P 1'
_cell_length_a   12.03934200
_cell_length_b   12.03934213
_cell_length_c   4.47763300
_cell_angle_alpha   90.00000000
_cell_angle_beta   90.00000000
_cell_angle_gamma   94.07428242
_symmetry_Int_Tables_number   1
_chemical_formula_structural   Ac4Al2Ga3Cl2
_chemical_formula_sum   'Ac8 Al4 Ga6 Cl4'
_cell_volume   647.37370199
_cell_formula_units_Z   2
loop_
 _symmetry_equiv_pos_site_id
 _symmetry_equiv_pos_as_xyz
  1  'x, y, z'
loop_
 _atom_site_type_symbol
 _atom_site_label
 _atom_site_symmetry_multiplicity
 _atom_site_fract_x
 _atom_site_fract_y
 _atom_site_fract_z
 _atom_site_occupancy
  Ac  Ac0  1  0.681195  0.041311  0.500000  1
  Ac  Ac1  1  0.318805  0.958689  0.500000  1
  Ac  Ac2  1  0.041311  0.681195  0.500000  1
  Ac  Ac3  1  0.958689  0.318805  0.500000  1
  Ac  Ac4  1  0.733909  0.733909  0.000000  1
  Ac  Ac5  1  0.266091  0.266091  0.000000  1
  Ac  Ac6  1  0.366276  0.633724  0.000000  1
  Ac  Ac7  1  0.633724  0.366276  0.000000  1
  Al  Al8  1  0.520555  0.785122  0.500000  1
  Al  Al9  1  0.479445  0.214878  0.500000  1
  Al  Al10  1  0.214878  0.479445  0.500000  1
  Al  Al11  1  0.785122  0.520555  0.500000  1
  Ga  Ga12  1  0.579816  0.579816  0.500000  1
  Ga  Ga13  1  0.420184  0.420184  0.500000  1
  Ga  Ga14  1  0.533890  0.900113  0.000000  1
  Ga  Ga15  1  0.466110  0.099887  0.000000  1
  Ga  Ga16  1  0.900113  0.533890  0.000000  1
  Ga  Ga17  1  0.099887  0.466110  0.000000  1
  Cl  Cl18  1  0.127731  0.127731  0.500000  1
  Cl  Cl19  1  0.872269  0.872269  0.500000  1
  Cl  Cl20  1  0.824546  0.175454  0.000000  1
  Cl  Cl21  1  0.175454  0.824546  0.000000  1
