# generated using pymatgen
data_Tb2ErSn3Ir2Rh
_symmetry_space_group_name_H-M   'P 1'
_cell_length_a   7.68526900
_cell_length_b   7.66531832
_cell_length_c   3.74405800
_cell_angle_alpha   90.00000000
_cell_angle_beta   90.00000000
_cell_angle_gamma   120.08612173
_symmetry_Int_Tables_number   1
_chemical_formula_structural   Tb2ErSn3Ir2Rh
_chemical_formula_sum   'Tb2 Er1 Sn3 Ir2 Rh1'
_cell_volume   190.84681825
_cell_formula_units_Z   1
loop_
 _symmetry_equiv_pos_site_id
 _symmetry_equiv_pos_as_xyz
  1  'x, y, z'
loop_
 _atom_site_type_symbol
 _atom_site_label
 _atom_site_symmetry_multiplicity
 _atom_site_fract_x
 _atom_site_fract_y
 _atom_site_fract_z
 _atom_site_occupancy
  Tb  Tb0  1  0.404005  0.404136  0.000000  1
  Tb  Tb1  1  0.999869  0.595864  0.000000  1
  Er  Er2  1  0.596225  0.000000  0.000000  1
  Sn  Sn3  1  0.734342  0.736281  0.500000  1
  Sn  Sn4  1  0.998061  0.263719  0.500000  1
  Sn  Sn5  1  0.266324  0.000000  0.500000  1
  Ir  Ir6  1  0.666308  0.331092  0.500000  1
  Ir  Ir7  1  0.335215  0.668908  0.500000  1
  Rh  Rh8  1  0.999649  0.000000  0.000000  1
