# generated using pymatgen
data_Rb3La(AsO4)2
_symmetry_space_group_name_H-M   'P 1'
_cell_length_a   6.18284600
_cell_length_b   6.18284489
_cell_length_c   8.24878100
_cell_angle_alpha   90.00000000
_cell_angle_beta   90.00000000
_cell_angle_gamma   119.99999524
_symmetry_Int_Tables_number   1
_chemical_formula_structural   Rb3La(AsO4)2
_chemical_formula_sum   'Rb3 La1 As2 O8'
_cell_volume   273.08459821
_cell_formula_units_Z   1
loop_
 _symmetry_equiv_pos_site_id
 _symmetry_equiv_pos_as_xyz
  1  'x, y, z'
loop_
 _atom_site_type_symbol
 _atom_site_label
 _atom_site_symmetry_multiplicity
 _atom_site_fract_x
 _atom_site_fract_y
 _atom_site_fract_z
 _atom_site_occupancy
  Rb  Rb0  1  0.333333  0.666667  0.720853  1
  Rb  Rb1  1  0.666667  0.333333  0.279147  1
  Rb  Rb2  1  0.000000  0.000000  0.000000  1
  La  La3  1  0.000000  0.000000  0.500000  1
  As  As4  1  0.333333  0.666667  0.252184  1
  As  As5  1  0.666667  0.333333  0.747816  1
  O  O6  1  0.333333  0.666667  0.048162  1
  O  O7  1  0.666667  0.333333  0.951838  1
  O  O8  1  0.181621  0.818379  0.329153  1
  O  O9  1  0.818379  0.181621  0.670847  1
  O  O10  1  0.181621  0.363242  0.329153  1
  O  O11  1  0.818379  0.636758  0.670847  1
  O  O12  1  0.636758  0.818379  0.329153  1
  O  O13  1  0.363242  0.181621  0.670847  1
