# generated using pymatgen
data_Ba2TbTcO6
_symmetry_space_group_name_H-M   'P 1'
_cell_length_a   5.99497900
_cell_length_b   5.99497849
_cell_length_c   5.99497900
_cell_angle_alpha   119.99998625
_cell_angle_beta   90.00000956
_cell_angle_gamma   119.99999177
_symmetry_Int_Tables_number   1
_chemical_formula_structural   Ba2TbTcO6
_chemical_formula_sum   'Ba2 Tb1 Tc1 O6'
_cell_volume   152.35196916
_cell_formula_units_Z   1
loop_
 _symmetry_equiv_pos_site_id
 _symmetry_equiv_pos_as_xyz
  1  'x, y, z'
loop_
 _atom_site_type_symbol
 _atom_site_label
 _atom_site_symmetry_multiplicity
 _atom_site_fract_x
 _atom_site_fract_y
 _atom_site_fract_z
 _atom_site_occupancy
  Ba  Ba0  1  0.750000  0.500000  0.250001  1
  Ba  Ba1  1  0.249999  0.500000  0.749999  1
  Tb  Tb2  1  0.000000  0.000000  0.000000  1
  Tc  Tc3  1  0.500000  0.000000  0.500000  1
  O  O4  1  0.265485  0.530972  0.265485  1
  O  O5  1  0.734514  0.000000  0.265486  1
  O  O6  1  0.265486  0.000000  0.265486  1
  O  O7  1  0.734514  0.000000  0.734514  1
  O  O8  1  0.265486  0.000000  0.734514  1
  O  O9  1  0.734514  0.469027  0.734514  1
