# generated using pymatgen
data_TiFe2MoP2
_symmetry_space_group_name_H-M   'P 1'
_cell_length_a   3.58464400
_cell_length_b   5.99297900
_cell_length_c   6.80623500
_cell_angle_alpha   90.00000000
_cell_angle_beta   90.00000000
_cell_angle_gamma   90.00000000
_symmetry_Int_Tables_number   1
_chemical_formula_structural   TiFe2MoP2
_chemical_formula_sum   'Ti2 Fe4 Mo2 P4'
_cell_volume   146.21627887
_cell_formula_units_Z   2
loop_
 _symmetry_equiv_pos_site_id
 _symmetry_equiv_pos_as_xyz
  1  'x, y, z'
loop_
 _atom_site_type_symbol
 _atom_site_label
 _atom_site_symmetry_multiplicity
 _atom_site_fract_x
 _atom_site_fract_y
 _atom_site_fract_z
 _atom_site_occupancy
  Ti  Ti0  1  0.750000  0.978508  0.179422  1
  Ti  Ti1  1  0.750000  0.478508  0.320578  1
  Fe  Fe2  1  0.250000  0.142288  0.437794  1
  Fe  Fe3  1  0.250000  0.642288  0.062206  1
  Fe  Fe4  1  0.750000  0.858103  0.561933  1
  Fe  Fe5  1  0.750000  0.358103  0.938067  1
  Mo  Mo6  1  0.250000  0.023529  0.825023  1
  Mo  Mo7  1  0.250000  0.523529  0.674977  1
  P  P8  1  0.250000  0.772178  0.379581  1
  P  P9  1  0.250000  0.272178  0.120419  1
  P  P10  1  0.750000  0.225394  0.620329  1
  P  P11  1  0.750000  0.725394  0.879671  1
