# generated using pymatgen
data_Dy6Lu14Cd6FeRu
_symmetry_space_group_name_H-M   'P 1'
_cell_length_a   9.43605900
_cell_length_b   9.43605942
_cell_length_c   9.65534000
_cell_angle_alpha   90.00000000
_cell_angle_beta   90.00000000
_cell_angle_gamma   120.00000204
_symmetry_Int_Tables_number   1
_chemical_formula_structural   Dy6Lu14Cd6FeRu
_chemical_formula_sum   'Dy6 Lu14 Cd6 Fe1 Ru1'
_cell_volume   744.52538339
_cell_formula_units_Z   1
loop_
 _symmetry_equiv_pos_site_id
 _symmetry_equiv_pos_as_xyz
  1  'x, y, z'
loop_
 _atom_site_type_symbol
 _atom_site_label
 _atom_site_symmetry_multiplicity
 _atom_site_fract_x
 _atom_site_fract_y
 _atom_site_fract_z
 _atom_site_occupancy
  Dy  Dy0  1  0.539191  0.460809  0.250000  1
  Dy  Dy1  1  0.539191  0.078384  0.250000  1
  Dy  Dy2  1  0.921616  0.460809  0.250000  1
  Dy  Dy3  1  0.459763  0.540237  0.750000  1
  Dy  Dy4  1  0.459763  0.919525  0.750000  1
  Dy  Dy5  1  0.080475  0.540237  0.750000  1
  Lu  Lu6  1  0.000000  0.000000  0.499825  1
  Lu  Lu7  1  0.000000  0.000000  0.000175  1
  Lu  Lu8  1  0.212350  0.787650  0.436421  1
  Lu  Lu9  1  0.212350  0.424702  0.436421  1
  Lu  Lu10  1  0.575298  0.787650  0.436421  1
  Lu  Lu11  1  0.790144  0.209856  0.559286  1
  Lu  Lu12  1  0.790144  0.580287  0.559286  1
  Lu  Lu13  1  0.419713  0.209856  0.559286  1
  Lu  Lu14  1  0.790144  0.209856  0.940714  1
  Lu  Lu15  1  0.790144  0.580287  0.940714  1
  Lu  Lu16  1  0.419713  0.209856  0.940714  1
  Lu  Lu17  1  0.212350  0.787650  0.063579  1
  Lu  Lu18  1  0.212350  0.424702  0.063579  1
  Lu  Lu19  1  0.575298  0.787650  0.063579  1
  Cd  Cd20  1  0.886488  0.113512  0.250000  1
  Cd  Cd21  1  0.886488  0.772975  0.250000  1
  Cd  Cd22  1  0.227025  0.113512  0.250000  1
  Cd  Cd23  1  0.113520  0.886480  0.750000  1
  Cd  Cd24  1  0.113520  0.227040  0.750000  1
  Cd  Cd25  1  0.772960  0.886480  0.750000  1
  Fe  Fe26  1  0.333333  0.666667  0.250000  1
  Ru  Ru27  1  0.666667  0.333333  0.750000  1
