# generated using pymatgen
data_Tb7Er(SiI6)2
_symmetry_space_group_name_H-M   'P 1'
_cell_length_a   4.22303500
_cell_length_b   14.08537940
_cell_length_c   14.83953854
_cell_angle_alpha   90.06693836
_cell_angle_beta   90.00000000
_cell_angle_gamma   90.00000000
_symmetry_Int_Tables_number   1
_chemical_formula_structural   Tb7Er(SiI6)2
_chemical_formula_sum   'Tb7 Er1 Si2 I12'
_cell_volume   882.70041315
_cell_formula_units_Z   1
loop_
 _symmetry_equiv_pos_site_id
 _symmetry_equiv_pos_as_xyz
  1  'x, y, z'
loop_
 _atom_site_type_symbol
 _atom_site_label
 _atom_site_symmetry_multiplicity
 _atom_site_fract_x
 _atom_site_fract_y
 _atom_site_fract_z
 _atom_site_occupancy
  Tb  Tb0  1  0.500000  0.114426  0.347573  1
  Tb  Tb1  1  0.500000  0.885572  0.652471  1
  Tb  Tb2  1  0.500000  0.613939  0.151802  1
  Tb  Tb3  1  0.000000  0.111603  0.575061  1
  Tb  Tb4  1  0.000000  0.888563  0.425100  1
  Tb  Tb5  1  0.000000  0.611249  0.925335  1
  Tb  Tb6  1  0.000000  0.388834  0.074791  1
  Er  Er7  1  0.500000  0.386186  0.848334  1
  Si  Si8  1  0.500000  0.000072  0.500064  1
  Si  Si9  1  0.500000  0.499350  0.999131  1
  I  I10  1  0.500000  0.245362  0.161854  1
  I  I11  1  0.500000  0.754506  0.837895  1
  I  I12  1  0.500000  0.745309  0.337858  1
  I  I13  1  0.500000  0.255441  0.663237  1
  I  I14  1  0.000000  0.258824  0.414781  1
  I  I15  1  0.000000  0.741131  0.585326  1
  I  I16  1  0.000000  0.758608  0.085305  1
  I  I17  1  0.000000  0.243564  0.912733  1
  I  I18  1  0.000000  0.999314  0.240304  1
  I  I19  1  0.000000  0.000726  0.759760  1
  I  I20  1  0.000000  0.499389  0.259517  1
  I  I21  1  0.000000  0.498032  0.741768  1
