# generated using pymatgen
data_Na4Yb2SiAs4
_symmetry_space_group_name_H-M   'P 1'
_cell_length_a   9.40895847
_cell_length_b   9.40895869
_cell_length_c   7.13349648
_cell_angle_alpha   89.09771228
_cell_angle_beta   89.09771371
_cell_angle_gamma   119.50848070
_symmetry_Int_Tables_number   1
_chemical_formula_structural   Na4Yb2SiAs4
_chemical_formula_sum   'Na8 Yb4 Si2 As8'
_cell_volume   549.33040034
_cell_formula_units_Z   2
loop_
 _symmetry_equiv_pos_site_id
 _symmetry_equiv_pos_as_xyz
  1  'x, y, z'
loop_
 _atom_site_type_symbol
 _atom_site_label
 _atom_site_symmetry_multiplicity
 _atom_site_fract_x
 _atom_site_fract_y
 _atom_site_fract_z
 _atom_site_occupancy
  Na  Na0  1  0.475471  0.947386  0.385585  1
  Na  Na1  1  0.947386  0.475471  0.885585  1
  Na  Na2  1  0.859671  0.714113  0.182370  1
  Na  Na3  1  0.291513  0.139012  0.209471  1
  Na  Na4  1  0.849059  0.141770  0.196878  1
  Na  Na5  1  0.139012  0.291513  0.709471  1
  Na  Na6  1  0.714113  0.859671  0.682370  1
  Na  Na7  1  0.141770  0.849059  0.696878  1
  Yb  Yb8  1  0.048278  0.525670  0.384157  1
  Yb  Yb9  1  0.480681  0.527109  0.381757  1
  Yb  Yb10  1  0.525670  0.048278  0.884157  1
  Yb  Yb11  1  0.527109  0.480681  0.881757  1
  Si  Si12  1  0.663358  0.330117  0.499904  1
  Si  Si13  1  0.330117  0.663358  0.999904  1
  As  As14  1  0.199407  0.387315  0.121401  1
  As  As15  1  0.611738  0.803222  0.092466  1
  As  As16  1  0.198252  0.808731  0.104564  1
  As  As17  1  0.803222  0.611738  0.592466  1
  As  As18  1  0.387315  0.199407  0.621401  1
  As  As19  1  0.808731  0.198252  0.604564  1
  As  As20  1  0.661789  0.336186  0.161426  1
  As  As21  1  0.336186  0.661789  0.661426  1
