# generated using pymatgen
data_Y4Ho8GaCo4Pd
_symmetry_space_group_name_H-M   'P 1'
_cell_length_a   8.25667502
_cell_length_b   8.25667542
_cell_length_c   8.25667364
_cell_angle_alpha   107.20378508
_cell_angle_beta   110.54996709
_cell_angle_gamma   110.68346044
_symmetry_Int_Tables_number   1
_chemical_formula_structural   Y4Ho8GaCo4Pd
_chemical_formula_sum   'Y4 Ho8 Ga1 Co4 Pd1'
_cell_volume   432.79785646
_cell_formula_units_Z   1
loop_
 _symmetry_equiv_pos_site_id
 _symmetry_equiv_pos_as_xyz
  1  'x, y, z'
loop_
 _atom_site_type_symbol
 _atom_site_label
 _atom_site_symmetry_multiplicity
 _atom_site_fract_x
 _atom_site_fract_y
 _atom_site_fract_z
 _atom_site_occupancy
  Y  Y0  1  0.602474  0.791548  0.810926  1
  Y  Y1  1  0.980623  0.791548  0.189074  1
  Y  Y2  1  0.019377  0.208452  0.810926  1
  Y  Y3  1  0.397526  0.208452  0.189074  1
  Ho  Ho4  1  0.698007  0.280947  0.978953  1
  Ho  Ho5  1  0.301993  0.719053  0.021047  1
  Ho  Ho6  1  0.698007  0.719053  0.417060  1
  Ho  Ho7  1  0.301993  0.280947  0.582940  1
  Ho  Ho8  1  0.803024  0.119219  0.316195  1
  Ho  Ho9  1  0.803024  0.486830  0.683805  1
  Ho  Ho10  1  0.196976  0.880781  0.683805  1
  Ho  Ho11  1  0.196976  0.513170  0.316195  1
  Ga  Ga12  1  0.500000  0.000000  0.500000  1
  Co  Co13  1  0.877634  0.500000  0.377634  1
  Co  Co14  1  0.122366  0.500000  0.622366  1
  Co  Co15  1  0.000000  0.112872  0.112872  1
  Co  Co16  1  0.000000  0.887128  0.887128  1
  Pd  Pd17  1  0.500000  0.500000  0.000000  1
