# generated using pymatgen
data_YbPr4Si12Ir19
_symmetry_space_group_name_H-M   'P 1'
_cell_length_a   12.91090603
_cell_length_b   12.91253049
_cell_length_c   4.03143200
_cell_angle_alpha   90.00000000
_cell_angle_beta   90.00000000
_cell_angle_gamma   120.00416206
_symmetry_Int_Tables_number   1
_chemical_formula_structural   YbPr4Si12Ir19
_chemical_formula_sum   'Yb1 Pr4 Si12 Ir19'
_cell_volume   582.02258197
_cell_formula_units_Z   1
loop_
 _symmetry_equiv_pos_site_id
 _symmetry_equiv_pos_as_xyz
  1  'x, y, z'
loop_
 _atom_site_type_symbol
 _atom_site_label
 _atom_site_symmetry_multiplicity
 _atom_site_fract_x
 _atom_site_fract_y
 _atom_site_fract_z
 _atom_site_occupancy
  Yb  Yb0  1  0.000000  0.814374  0.500000  1
  Pr  Pr1  1  0.334021  0.667411  0.000000  1
  Pr  Pr2  1  0.665979  0.333389  0.000000  1
  Pr  Pr3  1  0.184502  0.183789  0.500000  1
  Pr  Pr4  1  0.815498  0.999287  0.500000  1
  Si  Si5  1  0.818384  0.815010  0.000000  1
  Si  Si6  1  0.181616  0.996625  0.000000  1
  Si  Si7  1  0.000000  0.183967  0.000000  1
  Si  Si8  1  0.310484  0.832234  0.500000  1
  Si  Si9  1  0.167620  0.479785  0.500000  1
  Si  Si10  1  0.521991  0.688430  0.500000  1
  Si  Si11  1  0.832380  0.312165  0.500000  1
  Si  Si12  1  0.478009  0.166439  0.500000  1
  Si  Si13  1  0.689516  0.521750  0.500000  1
  Si  Si14  1  0.369935  0.369811  0.000000  1
  Si  Si15  1  0.630065  0.999877  0.000000  1
  Si  Si16  1  0.000000  0.632086  0.000000  1
  Ir  Ir17  1  0.193691  0.816175  0.000000  1
  Ir  Ir18  1  0.182371  0.377959  0.000000  1
  Ir  Ir19  1  0.623010  0.804842  0.000000  1
  Ir  Ir20  1  0.817629  0.195590  0.000000  1
  Ir  Ir21  1  0.376990  0.181834  0.000000  1
  Ir  Ir22  1  0.806309  0.622486  0.000000  1
  Ir  Ir23  1  0.717117  0.716402  0.500000  1
  Ir  Ir24  1  0.282883  0.999284  0.500000  1
  Ir  Ir25  1  0.000000  0.285058  0.500000  1
  Ir  Ir26  1  0.124637  0.638297  0.500000  1
  Ir  Ir27  1  0.361756  0.487355  0.500000  1
  Ir  Ir28  1  0.512495  0.874639  0.500000  1
  Ir  Ir29  1  0.638244  0.125600  0.500000  1
  Ir  Ir30  1  0.487505  0.362146  0.500000  1
  Ir  Ir31  1  0.875363  0.513661  0.500000  1
  Ir  Ir32  1  0.552133  0.553362  0.000000  1
  Ir  Ir33  1  0.447867  0.001229  0.000000  1
  Ir  Ir34  1  0.000000  0.447956  0.000000  1
  Ir  Ir35  1  0.000000  0.999695  0.000000  1
