# generated using pymatgen
data_CsHo6(CI6)2
_symmetry_space_group_name_H-M   'P 1'
_cell_length_a   9.52720430
_cell_length_b   9.55029559
_cell_length_c   9.91038284
_cell_angle_alpha   72.51067198
_cell_angle_beta   71.73343740
_cell_angle_gamma   73.03162851
_symmetry_Int_Tables_number   1
_chemical_formula_structural   CsHo6(CI6)2
_chemical_formula_sum   'Cs1 Ho6 C2 I12'
_cell_volume   797.01631385
_cell_formula_units_Z   1
loop_
 _symmetry_equiv_pos_site_id
 _symmetry_equiv_pos_as_xyz
  1  'x, y, z'
loop_
 _atom_site_type_symbol
 _atom_site_label
 _atom_site_symmetry_multiplicity
 _atom_site_fract_x
 _atom_site_fract_y
 _atom_site_fract_z
 _atom_site_occupancy
  Cs  Cs0  1  0.000004  0.499999  0.000000  1
  Ho  Ho1  1  0.472259  0.106101  0.198483  1
  Ho  Ho2  1  0.758325  0.030916  0.414177  1
  Ho  Ho3  1  0.585211  0.745055  0.476137  1
  Ho  Ho4  1  0.414791  0.254942  0.523874  1
  Ho  Ho5  1  0.241683  0.969080  0.585811  1
  Ho  Ho6  1  0.527745  0.893901  0.801515  1
  C  C7  1  0.492871  0.024778  0.426333  1
  C  C8  1  0.507127  0.975224  0.573672  1
  I  I9  1  0.794039  0.151810  0.083717  1
  I  I10  1  0.579638  0.785928  0.141849  1
  I  I11  1  0.354973  0.428217  0.223843  1
  I  I12  1  0.138469  0.066250  0.296908  1
  I  I13  1  0.917652  0.723528  0.358733  1
  I  I14  1  0.710253  0.358133  0.434846  1
  I  I15  1  0.289741  0.641868  0.565151  1
  I  I16  1  0.082346  0.276466  0.641268  1
  I  I17  1  0.861532  0.933752  0.703088  1
  I  I18  1  0.645029  0.571777  0.776160  1
  I  I19  1  0.420362  0.214072  0.858148  1
  I  I20  1  0.205956  0.848199  0.916285  1
