# generated using pymatgen
data_Sr8PaPt6
_symmetry_space_group_name_H-M   'P 1'
_cell_length_a   8.17024540
_cell_length_b   8.17024623
_cell_length_c   8.17024599
_cell_angle_alpha   68.26310183
_cell_angle_beta   68.26309859
_cell_angle_gamma   68.26309935
_symmetry_Int_Tables_number   1
_chemical_formula_structural   Sr8PaPt6
_chemical_formula_sum   'Sr8 Pa1 Pt6'
_cell_volume   453.07356405
_cell_formula_units_Z   1
loop_
 _symmetry_equiv_pos_site_id
 _symmetry_equiv_pos_as_xyz
  1  'x, y, z'
loop_
 _atom_site_type_symbol
 _atom_site_label
 _atom_site_symmetry_multiplicity
 _atom_site_fract_x
 _atom_site_fract_y
 _atom_site_fract_z
 _atom_site_occupancy
  Sr  Sr0  1  0.005200  0.005200  0.005200  1
  Sr  Sr1  1  0.197569  0.197569  0.197569  1
  Sr  Sr2  1  0.335489  0.603785  0.845785  1
  Sr  Sr3  1  0.845785  0.335489  0.603785  1
  Sr  Sr4  1  0.603785  0.845785  0.335489  1
  Sr  Sr5  1  0.667422  0.396849  0.151438  1
  Sr  Sr6  1  0.151438  0.667422  0.396849  1
  Sr  Sr7  1  0.396849  0.151438  0.667422  1
  Pa  Pa8  1  0.814184  0.814184  0.814184  1
  Pt  Pt9  1  0.128693  0.944469  0.609653  1
  Pt  Pt10  1  0.609653  0.128693  0.944469  1
  Pt  Pt11  1  0.944469  0.609653  0.128693  1
  Pt  Pt12  1  0.819498  0.023673  0.456293  1
  Pt  Pt13  1  0.456293  0.819498  0.023673  1
  Pt  Pt14  1  0.023673  0.456293  0.819498  1
