# generated using pymatgen
data_Na2Eu(P3Pd10)2
_symmetry_space_group_name_H-M   'P 1'
_cell_length_a   8.62908040
_cell_length_b   8.62908521
_cell_length_c   8.62907700
_cell_angle_alpha   60.00000464
_cell_angle_beta   60.00005522
_cell_angle_gamma   60.00000303
_symmetry_Int_Tables_number   1
_chemical_formula_structural   Na2Eu(P3Pd10)2
_chemical_formula_sum   'Na2 Eu1 P6 Pd20'
_cell_volume   454.33775347
_cell_formula_units_Z   1
loop_
 _symmetry_equiv_pos_site_id
 _symmetry_equiv_pos_as_xyz
  1  'x, y, z'
loop_
 _atom_site_type_symbol
 _atom_site_label
 _atom_site_symmetry_multiplicity
 _atom_site_fract_x
 _atom_site_fract_y
 _atom_site_fract_z
 _atom_site_occupancy
  Na  Na0  1  0.250000  0.250000  0.250000  1
  Na  Na1  1  0.000000  0.000000  0.000000  1
  Eu  Eu2  1  0.750000  0.750000  0.750000  1
  P  P3  1  0.737875  0.262125  0.262125  1
  P  P4  1  0.262125  0.737875  0.737875  1
  P  P5  1  0.262125  0.737875  0.262126  1
  P  P6  1  0.737875  0.262125  0.737875  1
  P  P7  1  0.262125  0.262125  0.737875  1
  P  P8  1  0.737875  0.737875  0.262125  1
  Pd  Pd9  1  0.383281  0.383280  0.383281  1
  Pd  Pd10  1  0.611861  0.611860  0.611860  1
  Pd  Pd11  1  0.383281  0.383282  0.850156  1
  Pd  Pd12  1  0.383281  0.850156  0.383281  1
  Pd  Pd13  1  0.611861  0.611860  0.164419  1
  Pd  Pd14  1  0.611861  0.164419  0.611860  1
  Pd  Pd15  1  0.850156  0.383281  0.383281  1
  Pd  Pd16  1  0.164418  0.611861  0.611861  1
  Pd  Pd17  1  0.345728  0.999051  0.999051  1
  Pd  Pd18  1  0.656170  0.999051  0.999051  1
  Pd  Pd19  1  0.999051  0.345728  0.656169  1
  Pd  Pd20  1  0.999051  0.656169  0.345728  1
  Pd  Pd21  1  0.999051  0.345728  0.999051  1
  Pd  Pd22  1  0.656169  0.999051  0.345729  1
  Pd  Pd23  1  0.999051  0.656169  0.999051  1
  Pd  Pd24  1  0.345728  0.999051  0.656169  1
  Pd  Pd25  1  0.999051  0.999051  0.345729  1
  Pd  Pd26  1  0.999052  0.999051  0.656169  1
  Pd  Pd27  1  0.656170  0.345728  0.999051  1
  Pd  Pd28  1  0.345728  0.656169  0.999051  1
