# generated using pymatgen
data_Zr16Fe5Ir3
_symmetry_space_group_name_H-M   'P 1'
_cell_length_a   8.64110017
_cell_length_b   8.64826101
_cell_length_c   8.65648518
_cell_angle_alpha   60.00323009
_cell_angle_beta   59.99145487
_cell_angle_gamma   59.93593229
_symmetry_Int_Tables_number   1
_chemical_formula_structural   Zr16Fe5Ir3
_chemical_formula_sum   'Zr16 Fe5 Ir3'
_cell_volume   457.18951185
_cell_formula_units_Z   1
loop_
 _symmetry_equiv_pos_site_id
 _symmetry_equiv_pos_as_xyz
  1  'x, y, z'
loop_
 _atom_site_type_symbol
 _atom_site_label
 _atom_site_symmetry_multiplicity
 _atom_site_fract_x
 _atom_site_fract_y
 _atom_site_fract_z
 _atom_site_occupancy
  Zr  Zr0  1  0.054470  0.648229  0.648171  1
  Zr  Zr1  1  0.648243  0.054498  0.648143  1
  Zr  Zr2  1  0.648194  0.648140  0.054610  1
  Zr  Zr3  1  0.647515  0.647453  0.647394  1
  Zr  Zr4  1  0.800230  0.800240  0.199930  1
  Zr  Zr5  1  0.199710  0.199763  0.800413  1
  Zr  Zr6  1  0.800211  0.199926  0.800185  1
  Zr  Zr7  1  0.199686  0.800433  0.199789  1
  Zr  Zr8  1  0.199920  0.800206  0.800174  1
  Zr  Zr9  1  0.800434  0.199698  0.199757  1
  Zr  Zr10  1  0.437114  0.437139  0.067415  1
  Zr  Zr11  1  0.063043  0.063025  0.437752  1
  Zr  Zr12  1  0.437093  0.067443  0.437123  1
  Zr  Zr13  1  0.063015  0.437788  0.062967  1
  Zr  Zr14  1  0.067437  0.437096  0.437102  1
  Zr  Zr15  1  0.437806  0.062981  0.062952  1
  Fe  Fe16  1  0.418641  0.418633  0.418610  1
  Fe  Fe17  1  0.418052  0.860372  0.860452  1
  Fe  Fe18  1  0.860331  0.418083  0.860451  1
  Fe  Fe19  1  0.860337  0.860381  0.418109  1
  Fe  Fe20  1  0.860820  0.860889  0.861001  1
  Ir  Ir21  1  0.745552  0.416007  0.416050  1
  Ir  Ir22  1  0.416036  0.745458  0.416086  1
  Ir  Ir23  1  0.416109  0.416117  0.745364  1
