# generated using pymatgen
data_HoB2OsRu
_symmetry_space_group_name_H-M   'P 1'
_cell_length_a   6.59861303
_cell_length_b   5.90938191
_cell_length_c   5.57314844
_cell_angle_alpha   70.08236568
_cell_angle_beta   57.34984187
_cell_angle_gamma   52.56778575
_symmetry_Int_Tables_number   1
_chemical_formula_structural   HoB2OsRu
_chemical_formula_sum   'Ho2 B4 Os2 Ru2'
_cell_volume   145.27097318
_cell_formula_units_Z   2
loop_
 _symmetry_equiv_pos_site_id
 _symmetry_equiv_pos_as_xyz
  1  'x, y, z'
loop_
 _atom_site_type_symbol
 _atom_site_label
 _atom_site_symmetry_multiplicity
 _atom_site_fract_x
 _atom_site_fract_y
 _atom_site_fract_z
 _atom_site_occupancy
  Ho  Ho0  1  0.000000  0.000000  0.000000  1
  Ho  Ho1  1  0.250000  0.250000  0.250000  1
  B  B2  1  0.306451  0.693549  0.306451  1
  B  B3  1  0.693549  0.306451  0.693549  1
  B  B4  1  0.560819  0.939181  0.560819  1
  B  B5  1  0.939181  0.560819  0.939181  1
  Os  Os6  1  0.611016  0.611016  0.888984  1
  Os  Os7  1  0.888984  0.888984  0.611016  1
  Ru  Ru8  1  0.638735  0.638735  0.361265  1
  Ru  Ru9  1  0.361265  0.361265  0.638735  1
