# generated using pymatgen
data_LiPr2(Co3P2)3
_symmetry_space_group_name_H-M   'P 1'
_cell_length_a   3.73081800
_cell_length_b   10.43987700
_cell_length_c   11.97729700
_cell_angle_alpha   90.00000000
_cell_angle_beta   90.00000000
_cell_angle_gamma   90.00000000
_symmetry_Int_Tables_number   1
_chemical_formula_structural   LiPr2(Co3P2)3
_chemical_formula_sum   'Li2 Pr4 Co18 P12'
_cell_volume   466.50710683
_cell_formula_units_Z   2
loop_
 _symmetry_equiv_pos_site_id
 _symmetry_equiv_pos_as_xyz
  1  'x, y, z'
loop_
 _atom_site_type_symbol
 _atom_site_label
 _atom_site_symmetry_multiplicity
 _atom_site_fract_x
 _atom_site_fract_y
 _atom_site_fract_z
 _atom_site_occupancy
  Li  Li0  1  0.250000  0.700967  0.991148  1
  Li  Li1  1  0.250000  0.799033  0.491148  1
  Pr  Pr2  1  0.250000  0.581473  0.699805  1
  Pr  Pr3  1  0.250000  0.918527  0.199805  1
  Pr  Pr4  1  0.750000  0.417415  0.297823  1
  Pr  Pr5  1  0.750000  0.082585  0.797823  1
  Co  Co6  1  0.750000  0.291527  0.010131  1
  Co  Co7  1  0.750000  0.208473  0.510131  1
  Co  Co8  1  0.250000  0.400775  0.489043  1
  Co  Co9  1  0.250000  0.099225  0.989043  1
  Co  Co10  1  0.750000  0.587832  0.510059  1
  Co  Co11  1  0.750000  0.912168  0.010059  1
  Co  Co12  1  0.250000  0.222396  0.174113  1
  Co  Co13  1  0.250000  0.277604  0.674113  1
  Co  Co14  1  0.750000  0.780975  0.827322  1
  Co  Co15  1  0.750000  0.719025  0.327322  1
  Co  Co16  1  0.250000  0.883193  0.697418  1
  Co  Co17  1  0.250000  0.616807  0.197418  1
  Co  Co18  1  0.750000  0.119610  0.301939  1
  Co  Co19  1  0.750000  0.380390  0.801939  1
  Co  Co20  1  0.250000  0.465768  0.932499  1
  Co  Co21  1  0.250000  0.034232  0.432499  1
  Co  Co22  1  0.750000  0.530688  0.065241  1
  Co  Co23  1  0.750000  0.969312  0.565241  1
  P  P24  1  0.250000  0.420258  0.109000  1
  P  P25  1  0.250000  0.079742  0.609000  1
  P  P26  1  0.750000  0.578242  0.886942  1
  P  P27  1  0.750000  0.921758  0.386942  1
  P  P28  1  0.250000  0.274732  0.866932  1
  P  P29  1  0.250000  0.225268  0.366932  1
  P  P30  1  0.750000  0.720555  0.140249  1
  P  P31  1  0.750000  0.779445  0.640249  1
  P  P32  1  0.250000  0.603750  0.394868  1
  P  P33  1  0.250000  0.896250  0.894868  1
  P  P34  1  0.750000  0.391367  0.605465  1
  P  P35  1  0.750000  0.108633  0.105465  1
