# generated using pymatgen
data_Y8Ho11ErSn16
_symmetry_space_group_name_H-M   'P 1'
_cell_length_a   8.02987900
_cell_length_b   8.17313608
_cell_length_c   15.44537000
_cell_angle_alpha   90.00000000
_cell_angle_beta   90.00000000
_cell_angle_gamma   90.00821602
_symmetry_Int_Tables_number   1
_chemical_formula_structural   Y8Ho11ErSn16
_chemical_formula_sum   'Y8 Ho11 Er1 Sn16'
_cell_volume   1013.66871524
_cell_formula_units_Z   1
loop_
 _symmetry_equiv_pos_site_id
 _symmetry_equiv_pos_as_xyz
  1  'x, y, z'
loop_
 _atom_site_type_symbol
 _atom_site_label
 _atom_site_symmetry_multiplicity
 _atom_site_fract_x
 _atom_site_fract_y
 _atom_site_fract_z
 _atom_site_occupancy
  Y  Y0  1  0.520542  0.319732  0.902410  1
  Y  Y1  1  0.020350  0.180346  0.597604  1
  Y  Y2  1  0.479452  0.680284  0.402382  1
  Y  Y3  1  0.979686  0.819691  0.097617  1
  Y  Y4  1  0.479452  0.680284  0.097618  1
  Y  Y5  1  0.979686  0.819691  0.402383  1
  Y  Y6  1  0.520542  0.319732  0.597590  1
  Y  Y7  1  0.020350  0.180346  0.902396  1
  Ho  Ho8  1  0.367326  0.836221  0.877788  1
  Ho  Ho9  1  0.867276  0.663768  0.622266  1
  Ho  Ho10  1  0.632602  0.163719  0.377737  1
  Ho  Ho11  1  0.132782  0.336251  0.122275  1
  Ho  Ho12  1  0.632602  0.163719  0.122263  1
  Ho  Ho13  1  0.132782  0.336251  0.377725  1
  Ho  Ho14  1  0.367326  0.836221  0.622212  1
  Ho  Ho15  1  0.867276  0.663768  0.877734  1
  Ho  Ho16  1  0.198145  0.503239  0.750000  1
  Ho  Ho17  1  0.698152  0.996769  0.750000  1
  Ho  Ho18  1  0.801885  0.496808  0.250000  1
  Er  Er19  1  0.301838  0.003341  0.250000  1
  Sn  Sn20  1  0.293521  0.036892  0.041748  1
  Sn  Sn21  1  0.793642  0.462947  0.458436  1
  Sn  Sn22  1  0.706443  0.963029  0.541574  1
  Sn  Sn23  1  0.206325  0.536908  0.958432  1
  Sn  Sn24  1  0.706443  0.963029  0.958426  1
  Sn  Sn25  1  0.206325  0.536908  0.541568  1
  Sn  Sn26  1  0.293521  0.036892  0.458252  1
  Sn  Sn27  1  0.793642  0.462947  0.041564  1
  Sn  Sn28  1  0.564732  0.619333  0.750000  1
  Sn  Sn29  1  0.064838  0.880691  0.750000  1
  Sn  Sn30  1  0.435157  0.380572  0.250000  1
  Sn  Sn31  1  0.935554  0.119161  0.250000  1
  Sn  Sn32  1  0.329295  0.147005  0.750000  1
  Sn  Sn33  1  0.829291  0.352962  0.750000  1
  Sn  Sn34  1  0.670439  0.852994  0.250000  1
  Sn  Sn35  1  0.170782  0.647545  0.250000  1
