# generated using pymatgen
data_Er7TmSc12Si15Ag
_symmetry_space_group_name_H-M   'P 1'
_cell_length_a   7.09138935
_cell_length_b   7.33620919
_cell_length_c   14.00183993
_cell_angle_alpha   89.84321256
_cell_angle_beta   89.55227928
_cell_angle_gamma   90.17549675
_symmetry_Int_Tables_number   1
_chemical_formula_structural   Er7TmSc12Si15Ag
_chemical_formula_sum   'Er7 Tm1 Sc12 Si15 Ag1'
_cell_volume   728.40210886
_cell_formula_units_Z   1
loop_
 _symmetry_equiv_pos_site_id
 _symmetry_equiv_pos_as_xyz
  1  'x, y, z'
loop_
 _atom_site_type_symbol
 _atom_site_label
 _atom_site_symmetry_multiplicity
 _atom_site_fract_x
 _atom_site_fract_y
 _atom_site_fract_z
 _atom_site_occupancy
  Er  Er0  1  0.011829  0.175602  0.097562  1
  Er  Er1  1  0.988179  0.825667  0.904150  1
  Er  Er2  1  0.487481  0.677549  0.904113  1
  Er  Er3  1  0.989776  0.830539  0.597512  1
  Er  Er4  1  0.511779  0.323031  0.096310  1
  Er  Er5  1  0.007974  0.171669  0.398928  1
  Er  Er6  1  0.510984  0.322037  0.400420  1
  Tm  Tm7  1  0.494640  0.679070  0.599898  1
  Sc  Sc8  1  0.163911  0.502378  0.753009  1
  Sc  Sc9  1  0.836937  0.498080  0.251007  1
  Sc  Sc10  1  0.336659  0.000355  0.248904  1
  Sc  Sc11  1  0.665721  0.995772  0.751187  1
  Sc  Sc12  1  0.343082  0.173508  0.626874  1
  Sc  Sc13  1  0.663520  0.823121  0.373615  1
  Sc  Sc14  1  0.166313  0.675075  0.371600  1
  Sc  Sc15  1  0.669166  0.824285  0.124827  1
  Sc  Sc16  1  0.826946  0.325829  0.625482  1
  Sc  Sc17  1  0.329199  0.175294  0.876175  1
  Sc  Sc18  1  0.830923  0.322732  0.875917  1
  Sc  Sc19  1  0.168690  0.676319  0.125273  1
  Si  Si20  1  0.036826  0.120025  0.750069  1
  Si  Si21  1  0.964486  0.884627  0.248492  1
  Si  Si22  1  0.466295  0.613317  0.248017  1
  Si  Si23  1  0.534687  0.387780  0.752319  1
  Si  Si24  1  0.286230  0.872371  0.750891  1
  Si  Si25  1  0.712057  0.128745  0.248322  1
  Si  Si26  1  0.213857  0.369026  0.248346  1
  Si  Si27  1  0.788629  0.629420  0.752459  1
  Si  Si28  1  0.833435  0.537104  0.459453  1
  Si  Si29  1  0.335334  0.961637  0.461102  1
  Si  Si30  1  0.842521  0.534928  0.039179  1
  Si  Si31  1  0.661369  0.035655  0.537830  1
  Si  Si32  1  0.156538  0.464966  0.961947  1
  Si  Si33  1  0.658432  0.034710  0.960722  1
  Si  Si34  1  0.341562  0.964813  0.039957  1
  Ag  Ag35  1  0.164030  0.462959  0.538135  1
