# generated using pymatgen
data_Tb12Co2Ni2SnRh
_symmetry_space_group_name_H-M   'P 1'
_cell_length_a   8.35670827
_cell_length_b   8.35670894
_cell_length_c   8.35670828
_cell_angle_alpha   111.09339299
_cell_angle_beta   109.40169306
_cell_angle_gamma   107.93403059
_symmetry_Int_Tables_number   1
_chemical_formula_structural   Tb12Co2Ni2SnRh
_chemical_formula_sum   'Tb12 Co2 Ni2 Sn1 Rh1'
_cell_volume   448.90320672
_cell_formula_units_Z   1
loop_
 _symmetry_equiv_pos_site_id
 _symmetry_equiv_pos_as_xyz
  1  'x, y, z'
loop_
 _atom_site_type_symbol
 _atom_site_label
 _atom_site_symmetry_multiplicity
 _atom_site_fract_x
 _atom_site_fract_y
 _atom_site_fract_z
 _atom_site_occupancy
  Tb  Tb0  1  0.406907  0.216262  0.190646  1
  Tb  Tb1  1  0.593093  0.783738  0.809354  1
  Tb  Tb2  1  0.025616  0.216262  0.809354  1
  Tb  Tb3  1  0.974384  0.783738  0.190646  1
  Tb  Tb4  1  0.182035  0.290633  0.472668  1
  Tb  Tb5  1  0.817965  0.709367  0.527332  1
  Tb  Tb6  1  0.182035  0.709367  0.891401  1
  Tb  Tb7  1  0.817965  0.290633  0.108599  1
  Tb  Tb8  1  0.317446  0.626860  0.309415  1
  Tb  Tb9  1  0.682554  0.373140  0.690585  1
  Tb  Tb10  1  0.317446  0.008032  0.690585  1
  Tb  Tb11  1  0.682554  0.991968  0.309415  1
  Co  Co12  1  0.114052  0.614052  0.500000  1
  Co  Co13  1  0.885948  0.385948  0.500000  1
  Ni  Ni14  1  0.363193  0.000000  0.363193  1
  Ni  Ni15  1  0.636807  0.000000  0.636807  1
  Sn  Sn16  1  0.500000  0.500000  0.000000  1
  Rh  Rh17  1  0.000000  0.000000  0.000000  1
