# generated using pymatgen
data_Dy4Tm8InGaCo3Ni
_symmetry_space_group_name_H-M   'P 1'
_cell_length_a   8.25747607
_cell_length_b   8.25780684
_cell_length_c   8.25747600
_cell_angle_alpha   106.74043496
_cell_angle_beta   109.73784929
_cell_angle_gamma   111.97610602
_symmetry_Int_Tables_number   1
_chemical_formula_structural   Dy4Tm8InGaCo3Ni
_chemical_formula_sum   'Dy4 Tm8 In1 Ga1 Co3 Ni1'
_cell_volume   432.54958074
_cell_formula_units_Z   1
loop_
 _symmetry_equiv_pos_site_id
 _symmetry_equiv_pos_as_xyz
  1  'x, y, z'
loop_
 _atom_site_type_symbol
 _atom_site_label
 _atom_site_symmetry_multiplicity
 _atom_site_fract_x
 _atom_site_fract_y
 _atom_site_fract_z
 _atom_site_occupancy
  Dy  Dy0  1  0.401066  0.217637  0.183430  1
  Dy  Dy1  1  0.033856  0.215378  0.818479  1
  Dy  Dy2  1  0.965794  0.782363  0.183430  1
  Dy  Dy3  1  0.603102  0.784622  0.818480  1
  Tm  Tm4  1  0.300669  0.265939  0.566609  1
  Tm  Tm5  1  0.700470  0.733007  0.433479  1
  Tm  Tm6  1  0.300670  0.734061  0.034729  1
  Tm  Tm7  1  0.700471  0.266993  0.967463  1
  Tm  Tm8  1  0.186231  0.510787  0.322068  1
  Tm  Tm9  1  0.186243  0.864178  0.675448  1
  Tm  Tm10  1  0.811281  0.489213  0.675444  1
  Tm  Tm11  1  0.811270  0.135822  0.322065  1
  In  In12  1  0.500349  0.000000  0.500349  1
  Ga  Ga13  1  0.501185  0.500000  0.001185  1
  Co  Co14  1  0.844538  0.500000  0.344538  1
  Co  Co15  1  0.000174  0.115542  0.115712  1
  Co  Co16  1  0.000169  0.884458  0.884632  1
  Ni  Ni17  1  0.152462  0.500000  0.652462  1
