# generated using pymatgen
data_Zn21GaRh3
_symmetry_space_group_name_H-M   'P 1'
_cell_length_a   7.80613666
_cell_length_b   7.80174680
_cell_length_c   7.84958407
_cell_angle_alpha   72.19747102
_cell_angle_beta   71.80250017
_cell_angle_gamma   57.67391484
_symmetry_Int_Tables_number   1
_chemical_formula_structural   Zn21GaRh3
_chemical_formula_sum   'Zn21 Ga1 Rh3'
_cell_volume   377.98330290
_cell_formula_units_Z   1
loop_
 _symmetry_equiv_pos_site_id
 _symmetry_equiv_pos_as_xyz
  1  'x, y, z'
loop_
 _atom_site_type_symbol
 _atom_site_label
 _atom_site_symmetry_multiplicity
 _atom_site_fract_x
 _atom_site_fract_y
 _atom_site_fract_z
 _atom_site_occupancy
  Zn  Zn0  1  0.658240  0.263290  0.683422  1
  Zn  Zn1  1  0.266585  0.654728  0.687332  1
  Zn  Zn2  1  0.739260  0.339944  0.315238  1
  Zn  Zn3  1  0.677974  0.322732  0.999134  1
  Zn  Zn4  1  0.318573  0.679621  0.997587  1
  Zn  Zn5  1  0.831118  0.829974  0.783083  1
  Zn  Zn6  1  0.166744  0.173953  0.216257  1
  Zn  Zn7  1  0.971580  0.975528  0.172213  1
  Zn  Zn8  1  0.026416  0.024378  0.824528  1
  Zn  Zn9  1  0.351437  0.352059  0.275885  1
  Zn  Zn10  1  0.646232  0.648195  0.726490  1
  Zn  Zn11  1  0.688167  0.685932  0.380827  1
  Zn  Zn12  1  0.314703  0.315826  0.620901  1
  Zn  Zn13  1  0.660729  0.023838  0.459066  1
  Zn  Zn14  1  0.341608  0.977727  0.543746  1
  Zn  Zn15  1  0.976724  0.338574  0.541004  1
  Zn  Zn16  1  0.021136  0.657752  0.459669  1
  Zn  Zn17  1  0.620968  0.998415  0.102725  1
  Zn  Zn18  1  0.378699  0.003862  0.895632  1
  Zn  Zn19  1  0.001082  0.381239  0.897954  1
  Zn  Zn20  1  0.995554  0.621516  0.102574  1
  Ga  Ga21  1  0.343615  0.735530  0.313587  1
  Rh  Rh22  1  0.652925  0.660313  0.058965  1
  Rh  Rh23  1  0.342942  0.340707  0.945036  1
  Rh  Rh24  1  0.006986  0.994364  0.497142  1
