# generated using pymatgen
data_La2Nd3P4Se
_symmetry_space_group_name_H-M   'P 1'
_cell_length_a   17.31210136
_cell_length_b   17.31210135
_cell_length_c   17.31210368
_cell_angle_alpha   14.07324259
_cell_angle_beta   14.07324301
_cell_angle_gamma   14.07324621
_symmetry_Int_Tables_number   1
_chemical_formula_structural   La2Nd3P4Se
_chemical_formula_sum   'La2 Nd3 P4 Se1'
_cell_volume   267.02355398
_cell_formula_units_Z   1
loop_
 _symmetry_equiv_pos_site_id
 _symmetry_equiv_pos_as_xyz
  1  'x, y, z'
loop_
 _atom_site_type_symbol
 _atom_site_label
 _atom_site_symmetry_multiplicity
 _atom_site_fract_x
 _atom_site_fract_y
 _atom_site_fract_z
 _atom_site_occupancy
  La  La0  1  0.204775  0.204775  0.204775  1
  La  La1  1  0.795225  0.795225  0.795225  1
  Nd  Nd2  1  0.603295  0.603295  0.603295  1
  Nd  Nd3  1  0.396705  0.396705  0.396705  1
  Nd  Nd4  1  0.000000  0.000000  0.000000  1
  P  P5  1  0.098648  0.098648  0.098648  1
  P  P6  1  0.699506  0.699506  0.699506  1
  P  P7  1  0.300494  0.300494  0.300494  1
  P  P8  1  0.901352  0.901352  0.901352  1
  Se  Se9  1  0.500000  0.500000  0.500000  1
