# generated using pymatgen
data_V12Si3Au
_symmetry_space_group_name_H-M   'P 1'
_cell_length_a   4.75472800
_cell_length_b   4.75794100
_cell_length_c   9.50604800
_cell_angle_alpha   90.00000000
_cell_angle_beta   90.00000000
_cell_angle_gamma   90.00000000
_symmetry_Int_Tables_number   1
_chemical_formula_structural   V12Si3Au
_chemical_formula_sum   'V12 Si3 Au1'
_cell_volume   215.05261749
_cell_formula_units_Z   1
loop_
 _symmetry_equiv_pos_site_id
 _symmetry_equiv_pos_as_xyz
  1  'x, y, z'
loop_
 _atom_site_type_symbol
 _atom_site_label
 _atom_site_symmetry_multiplicity
 _atom_site_fract_x
 _atom_site_fract_y
 _atom_site_fract_z
 _atom_site_occupancy
  V  V0  1  0.000000  0.500000  0.126664  1
  V  V1  1  0.000000  0.500000  0.629336  1
  V  V2  1  0.500000  0.245632  0.742825  1
  V  V3  1  0.500000  0.245632  0.257175  1
  V  V4  1  0.757202  0.000000  0.000000  1
  V  V5  1  0.750180  0.000000  0.500000  1
  V  V6  1  0.000000  0.500000  0.873336  1
  V  V7  1  0.000000  0.500000  0.370664  1
  V  V8  1  0.500000  0.754368  0.742825  1
  V  V9  1  0.500000  0.754368  0.257175  1
  V  V10  1  0.242798  0.000000  0.000000  1
  V  V11  1  0.249820  0.000000  0.500000  1
  Si  Si12  1  0.500000  0.500000  0.500000  1
  Si  Si13  1  0.000000  0.000000  0.747964  1
  Si  Si14  1  0.000000  0.000000  0.252036  1
  Au  Au15  1  0.500000  0.500000  0.000000  1
