# generated using pymatgen
data_Th2UFe2
_symmetry_space_group_name_H-M   'P 1'
_cell_length_a   5.98073211
_cell_length_b   5.98073232
_cell_length_c   5.98073200
_cell_angle_alpha   145.70284299
_cell_angle_beta   121.42910739
_cell_angle_gamma   69.66127618
_symmetry_Int_Tables_number   1
_chemical_formula_structural   Th2UFe2
_chemical_formula_sum   'Th2 U1 Fe2'
_cell_volume   101.30651827
_cell_formula_units_Z   1
loop_
 _symmetry_equiv_pos_site_id
 _symmetry_equiv_pos_as_xyz
  1  'x, y, z'
loop_
 _atom_site_type_symbol
 _atom_site_label
 _atom_site_symmetry_multiplicity
 _atom_site_fract_x
 _atom_site_fract_y
 _atom_site_fract_z
 _atom_site_occupancy
  Th  Th0  1  0.700283  0.200284  0.500000  1
  Th  Th1  1  0.299716  0.799716  0.500000  1
  U  U2  1  0.000000  0.000000  0.000000  1
  Fe  Fe3  1  0.721107  0.500000  0.221107  1
  Fe  Fe4  1  0.278892  0.500000  0.778893  1
