# generated using pymatgen
data_Tb6Al24Ir5Ru2Pt
_symmetry_space_group_name_H-M   'P 1'
_cell_length_a   8.83096912
_cell_length_b   8.83096837
_cell_length_c   9.50059908
_cell_angle_alpha   89.93431012
_cell_angle_beta   90.06568595
_cell_angle_gamma   119.88218326
_symmetry_Int_Tables_number   1
_chemical_formula_structural   Tb6Al24Ir5Ru2Pt
_chemical_formula_sum   'Tb6 Al24 Ir5 Ru2 Pt1'
_cell_volume   642.41002344
_cell_formula_units_Z   1
loop_
 _symmetry_equiv_pos_site_id
 _symmetry_equiv_pos_as_xyz
  1  'x, y, z'
loop_
 _atom_site_type_symbol
 _atom_site_label
 _atom_site_symmetry_multiplicity
 _atom_site_fract_x
 _atom_site_fract_y
 _atom_site_fract_z
 _atom_site_occupancy
  Tb  Tb0  1  0.382619  0.190170  0.249886  1
  Tb  Tb1  1  0.808525  0.191475  0.249297  1
  Tb  Tb2  1  0.809830  0.617381  0.249886  1
  Tb  Tb3  1  0.617381  0.809830  0.750114  1
  Tb  Tb4  1  0.191475  0.808525  0.750703  1
  Tb  Tb5  1  0.190170  0.382619  0.750114  1
  Al  Al6  1  0.437627  0.875107  0.250213  1
  Al  Al7  1  0.124893  0.562373  0.250213  1
  Al  Al8  1  0.436866  0.563134  0.247950  1
  Al  Al9  1  0.562373  0.124893  0.749787  1
  Al  Al10  1  0.875107  0.437627  0.749787  1
  Al  Al11  1  0.563134  0.436866  0.752050  1
  Al  Al12  1  0.163264  0.836736  0.424041  1
  Al  Al13  1  0.159685  0.325033  0.423465  1
  Al  Al14  1  0.674967  0.840315  0.423465  1
  Al  Al15  1  0.836736  0.163264  0.575959  1
  Al  Al16  1  0.840315  0.674967  0.576535  1
  Al  Al17  1  0.325033  0.159685  0.576535  1
  Al  Al18  1  0.836672  0.163328  0.924649  1
  Al  Al19  1  0.836773  0.673792  0.924806  1
  Al  Al20  1  0.326208  0.163227  0.924806  1
  Al  Al21  1  0.163328  0.836672  0.075351  1
  Al  Al22  1  0.163227  0.326208  0.075194  1
  Al  Al23  1  0.673792  0.836773  0.075194  1
  Al  Al24  1  0.331792  0.668208  0.530254  1
  Al  Al25  1  0.668208  0.331792  0.469746  1
  Al  Al26  1  0.666771  0.333229  0.028912  1
  Al  Al27  1  0.333229  0.666771  0.971088  1
  Al  Al28  1  0.000423  0.999577  0.249825  1
  Al  Al29  1  0.999577  0.000423  0.750175  1
  Ir  Ir30  1  0.500000  0.000000  0.500000  1
  Ir  Ir31  1  0.000000  0.500000  0.500000  1
  Ir  Ir32  1  0.500000  0.000000  0.000000  1
  Ir  Ir33  1  0.000000  0.500000  0.000000  1
  Ir  Ir34  1  0.500000  0.500000  0.000000  1
  Ru  Ru35  1  0.000000  0.000000  0.500000  1
  Ru  Ru36  1  0.000000  0.000000  0.000000  1
  Pt  Pt37  1  0.500000  0.500000  0.500000  1
