# generated using pymatgen
data_GaCo20(B3Mo)2
_symmetry_space_group_name_H-M   'P 1'
_cell_length_a   7.43214443
_cell_length_b   7.43214463
_cell_length_c   7.43214400
_cell_angle_alpha   60.00000282
_cell_angle_beta   60.00000189
_cell_angle_gamma   60.00000476
_symmetry_Int_Tables_number   1
_chemical_formula_structural   GaCo20(B3Mo)2
_chemical_formula_sum   'Ga1 Co20 B6 Mo2'
_cell_volume   290.28690301
_cell_formula_units_Z   1
loop_
 _symmetry_equiv_pos_site_id
 _symmetry_equiv_pos_as_xyz
  1  'x, y, z'
loop_
 _atom_site_type_symbol
 _atom_site_label
 _atom_site_symmetry_multiplicity
 _atom_site_fract_x
 _atom_site_fract_y
 _atom_site_fract_z
 _atom_site_occupancy
  Ga  Ga0  1  0.000000  0.000000  0.000000  1
  Co  Co1  1  0.618022  0.618022  0.145933  1
  Co  Co2  1  0.618022  0.145933  0.618022  1
  Co  Co3  1  0.145933  0.618022  0.618022  1
  Co  Co4  1  0.618022  0.618022  0.618022  1
  Co  Co5  1  0.381978  0.381978  0.854067  1
  Co  Co6  1  0.381978  0.854067  0.381978  1
  Co  Co7  1  0.854067  0.381978  0.381978  1
  Co  Co8  1  0.381978  0.381978  0.381978  1
  Co  Co9  1  0.000000  0.000000  0.342379  1
  Co  Co10  1  0.657621  0.000000  0.342379  1
  Co  Co11  1  0.000000  0.657621  0.342379  1
  Co  Co12  1  0.657621  0.342379  0.000000  1
  Co  Co13  1  0.000000  0.342379  0.000000  1
  Co  Co14  1  0.000000  0.342379  0.657621  1
  Co  Co15  1  0.342379  0.657621  0.000000  1
  Co  Co16  1  0.342379  0.000000  0.657621  1
  Co  Co17  1  0.342379  0.000000  0.000000  1
  Co  Co18  1  0.000000  0.000000  0.657621  1
  Co  Co19  1  0.000000  0.657621  0.000000  1
  Co  Co20  1  0.657621  0.000000  0.000000  1
  B  B21  1  0.722736  0.722736  0.277264  1
  B  B22  1  0.277264  0.722736  0.277264  1
  B  B23  1  0.722736  0.277264  0.277264  1
  B  B24  1  0.277264  0.277264  0.722736  1
  B  B25  1  0.722736  0.277264  0.722736  1
  B  B26  1  0.277264  0.722736  0.722736  1
  Mo  Mo27  1  0.750000  0.750000  0.750000  1
  Mo  Mo28  1  0.250000  0.250000  0.250000  1
