# generated using pymatgen
data_La2Pr2HoIr2
_symmetry_space_group_name_H-M   'P 1'
_cell_length_a   6.69613495
_cell_length_b   7.28538033
_cell_length_c   9.09530455
_cell_angle_alpha   96.18824360
_cell_angle_beta   111.59907030
_cell_angle_gamma   90.00000154
_symmetry_Int_Tables_number   1
_chemical_formula_structural   La2Pr2HoIr2
_chemical_formula_sum   'La4 Pr4 Ho2 Ir4'
_cell_volume   409.76655808
_cell_formula_units_Z   2
loop_
 _symmetry_equiv_pos_site_id
 _symmetry_equiv_pos_as_xyz
  1  'x, y, z'
loop_
 _atom_site_type_symbol
 _atom_site_label
 _atom_site_symmetry_multiplicity
 _atom_site_fract_x
 _atom_site_fract_y
 _atom_site_fract_z
 _atom_site_occupancy
  La  La0  1  0.980020  0.916814  0.184600  1
  La  La1  1  0.795422  0.583186  0.815400  1
  La  La2  1  0.019980  0.083186  0.815400  1
  La  La3  1  0.204578  0.416814  0.184600  1
  Pr  Pr4  1  0.640452  0.815351  0.427540  1
  Pr  Pr5  1  0.212913  0.684649  0.572460  1
  Pr  Pr6  1  0.359548  0.184649  0.572460  1
  Pr  Pr7  1  0.787087  0.315351  0.427540  1
  Ho  Ho8  1  0.436972  0.750000  0.000000  1
  Ho  Ho9  1  0.563028  0.250000  0.000000  1
  Ir  Ir10  1  0.809391  0.573466  0.206840  1
  Ir  Ir11  1  0.602552  0.926534  0.793160  1
  Ir  Ir12  1  0.190609  0.426534  0.793160  1
  Ir  Ir13  1  0.397448  0.073466  0.206840  1
