# generated using pymatgen
data_Sr5Ho3(Si3Pt)4
_symmetry_space_group_name_H-M   'P 1'
_cell_length_a   8.25777000
_cell_length_b   8.25776998
_cell_length_c   8.83084700
_cell_angle_alpha   90.00000000
_cell_angle_beta   90.00000000
_cell_angle_gamma   120.00000809
_symmetry_Int_Tables_number   1
_chemical_formula_structural   Sr5Ho3(Si3Pt)4
_chemical_formula_sum   'Sr5 Ho3 Si12 Pt4'
_cell_volume   521.50505296
_cell_formula_units_Z   1
loop_
 _symmetry_equiv_pos_site_id
 _symmetry_equiv_pos_as_xyz
  1  'x, y, z'
loop_
 _atom_site_type_symbol
 _atom_site_label
 _atom_site_symmetry_multiplicity
 _atom_site_fract_x
 _atom_site_fract_y
 _atom_site_fract_z
 _atom_site_occupancy
  Sr  Sr0  1  0.000000  0.000000  0.250000  1
  Sr  Sr1  1  0.000000  0.000000  0.750000  1
  Sr  Sr2  1  0.500082  0.499918  0.250000  1
  Sr  Sr3  1  0.500082  0.000163  0.250000  1
  Sr  Sr4  1  0.999837  0.499918  0.250000  1
  Ho  Ho5  1  0.499486  0.500514  0.750000  1
  Ho  Ho6  1  0.499486  0.998973  0.750000  1
  Ho  Ho7  1  0.001027  0.500514  0.750000  1
  Si  Si8  1  0.167024  0.832976  0.514954  1
  Si  Si9  1  0.167024  0.334046  0.514954  1
  Si  Si10  1  0.665954  0.832976  0.514954  1
  Si  Si11  1  0.832996  0.167004  0.514326  1
  Si  Si12  1  0.832996  0.665994  0.514326  1
  Si  Si13  1  0.334006  0.167004  0.514326  1
  Si  Si14  1  0.832996  0.167004  0.985674  1
  Si  Si15  1  0.832996  0.665994  0.985674  1
  Si  Si16  1  0.334006  0.167004  0.985674  1
  Si  Si17  1  0.167024  0.832976  0.985046  1
  Si  Si18  1  0.167024  0.334046  0.985046  1
  Si  Si19  1  0.665954  0.832976  0.985046  1
  Pt  Pt20  1  0.333333  0.666667  0.521971  1
  Pt  Pt21  1  0.666667  0.333333  0.525725  1
  Pt  Pt22  1  0.666667  0.333333  0.974275  1
  Pt  Pt23  1  0.333333  0.666667  0.978029  1
