# generated using pymatgen
data_Er4Th(FeB3)2
_symmetry_space_group_name_H-M   'P 1'
_cell_length_a   5.40871650
_cell_length_b   5.40871646
_cell_length_c   8.09037368
_cell_angle_alpha   70.47193500
_cell_angle_beta   70.47193295
_cell_angle_gamma   59.99998174
_symmetry_Int_Tables_number   1
_chemical_formula_structural   Er4Th(FeB3)2
_chemical_formula_sum   'Er4 Th1 Fe2 B6'
_cell_volume   189.08509493
_cell_formula_units_Z   1
loop_
 _symmetry_equiv_pos_site_id
 _symmetry_equiv_pos_as_xyz
  1  'x, y, z'
loop_
 _atom_site_type_symbol
 _atom_site_label
 _atom_site_symmetry_multiplicity
 _atom_site_fract_x
 _atom_site_fract_y
 _atom_site_fract_z
 _atom_site_occupancy
  Er  Er0  1  0.251288  0.251288  0.246135  1
  Er  Er1  1  0.748712  0.748712  0.753865  1
  Er  Er2  1  0.415798  0.415798  0.752608  1
  Er  Er3  1  0.584202  0.584202  0.247392  1
  Th  Th4  1  0.000000  0.000000  0.000000  1
  Fe  Fe5  1  0.112179  0.112179  0.663464  1
  Fe  Fe6  1  0.887821  0.887821  0.336536  1
  B  B7  1  0.167822  0.832178  0.500000  1
  B  B8  1  0.832178  0.500000  0.500000  1
  B  B9  1  0.500000  0.167822  0.500000  1
  B  B10  1  0.167822  0.500000  0.500000  1
  B  B11  1  0.500000  0.832178  0.500000  1
  B  B12  1  0.832178  0.167822  0.500000  1
