# generated using pymatgen
data_Dy4Lu4Re(B8Ru)3
_symmetry_space_group_name_H-M   'P 1'
_cell_length_a   3.62836400
_cell_length_b   9.08170985
_cell_length_c   11.47142513
_cell_angle_alpha   90.09837279
_cell_angle_beta   90.00000000
_cell_angle_gamma   90.00000000
_symmetry_Int_Tables_number   1
_chemical_formula_structural   Dy4Lu4Re(B8Ru)3
_chemical_formula_sum   'Dy4 Lu4 Re1 B24 Ru3'
_cell_volume   378.00296532
_cell_formula_units_Z   1
loop_
 _symmetry_equiv_pos_site_id
 _symmetry_equiv_pos_as_xyz
  1  'x, y, z'
loop_
 _atom_site_type_symbol
 _atom_site_label
 _atom_site_symmetry_multiplicity
 _atom_site_fract_x
 _atom_site_fract_y
 _atom_site_fract_z
 _atom_site_occupancy
  Dy  Dy0  1  0.000000  0.322013  0.415058  1
  Dy  Dy1  1  0.000000  0.680584  0.588004  1
  Dy  Dy2  1  0.000000  0.821988  0.083725  1
  Dy  Dy3  1  0.000000  0.176849  0.913357  1
  Lu  Lu4  1  0.000000  0.943763  0.371462  1
  Lu  Lu5  1  0.000000  0.055759  0.627548  1
  Lu  Lu6  1  0.000000  0.443223  0.128329  1
  Lu  Lu7  1  0.000000  0.555530  0.872557  1
  Re  Re8  1  0.000000  0.861619  0.820620  1
  B  B9  1  0.500000  0.554332  0.433430  1
  B  B10  1  0.500000  0.445879  0.566822  1
  B  B11  1  0.500000  0.054195  0.067325  1
  B  B12  1  0.500000  0.946805  0.933476  1
  B  B13  1  0.500000  0.749946  0.419552  1
  B  B14  1  0.500000  0.250329  0.580232  1
  B  B15  1  0.500000  0.249627  0.080662  1
  B  B16  1  0.500000  0.749701  0.919496  1
  B  B17  1  0.500000  0.791651  0.265495  1
  B  B18  1  0.500000  0.208157  0.733521  1
  B  B19  1  0.500000  0.292105  0.234451  1
  B  B20  1  0.500000  0.707028  0.765630  1
  B  B21  1  0.500000  0.630389  0.184577  1
  B  B22  1  0.500000  0.368997  0.815015  1
  B  B23  1  0.500000  0.131059  0.315532  1
  B  B24  1  0.500000  0.869474  0.684713  1
  B  B25  1  0.500000  0.982873  0.212921  1
  B  B26  1  0.500000  0.018504  0.786942  1
  B  B27  1  0.500000  0.482733  0.287519  1
  B  B28  1  0.500000  0.517122  0.712868  1
  B  B29  1  0.500000  0.602987  0.029258  1
  B  B30  1  0.500000  0.395105  0.971525  1
  B  B31  1  0.500000  0.104693  0.470696  1
  B  B32  1  0.500000  0.896118  0.528029  1
  Ru  Ru33  1  0.000000  0.638476  0.320515  1
  Ru  Ru34  1  0.000000  0.361610  0.679125  1
  Ru  Ru35  1  0.000000  0.138781  0.180015  1
