# generated using pymatgen
data_Zr4Al6CuRu
_symmetry_space_group_name_H-M   'P 1'
_cell_length_a   5.31889900
_cell_length_b   5.31889868
_cell_length_c   8.39582800
_cell_angle_alpha   90.00000000
_cell_angle_beta   90.00000000
_cell_angle_gamma   120.00000819
_symmetry_Int_Tables_number   1
_chemical_formula_structural   Zr4Al6CuRu
_chemical_formula_sum   'Zr4 Al6 Cu1 Ru1'
_cell_volume   205.70156230
_cell_formula_units_Z   1
loop_
 _symmetry_equiv_pos_site_id
 _symmetry_equiv_pos_as_xyz
  1  'x, y, z'
loop_
 _atom_site_type_symbol
 _atom_site_label
 _atom_site_symmetry_multiplicity
 _atom_site_fract_x
 _atom_site_fract_y
 _atom_site_fract_z
 _atom_site_occupancy
  Zr  Zr0  1  0.666667  0.333333  0.067219  1
  Zr  Zr1  1  0.666667  0.333333  0.438073  1
  Zr  Zr2  1  0.333333  0.666666  0.561928  1
  Zr  Zr3  1  0.333333  0.666666  0.932780  1
  Al  Al4  1  0.167372  0.334745  0.250528  1
  Al  Al5  1  0.167372  0.832627  0.250528  1
  Al  Al6  1  0.665254  0.832627  0.250528  1
  Al  Al7  1  0.334745  0.167372  0.749472  1
  Al  Al8  1  0.832628  0.167372  0.749472  1
  Al  Al9  1  0.832628  0.665254  0.749472  1
  Cu  Cu10  1  0.000000  0.000000  0.500001  1
  Ru  Ru11  1  0.000000  0.000000  0.000000  1
