# generated using pymatgen
data_Y2Th2(Ga8Pd3)3
_symmetry_space_group_name_H-M   'P 1'
_cell_length_a   7.62317854
_cell_length_b   7.63117059
_cell_length_c   13.41059700
_cell_angle_alpha   84.70660314
_cell_angle_beta   100.70687073
_cell_angle_gamma   119.94058119
_symmetry_Int_Tables_number   1
_chemical_formula_structural   Y2Th2(Ga8Pd3)3
_chemical_formula_sum   'Y2 Th2 Ga24 Pd9'
_cell_volume   664.26018534
_cell_formula_units_Z   1
loop_
 _symmetry_equiv_pos_site_id
 _symmetry_equiv_pos_as_xyz
  1  'x, y, z'
loop_
 _atom_site_type_symbol
 _atom_site_label
 _atom_site_symmetry_multiplicity
 _atom_site_fract_x
 _atom_site_fract_y
 _atom_site_fract_z
 _atom_site_occupancy
  Y  Y0  1  0.770974  0.503208  0.809468  1
  Y  Y1  1  0.229026  0.496792  0.190532  1
  Th  Th2  1  0.436771  0.831520  0.808711  1
  Th  Th3  1  0.563229  0.168480  0.191289  1
  Ga  Ga4  1  0.480610  0.170291  0.940065  1
  Ga  Ga5  1  0.519390  0.829709  0.059935  1
  Ga  Ga6  1  0.022004  0.164569  0.559338  1
  Ga  Ga7  1  0.977996  0.835431  0.440662  1
  Ga  Ga8  1  0.353923  0.832693  0.556403  1
  Ga  Ga9  1  0.646077  0.167307  0.443597  1
  Ga  Ga10  1  0.612253  0.831406  0.327433  1
  Ga  Ga11  1  0.387747  0.168594  0.672567  1
  Ga  Ga12  1  0.056132  0.493021  0.672568  1
  Ga  Ga13  1  0.943868  0.506979  0.327432  1
  Ga  Ga14  1  0.732408  0.836916  0.671278  1
  Ga  Ga15  1  0.267592  0.163084  0.328722  1
  Ga  Ga16  1  0.142869  0.497212  0.942616  1
  Ga  Ga17  1  0.857131  0.502788  0.057384  1
  Ga  Ga18  1  0.817024  0.832067  0.946810  1
  Ga  Ga19  1  0.182976  0.167933  0.053190  1
  Ga  Ga20  1  0.311430  0.498681  0.442268  1
  Ga  Ga21  1  0.688570  0.501319  0.557732  1
  Ga  Ga22  1  0.099208  0.833526  0.182482  1
  Ga  Ga23  1  0.900792  0.166474  0.817518  1
  Ga  Ga24  1  0.307315  0.367148  0.815992  1
  Ga  Ga25  1  0.692685  0.632852  0.184008  1
  Ga  Ga26  1  0.099300  0.960360  0.816230  1
  Ga  Ga27  1  0.900700  0.039640  0.183770  1
  Pd  Pd28  1  0.385272  0.503401  0.638113  1
  Pd  Pd29  1  0.614728  0.496599  0.361887  1
  Pd  Pd30  1  0.172732  0.831679  0.999009  1
  Pd  Pd31  1  0.827268  0.168321  0.000991  1
  Pd  Pd32  1  0.289935  0.833411  0.361117  1
  Pd  Pd33  1  0.710065  0.166589  0.638883  1
  Pd  Pd34  1  0.048494  0.828225  0.638315  1
  Pd  Pd35  1  0.951506  0.171775  0.361685  1
  Pd  Pd36  1  0.500000  0.500000  0.000000  1
