# generated using pymatgen
data_Pr16Ho4Si15Pt
_symmetry_space_group_name_H-M   'P 1'
_cell_length_a   7.87077403
_cell_length_b   7.84658997
_cell_length_c   15.21589988
_cell_angle_alpha   89.92445419
_cell_angle_beta   89.70930141
_cell_angle_gamma   90.16293227
_symmetry_Int_Tables_number   1
_chemical_formula_structural   Pr16Ho4Si15Pt
_chemical_formula_sum   'Pr16 Ho4 Si15 Pt1'
_cell_volume   939.69802282
_cell_formula_units_Z   1
loop_
 _symmetry_equiv_pos_site_id
 _symmetry_equiv_pos_as_xyz
  1  'x, y, z'
loop_
 _atom_site_type_symbol
 _atom_site_label
 _atom_site_symmetry_multiplicity
 _atom_site_fract_x
 _atom_site_fract_y
 _atom_site_fract_z
 _atom_site_occupancy
  Pr  Pr0  1  0.373414  0.010919  0.448142  1
  Pr  Pr1  1  0.490134  0.873911  0.699093  1
  Pr  Pr2  1  0.510646  0.123933  0.197492  1
  Pr  Pr3  1  0.875787  0.488417  0.300916  1
  Pr  Pr4  1  0.123385  0.509510  0.800813  1
  Pr  Pr5  1  0.627056  0.988374  0.949249  1
  Pr  Pr6  1  0.004148  0.373701  0.551675  1
  Pr  Pr7  1  0.988676  0.626617  0.052214  1
  Pr  Pr8  1  0.134215  0.986141  0.875162  1
  Pr  Pr9  1  0.518995  0.631509  0.126533  1
  Pr  Pr10  1  0.475487  0.364963  0.628930  1
  Pr  Pr11  1  0.627573  0.519041  0.873324  1
  Pr  Pr12  1  0.371678  0.481154  0.372626  1
  Pr  Pr13  1  0.872861  0.021394  0.376970  1
  Pr  Pr14  1  0.980811  0.126947  0.123656  1
  Pr  Pr15  1  0.022721  0.876173  0.622459  1
  Ho  Ho16  1  0.308786  0.308425  0.000026  1
  Ho  Ho17  1  0.189014  0.809954  0.250177  1
  Ho  Ho18  1  0.814532  0.188117  0.750254  1
  Ho  Ho19  1  0.690176  0.686525  0.499941  1
  Si  Si20  1  0.330280  0.691018  0.953103  1
  Si  Si21  1  0.665373  0.307779  0.454170  1
  Si  Si22  1  0.693465  0.333066  0.047258  1
  Si  Si23  1  0.310098  0.669866  0.545570  1
  Si  Si24  1  0.810011  0.830373  0.205394  1
  Si  Si25  1  0.170347  0.191910  0.295421  1
  Si  Si26  1  0.832792  0.808450  0.796051  1
  Si  Si27  1  0.286855  0.924443  0.062177  1
  Si  Si28  1  0.577919  0.785704  0.313140  1
  Si  Si29  1  0.434593  0.207531  0.815625  1
  Si  Si30  1  0.783559  0.579801  0.687068  1
  Si  Si31  1  0.213495  0.424976  0.187118  1
  Si  Si32  1  0.707530  0.072679  0.560984  1
  Si  Si33  1  0.921938  0.287755  0.938648  1
  Si  Si34  1  0.078104  0.714763  0.437572  1
  Pt  Pt35  1  0.183547  0.174159  0.701051  1
