# generated using pymatgen
data_SmThSc2(Al3Rh)6
_symmetry_space_group_name_H-M   'P 1'
_cell_length_a   7.53950100
_cell_length_b   7.55015223
_cell_length_c   9.40929100
_cell_angle_alpha   90.00000000
_cell_angle_beta   90.00000000
_cell_angle_gamma   119.44526043
_symmetry_Int_Tables_number   1
_chemical_formula_structural   SmThSc2(Al3Rh)6
_chemical_formula_sum   'Sm1 Th1 Sc2 Al18 Rh6'
_cell_volume   466.42999959
_cell_formula_units_Z   1
loop_
 _symmetry_equiv_pos_site_id
 _symmetry_equiv_pos_as_xyz
  1  'x, y, z'
loop_
 _atom_site_type_symbol
 _atom_site_label
 _atom_site_symmetry_multiplicity
 _atom_site_fract_x
 _atom_site_fract_y
 _atom_site_fract_z
 _atom_site_occupancy
  Sm  Sm0  1  0.671660  0.993565  0.250000  1
  Th  Th1  1  0.993445  0.671484  0.250000  1
  Sc  Sc2  1  0.003063  0.327483  0.750000  1
  Sc  Sc3  1  0.326714  0.003536  0.750000  1
  Al  Al4  1  0.133353  0.134827  0.250000  1
  Al  Al5  1  0.879483  0.880923  0.750000  1
  Al  Al6  1  0.003216  0.332224  0.066698  1
  Al  Al7  1  0.003705  0.664039  0.911630  1
  Al  Al8  1  0.003705  0.664039  0.588370  1
  Al  Al9  1  0.339004  0.005896  0.433272  1
  Al  Al10  1  0.003216  0.332224  0.433302  1
  Al  Al11  1  0.664271  0.004830  0.584721  1
  Al  Al12  1  0.664271  0.004830  0.915279  1
  Al  Al13  1  0.339004  0.005896  0.066728  1
  Al  Al14  1  0.328299  0.328408  0.565793  1
  Al  Al15  1  0.662426  0.665056  0.463297  1
  Al  Al16  1  0.662426  0.665056  0.036703  1
  Al  Al17  1  0.328299  0.328408  0.934207  1
  Al  Al18  1  0.342835  0.547140  0.250000  1
  Al  Al19  1  0.658244  0.441723  0.750000  1
  Al  Al20  1  0.544246  0.336896  0.250000  1
  Al  Al21  1  0.442234  0.660135  0.750000  1
  Rh  Rh22  1  0.673586  0.329061  0.998332  1
  Rh  Rh23  1  0.326304  0.671889  0.998305  1
  Rh  Rh24  1  0.326304  0.671889  0.501695  1
  Rh  Rh25  1  0.673586  0.329061  0.501668  1
  Rh  Rh26  1  0.001551  0.999742  0.998181  1
  Rh  Rh27  1  0.001551  0.999742  0.501819  1
