# generated using pymatgen
data_Y5HoAl24(Ru3Pt)2
_symmetry_space_group_name_H-M   'P 1'
_cell_length_a   8.81887128
_cell_length_b   8.80083988
_cell_length_c   9.56208790
_cell_angle_alpha   90.03973305
_cell_angle_beta   90.07559291
_cell_angle_gamma   119.61109862
_symmetry_Int_Tables_number   1
_chemical_formula_structural   Y5HoAl24(Ru3Pt)2
_chemical_formula_sum   'Y5 Ho1 Al24 Ru6 Pt2'
_cell_volume   645.22057741
_cell_formula_units_Z   1
loop_
 _symmetry_equiv_pos_site_id
 _symmetry_equiv_pos_as_xyz
  1  'x, y, z'
loop_
 _atom_site_type_symbol
 _atom_site_label
 _atom_site_symmetry_multiplicity
 _atom_site_fract_x
 _atom_site_fract_y
 _atom_site_fract_z
 _atom_site_occupancy
  Y  Y0  1  0.190340  0.385626  0.252486  1
  Y  Y1  1  0.809642  0.614160  0.747533  1
  Y  Y2  1  0.616521  0.809496  0.251276  1
  Y  Y3  1  0.383570  0.190475  0.748764  1
  Y  Y4  1  0.191190  0.807044  0.251765  1
  Ho  Ho5  1  0.808475  0.193707  0.747840  1
  Al  Al6  1  0.327173  0.664059  0.024238  1
  Al  Al7  1  0.672888  0.335708  0.975157  1
  Al  Al8  1  0.666871  0.332664  0.523113  1
  Al  Al9  1  0.333140  0.667272  0.477347  1
  Al  Al10  1  0.163559  0.327229  0.576442  1
  Al  Al11  1  0.836123  0.672436  0.424039  1
  Al  Al12  1  0.673603  0.837029  0.575674  1
  Al  Al13  1  0.842109  0.675503  0.078299  1
  Al  Al14  1  0.326747  0.163380  0.424815  1
  Al  Al15  1  0.157400  0.324135  0.921220  1
  Al  Al16  1  0.163661  0.836733  0.577227  1
  Al  Al17  1  0.323124  0.162423  0.078949  1
  Al  Al18  1  0.836390  0.163167  0.423372  1
  Al  Al19  1  0.677193  0.838030  0.920606  1
  Al  Al20  1  0.841827  0.167686  0.078353  1
  Al  Al21  1  0.158097  0.832275  0.921067  1
  Al  Al22  1  0.561810  0.125123  0.252659  1
  Al  Al23  1  0.438590  0.875089  0.747468  1
  Al  Al24  1  0.877689  0.440055  0.249154  1
  Al  Al25  1  0.122109  0.559525  0.750922  1
  Al  Al26  1  0.562620  0.437676  0.253055  1
  Al  Al27  1  0.437396  0.562330  0.747008  1
  Al  Al28  1  0.998008  0.000340  0.250363  1
  Al  Al29  1  0.001298  0.000363  0.749618  1
  Ru  Ru30  1  0.999838  0.499674  0.999746  1
  Ru  Ru31  1  0.500399  0.000191  0.500408  1
  Ru  Ru32  1  0.999776  0.499481  0.500442  1
  Ru  Ru33  1  0.500048  0.500014  0.500082  1
  Ru  Ru34  1  0.000038  0.999933  0.000024  1
  Ru  Ru35  1  0.000119  0.999852  0.499939  1
  Pt  Pt36  1  0.500449  0.000187  0.999653  1
  Pt  Pt37  1  0.500171  0.499927  0.999878  1
