# generated using pymatgen
data_Mg2Ni9Mo2P7W
_symmetry_space_group_name_H-M   'P 1'
_cell_length_a   3.62376300
_cell_length_b   9.18943927
_cell_length_c   9.20367693
_cell_angle_alpha   120.14268431
_cell_angle_beta   90.00000000
_cell_angle_gamma   90.00000000
_symmetry_Int_Tables_number   1
_chemical_formula_structural   Mg2Ni9Mo2P7W
_chemical_formula_sum   'Mg2 Ni9 Mo2 P7 W1'
_cell_volume   265.04192528
_cell_formula_units_Z   1
loop_
 _symmetry_equiv_pos_site_id
 _symmetry_equiv_pos_as_xyz
  1  'x, y, z'
loop_
 _atom_site_type_symbol
 _atom_site_label
 _atom_site_symmetry_multiplicity
 _atom_site_fract_x
 _atom_site_fract_y
 _atom_site_fract_z
 _atom_site_occupancy
  Mg  Mg0  1  0.000000  0.666585  0.333278  1
  Mg  Mg1  1  0.500000  0.332810  0.666626  1
  Ni  Ni2  1  0.000000  0.560440  0.929522  1
  Ni  Ni3  1  0.000000  0.369865  0.440196  1
  Ni  Ni4  1  0.000000  0.069824  0.629907  1
  Ni  Ni5  1  0.500000  0.939218  0.387328  1
  Ni  Ni6  1  0.500000  0.447293  0.061423  1
  Ni  Ni7  1  0.500000  0.614659  0.551752  1
  Ni  Ni8  1  0.000000  0.870843  0.159756  1
  Ni  Ni9  1  0.000000  0.290177  0.128776  1
  Ni  Ni10  1  0.000000  0.839143  0.710899  1
  Mo  Mo11  1  0.500000  0.118849  0.219665  1
  Mo  Mo12  1  0.500000  0.100909  0.879833  1
  P  P13  1  0.500000  0.709342  0.121384  1
  P  P14  1  0.500000  0.410387  0.290476  1
  P  P15  1  0.500000  0.879603  0.588674  1
  P  P16  1  0.000000  0.000414  0.000426  1
  P  P17  1  0.000000  0.584796  0.700791  1
  P  P18  1  0.000000  0.115262  0.414742  1
  P  P19  1  0.000000  0.299499  0.884719  1
  W  W20  1  0.500000  0.780083  0.899825  1
