# generated using pymatgen
data_PrSm9(Pb3Br)2
_symmetry_space_group_name_H-M   'P 1'
_cell_length_a   9.51541500
_cell_length_b   9.51676896
_cell_length_c   6.83159700
_cell_angle_alpha   90.00001328
_cell_angle_beta   90.00000000
_cell_angle_gamma   120.00244078
_symmetry_Int_Tables_number   1
_chemical_formula_structural   PrSm9(Pb3Br)2
_chemical_formula_sum   'Pr1 Sm9 Pb6 Br2'
_cell_volume   535.74663185
_cell_formula_units_Z   1
loop_
 _symmetry_equiv_pos_site_id
 _symmetry_equiv_pos_as_xyz
  1  'x, y, z'
loop_
 _atom_site_type_symbol
 _atom_site_label
 _atom_site_symmetry_multiplicity
 _atom_site_fract_x
 _atom_site_fract_y
 _atom_site_fract_z
 _atom_site_occupancy
  Pr  Pr0  1  0.999993  0.733851  0.750002  1
  Sm  Sm1  1  0.666399  0.333031  0.000351  1
  Sm  Sm2  1  0.333598  0.666660  0.000348  1
  Sm  Sm3  1  0.733956  0.734124  0.249998  1
  Sm  Sm4  1  0.266055  0.000152  0.250002  1
  Sm  Sm5  1  0.000035  0.266018  0.250002  1
  Sm  Sm6  1  0.666400  0.333031  0.499650  1
  Sm  Sm7  1  0.333599  0.666660  0.499652  1
  Sm  Sm8  1  0.265626  0.265606  0.749999  1
  Sm  Sm9  1  0.734320  0.999924  0.750001  1
  Pb  Pb10  1  0.612614  0.000032  0.250000  1
  Pb  Pb11  1  0.999992  0.612285  0.250000  1
  Pb  Pb12  1  0.387404  0.387489  0.250000  1
  Pb  Pb13  1  0.389195  0.001252  0.750000  1
  Pb  Pb14  1  0.000043  0.385726  0.750000  1
  Pb  Pb15  1  0.610771  0.612020  0.750001  1
  Br  Br16  1  0.999999  0.001072  0.001145  1
  Br  Br17  1  0.999998  0.001070  0.498856  1
