# generated using pymatgen
data_Sm2TiCo8MoP6
_symmetry_space_group_name_H-M   'P 1'
_cell_length_a   3.70254500
_cell_length_b   10.49128100
_cell_length_c   11.96117300
_cell_angle_alpha   90.00000000
_cell_angle_beta   90.00000000
_cell_angle_gamma   90.00000000
_symmetry_Int_Tables_number   1
_chemical_formula_structural   Sm2TiCo8MoP6
_chemical_formula_sum   'Sm4 Ti2 Co16 Mo2 P12'
_cell_volume   464.62506705
_cell_formula_units_Z   2
loop_
 _symmetry_equiv_pos_site_id
 _symmetry_equiv_pos_as_xyz
  1  'x, y, z'
loop_
 _atom_site_type_symbol
 _atom_site_label
 _atom_site_symmetry_multiplicity
 _atom_site_fract_x
 _atom_site_fract_y
 _atom_site_fract_z
 _atom_site_occupancy
  Sm  Sm0  1  0.250000  0.582498  0.704958  1
  Sm  Sm1  1  0.250000  0.917502  0.204958  1
  Sm  Sm2  1  0.750000  0.417788  0.296018  1
  Sm  Sm3  1  0.750000  0.082212  0.796018  1
  Ti  Ti4  1  0.750000  0.297174  0.009672  1
  Ti  Ti5  1  0.750000  0.202826  0.509672  1
  Co  Co6  1  0.250000  0.405823  0.490066  1
  Co  Co7  1  0.250000  0.094177  0.990066  1
  Co  Co8  1  0.750000  0.594647  0.509300  1
  Co  Co9  1  0.750000  0.905353  0.009300  1
  Co  Co10  1  0.250000  0.220495  0.175193  1
  Co  Co11  1  0.250000  0.279505  0.675193  1
  Co  Co12  1  0.750000  0.777379  0.822847  1
  Co  Co13  1  0.750000  0.722621  0.322847  1
  Co  Co14  1  0.250000  0.885844  0.700133  1
  Co  Co15  1  0.250000  0.614156  0.200133  1
  Co  Co16  1  0.750000  0.114454  0.300889  1
  Co  Co17  1  0.750000  0.385546  0.800889  1
  Co  Co18  1  0.250000  0.464924  0.934990  1
  Co  Co19  1  0.250000  0.035076  0.434990  1
  Co  Co20  1  0.750000  0.534200  0.067393  1
  Co  Co21  1  0.750000  0.965800  0.567393  1
  Mo  Mo22  1  0.250000  0.706506  0.988238  1
  Mo  Mo23  1  0.250000  0.793494  0.488238  1
  P  P24  1  0.250000  0.420419  0.115289  1
  P  P25  1  0.250000  0.079581  0.615289  1
  P  P26  1  0.750000  0.578969  0.887134  1
  P  P27  1  0.750000  0.921031  0.387134  1
  P  P28  1  0.250000  0.272685  0.862059  1
  P  P29  1  0.250000  0.227315  0.362059  1
  P  P30  1  0.750000  0.728902  0.135131  1
  P  P31  1  0.750000  0.771098  0.635131  1
  P  P32  1  0.250000  0.598895  0.392416  1
  P  P33  1  0.250000  0.901105  0.892416  1
  P  P34  1  0.750000  0.405404  0.608277  1
  P  P35  1  0.750000  0.094596  0.108277  1
