# generated using pymatgen
data_Tc(PO4)2
_symmetry_space_group_name_H-M   'P 1'
_cell_length_a   4.96958600
_cell_length_b   7.56146600
_cell_length_c   7.91801900
_cell_angle_alpha   90.00000000
_cell_angle_beta   90.00000000
_cell_angle_gamma   90.00000000
_symmetry_Int_Tables_number   1
_chemical_formula_structural   Tc(PO4)2
_chemical_formula_sum   'Tc2 P4 O16'
_cell_volume   297.53821540
_cell_formula_units_Z   2
loop_
 _symmetry_equiv_pos_site_id
 _symmetry_equiv_pos_as_xyz
  1  'x, y, z'
loop_
 _atom_site_type_symbol
 _atom_site_label
 _atom_site_symmetry_multiplicity
 _atom_site_fract_x
 _atom_site_fract_y
 _atom_site_fract_z
 _atom_site_occupancy
  Tc  Tc0  1  0.500000  0.750000  0.758615  1
  Tc  Tc1  1  0.000000  0.250000  0.241385  1
  P  P2  1  0.257339  0.640503  0.349793  1
  P  P3  1  0.757339  0.359497  0.650207  1
  P  P4  1  0.742661  0.859497  0.349793  1
  P  P5  1  0.242661  0.140503  0.650207  1
  O  O6  1  0.282709  0.636991  0.538375  1
  O  O7  1  0.782709  0.363009  0.461625  1
  O  O8  1  0.717291  0.863009  0.538375  1
  O  O9  1  0.217291  0.136991  0.461625  1
  O  O10  1  0.273710  0.641058  0.881839  1
  O  O11  1  0.773710  0.358942  0.118161  1
  O  O12  1  0.726290  0.858942  0.881839  1
  O  O13  1  0.226290  0.141058  0.118161  1
  O  O14  1  0.250504  0.966266  0.742438  1
  O  O15  1  0.750504  0.033734  0.257562  1
  O  O16  1  0.749496  0.533734  0.742438  1
  O  O17  1  0.249496  0.466266  0.257562  1
  O  O18  1  0.500000  0.750000  0.265395  1
  O  O19  1  0.000000  0.250000  0.734605  1
  O  O20  1  0.500000  0.250000  0.711035  1
  O  O21  1  0.000000  0.750000  0.288965  1
