# generated using pymatgen
data_Ba3Ga2Pd7
_symmetry_space_group_name_H-M   'P 1'
_cell_length_a   9.34798257
_cell_length_b   9.34798319
_cell_length_c   9.34798076
_cell_angle_alpha   36.27710630
_cell_angle_beta   36.27709876
_cell_angle_gamma   36.27710407
_symmetry_Int_Tables_number   1
_chemical_formula_structural   Ba3Ga2Pd7
_chemical_formula_sum   'Ba3 Ga2 Pd7'
_cell_volume   255.91765871
_cell_formula_units_Z   1
loop_
 _symmetry_equiv_pos_site_id
 _symmetry_equiv_pos_as_xyz
  1  'x, y, z'
loop_
 _atom_site_type_symbol
 _atom_site_label
 _atom_site_symmetry_multiplicity
 _atom_site_fract_x
 _atom_site_fract_y
 _atom_site_fract_z
 _atom_site_occupancy
  Ba  Ba0  1  0.358931  0.358931  0.358931  1
  Ba  Ba1  1  0.500000  0.500000  0.500000  1
  Ba  Ba2  1  0.641068  0.641068  0.641068  1
  Ga  Ga3  1  0.168786  0.168786  0.168786  1
  Ga  Ga4  1  0.831214  0.831214  0.831214  1
  Pd  Pd5  1  0.000000  0.000000  0.000000  1
  Pd  Pd6  1  0.579612  0.072196  0.072197  1
  Pd  Pd7  1  0.072196  0.579612  0.072197  1
  Pd  Pd8  1  0.927804  0.927804  0.420387  1
  Pd  Pd9  1  0.072196  0.072196  0.579613  1
  Pd  Pd10  1  0.927804  0.420388  0.927803  1
  Pd  Pd11  1  0.420388  0.927804  0.927803  1
