# generated using pymatgen
data_Zr9Sc3(Si3Rh)4
_symmetry_space_group_name_H-M   'P 1'
_cell_length_a   3.94119200
_cell_length_b   10.35487307
_cell_length_c   11.79075600
_cell_angle_alpha   90.06757950
_cell_angle_beta   90.00000000
_cell_angle_gamma   90.00000000
_symmetry_Int_Tables_number   1
_chemical_formula_structural   Zr9Sc3(Si3Rh)4
_chemical_formula_sum   'Zr9 Sc3 Si12 Rh4'
_cell_volume   481.18681897
_cell_formula_units_Z   1
loop_
 _symmetry_equiv_pos_site_id
 _symmetry_equiv_pos_as_xyz
  1  'x, y, z'
loop_
 _atom_site_type_symbol
 _atom_site_label
 _atom_site_symmetry_multiplicity
 _atom_site_fract_x
 _atom_site_fract_y
 _atom_site_fract_z
 _atom_site_occupancy
  Zr  Zr0  1  0.250000  0.873606  0.023032  1
  Zr  Zr1  1  0.250000  0.626285  0.522665  1
  Zr  Zr2  1  0.750000  0.124301  0.977293  1
  Zr  Zr3  1  0.750000  0.374553  0.476704  1
  Zr  Zr4  1  0.250000  0.925153  0.595879  1
  Zr  Zr5  1  0.250000  0.574978  0.095736  1
  Zr  Zr6  1  0.750000  0.075832  0.403660  1
  Zr  Zr7  1  0.750000  0.425219  0.902903  1
  Zr  Zr8  1  0.250000  0.659256  0.800298  1
  Sc  Sc9  1  0.250000  0.841566  0.300733  1
  Sc  Sc10  1  0.750000  0.341241  0.199489  1
  Sc  Sc11  1  0.750000  0.158886  0.699376  1
  Si  Si12  1  0.250000  0.015863  0.826365  1
  Si  Si13  1  0.250000  0.483821  0.326061  1
  Si  Si14  1  0.750000  0.983100  0.173366  1
  Si  Si15  1  0.750000  0.516755  0.673091  1
  Si  Si16  1  0.250000  0.248705  0.842764  1
  Si  Si17  1  0.250000  0.250285  0.342311  1
  Si  Si18  1  0.750000  0.750004  0.158623  1
  Si  Si19  1  0.750000  0.750722  0.657509  1
  Si  Si20  1  0.250000  0.192353  0.543821  1
  Si  Si21  1  0.250000  0.306662  0.043390  1
  Si  Si22  1  0.750000  0.808428  0.455765  1
  Si  Si23  1  0.750000  0.691521  0.957620  1
  Rh  Rh24  1  0.250000  0.385728  0.681771  1
  Rh  Rh25  1  0.250000  0.114258  0.180393  1
  Rh  Rh26  1  0.750000  0.614556  0.319960  1
  Rh  Rh27  1  0.750000  0.886365  0.819423  1
