# generated using pymatgen
data_ErThCu2As3P
_symmetry_space_group_name_H-M   'P 1'
_cell_length_a   3.93594100
_cell_length_b   3.93594100
_cell_length_c   9.75109400
_cell_angle_alpha   90.00000000
_cell_angle_beta   90.00000000
_cell_angle_gamma   90.00000000
_symmetry_Int_Tables_number   1
_chemical_formula_structural   ErThCu2As3P
_chemical_formula_sum   'Er1 Th1 Cu2 As3 P1'
_cell_volume   151.06035551
_cell_formula_units_Z   1
loop_
 _symmetry_equiv_pos_site_id
 _symmetry_equiv_pos_as_xyz
  1  'x, y, z'
loop_
 _atom_site_type_symbol
 _atom_site_label
 _atom_site_symmetry_multiplicity
 _atom_site_fract_x
 _atom_site_fract_y
 _atom_site_fract_z
 _atom_site_occupancy
  Er  Er0  1  0.500000  0.000000  0.236645  1
  Th  Th1  1  0.000000  0.500000  0.761591  1
  Cu  Cu2  1  0.500000  0.500000  0.500278  1
  Cu  Cu3  1  0.000000  0.000000  0.500278  1
  As  As4  1  0.000000  0.000000  0.005715  1
  As  As5  1  0.500000  0.500000  0.005715  1
  As  As6  1  0.000000  0.500000  0.339188  1
  P  P7  1  0.500000  0.000000  0.650591  1
