# generated using pymatgen
data_La2NdCo3Si7
_symmetry_space_group_name_H-M   'P 1'
_cell_length_a   13.15672508
_cell_length_b   13.15672550
_cell_length_c   4.16375700
_cell_angle_alpha   90.00000000
_cell_angle_beta   90.00000000
_cell_angle_gamma   161.89567356
_symmetry_Int_Tables_number   1
_chemical_formula_structural   La2NdCo3Si7
_chemical_formula_sum   'La2 Nd1 Co3 Si7'
_cell_volume   223.96987874
_cell_formula_units_Z   1
loop_
 _symmetry_equiv_pos_site_id
 _symmetry_equiv_pos_as_xyz
  1  'x, y, z'
loop_
 _atom_site_type_symbol
 _atom_site_label
 _atom_site_symmetry_multiplicity
 _atom_site_fract_x
 _atom_site_fract_y
 _atom_site_fract_z
 _atom_site_occupancy
  La  La0  1  0.003195  0.996805  0.000000  1
  La  La1  1  0.318077  0.681923  0.500000  1
  Nd  Nd2  1  0.685772  0.314228  0.500000  1
  Co  Co3  1  0.865419  0.134581  0.000000  1
  Co  Co4  1  0.133500  0.866500  0.000000  1
  Co  Co5  1  0.450800  0.549200  0.500000  1
  Si  Si6  1  0.594623  0.405377  0.000000  1
  Si  Si7  1  0.408405  0.591595  0.000000  1
  Si  Si8  1  0.775758  0.224242  0.000000  1
  Si  Si9  1  0.224541  0.775459  0.000000  1
  Si  Si10  1  0.909221  0.090779  0.500000  1
  Si  Si11  1  0.093721  0.906279  0.500000  1
  Si  Si12  1  0.536971  0.463029  0.500000  1
