# generated using pymatgen
data_Tb11ErCo4NiSn
_symmetry_space_group_name_H-M   'P 1'
_cell_length_a   8.30451083
_cell_length_b   8.31963768
_cell_length_c   8.31963662
_cell_angle_alpha   110.83870950
_cell_angle_beta   110.54576079
_cell_angle_gamma   107.12633674
_symmetry_Int_Tables_number   1
_chemical_formula_structural   Tb11ErCo4NiSn
_chemical_formula_sum   'Tb11 Er1 Co4 Ni1 Sn1'
_cell_volume   441.53026667
_cell_formula_units_Z   1
loop_
 _symmetry_equiv_pos_site_id
 _symmetry_equiv_pos_as_xyz
  1  'x, y, z'
loop_
 _atom_site_type_symbol
 _atom_site_label
 _atom_site_symmetry_multiplicity
 _atom_site_fract_x
 _atom_site_fract_y
 _atom_site_fract_z
 _atom_site_occupancy
  Tb  Tb0  1  0.597790  0.792732  0.805058  1
  Tb  Tb1  1  0.012860  0.207386  0.805474  1
  Tb  Tb2  1  0.987030  0.791209  0.195821  1
  Tb  Tb3  1  0.186430  0.293483  0.479198  1
  Tb  Tb4  1  0.813013  0.704408  0.518298  1
  Tb  Tb5  1  0.186430  0.707233  0.892947  1
  Tb  Tb6  1  0.813013  0.294714  0.108605  1
  Tb  Tb7  1  0.314708  0.619380  0.305785  1
  Tb  Tb8  1  0.684609  0.379007  0.693662  1
  Tb  Tb9  1  0.314708  0.008923  0.695328  1
  Tb  Tb10  1  0.684609  0.990947  0.305602  1
  Er  Er11  1  0.406877  0.209982  0.196895  1
  Co  Co12  1  0.375086  0.000458  0.374628  1
  Co  Co13  1  0.620104  0.999340  0.620764  1
  Co  Co14  1  0.112235  0.611921  0.500314  1
  Co  Co15  1  0.884746  0.387051  0.497696  1
  Ni  Ni16  1  0.006437  0.002609  0.003828  1
  Sn  Sn17  1  0.499316  0.499217  0.000099  1
