# generated using pymatgen
data_Ti5Mn(Co5B2)2
_symmetry_space_group_name_H-M   'P 1'
_cell_length_a   8.40083700
_cell_length_b   8.40083700
_cell_length_c   3.04071400
_cell_angle_alpha   90.00000000
_cell_angle_beta   90.00000000
_cell_angle_gamma   90.00000000
_symmetry_Int_Tables_number   1
_chemical_formula_structural   Ti5Mn(Co5B2)2
_chemical_formula_sum   'Ti5 Mn1 Co10 B4'
_cell_volume   214.59553927
_cell_formula_units_Z   1
loop_
 _symmetry_equiv_pos_site_id
 _symmetry_equiv_pos_as_xyz
  1  'x, y, z'
loop_
 _atom_site_type_symbol
 _atom_site_label
 _atom_site_symmetry_multiplicity
 _atom_site_fract_x
 _atom_site_fract_y
 _atom_site_fract_z
 _atom_site_occupancy
  Ti  Ti0  1  0.500000  0.500000  0.000000  1
  Ti  Ti1  1  0.828363  0.320970  0.000000  1
  Ti  Ti2  1  0.320970  0.171637  0.000000  1
  Ti  Ti3  1  0.679030  0.828363  0.000000  1
  Ti  Ti4  1  0.171637  0.679030  0.000000  1
  Mn  Mn5  1  0.000000  0.000000  0.000000  1
  Co  Co6  1  0.500000  0.000000  0.500000  1
  Co  Co7  1  0.000000  0.500000  0.500000  1
  Co  Co8  1  0.070600  0.219170  0.500000  1
  Co  Co9  1  0.219170  0.929400  0.500000  1
  Co  Co10  1  0.780830  0.070600  0.500000  1
  Co  Co11  1  0.929400  0.780830  0.500000  1
  Co  Co12  1  0.428629  0.720026  0.500000  1
  Co  Co13  1  0.571371  0.279974  0.500000  1
  Co  Co14  1  0.720026  0.571371  0.500000  1
  Co  Co15  1  0.279974  0.428629  0.500000  1
  B  B16  1  0.621543  0.120081  0.000000  1
  B  B17  1  0.120081  0.378457  0.000000  1
  B  B18  1  0.879919  0.621543  0.000000  1
  B  B19  1  0.378457  0.879919  0.000000  1
