# generated using pymatgen
data_Gd6Al16IrOs6
_symmetry_space_group_name_H-M   'P 1'
_cell_length_a   8.98630799
_cell_length_b   8.98630800
_cell_length_c   8.98630800
_cell_angle_alpha   60.00000002
_cell_angle_beta   59.99999995
_cell_angle_gamma   60.00000428
_symmetry_Int_Tables_number   1
_chemical_formula_structural   Gd6Al16IrOs6
_chemical_formula_sum   'Gd6 Al16 Ir1 Os6'
_cell_volume   513.13178232
_cell_formula_units_Z   1
loop_
 _symmetry_equiv_pos_site_id
 _symmetry_equiv_pos_as_xyz
  1  'x, y, z'
loop_
 _atom_site_type_symbol
 _atom_site_label
 _atom_site_symmetry_multiplicity
 _atom_site_fract_x
 _atom_site_fract_y
 _atom_site_fract_z
 _atom_site_occupancy
  Gd  Gd0  1  0.210799  0.789219  0.789228  1
  Gd  Gd1  1  0.789201  0.210781  0.210772  1
  Gd  Gd2  1  0.789037  0.210971  0.789066  1
  Gd  Gd3  1  0.789381  0.789516  0.210538  1
  Gd  Gd4  1  0.210963  0.789029  0.210934  1
  Gd  Gd5  1  0.210619  0.210484  0.789462  1
  Al  Al6  1  0.831275  0.831420  0.831243  1
  Al  Al7  1  0.831427  0.831251  0.506095  1
  Al  Al8  1  0.505993  0.831257  0.831435  1
  Al  Al9  1  0.831348  0.505958  0.831275  1
  Al  Al10  1  0.168725  0.168580  0.168757  1
  Al  Al11  1  0.168573  0.168749  0.493905  1
  Al  Al12  1  0.168652  0.494042  0.168725  1
  Al  Al13  1  0.494007  0.168743  0.168565  1
  Al  Al14  1  0.621433  0.621060  0.621227  1
  Al  Al15  1  0.621057  0.621398  0.136255  1
  Al  Al16  1  0.136335  0.621256  0.621061  1
  Al  Al17  1  0.621250  0.136300  0.621397  1
  Al  Al18  1  0.378567  0.378940  0.378773  1
  Al  Al19  1  0.378943  0.378602  0.863745  1
  Al  Al20  1  0.378750  0.863700  0.378603  1
  Al  Al21  1  0.863665  0.378744  0.378939  1
  Ir  Ir22  1  0.500000  0.500000  0.500000  1
  Os  Os23  1  0.000000  0.500000  0.500000  1
  Os  Os24  1  0.500000  0.000000  0.000000  1
  Os  Os25  1  0.500000  0.000000  0.500000  1
  Os  Os26  1  0.500000  0.500000  0.000000  1
  Os  Os27  1  0.000000  0.500000  0.000000  1
  Os  Os28  1  0.000000  0.000000  0.500000  1
