# generated using pymatgen
data_DyLu2Zr(Al8Pt3)3
_symmetry_space_group_name_H-M   'P 1'
_cell_length_a   7.51611273
_cell_length_b   7.52565125
_cell_length_c   13.08940833
_cell_angle_alpha   84.54451358
_cell_angle_beta   79.00706855
_cell_angle_gamma   59.90954661
_symmetry_Int_Tables_number   1
_chemical_formula_structural   DyLu2Zr(Al8Pt3)3
_chemical_formula_sum   'Dy1 Lu2 Zr1 Al24 Pt9'
_cell_volume   628.85186884
_cell_formula_units_Z   1
loop_
 _symmetry_equiv_pos_site_id
 _symmetry_equiv_pos_as_xyz
  1  'x, y, z'
loop_
 _atom_site_type_symbol
 _atom_site_label
 _atom_site_symmetry_multiplicity
 _atom_site_fract_x
 _atom_site_fract_y
 _atom_site_fract_z
 _atom_site_occupancy
  Dy  Dy0  1  0.606720  0.831568  0.191335  1
  Lu  Lu1  1  0.734375  0.498737  0.806523  1
  Lu  Lu2  1  0.266069  0.501208  0.193176  1
  Zr  Zr3  1  0.393052  0.168294  0.809830  1
  Al  Al4  1  0.682399  0.835568  0.940931  1
  Al  Al5  1  0.316299  0.167513  0.054332  1
  Al  Al6  1  0.146297  0.832726  0.562623  1
  Al  Al7  1  0.853059  0.167174  0.438174  1
  Al  Al8  1  0.479686  0.166920  0.560972  1
  Al  Al9  1  0.519349  0.833793  0.441350  1
  Al  Al10  1  0.217259  0.165864  0.329164  1
  Al  Al11  1  0.779001  0.836845  0.674146  1
  Al  Al12  1  0.435713  0.504191  0.674640  1
  Al  Al13  1  0.562621  0.493302  0.328269  1
  Al  Al14  1  0.110791  0.159797  0.673445  1
  Al  Al15  1  0.890926  0.839641  0.329549  1
  Al  Al16  1  0.355046  0.496632  0.941578  1
  Al  Al17  1  0.646857  0.499946  0.055100  1
  Al  Al18  1  0.018290  0.168942  0.949185  1
  Al  Al19  1  0.985573  0.831932  0.046975  1
  Al  Al20  1  0.186698  0.499338  0.441259  1
  Al  Al21  1  0.813838  0.500245  0.558935  1
  Al  Al22  1  0.732865  0.165276  0.183433  1
  Al  Al23  1  0.267078  0.840276  0.816598  1
  Al  Al24  1  0.065332  0.626244  0.815280  1
  Al  Al25  1  0.940426  0.367949  0.184079  1
  Al  Al26  1  0.850336  0.042763  0.815812  1
  Al  Al27  1  0.144368  0.957630  0.183517  1
  Pt  Pt28  1  0.118616  0.490911  0.639805  1
  Pt  Pt29  1  0.880005  0.508769  0.360721  1
  Pt  Pt30  1  0.657388  0.172030  0.998958  1
  Pt  Pt31  1  0.344049  0.827729  0.999410  1
  Pt  Pt32  1  0.536838  0.167178  0.361507  1
  Pt  Pt33  1  0.463970  0.831699  0.639586  1
  Pt  Pt34  1  0.778048  0.177050  0.638178  1
  Pt  Pt35  1  0.221109  0.824037  0.362589  1
  Pt  Pt36  1  0.999654  0.500283  0.999031  1
