# generated using pymatgen
data_Pr3Ga4SiGe
_symmetry_space_group_name_H-M   'P 1'
_cell_length_a   4.25762712
_cell_length_b   4.31940162
_cell_length_c   22.07930158
_cell_angle_alpha   84.38657919
_cell_angle_beta   84.46713527
_cell_angle_gamma   89.99999126
_symmetry_Int_Tables_number   1
_chemical_formula_structural   Pr3Ga4SiGe
_chemical_formula_sum   'Pr6 Ga8 Si2 Ge2'
_cell_volume   402.19911839
_cell_formula_units_Z   2
loop_
 _symmetry_equiv_pos_site_id
 _symmetry_equiv_pos_as_xyz
  1  'x, y, z'
loop_
 _atom_site_type_symbol
 _atom_site_label
 _atom_site_symmetry_multiplicity
 _atom_site_fract_x
 _atom_site_fract_y
 _atom_site_fract_z
 _atom_site_occupancy
  Pr  Pr0  1  0.958806  0.708806  0.082388  1
  Pr  Pr1  1  0.291183  0.041183  0.417634  1
  Pr  Pr2  1  0.623330  0.373330  0.753338  1
  Pr  Pr3  1  0.376434  0.626434  0.247133  1
  Pr  Pr4  1  0.708728  0.958728  0.582542  1
  Pr  Pr5  1  0.041183  0.291183  0.917635  1
  Ga  Ga6  1  0.820376  0.570376  0.359247  1
  Ga  Ga7  1  0.152443  0.902443  0.695115  1
  Ga  Ga8  1  0.432467  0.182467  0.135065  1
  Ga  Ga9  1  0.764972  0.514972  0.470055  1
  Ga  Ga10  1  0.096662  0.846662  0.806676  1
  Ga  Ga11  1  0.846904  0.096904  0.306192  1
  Ga  Ga12  1  0.179343  0.429343  0.641314  1
  Ga  Ga13  1  0.513479  0.763479  0.973041  1
  Si  Si14  1  0.568543  0.818543  0.862915  1
  Si  Si15  1  0.487155  0.237155  0.025689  1
  Ge  Ge16  1  0.902744  0.152744  0.194511  1
  Ge  Ge17  1  0.235246  0.485246  0.529507  1
