# generated using pymatgen
data_Dy5TcOsO12
_symmetry_space_group_name_H-M   'P 1'
_cell_length_a   6.85165585
_cell_length_b   6.85165554
_cell_length_c   7.52555413
_cell_angle_alpha   73.84916581
_cell_angle_beta   73.84916963
_cell_angle_gamma   48.83496393
_symmetry_Int_Tables_number   1
_chemical_formula_structural   Dy5TcOsO12
_chemical_formula_sum   'Dy5 Tc1 Os1 O12'
_cell_volume   253.24723791
_cell_formula_units_Z   1
loop_
 _symmetry_equiv_pos_site_id
 _symmetry_equiv_pos_as_xyz
  1  'x, y, z'
loop_
 _atom_site_type_symbol
 _atom_site_label
 _atom_site_symmetry_multiplicity
 _atom_site_fract_x
 _atom_site_fract_y
 _atom_site_fract_z
 _atom_site_occupancy
  Dy  Dy0  1  0.302226  0.303550  0.357545  1
  Dy  Dy1  1  0.696450  0.697774  0.642455  1
  Dy  Dy2  1  0.313265  0.314530  0.826762  1
  Dy  Dy3  1  0.685470  0.686735  0.173238  1
  Dy  Dy4  1  0.001408  0.998592  0.500000  1
  Tc  Tc5  1  0.787101  0.212899  0.000000  1
  Os  Os6  1  0.217442  0.782558  0.000000  1
  O  O7  1  0.910633  0.417678  0.915782  1
  O  O8  1  0.420010  0.913923  0.914875  1
  O  O9  1  0.086077  0.579990  0.085125  1
  O  O10  1  0.582322  0.089367  0.084218  1
  O  O11  1  0.098549  0.593485  0.574049  1
  O  O12  1  0.596792  0.097823  0.573030  1
  O  O13  1  0.902177  0.403208  0.426970  1
  O  O14  1  0.406515  0.901451  0.425951  1
  O  O15  1  0.999076  0.998895  0.796622  1
  O  O16  1  0.001105  0.000924  0.203378  1
  O  O17  1  0.497780  0.504396  0.824793  1
  O  O18  1  0.495604  0.502220  0.175207  1
