# generated using pymatgen
data_YHo(AuCl6)2
_symmetry_space_group_name_H-M   'P 1'
_cell_length_a   8.01347357
_cell_length_b   9.94166362
_cell_length_c   14.10772500
_cell_angle_alpha   102.87481697
_cell_angle_beta   97.38681235
_cell_angle_gamma   113.06372614
_symmetry_Int_Tables_number   1
_chemical_formula_structural   YHo(AuCl6)2
_chemical_formula_sum   'Y2 Ho2 Au4 Cl24'
_cell_volume   978.46169526
_cell_formula_units_Z   2
loop_
 _symmetry_equiv_pos_site_id
 _symmetry_equiv_pos_as_xyz
  1  'x, y, z'
loop_
 _atom_site_type_symbol
 _atom_site_label
 _atom_site_symmetry_multiplicity
 _atom_site_fract_x
 _atom_site_fract_y
 _atom_site_fract_z
 _atom_site_occupancy
  Y  Y0  1  0.969429  0.314690  0.871903  1
  Y  Y1  1  0.030571  0.685310  0.128097  1
  Ho  Ho2  1  0.579401  0.929607  0.622992  1
  Ho  Ho3  1  0.420599  0.070393  0.377008  1
  Au  Au4  1  0.289034  0.633693  0.763321  1
  Au  Au5  1  0.710966  0.366307  0.236679  1
  Au  Au6  1  0.500000  0.500000  0.500000  1
  Au  Au7  1  0.000000  0.000000  0.000000  1
  Cl  Cl8  1  0.596694  0.734949  0.749781  1
  Cl  Cl9  1  0.403306  0.265051  0.250219  1
  Cl  Cl10  1  0.278950  0.849164  0.731012  1
  Cl  Cl11  1  0.721050  0.150836  0.268988  1
  Cl  Cl12  1  0.978703  0.534193  0.772931  1
  Cl  Cl13  1  0.021297  0.465807  0.227069  1
  Cl  Cl14  1  0.297783  0.414191  0.791332  1
  Cl  Cl15  1  0.702217  0.585809  0.208668  1
  Cl  Cl16  1  0.685106  0.369030  0.500523  1
  Cl  Cl17  1  0.314894  0.630970  0.499477  1
  Cl  Cl18  1  0.755184  0.735524  0.533556  1
  Cl  Cl19  1  0.244816  0.264476  0.466444  1
  Cl  Cl20  1  0.790899  0.105272  0.975314  1
  Cl  Cl21  1  0.209101  0.894728  0.024686  1
  Cl  Cl22  1  0.778067  0.789904  0.030681  1
  Cl  Cl23  1  0.221933  0.210096  0.969319  1
  Cl  Cl24  1  0.623150  0.192940  0.744979  1
  Cl  Cl25  1  0.376850  0.807060  0.255021  1
  Cl  Cl26  1  0.934556  0.059964  0.731162  1
  Cl  Cl27  1  0.065444  0.940036  0.268838  1
  Cl  Cl28  1  0.713316  0.046423  0.483406  1
  Cl  Cl29  1  0.286684  0.953577  0.516594  1
  Cl  Cl30  1  0.773612  0.436432  0.977579  1
  Cl  Cl31  1  0.226388  0.563568  0.022421  1
