# generated using pymatgen
data_Nd5Mg3(Ni4P3)4
_symmetry_space_group_name_H-M   'P 1'
_cell_length_a   12.32700704
_cell_length_b   12.32700789
_cell_length_c   3.86433400
_cell_angle_alpha   90.00000000
_cell_angle_beta   90.00000000
_cell_angle_gamma   119.99690891
_symmetry_Int_Tables_number   1
_chemical_formula_structural   Nd5Mg3(Ni4P3)4
_chemical_formula_sum   'Nd5 Mg3 Ni16 P12'
_cell_volume   508.55055476
_cell_formula_units_Z   1
loop_
 _symmetry_equiv_pos_site_id
 _symmetry_equiv_pos_as_xyz
  1  'x, y, z'
loop_
 _atom_site_type_symbol
 _atom_site_label
 _atom_site_symmetry_multiplicity
 _atom_site_fract_x
 _atom_site_fract_y
 _atom_site_fract_z
 _atom_site_occupancy
  Nd  Nd0  1  0.666658  0.333283  0.000000  1
  Nd  Nd1  1  0.333284  0.666659  0.000000  1
  Nd  Nd2  1  0.189130  0.000008  0.500000  1
  Nd  Nd3  1  0.000008  0.189130  0.500000  1
  Nd  Nd4  1  0.810909  0.810909  0.500000  1
  Mg  Mg5  1  0.567744  0.000034  0.000000  1
  Mg  Mg6  1  0.432282  0.432282  0.000000  1
  Mg  Mg7  1  0.000034  0.567744  0.000000  1
  Ni  Ni8  1  0.999939  0.999939  0.000000  1
  Ni  Ni9  1  0.804825  0.185206  0.000000  1
  Ni  Ni10  1  0.380338  0.195179  0.000000  1
  Ni  Ni11  1  0.195179  0.380338  0.000000  1
  Ni  Ni12  1  0.814850  0.619599  0.000000  1
  Ni  Ni13  1  0.185206  0.804825  0.000000  1
  Ni  Ni14  1  0.619600  0.814851  0.000000  1
  Ni  Ni15  1  0.720311  0.999991  0.500000  1
  Ni  Ni16  1  0.486325  0.119823  0.500000  1
  Ni  Ni17  1  0.279659  0.279659  0.500000  1
  Ni  Ni18  1  0.880194  0.366523  0.500000  1
  Ni  Ni19  1  0.119823  0.486325  0.500000  1
  Ni  Ni20  1  0.633541  0.513727  0.500000  1
  Ni  Ni21  1  0.513727  0.633541  0.500000  1
  Ni  Ni22  1  0.999991  0.720311  0.500000  1
  Ni  Ni23  1  0.366523  0.880194  0.500000  1
  P  P24  1  0.364958  0.000027  0.000000  1
  P  P25  1  0.821195  0.999979  0.000000  1
  P  P26  1  0.178631  0.178631  0.000000  1
  P  P27  1  0.000027  0.364959  0.000000  1
  P  P28  1  0.635160  0.635160  0.000000  1
  P  P29  1  0.999979  0.821195  0.000000  1
  P  P30  1  0.699671  0.172348  0.500000  1
  P  P31  1  0.472710  0.300349  0.500000  1
  P  P32  1  0.300348  0.472710  0.500000  1
  P  P33  1  0.827640  0.527294  0.500000  1
  P  P34  1  0.172347  0.699671  0.500000  1
  P  P35  1  0.527294  0.827640  0.500000  1
