# generated using pymatgen
data_Sc4MnZnRu6
_symmetry_space_group_name_H-M   'P 1'
_cell_length_a   5.10956748
_cell_length_b   5.08145294
_cell_length_c   8.62622600
_cell_angle_alpha   90.00000000
_cell_angle_beta   90.00000000
_cell_angle_gamma   118.89578660
_symmetry_Int_Tables_number   1
_chemical_formula_structural   Sc4MnZnRu6
_chemical_formula_sum   'Sc4 Mn1 Zn1 Ru6'
_cell_volume   196.08711703
_cell_formula_units_Z   1
loop_
 _symmetry_equiv_pos_site_id
 _symmetry_equiv_pos_as_xyz
  1  'x, y, z'
loop_
 _atom_site_type_symbol
 _atom_site_label
 _atom_site_symmetry_multiplicity
 _atom_site_fract_x
 _atom_site_fract_y
 _atom_site_fract_z
 _atom_site_occupancy
  Sc  Sc0  1  0.330562  0.664993  0.067791  1
  Sc  Sc1  1  0.666763  0.329868  0.562178  1
  Sc  Sc2  1  0.666763  0.329868  0.937822  1
  Sc  Sc3  1  0.330562  0.664993  0.432209  1
  Mn  Mn4  1  0.832859  0.173049  0.250000  1
  Zn  Zn5  1  0.169853  0.339375  0.750000  1
  Ru  Ru6  1  0.991955  0.992375  0.002671  1
  Ru  Ru7  1  0.991955  0.992375  0.497329  1
  Ru  Ru8  1  0.833208  0.663908  0.250000  1
  Ru  Ru9  1  0.175683  0.836733  0.750000  1
  Ru  Ru10  1  0.655935  0.836310  0.750000  1
  Ru  Ru11  1  0.353903  0.176152  0.250000  1
