# generated using pymatgen
data_Sc5TiB4Ir9Ru
_symmetry_space_group_name_H-M   'P 1'
_cell_length_a   9.55275513
_cell_length_b   9.55319791
_cell_length_c   3.06704200
_cell_angle_alpha   90.00000000
_cell_angle_beta   90.00000000
_cell_angle_gamma   90.36774715
_symmetry_Int_Tables_number   1
_chemical_formula_structural   Sc5TiB4Ir9Ru
_chemical_formula_sum   'Sc5 Ti1 B4 Ir9 Ru1'
_cell_volume   279.89052574
_cell_formula_units_Z   1
loop_
 _symmetry_equiv_pos_site_id
 _symmetry_equiv_pos_as_xyz
  1  'x, y, z'
loop_
 _atom_site_type_symbol
 _atom_site_label
 _atom_site_symmetry_multiplicity
 _atom_site_fract_x
 _atom_site_fract_y
 _atom_site_fract_z
 _atom_site_occupancy
  Sc  Sc0  1  0.826850  0.326866  0.000000  1
  Sc  Sc1  1  0.323587  0.176551  0.000000  1
  Sc  Sc2  1  0.676413  0.823449  0.000000  1
  Sc  Sc3  1  0.173150  0.673134  0.000000  1
  Sc  Sc4  1  0.500000  0.500000  0.000000  1
  Ti  Ti5  1  0.000000  0.000000  0.000000  1
  B  B6  1  0.622623  0.122469  0.000000  1
  B  B7  1  0.120073  0.379680  0.000000  1
  B  B8  1  0.879927  0.620320  0.000000  1
  B  B9  1  0.377377  0.877531  0.000000  1
  Ir  Ir10  1  0.067631  0.215381  0.500000  1
  Ir  Ir11  1  0.216657  0.933018  0.500000  1
  Ir  Ir12  1  0.783343  0.066982  0.500000  1
  Ir  Ir13  1  0.932369  0.784619  0.500000  1
  Ir  Ir14  1  0.425565  0.722756  0.500000  1
  Ir  Ir15  1  0.574435  0.277244  0.500000  1
  Ir  Ir16  1  0.722170  0.574870  0.500000  1
  Ir  Ir17  1  0.277830  0.425130  0.500000  1
  Ir  Ir18  1  0.500000  0.000000  0.500000  1
  Ru  Ru19  1  0.000000  0.500000  0.500000  1
