# generated using pymatgen
data_Dy2Y6Er12Si15Pt
_symmetry_space_group_name_H-M   'P 1'
_cell_length_a   7.34425577
_cell_length_b   7.70434891
_cell_length_c   14.53405974
_cell_angle_alpha   89.99120689
_cell_angle_beta   89.99601916
_cell_angle_gamma   89.91236030
_symmetry_Int_Tables_number   1
_chemical_formula_structural   Dy2Y6Er12Si15Pt
_chemical_formula_sum   'Dy2 Y6 Er12 Si15 Pt1'
_cell_volume   822.37549783
_cell_formula_units_Z   1
loop_
 _symmetry_equiv_pos_site_id
 _symmetry_equiv_pos_as_xyz
  1  'x, y, z'
loop_
 _atom_site_type_symbol
 _atom_site_label
 _atom_site_symmetry_multiplicity
 _atom_site_fract_x
 _atom_site_fract_y
 _atom_site_fract_z
 _atom_site_occupancy
  Dy  Dy0  1  0.523427  0.566237  0.347756  1
  Dy  Dy1  1  0.023257  0.431204  0.652400  1
  Y  Y2  1  0.478599  0.931028  0.843627  1
  Y  Y3  1  0.977649  0.069863  0.155100  1
  Y  Y4  1  0.478663  0.931186  0.156402  1
  Y  Y5  1  0.977917  0.070282  0.844652  1
  Y  Y6  1  0.522979  0.566987  0.652538  1
  Y  Y7  1  0.022605  0.430998  0.347270  1
  Er  Er8  1  0.814145  0.574785  0.873821  1
  Er  Er9  1  0.324044  0.430587  0.126400  1
  Er  Er10  1  0.181401  0.925662  0.374613  1
  Er  Er11  1  0.680023  0.070257  0.626068  1
  Er  Er12  1  0.181410  0.925823  0.625318  1
  Er  Er13  1  0.679859  0.070064  0.374059  1
  Er  Er14  1  0.813903  0.574811  0.125941  1
  Er  Er15  1  0.324014  0.430458  0.873744  1
  Er  Er16  1  0.648376  0.235893  0.000017  1
  Er  Er17  1  0.158369  0.760136  0.000021  1
  Er  Er18  1  0.347808  0.260661  0.499969  1
  Er  Er19  1  0.848524  0.736739  0.500001  1
  Si  Si20  1  0.022694  0.355153  0.000044  1
  Si  Si21  1  0.477965  0.855548  0.499979  1
  Si  Si22  1  0.976927  0.141731  0.500049  1
  Si  Si23  1  0.651274  0.278349  0.788750  1
  Si  Si24  1  0.149000  0.720750  0.210565  1
  Si  Si25  1  0.349503  0.219096  0.289941  1
  Si  Si26  1  0.851486  0.779239  0.709961  1
  Si  Si27  1  0.348789  0.219012  0.710225  1
  Si  Si28  1  0.850815  0.779332  0.289907  1
  Si  Si29  1  0.651573  0.278600  0.211497  1
  Si  Si30  1  0.149342  0.720436  0.789248  1
  Si  Si31  1  0.774253  0.882460  0.999932  1
  Si  Si32  1  0.263024  0.126907  0.000047  1
  Si  Si33  1  0.227924  0.619336  0.500145  1
  Si  Si34  1  0.728162  0.377986  0.499895  1
  Pt  Pt35  1  0.520299  0.652399  0.000097  1
