# generated using pymatgen
data_TbNd2Dy(SbAu)4
_symmetry_space_group_name_H-M   'P 1'
_cell_length_a   4.61744900
_cell_length_b   4.61744913
_cell_length_c   16.51023900
_cell_angle_alpha   90.00000000
_cell_angle_beta   90.00000000
_cell_angle_gamma   120.00000621
_symmetry_Int_Tables_number   1
_chemical_formula_structural   TbNd2Dy(SbAu)4
_chemical_formula_sum   'Tb1 Nd2 Dy1 Sb4 Au4'
_cell_volume   304.85139860
_cell_formula_units_Z   1
loop_
 _symmetry_equiv_pos_site_id
 _symmetry_equiv_pos_as_xyz
  1  'x, y, z'
loop_
 _atom_site_type_symbol
 _atom_site_label
 _atom_site_symmetry_multiplicity
 _atom_site_fract_x
 _atom_site_fract_y
 _atom_site_fract_z
 _atom_site_occupancy
  Tb  Tb0  1  0.000000  0.000000  0.250000  1
  Nd  Nd1  1  0.000000  0.000000  0.500021  1
  Nd  Nd2  1  0.000000  0.000000  0.999979  1
  Dy  Dy3  1  0.000000  0.000000  0.750000  1
  Sb  Sb4  1  0.333333  0.666667  0.387891  1
  Sb  Sb5  1  0.666667  0.333333  0.612117  1
  Sb  Sb6  1  0.666667  0.333333  0.887883  1
  Sb  Sb7  1  0.333333  0.666667  0.112109  1
  Au  Au8  1  0.666667  0.333333  0.337599  1
  Au  Au9  1  0.333333  0.666667  0.662531  1
  Au  Au10  1  0.333333  0.666667  0.837469  1
  Au  Au11  1  0.666667  0.333333  0.162401  1
