# generated using pymatgen
data_KBa3Re(IN2)2
_symmetry_space_group_name_H-M   'P 1'
_cell_length_a   6.35196500
_cell_length_b   8.58233288
_cell_length_c   11.89232203
_cell_angle_alpha   83.18557102
_cell_angle_beta   90.00000000
_cell_angle_gamma   90.00000000
_symmetry_Int_Tables_number   1
_chemical_formula_structural   KBa3Re(IN2)2
_chemical_formula_sum   'K2 Ba6 Re2 I4 N8'
_cell_volume   643.72625110
_cell_formula_units_Z   2
loop_
 _symmetry_equiv_pos_site_id
 _symmetry_equiv_pos_as_xyz
  1  'x, y, z'
loop_
 _atom_site_type_symbol
 _atom_site_label
 _atom_site_symmetry_multiplicity
 _atom_site_fract_x
 _atom_site_fract_y
 _atom_site_fract_z
 _atom_site_occupancy
  K  K0  1  0.750000  0.264528  0.306315  1
  K  K1  1  0.750000  0.007916  0.624216  1
  Ba  Ba2  1  0.750000  0.436113  0.592917  1
  Ba  Ba3  1  0.750000  0.753121  0.128984  1
  Ba  Ba4  1  0.250000  0.006860  0.379422  1
  Ba  Ba5  1  0.250000  0.550891  0.394988  1
  Ba  Ba6  1  0.250000  0.231569  0.875138  1
  Ba  Ba7  1  0.250000  0.742456  0.683015  1
  Re  Re8  1  0.750000  0.770128  0.409910  1
  Re  Re9  1  0.250000  0.235862  0.593460  1
  I  I10  1  0.250000  0.360600  0.153812  1
  I  I11  1  0.750000  0.634769  0.839807  1
  I  I12  1  0.250000  0.873292  0.098443  1
  I  I13  1  0.750000  0.113179  0.919281  1
  N  N14  1  0.250000  0.061370  0.698441  1
  N  N15  1  0.018360  0.242219  0.500357  1
  N  N16  1  0.505578  0.766267  0.496603  1
  N  N17  1  0.994422  0.766267  0.496603  1
  N  N18  1  0.750000  0.594616  0.334694  1
  N  N19  1  0.750000  0.936030  0.300611  1
  N  N20  1  0.481640  0.242219  0.500357  1
  N  N21  1  0.250000  0.409729  0.672627  1
