# generated using pymatgen
data_KPr(NbCl3)6
_symmetry_space_group_name_H-M   'P 1'
_cell_length_a   10.33398188
_cell_length_b   10.33398214
_cell_length_c   10.33398198
_cell_angle_alpha   55.32364178
_cell_angle_beta   55.32364441
_cell_angle_gamma   55.32365239
_symmetry_Int_Tables_number   1
_chemical_formula_structural   KPr(NbCl3)6
_chemical_formula_sum   'K1 Pr1 Nb6 Cl18'
_cell_volume   695.55639789
_cell_formula_units_Z   1
loop_
 _symmetry_equiv_pos_site_id
 _symmetry_equiv_pos_as_xyz
  1  'x, y, z'
loop_
 _atom_site_type_symbol
 _atom_site_label
 _atom_site_symmetry_multiplicity
 _atom_site_fract_x
 _atom_site_fract_y
 _atom_site_fract_z
 _atom_site_occupancy
  K  K0  1  0.221555  0.221555  0.221555  1
  Pr  Pr1  1  0.498721  0.498721  0.498721  1
  Nb  Nb2  1  0.800799  0.147054  0.915471  1
  Nb  Nb3  1  0.915471  0.800799  0.147054  1
  Nb  Nb4  1  0.147054  0.915471  0.800799  1
  Nb  Nb5  1  0.200006  0.853121  0.083825  1
  Nb  Nb6  1  0.083825  0.200006  0.853121  1
  Nb  Nb7  1  0.853121  0.083825  0.200006  1
  Cl  Cl8  1  0.862012  0.408890  0.730633  1
  Cl  Cl9  1  0.730633  0.862012  0.408890  1
  Cl  Cl10  1  0.408890  0.730633  0.862012  1
  Cl  Cl11  1  0.138008  0.589996  0.270382  1
  Cl  Cl12  1  0.270382  0.138008  0.589996  1
  Cl  Cl13  1  0.589996  0.270382  0.138008  1
  Cl  Cl14  1  0.533557  0.335635  0.814158  1
  Cl  Cl15  1  0.814158  0.533557  0.335635  1
  Cl  Cl16  1  0.335635  0.814158  0.533557  1
  Cl  Cl17  1  0.459337  0.665646  0.191682  1
  Cl  Cl18  1  0.191682  0.459337  0.665646  1
  Cl  Cl19  1  0.665646  0.191682  0.459337  1
  Cl  Cl20  1  0.665131  0.937389  0.073721  1
  Cl  Cl21  1  0.073721  0.665131  0.937389  1
  Cl  Cl22  1  0.937389  0.073721  0.665131  1
  Cl  Cl23  1  0.334799  0.062777  0.926835  1
  Cl  Cl24  1  0.926835  0.334799  0.062777  1
  Cl  Cl25  1  0.062777  0.926835  0.334799  1
