# generated using pymatgen
data_Dy3Ho5Sc12GaSi15
_symmetry_space_group_name_H-M   'P 1'
_cell_length_a   7.09550640
_cell_length_b   7.38695802
_cell_length_c   14.01218522
_cell_angle_alpha   89.95983126
_cell_angle_beta   89.97835610
_cell_angle_gamma   90.00568409
_symmetry_Int_Tables_number   1
_chemical_formula_structural   Dy3Ho5Sc12GaSi15
_chemical_formula_sum   'Dy3 Ho5 Sc12 Ga1 Si15'
_cell_volume   734.43735270
_cell_formula_units_Z   1
loop_
 _symmetry_equiv_pos_site_id
 _symmetry_equiv_pos_as_xyz
  1  'x, y, z'
loop_
 _atom_site_type_symbol
 _atom_site_label
 _atom_site_symmetry_multiplicity
 _atom_site_fract_x
 _atom_site_fract_y
 _atom_site_fract_z
 _atom_site_occupancy
  Dy  Dy0  1  0.011952  0.175482  0.097015  1
  Dy  Dy1  1  0.987955  0.824785  0.903506  1
  Dy  Dy2  1  0.487764  0.676223  0.903410  1
  Ho  Ho3  1  0.987397  0.826459  0.597516  1
  Ho  Ho4  1  0.512122  0.323756  0.096958  1
  Ho  Ho5  1  0.011076  0.174150  0.401675  1
  Ho  Ho6  1  0.512929  0.323303  0.401679  1
  Ho  Ho7  1  0.489857  0.678347  0.597536  1
  Sc  Sc8  1  0.161073  0.502754  0.751333  1
  Sc  Sc9  1  0.838943  0.497368  0.249924  1
  Sc  Sc10  1  0.338962  0.002743  0.249745  1
  Sc  Sc11  1  0.661393  0.996649  0.750063  1
  Sc  Sc12  1  0.332351  0.174192  0.625921  1
  Sc  Sc13  1  0.668564  0.823947  0.374448  1
  Sc  Sc14  1  0.169881  0.677482  0.373584  1
  Sc  Sc15  1  0.669577  0.823585  0.125261  1
  Sc  Sc16  1  0.828644  0.323092  0.625487  1
  Sc  Sc17  1  0.330280  0.176007  0.874974  1
  Sc  Sc18  1  0.830433  0.323057  0.874988  1
  Sc  Sc19  1  0.169246  0.676698  0.125331  1
  Ga  Ga20  1  0.160282  0.462753  0.539257  1
  Si  Si21  1  0.033670  0.117509  0.750629  1
  Si  Si22  1  0.966461  0.883471  0.249744  1
  Si  Si23  1  0.467618  0.615711  0.249965  1
  Si  Si24  1  0.532183  0.384852  0.749706  1
  Si  Si25  1  0.284599  0.872710  0.750185  1
  Si  Si26  1  0.714413  0.127577  0.249620  1
  Si  Si27  1  0.214527  0.372225  0.249532  1
  Si  Si28  1  0.785732  0.627309  0.750602  1
  Si  Si29  1  0.841170  0.535817  0.460381  1
  Si  Si30  1  0.341406  0.964461  0.460217  1
  Si  Si31  1  0.841873  0.535274  0.038760  1
  Si  Si32  1  0.657859  0.035565  0.539064  1
  Si  Si33  1  0.157911  0.464275  0.961659  1
  Si  Si34  1  0.657335  0.035458  0.960713  1
  Si  Si35  1  0.342561  0.964954  0.039611  1
