# generated using pymatgen
data_Hf19Si16Mo
_symmetry_space_group_name_H-M   'P 1'
_cell_length_a   7.04480099
_cell_length_b   7.04480099
_cell_length_c   12.81520994
_cell_angle_alpha   89.92198976
_cell_angle_beta   90.07801024
_cell_angle_gamma   90.07109318
_symmetry_Int_Tables_number   1
_chemical_formula_structural   Hf19Si16Mo
_chemical_formula_sum   'Hf19 Si16 Mo1'
_cell_volume   636.00721806
_cell_formula_units_Z   1
loop_
 _symmetry_equiv_pos_site_id
 _symmetry_equiv_pos_as_xyz
  1  'x, y, z'
loop_
 _atom_site_type_symbol
 _atom_site_label
 _atom_site_symmetry_multiplicity
 _atom_site_fract_x
 _atom_site_fract_y
 _atom_site_fract_z
 _atom_site_occupancy
  Hf  Hf0  1  0.501055  0.845971  0.032422  1
  Hf  Hf1  1  0.002661  0.855836  0.121478  1
  Hf  Hf2  1  0.498402  0.353153  0.125661  1
  Hf  Hf3  1  0.998203  0.346305  0.216243  1
  Hf  Hf4  1  0.324460  0.675952  0.248661  1
  Hf  Hf5  1  0.652562  0.003217  0.281506  1
  Hf  Hf6  1  0.646546  0.501064  0.372706  1
  Hf  Hf7  1  0.145158  0.999602  0.374744  1
  Hf  Hf8  1  0.152955  0.497829  0.466756  1
  Hf  Hf9  1  0.824257  0.824257  0.500000  1
  Hf  Hf10  1  0.497829  0.152955  0.533245  1
  Hf  Hf11  1  0.999602  0.145158  0.625256  1
  Hf  Hf12  1  0.501064  0.646546  0.627294  1
  Hf  Hf13  1  0.003217  0.652562  0.718495  1
  Hf  Hf14  1  0.675952  0.324460  0.751339  1
  Hf  Hf15  1  0.346305  0.998203  0.783758  1
  Hf  Hf16  1  0.353153  0.498402  0.874339  1
  Hf  Hf17  1  0.855836  0.002661  0.878522  1
  Hf  Hf18  1  0.845971  0.501055  0.967579  1
  Si  Si19  1  0.196953  0.544143  0.063876  1
  Si  Si20  1  0.796902  0.146782  0.073276  1
  Si  Si21  1  0.703863  0.647355  0.176560  1
  Si  Si22  1  0.299653  0.051735  0.183565  1
  Si  Si23  1  0.951350  0.697587  0.313098  1
  Si  Si24  1  0.354021  0.295802  0.322717  1
  Si  Si25  1  0.854361  0.204668  0.427458  1
  Si  Si26  1  0.450753  0.802307  0.435888  1
  Si  Si27  1  0.802307  0.450753  0.564112  1
  Si  Si28  1  0.204668  0.854361  0.572542  1
  Si  Si29  1  0.295802  0.354021  0.677283  1
  Si  Si30  1  0.697587  0.951350  0.686902  1
  Si  Si31  1  0.051735  0.299653  0.816435  1
  Si  Si32  1  0.647355  0.703863  0.823440  1
  Si  Si33  1  0.146782  0.796902  0.926724  1
  Si  Si34  1  0.544143  0.196953  0.936124  1
  Mo  Mo35  1  0.176570  0.176570  0.000000  1
