# generated using pymatgen
data_Ac3Sm(I3N)2
_symmetry_space_group_name_H-M   'P 1'
_cell_length_a   10.93426736
_cell_length_b   10.93426777
_cell_length_c   13.37169737
_cell_angle_alpha   125.49467402
_cell_angle_beta   125.49467575
_cell_angle_gamma   22.89248703
_symmetry_Int_Tables_number   1
_chemical_formula_structural   Ac3Sm(I3N)2
_chemical_formula_sum   'Ac3 Sm1 I6 N2'
_cell_volume   501.02391013
_cell_formula_units_Z   1
loop_
 _symmetry_equiv_pos_site_id
 _symmetry_equiv_pos_as_xyz
  1  'x, y, z'
loop_
 _atom_site_type_symbol
 _atom_site_label
 _atom_site_symmetry_multiplicity
 _atom_site_fract_x
 _atom_site_fract_y
 _atom_site_fract_z
 _atom_site_occupancy
  Ac  Ac0  1  0.429531  0.429531  0.038208  1
  Ac  Ac1  1  0.133887  0.133887  0.274372  1
  Ac  Ac2  1  0.870170  0.870170  0.723684  1
  Sm  Sm3  1  0.565346  0.565346  0.964695  1
  I  I4  1  0.206010  0.206010  0.111338  1
  I  I5  1  0.968211  0.968211  0.258566  1
  I  I6  1  0.332927  0.332927  0.492468  1
  I  I7  1  0.669599  0.669599  0.504750  1
  I  I8  1  0.038475  0.038475  0.762224  1
  I  I9  1  0.782967  0.782967  0.871402  1
  N  N10  1  0.570667  0.570667  0.142586  1
  N  N11  1  0.432210  0.432210  0.855703  1
