# generated using pymatgen
data_Tb3Y3Th2(MgIr)2
_symmetry_space_group_name_H-M   'P 1'
_cell_length_a   9.85484241
_cell_length_b   9.85484303
_cell_length_c   9.85484300
_cell_angle_alpha   60.00000345
_cell_angle_beta   60.00000139
_cell_angle_gamma   60.00000298
_symmetry_Int_Tables_number   1
_chemical_formula_structural   Tb3Y3Th2(MgIr)2
_chemical_formula_sum   'Tb6 Y6 Th4 Mg4 Ir4'
_cell_volume   676.75914431
_cell_formula_units_Z   2
loop_
 _symmetry_equiv_pos_site_id
 _symmetry_equiv_pos_as_xyz
  1  'x, y, z'
loop_
 _atom_site_type_symbol
 _atom_site_label
 _atom_site_symmetry_multiplicity
 _atom_site_fract_x
 _atom_site_fract_y
 _atom_site_fract_z
 _atom_site_occupancy
  Tb  Tb0  1  0.062403  0.437597  0.437597  1
  Tb  Tb1  1  0.437597  0.062403  0.062403  1
  Tb  Tb2  1  0.437597  0.062403  0.437597  1
  Tb  Tb3  1  0.062403  0.437597  0.062403  1
  Tb  Tb4  1  0.437597  0.437597  0.062403  1
  Tb  Tb5  1  0.062403  0.062403  0.437597  1
  Y  Y6  1  0.185079  0.814921  0.814921  1
  Y  Y7  1  0.814921  0.185079  0.185079  1
  Y  Y8  1  0.814921  0.185079  0.814921  1
  Y  Y9  1  0.185079  0.814921  0.185079  1
  Y  Y10  1  0.814921  0.814921  0.185079  1
  Y  Y11  1  0.185079  0.185079  0.814921  1
  Th  Th12  1  0.597512  0.597512  0.597512  1
  Th  Th13  1  0.597512  0.597512  0.207463  1
  Th  Th14  1  0.597512  0.207463  0.597512  1
  Th  Th15  1  0.207463  0.597512  0.597512  1
  Mg  Mg16  1  0.830462  0.830462  0.830462  1
  Mg  Mg17  1  0.830462  0.830462  0.508615  1
  Mg  Mg18  1  0.830462  0.508615  0.830462  1
  Mg  Mg19  1  0.508615  0.830462  0.830462  1
  Ir  Ir20  1  0.393467  0.393467  0.393467  1
  Ir  Ir21  1  0.393467  0.393467  0.819598  1
  Ir  Ir22  1  0.393467  0.819598  0.393467  1
  Ir  Ir23  1  0.819598  0.393467  0.393467  1
