# generated using pymatgen
data_Nd6Sc4Al12Ir7
_symmetry_space_group_name_H-M   'P 1'
_cell_length_a   9.20798668
_cell_length_b   9.20798789
_cell_length_c   9.20798800
_cell_angle_alpha   59.99999960
_cell_angle_beta   59.99999525
_cell_angle_gamma   60.00000534
_symmetry_Int_Tables_number   1
_chemical_formula_structural   Nd6Sc4Al12Ir7
_chemical_formula_sum   'Nd6 Sc4 Al12 Ir7'
_cell_volume   552.05095972
_cell_formula_units_Z   1
loop_
 _symmetry_equiv_pos_site_id
 _symmetry_equiv_pos_as_xyz
  1  'x, y, z'
loop_
 _atom_site_type_symbol
 _atom_site_label
 _atom_site_symmetry_multiplicity
 _atom_site_fract_x
 _atom_site_fract_y
 _atom_site_fract_z
 _atom_site_occupancy
  Nd  Nd0  1  0.704168  0.704168  0.295832  1
  Nd  Nd1  1  0.295832  0.704168  0.295832  1
  Nd  Nd2  1  0.704168  0.295832  0.295832  1
  Nd  Nd3  1  0.295832  0.295832  0.704168  1
  Nd  Nd4  1  0.704168  0.295832  0.704168  1
  Nd  Nd5  1  0.295832  0.704168  0.704168  1
  Sc  Sc6  1  0.881303  0.881303  0.356092  1
  Sc  Sc7  1  0.881303  0.356092  0.881303  1
  Sc  Sc8  1  0.356092  0.881303  0.881303  1
  Sc  Sc9  1  0.881303  0.881303  0.881303  1
  Al  Al10  1  0.119776  0.119776  0.640672  1
  Al  Al11  1  0.119776  0.640672  0.119776  1
  Al  Al12  1  0.640672  0.119776  0.119776  1
  Al  Al13  1  0.119776  0.119776  0.119776  1
  Al  Al14  1  0.670887  0.670887  0.987338  1
  Al  Al15  1  0.670887  0.987338  0.670887  1
  Al  Al16  1  0.987338  0.670887  0.670887  1
  Al  Al17  1  0.670887  0.670887  0.670887  1
  Al  Al18  1  0.327183  0.327183  0.018452  1
  Al  Al19  1  0.327183  0.018452  0.327183  1
  Al  Al20  1  0.018452  0.327183  0.327183  1
  Al  Al21  1  0.327183  0.327183  0.327183  1
  Ir  Ir22  1  0.000000  0.000000  0.000000  1
  Ir  Ir23  1  0.001924  0.001924  0.498076  1
  Ir  Ir24  1  0.498076  0.001924  0.498076  1
  Ir  Ir25  1  0.001924  0.498076  0.498076  1
  Ir  Ir26  1  0.498076  0.498076  0.001924  1
  Ir  Ir27  1  0.001924  0.498076  0.001924  1
  Ir  Ir28  1  0.498076  0.001924  0.001924  1
