# generated using pymatgen
data_Na2NiPtO4
_symmetry_space_group_name_H-M   'P 1'
_cell_length_a   3.13168900
_cell_length_b   5.57666894
_cell_length_c   10.46527082
_cell_angle_alpha   101.17764796
_cell_angle_beta   89.99549221
_cell_angle_gamma   90.00261222
_symmetry_Int_Tables_number   1
_chemical_formula_structural   Na2NiPtO4
_chemical_formula_sum   'Na4 Ni2 Pt2 O8'
_cell_volume   179.30261652
_cell_formula_units_Z   2
loop_
 _symmetry_equiv_pos_site_id
 _symmetry_equiv_pos_as_xyz
  1  'x, y, z'
loop_
 _atom_site_type_symbol
 _atom_site_label
 _atom_site_symmetry_multiplicity
 _atom_site_fract_x
 _atom_site_fract_y
 _atom_site_fract_z
 _atom_site_occupancy
  Na  Na0  1  0.999996  0.000003  0.999994  1
  Na  Na1  1  0.000005  0.499992  0.500000  1
  Na  Na2  1  0.499994  0.249995  0.249994  1
  Na  Na3  1  0.500013  0.749996  0.750004  1
  Ni  Ni4  1  0.999991  0.250019  0.749925  1
  Ni  Ni5  1  0.000007  0.749964  0.250076  1
  Pt  Pt6  1  0.499992  0.500010  0.999998  1
  Pt  Pt7  1  0.500006  0.000001  0.500003  1
  O  O8  1  0.499975  0.833133  0.129996  1
  O  O9  1  0.499972  0.333110  0.629983  1
  O  O10  1  0.500030  0.666885  0.370019  1
  O  O11  1  0.500025  0.166890  0.870014  1
  O  O12  1  0.999975  0.087617  0.388636  1
  O  O13  1  0.000055  0.587615  0.888632  1
  O  O14  1  0.999918  0.412393  0.111363  1
  O  O15  1  0.000044  0.912378  0.611362  1
