# generated using pymatgen
data_Pr2Dy4NiCl10
_symmetry_space_group_name_H-M   'P 1'
_cell_length_a   7.09562799
_cell_length_b   8.91784079
_cell_length_c   8.99390400
_cell_angle_alpha   107.61912648
_cell_angle_beta   95.64782343
_cell_angle_gamma   106.22082838
_symmetry_Int_Tables_number   1
_chemical_formula_structural   Pr2Dy4NiCl10
_chemical_formula_sum   'Pr2 Dy4 Ni1 Cl10'
_cell_volume   510.30828676
_cell_formula_units_Z   1
loop_
 _symmetry_equiv_pos_site_id
 _symmetry_equiv_pos_as_xyz
  1  'x, y, z'
loop_
 _atom_site_type_symbol
 _atom_site_label
 _atom_site_symmetry_multiplicity
 _atom_site_fract_x
 _atom_site_fract_y
 _atom_site_fract_z
 _atom_site_occupancy
  Pr  Pr0  1  0.140051  0.055953  0.747984  1
  Pr  Pr1  1  0.859949  0.944047  0.252016  1
  Dy  Dy2  1  0.971072  0.301479  0.096818  1
  Dy  Dy3  1  0.028928  0.698521  0.903182  1
  Dy  Dy4  1  0.637699  0.862205  0.822818  1
  Dy  Dy5  1  0.362301  0.137795  0.177182  1
  Ni  Ni6  1  0.000000  0.000000  0.000000  1
  Cl  Cl7  1  0.557992  0.174758  0.922887  1
  Cl  Cl8  1  0.442008  0.825242  0.077113  1
  Cl  Cl9  1  0.741368  0.917418  0.557648  1
  Cl  Cl10  1  0.258632  0.082582  0.442352  1
  Cl  Cl11  1  0.083485  0.378265  0.837286  1
  Cl  Cl12  1  0.916515  0.621735  0.162714  1
  Cl  Cl13  1  0.224011  0.742554  0.663091  1
  Cl  Cl14  1  0.775989  0.257446  0.336909  1
  Cl  Cl15  1  0.655323  0.554898  0.732892  1
  Cl  Cl16  1  0.344677  0.445102  0.267108  1
