# generated using pymatgen
data_Tb6PrNd(Si3Pd)4
_symmetry_space_group_name_H-M   'P 1'
_cell_length_a   8.20951500
_cell_length_b   8.20951428
_cell_length_c   8.28177500
_cell_angle_alpha   90.00000000
_cell_angle_beta   90.00000000
_cell_angle_gamma   119.99999887
_symmetry_Int_Tables_number   1
_chemical_formula_structural   Tb6PrNd(Si3Pd)4
_chemical_formula_sum   'Tb6 Pr1 Nd1 Si12 Pd4'
_cell_volume   483.38038954
_cell_formula_units_Z   1
loop_
 _symmetry_equiv_pos_site_id
 _symmetry_equiv_pos_as_xyz
  1  'x, y, z'
loop_
 _atom_site_type_symbol
 _atom_site_label
 _atom_site_symmetry_multiplicity
 _atom_site_fract_x
 _atom_site_fract_y
 _atom_site_fract_z
 _atom_site_occupancy
  Tb  Tb0  1  0.499608  0.500392  0.750000  1
  Tb  Tb1  1  0.500395  0.499605  0.250000  1
  Tb  Tb2  1  0.000784  0.500392  0.750000  1
  Tb  Tb3  1  0.999211  0.499605  0.250000  1
  Tb  Tb4  1  0.499608  0.999216  0.750000  1
  Tb  Tb5  1  0.500395  0.000789  0.250000  1
  Pr  Pr6  1  0.000000  0.000000  0.250000  1
  Nd  Nd7  1  0.000000  0.000000  0.750000  1
  Si  Si8  1  0.833394  0.166606  0.997944  1
  Si  Si9  1  0.166601  0.833399  0.998242  1
  Si  Si10  1  0.333212  0.166606  0.997944  1
  Si  Si11  1  0.166601  0.833399  0.501758  1
  Si  Si12  1  0.666798  0.833399  0.998242  1
  Si  Si13  1  0.833394  0.166606  0.502056  1
  Si  Si14  1  0.833394  0.666788  0.997944  1
  Si  Si15  1  0.666798  0.833399  0.501758  1
  Si  Si16  1  0.166601  0.333202  0.998242  1
  Si  Si17  1  0.333212  0.166606  0.502056  1
  Si  Si18  1  0.166601  0.333202  0.501758  1
  Si  Si19  1  0.833394  0.666788  0.502056  1
  Pd  Pd20  1  0.666667  0.333333  0.999766  1
  Pd  Pd21  1  0.333333  0.666667  0.001668  1
  Pd  Pd22  1  0.333333  0.666667  0.498332  1
  Pd  Pd23  1  0.666667  0.333333  0.500234  1
