# generated using pymatgen
data_Y2MgIr2
_symmetry_space_group_name_H-M   'P 1'
_cell_length_a   5.54909472
_cell_length_b   5.54909494
_cell_length_c   5.54909481
_cell_angle_alpha   134.53724504
_cell_angle_beta   115.31236528
_cell_angle_gamma   82.59247867
_symmetry_Int_Tables_number   1
_chemical_formula_structural   Y2MgIr2
_chemical_formula_sum   'Y2 Mg1 Ir2'
_cell_volume   106.15647581
_cell_formula_units_Z   1
loop_
 _symmetry_equiv_pos_site_id
 _symmetry_equiv_pos_as_xyz
  1  'x, y, z'
loop_
 _atom_site_type_symbol
 _atom_site_label
 _atom_site_symmetry_multiplicity
 _atom_site_fract_x
 _atom_site_fract_y
 _atom_site_fract_z
 _atom_site_occupancy
  Y  Y0  1  0.704386  0.204386  0.500000  1
  Y  Y1  1  0.295614  0.795613  0.499999  1
  Mg  Mg2  1  0.000000  0.000000  0.000000  1
  Ir  Ir3  1  0.723357  0.500000  0.223357  1
  Ir  Ir4  1  0.276643  0.499999  0.776642  1
