# generated using pymatgen
data_Sm6YCoBr12
_symmetry_space_group_name_H-M   'P 1'
_cell_length_a   9.40935748
_cell_length_b   9.40935772
_cell_length_c   9.40935789
_cell_angle_alpha   106.83606234
_cell_angle_beta   106.83605526
_cell_angle_gamma   106.83605361
_symmetry_Int_Tables_number   1
_chemical_formula_structural   Sm6YCoBr12
_chemical_formula_sum   'Sm6 Y1 Co1 Br12'
_cell_volume   696.86563231
_cell_formula_units_Z   1
loop_
 _symmetry_equiv_pos_site_id
 _symmetry_equiv_pos_as_xyz
  1  'x, y, z'
loop_
 _atom_site_type_symbol
 _atom_site_label
 _atom_site_symmetry_multiplicity
 _atom_site_fract_x
 _atom_site_fract_y
 _atom_site_fract_z
 _atom_site_occupancy
  Sm  Sm0  1  0.979334  0.901130  0.696585  1
  Sm  Sm1  1  0.020666  0.098870  0.303415  1
  Sm  Sm2  1  0.098870  0.303415  0.020666  1
  Sm  Sm3  1  0.303415  0.020666  0.098870  1
  Sm  Sm4  1  0.901130  0.696585  0.979334  1
  Sm  Sm5  1  0.696585  0.979334  0.901130  1
  Y  Y6  1  0.500000  0.500000  0.500000  1
  Co  Co7  1  0.000000  0.000000  0.000000  1
  Br  Br8  1  0.539575  0.615991  0.827207  1
  Br  Br9  1  0.460425  0.384009  0.172793  1
  Br  Br10  1  0.319715  0.929826  0.779388  1
  Br  Br11  1  0.384009  0.172793  0.460425  1
  Br  Br12  1  0.929826  0.779388  0.319715  1
  Br  Br13  1  0.680285  0.070174  0.220612  1
  Br  Br14  1  0.070174  0.220612  0.680285  1
  Br  Br15  1  0.779388  0.319715  0.929826  1
  Br  Br16  1  0.220612  0.680285  0.070174  1
  Br  Br17  1  0.827207  0.539575  0.615991  1
  Br  Br18  1  0.172793  0.460425  0.384009  1
  Br  Br19  1  0.615991  0.827207  0.539575  1
