# generated using pymatgen
data_Ti2NbTc4W
_symmetry_space_group_name_H-M   'P 1'
_cell_length_a   6.27556300
_cell_length_b   4.42948400
_cell_length_c   8.87712900
_cell_angle_alpha   90.00000000
_cell_angle_beta   90.00000000
_cell_angle_gamma   90.00000000
_symmetry_Int_Tables_number   1
_chemical_formula_structural   Ti2NbTc4W
_chemical_formula_sum   'Ti4 Nb2 Tc8 W2'
_cell_volume   246.76204575
_cell_formula_units_Z   2
loop_
 _symmetry_equiv_pos_site_id
 _symmetry_equiv_pos_as_xyz
  1  'x, y, z'
loop_
 _atom_site_type_symbol
 _atom_site_label
 _atom_site_symmetry_multiplicity
 _atom_site_fract_x
 _atom_site_fract_y
 _atom_site_fract_z
 _atom_site_occupancy
  Ti  Ti0  1  0.250117  0.250001  0.124002  1
  Ti  Ti1  1  0.750119  0.750000  0.375999  1
  Ti  Ti2  1  0.249878  0.250001  0.625906  1
  Ti  Ti3  1  0.749877  0.750000  0.874094  1
  Nb  Nb4  1  0.750104  0.250001  0.125127  1
  Nb  Nb5  1  0.250104  0.750000  0.374872  1
  Tc  Tc6  1  0.001627  0.750000  0.121781  1
  Tc  Tc7  1  0.498586  0.750000  0.121786  1
  Tc  Tc8  1  0.998586  0.250001  0.378213  1
  Tc  Tc9  1  0.501627  0.250001  0.378219  1
  Tc  Tc10  1  0.501922  0.750000  0.628114  1
  Tc  Tc11  1  0.997874  0.750000  0.628108  1
  Tc  Tc12  1  0.497875  0.250001  0.871892  1
  Tc  Tc13  1  0.001922  0.250001  0.871886  1
  W  W14  1  0.749892  0.250001  0.624871  1
  W  W15  1  0.249892  0.750000  0.875130  1
