# generated using pymatgen
data_Tb5Tm2Pa(ReB6)4
_symmetry_space_group_name_H-M   'P 1'
_cell_length_a   3.69451500
_cell_length_b   9.17635719
_cell_length_c   11.55085530
_cell_angle_alpha   90.21793937
_cell_angle_beta   90.00000000
_cell_angle_gamma   90.00000000
_symmetry_Int_Tables_number   1
_chemical_formula_structural   Tb5Tm2Pa(ReB6)4
_chemical_formula_sum   'Tb5 Tm2 Pa1 Re4 B24'
_cell_volume   391.59644963
_cell_formula_units_Z   1
loop_
 _symmetry_equiv_pos_site_id
 _symmetry_equiv_pos_as_xyz
  1  'x, y, z'
loop_
 _atom_site_type_symbol
 _atom_site_label
 _atom_site_symmetry_multiplicity
 _atom_site_fract_x
 _atom_site_fract_y
 _atom_site_fract_z
 _atom_site_occupancy
  Tb  Tb0  1  0.000000  0.678445  0.587009  1
  Tb  Tb1  1  0.000000  0.822857  0.085374  1
  Tb  Tb2  1  0.000000  0.176436  0.913730  1
  Tb  Tb3  1  0.000000  0.942471  0.371306  1
  Tb  Tb4  1  0.000000  0.055558  0.629471  1
  Tm  Tm5  1  0.000000  0.443370  0.127433  1
  Tm  Tm6  1  0.000000  0.557148  0.870421  1
  Pa  Pa7  1  0.000000  0.323903  0.413826  1
  Re  Re8  1  0.000000  0.634181  0.321091  1
  Re  Re9  1  0.000000  0.363186  0.676838  1
  Re  Re10  1  0.000000  0.142426  0.181477  1
  Re  Re11  1  0.000000  0.860540  0.821647  1
  B  B12  1  0.500000  0.551910  0.431441  1
  B  B13  1  0.500000  0.446019  0.567234  1
  B  B14  1  0.500000  0.054738  0.067749  1
  B  B15  1  0.500000  0.946326  0.933613  1
  B  B16  1  0.500000  0.747161  0.417973  1
  B  B17  1  0.500000  0.252342  0.581067  1
  B  B18  1  0.500000  0.250021  0.081137  1
  B  B19  1  0.500000  0.749830  0.918909  1
  B  B20  1  0.500000  0.789877  0.265588  1
  B  B21  1  0.500000  0.209581  0.734726  1
  B  B22  1  0.500000  0.292856  0.234165  1
  B  B23  1  0.500000  0.707363  0.766455  1
  B  B24  1  0.500000  0.629499  0.184468  1
  B  B25  1  0.500000  0.370849  0.814402  1
  B  B26  1  0.500000  0.133283  0.314374  1
  B  B27  1  0.500000  0.867822  0.686884  1
  B  B28  1  0.500000  0.983878  0.211961  1
  B  B29  1  0.500000  0.016569  0.788716  1
  B  B30  1  0.500000  0.482035  0.286747  1
  B  B31  1  0.500000  0.518002  0.713471  1
  B  B32  1  0.500000  0.599282  0.027355  1
  B  B33  1  0.500000  0.400656  0.971469  1
  B  B34  1  0.500000  0.107613  0.470405  1
  B  B35  1  0.500000  0.891967  0.530070  1
