# generated using pymatgen
data_TbNd16Dy3Sn16
_symmetry_space_group_name_H-M   'P 1'
_cell_length_a   8.24722801
_cell_length_b   8.40350906
_cell_length_c   15.96966600
_cell_angle_alpha   90.00000000
_cell_angle_beta   90.00000000
_cell_angle_gamma   89.99621623
_symmetry_Int_Tables_number   1
_chemical_formula_structural   TbNd16Dy3Sn16
_chemical_formula_sum   'Tb1 Nd16 Dy3 Sn16'
_cell_volume   1106.78816577
_cell_formula_units_Z   1
loop_
 _symmetry_equiv_pos_site_id
 _symmetry_equiv_pos_as_xyz
  1  'x, y, z'
loop_
 _atom_site_type_symbol
 _atom_site_label
 _atom_site_symmetry_multiplicity
 _atom_site_fract_x
 _atom_site_fract_y
 _atom_site_fract_z
 _atom_site_occupancy
  Tb  Tb0  1  0.301310  0.001620  0.250000  1
  Nd  Nd1  1  0.367756  0.836142  0.878720  1
  Nd  Nd2  1  0.867777  0.663842  0.621201  1
  Nd  Nd3  1  0.632326  0.163947  0.378797  1
  Nd  Nd4  1  0.132148  0.336185  0.121170  1
  Nd  Nd5  1  0.632326  0.163947  0.121203  1
  Nd  Nd6  1  0.132148  0.336185  0.378830  1
  Nd  Nd7  1  0.367756  0.836142  0.621280  1
  Nd  Nd8  1  0.867777  0.663842  0.878799  1
  Nd  Nd9  1  0.519821  0.319508  0.901714  1
  Nd  Nd10  1  0.019839  0.180480  0.598316  1
  Nd  Nd11  1  0.480215  0.680420  0.401724  1
  Nd  Nd12  1  0.980103  0.819458  0.098261  1
  Nd  Nd13  1  0.480215  0.680420  0.098276  1
  Nd  Nd14  1  0.980103  0.819458  0.401739  1
  Nd  Nd15  1  0.519821  0.319508  0.598286  1
  Nd  Nd16  1  0.019839  0.180480  0.901684  1
  Dy  Dy17  1  0.198867  0.501610  0.750000  1
  Dy  Dy18  1  0.698863  0.998372  0.750000  1
  Dy  Dy19  1  0.801112  0.498344  0.250000  1
  Sn  Sn20  1  0.292424  0.034304  0.042813  1
  Sn  Sn21  1  0.792417  0.465791  0.457006  1
  Sn  Sn22  1  0.707581  0.965830  0.543017  1
  Sn  Sn23  1  0.207609  0.534219  0.956979  1
  Sn  Sn24  1  0.707581  0.965830  0.956983  1
  Sn  Sn25  1  0.207609  0.534219  0.543021  1
  Sn  Sn26  1  0.292424  0.034304  0.457187  1
  Sn  Sn27  1  0.792417  0.465791  0.042994  1
  Sn  Sn28  1  0.565114  0.617383  0.750000  1
  Sn  Sn29  1  0.065034  0.882557  0.750000  1
  Sn  Sn30  1  0.434982  0.382752  0.250000  1
  Sn  Sn31  1  0.934542  0.117555  0.250000  1
  Sn  Sn32  1  0.326950  0.146278  0.750000  1
  Sn  Sn33  1  0.826892  0.353821  0.750000  1
  Sn  Sn34  1  0.673267  0.853648  0.250000  1
  Sn  Sn35  1  0.173037  0.645807  0.250000  1
