# generated using pymatgen
data_Er17Mg(ScIr6)2
_symmetry_space_group_name_H-M   'P 1'
_cell_length_a   10.71497000
_cell_length_b   10.71497000
_cell_length_c   6.25077300
_cell_angle_alpha   90.00000000
_cell_angle_beta   90.00000000
_cell_angle_gamma   90.00000000
_symmetry_Int_Tables_number   1
_chemical_formula_structural   Er17Mg(ScIr6)2
_chemical_formula_sum   'Er17 Mg1 Sc2 Ir12'
_cell_volume   717.65488671
_cell_formula_units_Z   1
loop_
 _symmetry_equiv_pos_site_id
 _symmetry_equiv_pos_as_xyz
  1  'x, y, z'
loop_
 _atom_site_type_symbol
 _atom_site_label
 _atom_site_symmetry_multiplicity
 _atom_site_fract_x
 _atom_site_fract_y
 _atom_site_fract_z
 _atom_site_occupancy
  Er  Er0  1  0.284901  0.084625  0.377832  1
  Er  Er1  1  0.291284  0.911970  0.878578  1
  Er  Er2  1  0.708716  0.088030  0.878578  1
  Er  Er3  1  0.715099  0.915375  0.377832  1
  Er  Er4  1  0.587455  0.788751  0.878596  1
  Er  Er5  1  0.586264  0.211148  0.377539  1
  Er  Er6  1  0.413736  0.788852  0.377539  1
  Er  Er7  1  0.412545  0.211249  0.878596  1
  Er  Er8  1  0.211148  0.413736  0.622461  1
  Er  Er9  1  0.211249  0.587455  0.121404  1
  Er  Er10  1  0.788751  0.412545  0.121404  1
  Er  Er11  1  0.788852  0.586264  0.622461  1
  Er  Er12  1  0.911970  0.708716  0.121422  1
  Er  Er13  1  0.915375  0.284901  0.622168  1
  Er  Er14  1  0.084625  0.715099  0.622168  1
  Er  Er15  1  0.088030  0.291284  0.121422  1
  Er  Er16  1  0.000000  0.000000  0.000000  1
  Mg  Mg17  1  0.000000  0.000000  0.500000  1
  Sc  Sc18  1  0.500000  0.500000  0.000000  1
  Sc  Sc19  1  0.500000  0.500000  0.500000  1
  Ir  Ir20  1  0.845653  0.154819  0.247941  1
  Ir  Ir21  1  0.845181  0.845653  0.752059  1
  Ir  Ir22  1  0.154819  0.154347  0.752059  1
  Ir  Ir23  1  0.154347  0.845181  0.247941  1
  Ir  Ir24  1  0.649089  0.351287  0.748750  1
  Ir  Ir25  1  0.648713  0.649089  0.251250  1
  Ir  Ir26  1  0.351287  0.350911  0.251250  1
  Ir  Ir27  1  0.350911  0.648713  0.748750  1
  Ir  Ir28  1  0.500000  0.000000  0.124493  1
  Ir  Ir29  1  0.500000  0.000000  0.621100  1
  Ir  Ir30  1  0.000000  0.500000  0.875507  1
  Ir  Ir31  1  0.000000  0.500000  0.378900  1
