# generated using pymatgen
data_ErTm9(GePb3)2
_symmetry_space_group_name_H-M   'P 1'
_cell_length_a   9.24610900
_cell_length_b   9.24610856
_cell_length_c   6.47497500
_cell_angle_alpha   90.00000000
_cell_angle_beta   90.00000000
_cell_angle_gamma   119.99944104
_symmetry_Int_Tables_number   1
_chemical_formula_structural   ErTm9(GePb3)2
_chemical_formula_sum   'Er1 Tm9 Ge2 Pb6'
_cell_volume   479.39022125
_cell_formula_units_Z   1
loop_
 _symmetry_equiv_pos_site_id
 _symmetry_equiv_pos_as_xyz
  1  'x, y, z'
loop_
 _atom_site_type_symbol
 _atom_site_label
 _atom_site_symmetry_multiplicity
 _atom_site_fract_x
 _atom_site_fract_y
 _atom_site_fract_z
 _atom_site_occupancy
  Er  Er0  1  0.251390  0.251390  0.750000  1
  Tm  Tm1  1  0.251282  0.999979  0.250000  1
  Tm  Tm2  1  0.748720  0.999999  0.750000  1
  Tm  Tm3  1  0.999979  0.251282  0.250000  1
  Tm  Tm4  1  0.999999  0.748720  0.750000  1
  Tm  Tm5  1  0.748746  0.748746  0.250000  1
  Tm  Tm6  1  0.333337  0.666685  0.000029  1
  Tm  Tm7  1  0.666685  0.333337  0.000029  1
  Tm  Tm8  1  0.666685  0.333337  0.499971  1
  Tm  Tm9  1  0.333337  0.666685  0.499971  1
  Ge  Ge10  1  0.999901  0.999901  0.000107  1
  Ge  Ge11  1  0.999901  0.999901  0.499893  1
  Pb  Pb12  1  0.606663  0.999986  0.250000  1
  Pb  Pb13  1  0.393384  0.999967  0.750000  1
  Pb  Pb14  1  0.999986  0.606663  0.250000  1
  Pb  Pb15  1  0.999967  0.393384  0.750000  1
  Pb  Pb16  1  0.393344  0.393344  0.250000  1
  Pb  Pb17  1  0.606693  0.606693  0.750000  1
