# generated using pymatgen
data_KCrCdF6
_symmetry_space_group_name_H-M   'P 1'
_cell_length_a   7.47526100
_cell_length_b   7.55601000
_cell_length_c   10.23993000
_cell_angle_alpha   90.00000000
_cell_angle_beta   90.00000000
_cell_angle_gamma   90.00000000
_symmetry_Int_Tables_number   1
_chemical_formula_structural   KCrCdF6
_chemical_formula_sum   'K4 Cr4 Cd4 F24'
_cell_volume   578.38347011
_cell_formula_units_Z   4
loop_
 _symmetry_equiv_pos_site_id
 _symmetry_equiv_pos_as_xyz
  1  'x, y, z'
loop_
 _atom_site_type_symbol
 _atom_site_label
 _atom_site_symmetry_multiplicity
 _atom_site_fract_x
 _atom_site_fract_y
 _atom_site_fract_z
 _atom_site_occupancy
  K  K0  1  0.996148  0.250000  0.384969  1
  K  K1  1  0.503852  0.750000  0.884969  1
  K  K2  1  0.496148  0.250000  0.115031  1
  K  K3  1  0.003852  0.750000  0.615031  1
  Cr  Cr4  1  0.500000  0.000000  0.500000  1
  Cr  Cr5  1  0.000000  0.500000  0.000000  1
  Cr  Cr6  1  0.500000  0.500000  0.500000  1
  Cr  Cr7  1  0.000000  0.000000  0.000000  1
  Cd  Cd8  1  0.304544  0.250000  0.763196  1
  Cd  Cd9  1  0.695456  0.750000  0.236804  1
  Cd  Cd10  1  0.195456  0.750000  0.263196  1
  Cd  Cd11  1  0.804544  0.250000  0.736804  1
  F  F12  1  0.599511  0.018932  0.325337  1
  F  F13  1  0.099511  0.481068  0.174663  1
  F  F14  1  0.400489  0.518932  0.674663  1
  F  F15  1  0.900489  0.981068  0.825337  1
  F  F16  1  0.400489  0.981068  0.674663  1
  F  F17  1  0.900489  0.518932  0.825337  1
  F  F18  1  0.599511  0.481068  0.325337  1
  F  F19  1  0.099511  0.018932  0.174663  1
  F  F20  1  0.733810  0.054530  0.571627  1
  F  F21  1  0.233810  0.445470  0.928373  1
  F  F22  1  0.266190  0.554530  0.428373  1
  F  F23  1  0.766190  0.945470  0.071627  1
  F  F24  1  0.068464  0.250000  0.639588  1
  F  F25  1  0.568464  0.250000  0.860412  1
  F  F26  1  0.931536  0.750000  0.360412  1
  F  F27  1  0.431536  0.750000  0.139588  1
  F  F28  1  0.427917  0.250000  0.499324  1
  F  F29  1  0.927917  0.250000  0.000676  1
  F  F30  1  0.572083  0.750000  0.500676  1
  F  F31  1  0.072083  0.750000  0.999324  1
  F  F32  1  0.233810  0.054530  0.928373  1
  F  F33  1  0.733810  0.445470  0.571627  1
  F  F34  1  0.766190  0.554530  0.071627  1
  F  F35  1  0.266190  0.945470  0.428373  1
