# generated using pymatgen
data_Sr5Ho(Sn4Sb)2
_symmetry_space_group_name_H-M   'P 1'
_cell_length_a   8.90265798
_cell_length_b   8.90240459
_cell_length_c   8.90265900
_cell_angle_alpha   119.90946967
_cell_angle_beta   119.91034319
_cell_angle_gamma   90.15693482
_symmetry_Int_Tables_number   1
_chemical_formula_structural   Sr5Ho(Sn4Sb)2
_chemical_formula_sum   'Sr5 Ho1 Sn8 Sb2'
_cell_volume   499.59480090
_cell_formula_units_Z   1
loop_
 _symmetry_equiv_pos_site_id
 _symmetry_equiv_pos_as_xyz
  1  'x, y, z'
loop_
 _atom_site_type_symbol
 _atom_site_label
 _atom_site_symmetry_multiplicity
 _atom_site_fract_x
 _atom_site_fract_y
 _atom_site_fract_z
 _atom_site_occupancy
  Sr  Sr0  1  0.750006  0.750000  0.000006  1
  Sr  Sr1  1  0.162746  0.662763  0.825499  1
  Sr  Sr2  1  0.837247  0.337245  0.174503  1
  Sr  Sr3  1  0.662736  0.837237  0.499983  1
  Sr  Sr4  1  0.337258  0.162755  0.500001  1
  Ho  Ho5  1  0.249986  0.250000  0.999986  1
  Sn  Sn6  1  0.834984  0.328320  0.788850  1
  Sn  Sn7  1  0.171689  0.665022  0.211151  1
  Sn  Sn8  1  0.539451  0.046113  0.211146  1
  Sn  Sn9  1  0.328314  0.539458  0.493337  1
  Sn  Sn10  1  0.960530  0.171680  0.506664  1
  Sn  Sn11  1  0.453879  0.960542  0.788857  1
  Sn  Sn12  1  0.665033  0.453887  0.493337  1
  Sn  Sn13  1  0.046129  0.834978  0.506667  1
  Sb  Sb14  1  0.010571  0.010575  0.000017  1
  Sb  Sb15  1  0.489442  0.489425  0.999997  1
