# generated using pymatgen
data_Dy3Ho5(TmRu2)2
_symmetry_space_group_name_H-M   'P 1'
_cell_length_a   6.29878865
_cell_length_b   7.25652422
_cell_length_c   8.44382240
_cell_angle_alpha   96.74987540
_cell_angle_beta   112.02097785
_cell_angle_gamma   89.96683099
_symmetry_Int_Tables_number   1
_chemical_formula_structural   Dy3Ho5(TmRu2)2
_chemical_formula_sum   'Dy3 Ho5 Tm2 Ru4'
_cell_volume   354.91186580
_cell_formula_units_Z   1
loop_
 _symmetry_equiv_pos_site_id
 _symmetry_equiv_pos_as_xyz
  1  'x, y, z'
loop_
 _atom_site_type_symbol
 _atom_site_label
 _atom_site_symmetry_multiplicity
 _atom_site_fract_x
 _atom_site_fract_y
 _atom_site_fract_z
 _atom_site_occupancy
  Dy  Dy0  1  0.790729  0.083896  0.812623  1
  Dy  Dy1  1  0.977014  0.416080  0.186281  1
  Dy  Dy2  1  0.209691  0.916067  0.187022  1
  Ho  Ho3  1  0.022305  0.584226  0.813806  1
  Ho  Ho4  1  0.205677  0.184591  0.566246  1
  Ho  Ho5  1  0.639978  0.315644  0.434393  1
  Ho  Ho6  1  0.794286  0.815081  0.433927  1
  Ho  Ho7  1  0.359960  0.684762  0.566049  1
  Tm  Tm8  1  0.420445  0.249706  0.999599  1
  Tm  Tm9  1  0.579266  0.750318  0.000048  1
  Ru  Ru10  1  0.602559  0.424790  0.779931  1
  Ru  Ru11  1  0.821440  0.076480  0.220183  1
  Ru  Ru12  1  0.398502  0.575263  0.219728  1
  Ru  Ru13  1  0.178148  0.923098  0.780165  1
