# generated using pymatgen
data_Rb2NaNbO4
_symmetry_space_group_name_H-M   'P 1'
_cell_length_a   6.32542700
_cell_length_b   6.27110318
_cell_length_c   8.21756762
_cell_angle_alpha   86.48583305
_cell_angle_beta   90.00000000
_cell_angle_gamma   90.00000000
_symmetry_Int_Tables_number   1
_chemical_formula_structural   Rb2NaNbO4
_chemical_formula_sum   'Rb4 Na2 Nb2 O8'
_cell_volume   325.35665661
_cell_formula_units_Z   2
loop_
 _symmetry_equiv_pos_site_id
 _symmetry_equiv_pos_as_xyz
  1  'x, y, z'
loop_
 _atom_site_type_symbol
 _atom_site_label
 _atom_site_symmetry_multiplicity
 _atom_site_fract_x
 _atom_site_fract_y
 _atom_site_fract_z
 _atom_site_occupancy
  Rb  Rb0  1  0.750000  0.125112  0.824262  1
  Rb  Rb1  1  0.250000  0.874888  0.175738  1
  Rb  Rb2  1  0.250000  0.312986  0.479534  1
  Rb  Rb3  1  0.750000  0.687014  0.520466  1
  Na  Na4  1  0.750000  0.619120  0.028954  1
  Na  Na5  1  0.250000  0.380880  0.971046  1
  Nb  Nb6  1  0.250000  0.808229  0.741523  1
  Nb  Nb7  1  0.750000  0.191771  0.258477  1
  O  O8  1  0.511968  0.335304  0.169374  1
  O  O9  1  0.011968  0.664696  0.830625  1
  O  O10  1  0.488032  0.664696  0.830625  1
  O  O11  1  0.988032  0.335304  0.169374  1
  O  O12  1  0.750000  0.203660  0.486920  1
  O  O13  1  0.750000  0.907735  0.194697  1
  O  O14  1  0.250000  0.796340  0.513080  1
  O  O15  1  0.250000  0.092265  0.805303  1
