# generated using pymatgen
data_DyHo3Al17GaIr6
_symmetry_space_group_name_H-M   'P 1'
_cell_length_a   7.53916000
_cell_length_b   7.53925323
_cell_length_c   9.48098300
_cell_angle_alpha   90.00000000
_cell_angle_beta   90.00000000
_cell_angle_gamma   119.40763447
_symmetry_Int_Tables_number   1
_chemical_formula_structural   DyHo3Al17GaIr6
_chemical_formula_sum   'Dy1 Ho3 Al17 Ga1 Ir6'
_cell_volume   469.45805814
_cell_formula_units_Z   1
loop_
 _symmetry_equiv_pos_site_id
 _symmetry_equiv_pos_as_xyz
  1  'x, y, z'
loop_
 _atom_site_type_symbol
 _atom_site_label
 _atom_site_symmetry_multiplicity
 _atom_site_fract_x
 _atom_site_fract_y
 _atom_site_fract_z
 _atom_site_occupancy
  Dy  Dy0  1  0.993759  0.674583  0.250000  1
  Ho  Ho1  1  0.004844  0.327632  0.750000  1
  Ho  Ho2  1  0.674609  0.993774  0.250000  1
  Ho  Ho3  1  0.327633  0.004848  0.750000  1
  Al  Al4  1  0.869723  0.869726  0.750000  1
  Al  Al5  1  0.001285  0.335793  0.073562  1
  Al  Al6  1  0.998776  0.664267  0.925681  1
  Al  Al7  1  0.998776  0.664267  0.574319  1
  Al  Al8  1  0.335905  0.001339  0.426436  1
  Al  Al9  1  0.001285  0.335793  0.426438  1
  Al  Al10  1  0.664267  0.998776  0.574273  1
  Al  Al11  1  0.664267  0.998776  0.925727  1
  Al  Al12  1  0.335905  0.001339  0.073564  1
  Al  Al13  1  0.333078  0.333081  0.553941  1
  Al  Al14  1  0.665835  0.665891  0.449250  1
  Al  Al15  1  0.665835  0.665891  0.050750  1
  Al  Al16  1  0.333078  0.333081  0.946059  1
  Al  Al17  1  0.338905  0.549806  0.250000  1
  Al  Al18  1  0.660667  0.450957  0.750000  1
  Al  Al19  1  0.549749  0.338809  0.250000  1
  Al  Al20  1  0.450960  0.660673  0.750000  1
  Ga  Ga21  1  0.134397  0.134430  0.250000  1
  Ir  Ir22  1  0.671343  0.327540  0.000151  1
  Ir  Ir23  1  0.327599  0.671370  0.000152  1
  Ir  Ir24  1  0.327599  0.671370  0.499848  1
  Ir  Ir25  1  0.671343  0.327540  0.499849  1
  Ir  Ir26  1  0.999288  0.999326  0.997603  1
  Ir  Ir27  1  0.999288  0.999326  0.502397  1
