# generated using pymatgen
data_V3Co4(SiMo)3
_symmetry_space_group_name_H-M   'P 1'
_cell_length_a   8.89224076
_cell_length_b   8.87256575
_cell_length_c   8.89867593
_cell_angle_alpha   30.81756564
_cell_angle_beta   30.39749148
_cell_angle_gamma   30.77614055
_symmetry_Int_Tables_number   1
_chemical_formula_structural   V3Co4(SiMo)3
_chemical_formula_sum   'V3 Co4 Si3 Mo3'
_cell_volume   161.89440220
_cell_formula_units_Z   1
loop_
 _symmetry_equiv_pos_site_id
 _symmetry_equiv_pos_as_xyz
  1  'x, y, z'
loop_
 _atom_site_type_symbol
 _atom_site_label
 _atom_site_symmetry_multiplicity
 _atom_site_fract_x
 _atom_site_fract_y
 _atom_site_fract_z
 _atom_site_occupancy
  V  V0  1  0.837778  0.834689  0.829286  1
  V  V1  1  0.635554  0.653885  0.657166  1
  V  V2  1  0.452904  0.452497  0.452412  1
  Co  Co3  1  0.593162  0.095710  0.081359  1
  Co  Co4  1  0.915145  0.905018  0.411719  1
  Co  Co5  1  0.914516  0.407044  0.908111  1
  Co  Co6  1  0.092397  0.595944  0.085072  1
  Si  Si7  1  0.095841  0.100002  0.574468  1
  Si  Si8  1  0.429058  0.897839  0.904720  1
  Si  Si9  1  0.973143  0.999696  0.028204  1
  Mo  Mo10  1  0.546208  0.546881  0.544766  1
  Mo  Mo11  1  0.169980  0.165931  0.160590  1
  Mo  Mo12  1  0.344316  0.344864  0.362125  1
