# generated using pymatgen
data_Re2Tc3MoPt2
_symmetry_space_group_name_H-M   'P 1'
_cell_length_a   5.61041429
_cell_length_b   5.59438052
_cell_length_c   4.42245000
_cell_angle_alpha   90.00000000
_cell_angle_beta   90.00000000
_cell_angle_gamma   120.05825227
_symmetry_Int_Tables_number   1
_chemical_formula_structural   Re2Tc3MoPt2
_chemical_formula_sum   'Re2 Tc3 Mo1 Pt2'
_cell_volume   120.13934856
_cell_formula_units_Z   1
loop_
 _symmetry_equiv_pos_site_id
 _symmetry_equiv_pos_as_xyz
  1  'x, y, z'
loop_
 _atom_site_type_symbol
 _atom_site_label
 _atom_site_symmetry_multiplicity
 _atom_site_fract_x
 _atom_site_fract_y
 _atom_site_fract_z
 _atom_site_occupancy
  Re  Re0  1  0.683961  0.841925  0.250000  1
  Re  Re1  1  0.842948  0.684197  0.750000  1
  Tc  Tc2  1  0.158409  0.843066  0.250000  1
  Tc  Tc3  1  0.314775  0.155182  0.750000  1
  Tc  Tc4  1  0.840955  0.156098  0.750000  1
  Mo  Mo5  1  0.160366  0.318628  0.250000  1
  Pt  Pt6  1  0.333224  0.668300  0.750000  1
  Pt  Pt7  1  0.665363  0.332603  0.250000  1
