# generated using pymatgen
data_Er16MgIn3Ni4
_symmetry_space_group_name_H-M   'P 1'
_cell_length_a   9.50666337
_cell_length_b   9.48542619
_cell_length_c   9.48542700
_cell_angle_alpha   60.00000067
_cell_angle_beta   60.07387084
_cell_angle_gamma   60.07386766
_symmetry_Int_Tables_number   1
_chemical_formula_structural   Er16MgIn3Ni4
_chemical_formula_sum   'Er16 Mg1 In3 Ni4'
_cell_volume   605.49541392
_cell_formula_units_Z   1
loop_
 _symmetry_equiv_pos_site_id
 _symmetry_equiv_pos_as_xyz
  1  'x, y, z'
loop_
 _atom_site_type_symbol
 _atom_site_label
 _atom_site_symmetry_multiplicity
 _atom_site_fract_x
 _atom_site_fract_y
 _atom_site_fract_z
 _atom_site_occupancy
  Er  Er0  1  0.185829  0.814506  0.814506  1
  Er  Er1  1  0.813269  0.186768  0.186768  1
  Er  Er2  1  0.813269  0.186768  0.813195  1
  Er  Er3  1  0.185829  0.814506  0.185160  1
  Er  Er4  1  0.813269  0.813195  0.186768  1
  Er  Er5  1  0.185829  0.185160  0.814506  1
  Er  Er6  1  0.597999  0.596146  0.596146  1
  Er  Er7  1  0.597999  0.596146  0.209708  1
  Er  Er8  1  0.597999  0.209708  0.596146  1
  Er  Er9  1  0.206557  0.597814  0.597814  1
  Er  Er10  1  0.060225  0.439152  0.439152  1
  Er  Er11  1  0.435027  0.063678  0.063678  1
  Er  Er12  1  0.435027  0.063678  0.437617  1
  Er  Er13  1  0.060225  0.439152  0.061471  1
  Er  Er14  1  0.435027  0.437617  0.063678  1
  Er  Er15  1  0.060225  0.061471  0.439152  1
  Mg  Mg16  1  0.517245  0.827585  0.827585  1
  In  In17  1  0.832010  0.833045  0.833045  1
  In  In18  1  0.832010  0.833045  0.501900  1
  In  In19  1  0.832010  0.501900  0.833045  1
  Ni  Ni20  1  0.392613  0.391724  0.391724  1
  Ni  Ni21  1  0.392613  0.391724  0.823938  1
  Ni  Ni22  1  0.392613  0.823938  0.391724  1
  Ni  Ni23  1  0.825281  0.391573  0.391573  1
