# generated using pymatgen
data_Tm7(PaRu2)3
_symmetry_space_group_name_H-M   'P 1'
_cell_length_a   6.30548800
_cell_length_b   7.93351639
_cell_length_c   8.07958767
_cell_angle_alpha   117.83375086
_cell_angle_beta   90.00000000
_cell_angle_gamma   90.00000000
_symmetry_Int_Tables_number   1
_chemical_formula_structural   Tm7(PaRu2)3
_chemical_formula_sum   'Tm7 Pa3 Ru6'
_cell_volume   357.41785203
_cell_formula_units_Z   1
loop_
 _symmetry_equiv_pos_site_id
 _symmetry_equiv_pos_as_xyz
  1  'x, y, z'
loop_
 _atom_site_type_symbol
 _atom_site_label
 _atom_site_symmetry_multiplicity
 _atom_site_fract_x
 _atom_site_fract_y
 _atom_site_fract_z
 _atom_site_occupancy
  Tm  Tm0  1  0.001322  0.666856  0.334490  1
  Tm  Tm1  1  0.001413  0.335613  0.671556  1
  Tm  Tm2  1  0.498587  0.335613  0.671556  1
  Tm  Tm3  1  0.498678  0.666856  0.334490  1
  Tm  Tm4  1  0.250000  0.995997  0.746655  1
  Tm  Tm5  1  0.750000  0.253136  0.999774  1
  Tm  Tm6  1  0.250000  0.749657  0.995961  1
  Pa  Pa7  1  0.750000  0.761760  0.754107  1
  Pa  Pa8  1  0.250000  0.246735  0.244840  1
  Pa  Pa9  1  0.750000  0.006860  0.249029  1
  Ru  Ru10  1  0.750000  0.361329  0.387284  1
  Ru  Ru11  1  0.250000  0.590084  0.592847  1
  Ru  Ru12  1  0.750000  0.975860  0.611372  1
  Ru  Ru13  1  0.250000  0.018520  0.380026  1
  Ru  Ru14  1  0.750000  0.649599  0.002740  1
  Ru  Ru15  1  0.250000  0.385524  0.023274  1
