# generated using pymatgen
data_Tb3In2
_symmetry_space_group_name_H-M   'P 1'
_cell_length_a   11.71471505
_cell_length_b   11.71471509
_cell_length_c   11.71471500
_cell_angle_alpha   116.91197450
_cell_angle_beta   116.91197462
_cell_angle_gamma   95.43738117
_symmetry_Int_Tables_number   1
_chemical_formula_structural   Tb3In2
_chemical_formula_sum   'Tb24 In16'
_cell_volume   1184.07890261
_cell_formula_units_Z   8
loop_
 _symmetry_equiv_pos_site_id
 _symmetry_equiv_pos_as_xyz
  1  'x, y, z'
loop_
 _atom_site_type_symbol
 _atom_site_label
 _atom_site_symmetry_multiplicity
 _atom_site_fract_x
 _atom_site_fract_y
 _atom_site_fract_z
 _atom_site_occupancy
  Tb  Tb0  1  0.148154  0.648154  0.500000  1
  Tb  Tb1  1  0.648154  0.148154  0.500000  1
  Tb  Tb2  1  0.851846  0.351846  0.500000  1
  Tb  Tb3  1  0.351846  0.851846  0.500000  1
  Tb  Tb4  1  0.668356  0.168356  0.836713  1
  Tb  Tb5  1  0.331644  0.831644  0.163287  1
  Tb  Tb6  1  0.168356  0.331644  0.500000  1
  Tb  Tb7  1  0.831644  0.668356  0.500000  1
  Tb  Tb8  1  0.067774  0.930867  0.269698  1
  Tb  Tb9  1  0.661169  0.798075  0.730302  1
  Tb  Tb10  1  0.567774  0.298075  0.136907  1
  Tb  Tb11  1  0.161169  0.430867  0.863093  1
  Tb  Tb12  1  0.798075  0.067774  0.136907  1
  Tb  Tb13  1  0.930867  0.661169  0.863093  1
  Tb  Tb14  1  0.430867  0.567774  0.269698  1
  Tb  Tb15  1  0.298075  0.161169  0.730302  1
  Tb  Tb16  1  0.932226  0.069133  0.730302  1
  Tb  Tb17  1  0.338831  0.201925  0.269698  1
  Tb  Tb18  1  0.432226  0.701925  0.863093  1
  Tb  Tb19  1  0.838831  0.569133  0.136907  1
  Tb  Tb20  1  0.201925  0.932226  0.863093  1
  Tb  Tb21  1  0.069133  0.338831  0.136907  1
  Tb  Tb22  1  0.569133  0.432226  0.730302  1
  Tb  Tb23  1  0.701925  0.838831  0.269698  1
  In  In24  1  0.750000  0.750000  0.000000  1
  In  In25  1  0.250000  0.250000  0.000000  1
  In  In26  1  0.000000  0.000000  0.000000  1
  In  In27  1  0.500000  0.500000  0.000000  1
  In  In28  1  0.117074  0.617074  0.734149  1
  In  In29  1  0.882926  0.382926  0.265851  1
  In  In30  1  0.617074  0.882926  0.500000  1
  In  In31  1  0.382926  0.117074  0.500000  1
  In  In32  1  0.875513  0.375513  0.850691  1
  In  In33  1  0.524822  0.024822  0.149309  1
  In  In34  1  0.375513  0.524822  0.500000  1
  In  In35  1  0.024822  0.875513  0.500000  1
  In  In36  1  0.124487  0.624487  0.149309  1
  In  In37  1  0.475178  0.975178  0.850691  1
  In  In38  1  0.624487  0.475178  0.500000  1
  In  In39  1  0.975178  0.124487  0.500000  1
