# generated using pymatgen
data_Dy4YSi9P3Ir19
_symmetry_space_group_name_H-M   'P 1'
_cell_length_a   12.82422700
_cell_length_b   12.82422730
_cell_length_c   3.94936700
_cell_angle_alpha   90.00000000
_cell_angle_beta   90.00000000
_cell_angle_gamma   119.99999665
_symmetry_Int_Tables_number   1
_chemical_formula_structural   Dy4YSi9P3Ir19
_chemical_formula_sum   'Dy4 Y1 Si9 P3 Ir19'
_cell_volume   562.49743071
_cell_formula_units_Z   1
loop_
 _symmetry_equiv_pos_site_id
 _symmetry_equiv_pos_as_xyz
  1  'x, y, z'
loop_
 _atom_site_type_symbol
 _atom_site_label
 _atom_site_symmetry_multiplicity
 _atom_site_fract_x
 _atom_site_fract_y
 _atom_site_fract_z
 _atom_site_occupancy
  Dy  Dy0  1  0.666667  0.333333  0.500000  1
  Dy  Dy1  1  0.999998  0.815276  0.000000  1
  Dy  Dy2  1  0.184724  0.184721  0.000000  1
  Dy  Dy3  1  0.815279  0.000002  0.000000  1
  Y  Y4  1  0.333333  0.666667  0.500000  1
  Si  Si5  1  0.000008  0.633731  0.500000  1
  Si  Si6  1  0.366269  0.366277  0.500000  1
  Si  Si7  1  0.633723  0.999992  0.500000  1
  Si  Si8  1  0.518548  0.685807  0.000000  1
  Si  Si9  1  0.314193  0.832741  0.000000  1
  Si  Si10  1  0.167259  0.481452  0.000000  1
  Si  Si11  1  0.481539  0.167345  0.000000  1
  Si  Si12  1  0.685807  0.518461  0.000000  1
  Si  Si13  1  0.832655  0.314193  0.000000  1
  P  P14  1  0.000014  0.178885  0.500000  1
  P  P15  1  0.821115  0.821129  0.500000  1
  P  P16  1  0.178871  0.999986  0.500000  1
  Ir  Ir17  1  0.513399  0.872622  0.000000  1
  Ir  Ir18  1  0.127378  0.640777  0.000000  1
  Ir  Ir19  1  0.359223  0.486601  0.000000  1
  Ir  Ir20  1  0.486739  0.359196  0.000000  1
  Ir  Ir21  1  0.872457  0.513261  0.000000  1
  Ir  Ir22  1  0.640804  0.127543  0.000000  1
  Ir  Ir23  1  0.999959  0.447699  0.500000  1
  Ir  Ir24  1  0.552301  0.552261  0.500000  1
  Ir  Ir25  1  0.447739  0.000041  0.500000  1
  Ir  Ir26  1  0.999984  0.278844  0.000000  1
  Ir  Ir27  1  0.721156  0.721141  0.000000  1
  Ir  Ir28  1  0.278859  0.000016  0.000000  1
  Ir  Ir29  1  0.627144  0.806517  0.500000  1
  Ir  Ir30  1  0.193483  0.820627  0.500000  1
  Ir  Ir31  1  0.179373  0.372856  0.500000  1
  Ir  Ir32  1  0.372924  0.179403  0.500000  1
  Ir  Ir33  1  0.806479  0.627076  0.500000  1
  Ir  Ir34  1  0.820597  0.193521  0.500000  1
  Ir  Ir35  1  0.000000  0.000000  0.500000  1
