# generated using pymatgen
data_Eu2Zn3Ag14
_symmetry_space_group_name_H-M   'P 1'
_cell_length_a   7.33357912
_cell_length_b   7.33357946
_cell_length_c   7.33357900
_cell_angle_alpha   82.70083810
_cell_angle_beta   82.70083777
_cell_angle_gamma   82.70083332
_symmetry_Int_Tables_number   1
_chemical_formula_structural   Eu2Zn3Ag14
_chemical_formula_sum   'Eu2 Zn3 Ag14'
_cell_volume   385.57013938
_cell_formula_units_Z   1
loop_
 _symmetry_equiv_pos_site_id
 _symmetry_equiv_pos_as_xyz
  1  'x, y, z'
loop_
 _atom_site_type_symbol
 _atom_site_label
 _atom_site_symmetry_multiplicity
 _atom_site_fract_x
 _atom_site_fract_y
 _atom_site_fract_z
 _atom_site_occupancy
  Eu  Eu0  1  0.654532  0.654532  0.654532  1
  Eu  Eu1  1  0.345468  0.345468  0.345468  1
  Zn  Zn2  1  0.000000  0.000000  0.500000  1
  Zn  Zn3  1  0.000000  0.500000  0.000000  1
  Zn  Zn4  1  0.500000  0.000000  0.000000  1
  Ag  Ag5  1  0.343865  0.343865  0.857206  1
  Ag  Ag6  1  0.857206  0.343865  0.343865  1
  Ag  Ag7  1  0.101429  0.101429  0.101429  1
  Ag  Ag8  1  0.898571  0.898571  0.898571  1
  Ag  Ag9  1  0.296673  0.703327  0.000000  1
  Ag  Ag10  1  0.703327  0.000000  0.296673  1
  Ag  Ag11  1  0.000000  0.296673  0.703327  1
  Ag  Ag12  1  0.703327  0.296673  0.000000  1
  Ag  Ag13  1  0.296673  0.000000  0.703327  1
  Ag  Ag14  1  0.000000  0.703327  0.296673  1
  Ag  Ag15  1  0.142794  0.656135  0.656135  1
  Ag  Ag16  1  0.656135  0.656135  0.142794  1
  Ag  Ag17  1  0.656135  0.142794  0.656135  1
  Ag  Ag18  1  0.343865  0.857206  0.343865  1
