# generated using pymatgen
data_CaEu4Sn3H
_symmetry_space_group_name_H-M   'P 1'
_cell_length_a   9.63578631
_cell_length_b   9.63578605
_cell_length_c   9.63578700
_cell_angle_alpha   128.15182530
_cell_angle_beta   128.15183166
_cell_angle_gamma   76.37920053
_symmetry_Int_Tables_number   1
_chemical_formula_structural   CaEu4Sn3H
_chemical_formula_sum   'Ca2 Eu8 Sn6 H2'
_cell_volume   537.58526440
_cell_formula_units_Z   2
loop_
 _symmetry_equiv_pos_site_id
 _symmetry_equiv_pos_as_xyz
  1  'x, y, z'
loop_
 _atom_site_type_symbol
 _atom_site_label
 _atom_site_symmetry_multiplicity
 _atom_site_fract_x
 _atom_site_fract_y
 _atom_site_fract_z
 _atom_site_occupancy
  Ca  Ca0  1  0.500000  0.500000  0.000000  1
  Ca  Ca1  1  0.000000  0.000000  0.000000  1
  Eu  Eu2  1  0.511837  0.011837  0.826735  1
  Eu  Eu3  1  0.185102  0.685102  0.173265  1
  Eu  Eu4  1  0.011837  0.185102  0.500000  1
  Eu  Eu5  1  0.685102  0.511837  0.500000  1
  Eu  Eu6  1  0.488163  0.988163  0.173265  1
  Eu  Eu7  1  0.814898  0.314898  0.826735  1
  Eu  Eu8  1  0.988163  0.814898  0.500000  1
  Eu  Eu9  1  0.314898  0.488163  0.500000  1
  Sn  Sn10  1  0.250000  0.250000  0.000000  1
  Sn  Sn11  1  0.750000  0.750000  0.000000  1
  Sn  Sn12  1  0.872960  0.372960  0.245923  1
  Sn  Sn13  1  0.127040  0.627040  0.754077  1
  Sn  Sn14  1  0.372960  0.127040  0.500000  1
  Sn  Sn15  1  0.627040  0.872960  0.500000  1
  H  H16  1  0.250000  0.750000  0.500000  1
  H  H17  1  0.750000  0.250000  0.500000  1
