# generated using pymatgen
data_Np3Pa(Al3Ir)6
_symmetry_space_group_name_H-M   'P 1'
_cell_length_a   7.60863128
_cell_length_b   7.59110350
_cell_length_c   9.42619400
_cell_angle_alpha   90.00000000
_cell_angle_beta   90.00000000
_cell_angle_gamma   119.49090809
_symmetry_Int_Tables_number   1
_chemical_formula_structural   Np3Pa(Al3Ir)6
_chemical_formula_sum   'Np3 Pa1 Al18 Ir6'
_cell_volume   473.89659026
_cell_formula_units_Z   1
loop_
 _symmetry_equiv_pos_site_id
 _symmetry_equiv_pos_as_xyz
  1  'x, y, z'
loop_
 _atom_site_type_symbol
 _atom_site_label
 _atom_site_symmetry_multiplicity
 _atom_site_fract_x
 _atom_site_fract_y
 _atom_site_fract_z
 _atom_site_occupancy
  Np  Np0  1  0.006070  0.327830  0.750000  1
  Np  Np1  1  0.674150  0.996266  0.250000  1
  Np  Np2  1  0.328846  0.003815  0.750000  1
  Pa  Pa3  1  0.996054  0.672403  0.250000  1
  Al  Al4  1  0.130905  0.130074  0.250000  1
  Al  Al5  1  0.870135  0.871961  0.750000  1
  Al  Al6  1  0.002306  0.334416  0.074776  1
  Al  Al7  1  0.998748  0.663277  0.921220  1
  Al  Al8  1  0.998748  0.663277  0.578780  1
  Al  Al9  1  0.337509  0.003265  0.425868  1
  Al  Al10  1  0.002306  0.334416  0.425224  1
  Al  Al11  1  0.662641  0.998671  0.575237  1
  Al  Al12  1  0.662641  0.998671  0.924763  1
  Al  Al13  1  0.337509  0.003265  0.074132  1
  Al  Al14  1  0.334264  0.333546  0.554954  1
  Al  Al15  1  0.663969  0.666536  0.447754  1
  Al  Al16  1  0.663969  0.666536  0.052246  1
  Al  Al17  1  0.334264  0.333546  0.945046  1
  Al  Al18  1  0.341509  0.548433  0.250000  1
  Al  Al19  1  0.658781  0.450513  0.750000  1
  Al  Al20  1  0.547408  0.341074  0.250000  1
  Al  Al21  1  0.449124  0.659442  0.750000  1
  Ir  Ir22  1  0.673828  0.330229  0.002499  1
  Ir  Ir23  1  0.325558  0.671559  0.002329  1
  Ir  Ir24  1  0.325558  0.671559  0.497671  1
  Ir  Ir25  1  0.673828  0.330229  0.497501  1
  Ir  Ir26  1  0.999688  0.997597  0.001527  1
  Ir  Ir27  1  0.999688  0.997597  0.498473  1
