# generated using pymatgen
data_Tb8Dy12Si15Os
_symmetry_space_group_name_H-M   'P 1'
_cell_length_a   7.37583074
_cell_length_b   7.76924104
_cell_length_c   14.62262500
_cell_angle_alpha   90.00000000
_cell_angle_beta   90.00000000
_cell_angle_gamma   90.07091763
_symmetry_Int_Tables_number   1
_chemical_formula_structural   Tb8Dy12Si15Os
_chemical_formula_sum   'Tb8 Dy12 Si15 Os1'
_cell_volume   837.94313516
_cell_formula_units_Z   1
loop_
 _symmetry_equiv_pos_site_id
 _symmetry_equiv_pos_as_xyz
  1  'x, y, z'
loop_
 _atom_site_type_symbol
 _atom_site_label
 _atom_site_symmetry_multiplicity
 _atom_site_fract_x
 _atom_site_fract_y
 _atom_site_fract_z
 _atom_site_occupancy
  Tb  Tb0  1  0.020945  0.184763  0.097139  1
  Tb  Tb1  1  0.983410  0.826774  0.904226  1
  Tb  Tb2  1  0.480803  0.681254  0.904422  1
  Tb  Tb3  1  0.983410  0.826774  0.595774  1
  Tb  Tb4  1  0.519845  0.318057  0.096292  1
  Tb  Tb5  1  0.020945  0.184763  0.402861  1
  Tb  Tb6  1  0.519845  0.318057  0.403708  1
  Tb  Tb7  1  0.480803  0.681254  0.595578  1
  Dy  Dy8  1  0.153103  0.514248  0.750000  1
  Dy  Dy9  1  0.842129  0.486461  0.250000  1
  Dy  Dy10  1  0.342770  0.015866  0.250000  1
  Dy  Dy11  1  0.665636  0.985836  0.750000  1
  Dy  Dy12  1  0.313524  0.175088  0.626862  1
  Dy  Dy13  1  0.677347  0.822216  0.376273  1
  Dy  Dy14  1  0.175733  0.681372  0.376371  1
  Dy  Dy15  1  0.677347  0.822216  0.123727  1
  Dy  Dy16  1  0.834204  0.313806  0.625790  1
  Dy  Dy17  1  0.313524  0.175088  0.873138  1
  Dy  Dy18  1  0.834204  0.313806  0.874210  1
  Dy  Dy19  1  0.175733  0.681372  0.123629  1
  Si  Si20  1  0.970029  0.896847  0.250000  1
  Si  Si21  1  0.471606  0.606089  0.250000  1
  Si  Si22  1  0.527898  0.398177  0.750000  1
  Si  Si23  1  0.275618  0.866372  0.750000  1
  Si  Si24  1  0.723779  0.129011  0.250000  1
  Si  Si25  1  0.225637  0.372890  0.250000  1
  Si  Si26  1  0.765906  0.622491  0.750000  1
  Si  Si27  1  0.155366  0.472686  0.537650  1
  Si  Si28  1  0.848900  0.530762  0.462090  1
  Si  Si29  1  0.347617  0.970552  0.461467  1
  Si  Si30  1  0.848900  0.530762  0.037910  1
  Si  Si31  1  0.647513  0.030003  0.538003  1
  Si  Si32  1  0.155366  0.472686  0.962350  1
  Si  Si33  1  0.647513  0.030003  0.961997  1
  Si  Si34  1  0.347617  0.970552  0.038533  1
  Os  Os35  1  0.025477  0.091043  0.750000  1
