# generated using pymatgen
data_K3NpO4
_symmetry_space_group_name_H-M   'P 1'
_cell_length_a   6.64373428
_cell_length_b   7.49679900
_cell_length_c   6.25675419
_cell_angle_alpha   90.00003975
_cell_angle_beta   109.60571638
_cell_angle_gamma   89.99980991
_symmetry_Int_Tables_number   1
_chemical_formula_structural   K3NpO4
_chemical_formula_sum   'K6 Np2 O8'
_cell_volume   293.56155071
_cell_formula_units_Z   2
loop_
 _symmetry_equiv_pos_site_id
 _symmetry_equiv_pos_as_xyz
  1  'x, y, z'
loop_
 _atom_site_type_symbol
 _atom_site_label
 _atom_site_symmetry_multiplicity
 _atom_site_fract_x
 _atom_site_fract_y
 _atom_site_fract_z
 _atom_site_occupancy
  K  K0  1  0.500009  0.384943  0.250002  1
  K  K1  1  0.999996  0.122226  0.249998  1
  K  K2  1  0.000011  0.632706  0.250018  1
  K  K3  1  0.499994  0.614931  0.750001  1
  K  K4  1  0.000012  0.366400  0.750014  1
  K  K5  1  0.999988  0.879049  0.750009  1
  Np  Np6  1  0.500000  0.885594  0.249994  1
  Np  Np7  1  0.499997  0.114608  0.749993  1
  O  O8  1  0.319566  0.086341  0.010369  1
  O  O9  1  0.294425  0.691425  0.065827  1
  O  O10  1  0.705575  0.691428  0.434175  1
  O  O11  1  0.680433  0.086342  0.489624  1
  O  O12  1  0.319235  0.912963  0.509502  1
  O  O13  1  0.293841  0.309040  0.565478  1
  O  O14  1  0.706151  0.309041  0.934506  1
  O  O15  1  0.680760  0.912964  0.990487  1
