# generated using pymatgen
data_Y2Tm5Th(CdNi)2
_symmetry_space_group_name_H-M   'P 1'
_cell_length_a   9.51226831
_cell_length_b   9.51166803
_cell_length_c   9.50667502
_cell_angle_alpha   60.02154305
_cell_angle_beta   60.01526876
_cell_angle_gamma   60.09673428
_symmetry_Int_Tables_number   1
_chemical_formula_structural   Y2Tm5Th(CdNi)2
_chemical_formula_sum   'Y4 Tm10 Th2 Cd4 Ni4'
_cell_volume   608.82413639
_cell_formula_units_Z   2
loop_
 _symmetry_equiv_pos_site_id
 _symmetry_equiv_pos_as_xyz
  1  'x, y, z'
loop_
 _atom_site_type_symbol
 _atom_site_label
 _atom_site_symmetry_multiplicity
 _atom_site_fract_x
 _atom_site_fract_y
 _atom_site_fract_z
 _atom_site_occupancy
  Y  Y0  1  0.814073  0.186123  0.815893  1
  Y  Y1  1  0.186123  0.814073  0.183911  1
  Y  Y2  1  0.814421  0.814421  0.185579  1
  Y  Y3  1  0.185931  0.185931  0.814069  1
  Tm  Tm4  1  0.599062  0.200044  0.599779  1
  Tm  Tm5  1  0.200044  0.599062  0.601114  1
  Tm  Tm6  1  0.063893  0.438387  0.436412  1
  Tm  Tm7  1  0.438387  0.063893  0.061308  1
  Tm  Tm8  1  0.438187  0.064123  0.436254  1
  Tm  Tm9  1  0.064123  0.438187  0.061437  1
  Tm  Tm10  1  0.436396  0.436396  0.063604  1
  Tm  Tm11  1  0.062533  0.062533  0.437467  1
  Tm  Tm12  1  0.187602  0.812548  0.814244  1
  Tm  Tm13  1  0.812548  0.187602  0.185606  1
  Th  Th14  1  0.593430  0.594747  0.601902  1
  Th  Th15  1  0.594747  0.593430  0.209921  1
  Cd  Cd16  1  0.834213  0.833317  0.828547  1
  Cd  Cd17  1  0.833317  0.834213  0.503921  1
  Cd  Cd18  1  0.834877  0.504360  0.830913  1
  Cd  Cd19  1  0.504360  0.834877  0.829850  1
  Ni  Ni20  1  0.393315  0.392461  0.392008  1
  Ni  Ni21  1  0.392461  0.393315  0.822217  1
  Ni  Ni22  1  0.395010  0.820946  0.392662  1
  Ni  Ni23  1  0.820946  0.395010  0.391384  1
