# generated using pymatgen
data_Nd2Ga9PtRh2
_symmetry_space_group_name_H-M   'P 1'
_cell_length_a   7.69371394
_cell_length_b   7.69371230
_cell_length_c   9.60087700
_cell_angle_alpha   90.00000000
_cell_angle_beta   90.00000000
_cell_angle_gamma   119.84779947
_symmetry_Int_Tables_number   1
_chemical_formula_structural   Nd2Ga9PtRh2
_chemical_formula_sum   'Nd4 Ga18 Pt2 Rh4'
_cell_volume   492.92124786
_cell_formula_units_Z   2
loop_
 _symmetry_equiv_pos_site_id
 _symmetry_equiv_pos_as_xyz
  1  'x, y, z'
loop_
 _atom_site_type_symbol
 _atom_site_label
 _atom_site_symmetry_multiplicity
 _atom_site_fract_x
 _atom_site_fract_y
 _atom_site_fract_z
 _atom_site_occupancy
  Nd  Nd0  1  0.996504  0.671190  0.250000  1
  Nd  Nd1  1  0.003496  0.328810  0.750000  1
  Nd  Nd2  1  0.671190  0.996504  0.250000  1
  Nd  Nd3  1  0.328810  0.003496  0.750000  1
  Ga  Ga4  1  0.135021  0.135021  0.250000  1
  Ga  Ga5  1  0.864979  0.864979  0.750000  1
  Ga  Ga6  1  0.999992  0.338614  0.079403  1
  Ga  Ga7  1  0.000008  0.661386  0.920597  1
  Ga  Ga8  1  0.000008  0.661386  0.579403  1
  Ga  Ga9  1  0.338614  0.999992  0.420597  1
  Ga  Ga10  1  0.999992  0.338614  0.420597  1
  Ga  Ga11  1  0.661386  0.000008  0.579403  1
  Ga  Ga12  1  0.661386  0.000008  0.920597  1
  Ga  Ga13  1  0.338614  0.999992  0.079403  1
  Ga  Ga14  1  0.338362  0.338362  0.565007  1
  Ga  Ga15  1  0.661638  0.661638  0.434993  1
  Ga  Ga16  1  0.661638  0.661638  0.065007  1
  Ga  Ga17  1  0.338362  0.338362  0.934993  1
  Ga  Ga18  1  0.336184  0.546726  0.250000  1
  Ga  Ga19  1  0.663816  0.453274  0.750000  1
  Ga  Ga20  1  0.546726  0.336184  0.250000  1
  Ga  Ga21  1  0.453274  0.663816  0.750000  1
  Pt  Pt22  1  0.000000  0.000000  0.000000  1
  Pt  Pt23  1  0.000000  0.000000  0.500000  1
  Rh  Rh24  1  0.670534  0.329466  0.000000  1
  Rh  Rh25  1  0.329466  0.670534  0.000000  1
  Rh  Rh26  1  0.329466  0.670534  0.500000  1
  Rh  Rh27  1  0.670534  0.329466  0.500000  1
