# generated using pymatgen
data_ThZrFe7
_symmetry_space_group_name_H-M   'P 1'
_cell_length_a   5.04301100
_cell_length_b   5.04301056
_cell_length_c   24.24585200
_cell_angle_alpha   90.00000000
_cell_angle_beta   90.00000000
_cell_angle_gamma   119.99998318
_symmetry_Int_Tables_number   1
_chemical_formula_structural   ThZrFe7
_chemical_formula_sum   'Th4 Zr4 Fe28'
_cell_volume   534.00822776
_cell_formula_units_Z   4
loop_
 _symmetry_equiv_pos_site_id
 _symmetry_equiv_pos_as_xyz
  1  'x, y, z'
loop_
 _atom_site_type_symbol
 _atom_site_label
 _atom_site_symmetry_multiplicity
 _atom_site_fract_x
 _atom_site_fract_y
 _atom_site_fract_z
 _atom_site_occupancy
  Th  Th0  1  0.333333  0.666667  0.168847  1
  Th  Th1  1  0.666667  0.333333  0.668847  1
  Th  Th2  1  0.666667  0.333333  0.831153  1
  Th  Th3  1  0.333333  0.666667  0.331153  1
  Zr  Zr4  1  0.333333  0.666667  0.023675  1
  Zr  Zr5  1  0.666667  0.333333  0.523675  1
  Zr  Zr6  1  0.666667  0.333333  0.976325  1
  Zr  Zr7  1  0.333333  0.666667  0.476325  1
  Fe  Fe8  1  0.000000  0.000000  0.000000  1
  Fe  Fe9  1  0.000000  0.000000  0.500000  1
  Fe  Fe10  1  0.000000  0.000000  0.165699  1
  Fe  Fe11  1  0.000000  0.000000  0.665699  1
  Fe  Fe12  1  0.000000  0.000000  0.834301  1
  Fe  Fe13  1  0.000000  0.000000  0.334301  1
  Fe  Fe14  1  0.333333  0.666667  0.834972  1
  Fe  Fe15  1  0.666667  0.333333  0.334972  1
  Fe  Fe16  1  0.666667  0.333333  0.165028  1
  Fe  Fe17  1  0.333333  0.666667  0.665028  1
  Fe  Fe18  1  0.833075  0.666149  0.250000  1
  Fe  Fe19  1  0.166925  0.833075  0.750000  1
  Fe  Fe20  1  0.666149  0.833075  0.750000  1
  Fe  Fe21  1  0.333851  0.166925  0.250000  1
  Fe  Fe22  1  0.833075  0.166925  0.250000  1
  Fe  Fe23  1  0.166925  0.333851  0.750000  1
  Fe  Fe24  1  0.832383  0.664765  0.080669  1
  Fe  Fe25  1  0.167617  0.832383  0.580669  1
  Fe  Fe26  1  0.664765  0.832383  0.580669  1
  Fe  Fe27  1  0.335235  0.167617  0.080669  1
  Fe  Fe28  1  0.832383  0.167617  0.080669  1
  Fe  Fe29  1  0.167617  0.335235  0.919331  1
  Fe  Fe30  1  0.167617  0.832383  0.919331  1
  Fe  Fe31  1  0.167617  0.335235  0.580669  1
  Fe  Fe32  1  0.664765  0.832383  0.919331  1
  Fe  Fe33  1  0.335235  0.167617  0.419331  1
  Fe  Fe34  1  0.832383  0.664765  0.419331  1
  Fe  Fe35  1  0.832383  0.167617  0.419331  1
