# generated using pymatgen
data_ErCoP3Rh4
_symmetry_space_group_name_H-M   'P 1'
_cell_length_a   3.84036800
_cell_length_b   10.72384200
_cell_length_c   12.38605600
_cell_angle_alpha   90.00000000
_cell_angle_beta   90.00000000
_cell_angle_gamma   90.00000000
_symmetry_Int_Tables_number   1
_chemical_formula_structural   ErCoP3Rh4
_chemical_formula_sum   'Er4 Co4 P12 Rh16'
_cell_volume   510.10113299
_cell_formula_units_Z   4
loop_
 _symmetry_equiv_pos_site_id
 _symmetry_equiv_pos_as_xyz
  1  'x, y, z'
loop_
 _atom_site_type_symbol
 _atom_site_label
 _atom_site_symmetry_multiplicity
 _atom_site_fract_x
 _atom_site_fract_y
 _atom_site_fract_z
 _atom_site_occupancy
  Er  Er0  1  0.250000  0.584917  0.708140  1
  Er  Er1  1  0.250000  0.915083  0.208140  1
  Er  Er2  1  0.750000  0.415083  0.291860  1
  Er  Er3  1  0.750000  0.084917  0.791860  1
  Co  Co4  1  0.250000  0.464101  0.933747  1
  Co  Co5  1  0.250000  0.035899  0.433747  1
  Co  Co6  1  0.750000  0.535899  0.066253  1
  Co  Co7  1  0.750000  0.964101  0.566253  1
  P  P8  1  0.250000  0.423635  0.106120  1
  P  P9  1  0.250000  0.076365  0.606120  1
  P  P10  1  0.750000  0.576365  0.893880  1
  P  P11  1  0.750000  0.923635  0.393880  1
  P  P12  1  0.250000  0.271340  0.872399  1
  P  P13  1  0.250000  0.228660  0.372399  1
  P  P14  1  0.750000  0.728660  0.127601  1
  P  P15  1  0.750000  0.771340  0.627601  1
  P  P16  1  0.250000  0.599018  0.387548  1
  P  P17  1  0.250000  0.900982  0.887548  1
  P  P18  1  0.750000  0.400982  0.612452  1
  P  P19  1  0.750000  0.099018  0.112452  1
  Rh  Rh20  1  0.250000  0.715690  0.986839  1
  Rh  Rh21  1  0.250000  0.784310  0.486839  1
  Rh  Rh22  1  0.750000  0.284310  0.013161  1
  Rh  Rh23  1  0.750000  0.215690  0.513161  1
  Rh  Rh24  1  0.250000  0.408200  0.479559  1
  Rh  Rh25  1  0.250000  0.091800  0.979559  1
  Rh  Rh26  1  0.750000  0.591800  0.520441  1
  Rh  Rh27  1  0.750000  0.908200  0.020441  1
  Rh  Rh28  1  0.250000  0.226659  0.178227  1
  Rh  Rh29  1  0.250000  0.273341  0.678227  1
  Rh  Rh30  1  0.750000  0.773341  0.821773  1
  Rh  Rh31  1  0.750000  0.726659  0.321773  1
  Rh  Rh32  1  0.250000  0.886276  0.698298  1
  Rh  Rh33  1  0.250000  0.613724  0.198298  1
  Rh  Rh34  1  0.750000  0.113724  0.301702  1
  Rh  Rh35  1  0.750000  0.386276  0.801702  1
