# generated using pymatgen
data_Ca3Tb17(Ga2Sn)4
_symmetry_space_group_name_H-M   'P 1'
_cell_length_a   7.97632800
_cell_length_b   7.97632800
_cell_length_c   13.96105200
_cell_angle_alpha   90.00000000
_cell_angle_beta   90.00000000
_cell_angle_gamma   90.00000000
_symmetry_Int_Tables_number   1
_chemical_formula_structural   Ca3Tb17(Ga2Sn)4
_chemical_formula_sum   'Ca3 Tb17 Ga8 Sn4'
_cell_volume   888.22737490
_cell_formula_units_Z   1
loop_
 _symmetry_equiv_pos_site_id
 _symmetry_equiv_pos_as_xyz
  1  'x, y, z'
loop_
 _atom_site_type_symbol
 _atom_site_label
 _atom_site_symmetry_multiplicity
 _atom_site_fract_x
 _atom_site_fract_y
 _atom_site_fract_z
 _atom_site_occupancy
  Ca  Ca0  1  0.000000  0.500000  0.747283  1
  Ca  Ca1  1  0.000000  0.500000  0.249141  1
  Ca  Ca2  1  0.500000  0.000000  0.250077  1
  Tb  Tb3  1  0.832700  0.835563  0.605962  1
  Tb  Tb4  1  0.164891  0.835482  0.105605  1
  Tb  Tb5  1  0.164162  0.834184  0.393962  1
  Tb  Tb6  1  0.835838  0.165816  0.393962  1
  Tb  Tb7  1  0.665816  0.664162  0.393962  1
  Tb  Tb8  1  0.664437  0.332700  0.605962  1
  Tb  Tb9  1  0.335563  0.667300  0.605962  1
  Tb  Tb10  1  0.664518  0.664891  0.105605  1
  Tb  Tb11  1  0.666431  0.337382  0.894166  1
  Tb  Tb12  1  0.837382  0.833569  0.894166  1
  Tb  Tb13  1  0.334184  0.335838  0.393962  1
  Tb  Tb14  1  0.167300  0.164437  0.605962  1
  Tb  Tb15  1  0.835109  0.164518  0.105605  1
  Tb  Tb16  1  0.333569  0.662618  0.894166  1
  Tb  Tb17  1  0.335482  0.335109  0.105605  1
  Tb  Tb18  1  0.162618  0.166431  0.894166  1
  Tb  Tb19  1  0.500000  0.000000  0.756057  1
  Ga  Ga20  1  0.623206  0.376827  0.250090  1
  Ga  Ga21  1  0.128733  0.878778  0.749596  1
  Ga  Ga22  1  0.378778  0.371267  0.749596  1
  Ga  Ga23  1  0.376794  0.623173  0.250090  1
  Ga  Ga24  1  0.876827  0.876794  0.250090  1
  Ga  Ga25  1  0.621222  0.628733  0.749596  1
  Ga  Ga26  1  0.871267  0.121222  0.749596  1
  Ga  Ga27  1  0.123173  0.123206  0.250090  1
  Sn  Sn28  1  0.000000  0.500000  0.499642  1
  Sn  Sn29  1  0.500000  0.000000  0.500598  1
  Sn  Sn30  1  0.500000  0.000000  0.999673  1
  Sn  Sn31  1  0.000000  0.500000  0.000014  1
