# generated using pymatgen
data_Rb2NaSbS4
_symmetry_space_group_name_H-M   'P 1'
_cell_length_a   11.37897400
_cell_length_b   8.38839902
_cell_length_c   13.52537044
_cell_angle_alpha   52.86870984
_cell_angle_beta   90.00000000
_cell_angle_gamma   90.00000000
_symmetry_Int_Tables_number   1
_chemical_formula_structural   Rb2NaSbS4
_chemical_formula_sum   'Rb8 Na4 Sb4 S16'
_cell_volume   1029.26753120
_cell_formula_units_Z   4
loop_
 _symmetry_equiv_pos_site_id
 _symmetry_equiv_pos_as_xyz
  1  'x, y, z'
loop_
 _atom_site_type_symbol
 _atom_site_label
 _atom_site_symmetry_multiplicity
 _atom_site_fract_x
 _atom_site_fract_y
 _atom_site_fract_z
 _atom_site_occupancy
  Rb  Rb0  1  0.997081  0.117383  0.264846  1
  Rb  Rb1  1  0.727717  0.634057  0.007063  1
  Rb  Rb2  1  0.772283  0.634057  0.507063  1
  Rb  Rb3  1  0.502919  0.117383  0.764846  1
  Rb  Rb4  1  0.227717  0.365943  0.492937  1
  Rb  Rb5  1  0.272283  0.365943  0.992937  1
  Rb  Rb6  1  0.002919  0.882617  0.735154  1
  Rb  Rb7  1  0.497081  0.882617  0.235154  1
  Na  Na8  1  0.018240  0.335047  0.787381  1
  Na  Na9  1  0.981760  0.664953  0.212619  1
  Na  Na10  1  0.481760  0.335047  0.287381  1
  Na  Na11  1  0.518240  0.664953  0.712619  1
  Sb  Sb12  1  0.733027  0.180278  0.467675  1
  Sb  Sb13  1  0.266973  0.819722  0.532325  1
  Sb  Sb14  1  0.766973  0.180278  0.967675  1
  Sb  Sb15  1  0.233027  0.819722  0.032325  1
  S  S16  1  0.729394  0.855319  0.657735  1
  S  S17  1  0.920311  0.320481  0.449704  1
  S  S18  1  0.579689  0.320481  0.949704  1
  S  S19  1  0.420208  0.621676  0.539259  1
  S  S20  1  0.270606  0.144681  0.342265  1
  S  S21  1  0.579792  0.378324  0.460741  1
  S  S22  1  0.702328  0.160251  0.301950  1
  S  S23  1  0.420311  0.679519  0.050296  1
  S  S24  1  0.079792  0.621676  0.039259  1
  S  S25  1  0.770606  0.855319  0.157735  1
  S  S26  1  0.229394  0.144681  0.842265  1
  S  S27  1  0.202328  0.839749  0.198050  1
  S  S28  1  0.079689  0.679519  0.550296  1
  S  S29  1  0.797672  0.160251  0.801950  1
  S  S30  1  0.297672  0.839749  0.698050  1
  S  S31  1  0.920208  0.378324  0.960741  1
