# generated using pymatgen
data_Rb6Na4ZrVP6
_symmetry_space_group_name_H-M   'P 1'
_cell_length_a   10.57324056
_cell_length_b   10.57324144
_cell_length_c   15.52514300
_cell_angle_alpha   90.00000000
_cell_angle_beta   90.00000000
_cell_angle_gamma   142.55907948
_symmetry_Int_Tables_number   1
_chemical_formula_structural   Rb6Na4ZrVP6
_chemical_formula_sum   'Rb12 Na8 Zr2 V2 P12'
_cell_volume   1055.15138282
_cell_formula_units_Z   2
loop_
 _symmetry_equiv_pos_site_id
 _symmetry_equiv_pos_as_xyz
  1  'x, y, z'
loop_
 _atom_site_type_symbol
 _atom_site_label
 _atom_site_symmetry_multiplicity
 _atom_site_fract_x
 _atom_site_fract_y
 _atom_site_fract_z
 _atom_site_occupancy
  Rb  Rb0  1  0.943018  0.606828  0.825139  1
  Rb  Rb1  1  0.556982  0.893172  0.325139  1
  Rb  Rb2  1  0.393172  0.056982  0.174861  1
  Rb  Rb3  1  0.053398  0.391129  0.177595  1
  Rb  Rb4  1  0.891129  0.553398  0.322405  1
  Rb  Rb5  1  0.446602  0.108871  0.677595  1
  Rb  Rb6  1  0.608871  0.946602  0.822405  1
  Rb  Rb7  1  0.279465  0.279833  0.314799  1
  Rb  Rb8  1  0.779833  0.779465  0.185201  1
  Rb  Rb9  1  0.220535  0.220167  0.814799  1
  Rb  Rb10  1  0.720167  0.720535  0.685201  1
  Rb  Rb11  1  0.106828  0.443018  0.674861  1
  Na  Na12  1  0.920288  0.079712  0.000000  1
  Na  Na13  1  0.579712  0.420288  0.500000  1
  Na  Na14  1  0.079441  0.920559  0.000000  1
  Na  Na15  1  0.420559  0.579441  0.500000  1
  Na  Na16  1  0.755496  0.244504  0.000000  1
  Na  Na17  1  0.744504  0.255496  0.500000  1
  Na  Na18  1  0.244914  0.755086  0.000000  1
  Na  Na19  1  0.255086  0.744914  0.500000  1
  Zr  Zr20  1  0.417074  0.582926  0.000000  1
  Zr  Zr21  1  0.082926  0.917074  0.500000  1
  V  V22  1  0.585166  0.414834  0.000000  1
  V  V23  1  0.914834  0.085166  0.500000  1
  P  P24  1  0.848069  0.547245  0.088599  1
  P  P25  1  0.452755  0.151931  0.911401  1
  P  P26  1  0.651931  0.952755  0.588599  1
  P  P27  1  0.940587  0.627309  0.597429  1
  P  P28  1  0.127309  0.440587  0.902571  1
  P  P29  1  0.559413  0.872691  0.097429  1
  P  P30  1  0.372691  0.059413  0.402571  1
  P  P31  1  0.187606  0.199148  0.584732  1
  P  P32  1  0.699148  0.687606  0.915268  1
  P  P33  1  0.312394  0.300852  0.084732  1
  P  P34  1  0.047245  0.348069  0.411401  1
  P  P35  1  0.800852  0.812394  0.415268  1
