# generated using pymatgen
data_Tb11Sm8ErSn16
_symmetry_space_group_name_H-M   'P 1'
_cell_length_a   8.10739810
_cell_length_b   8.26684611
_cell_length_c   15.61877500
_cell_angle_alpha   90.00000000
_cell_angle_beta   90.00000000
_cell_angle_gamma   90.01834253
_symmetry_Int_Tables_number   1
_chemical_formula_structural   Tb11Sm8ErSn16
_chemical_formula_sum   'Tb11 Sm8 Er1 Sn16'
_cell_volume   1046.81105003
_cell_formula_units_Z   1
loop_
 _symmetry_equiv_pos_site_id
 _symmetry_equiv_pos_as_xyz
  1  'x, y, z'
loop_
 _atom_site_type_symbol
 _atom_site_label
 _atom_site_symmetry_multiplicity
 _atom_site_fract_x
 _atom_site_fract_y
 _atom_site_fract_z
 _atom_site_occupancy
  Tb  Tb0  1  0.365655  0.835817  0.877903  1
  Tb  Tb1  1  0.865618  0.664163  0.622168  1
  Tb  Tb2  1  0.634114  0.164012  0.377834  1
  Tb  Tb3  1  0.134509  0.335683  0.122179  1
  Tb  Tb4  1  0.634114  0.164012  0.122166  1
  Tb  Tb5  1  0.134509  0.335683  0.377821  1
  Tb  Tb6  1  0.365655  0.835817  0.622097  1
  Tb  Tb7  1  0.865618  0.664163  0.877832  1
  Tb  Tb8  1  0.198013  0.502775  0.750000  1
  Tb  Tb9  1  0.697997  0.997249  0.750000  1
  Tb  Tb10  1  0.802091  0.497326  0.250000  1
  Sm  Sm11  1  0.518708  0.320893  0.902295  1
  Sm  Sm12  1  0.018639  0.179162  0.597689  1
  Sm  Sm13  1  0.481239  0.679263  0.402299  1
  Sm  Sm14  1  0.981490  0.820978  0.097733  1
  Sm  Sm15  1  0.481239  0.679263  0.097701  1
  Sm  Sm16  1  0.981490  0.820978  0.402267  1
  Sm  Sm17  1  0.518708  0.320893  0.597705  1
  Sm  Sm18  1  0.018639  0.179162  0.902311  1
  Er  Er19  1  0.301697  0.002805  0.250000  1
  Sn  Sn20  1  0.296639  0.037564  0.042108  1
  Sn  Sn21  1  0.796660  0.462387  0.458160  1
  Sn  Sn22  1  0.703336  0.962331  0.541800  1
  Sn  Sn23  1  0.203336  0.537621  0.958209  1
  Sn  Sn24  1  0.703336  0.962331  0.958200  1
  Sn  Sn25  1  0.203336  0.537621  0.541791  1
  Sn  Sn26  1  0.296639  0.037564  0.457892  1
  Sn  Sn27  1  0.796660  0.462387  0.041840  1
  Sn  Sn28  1  0.564518  0.621514  0.750000  1
  Sn  Sn29  1  0.064605  0.878514  0.750000  1
  Sn  Sn30  1  0.435333  0.378127  0.250000  1
  Sn  Sn31  1  0.936144  0.121256  0.250000  1
  Sn  Sn32  1  0.326929  0.144228  0.750000  1
  Sn  Sn33  1  0.827082  0.355662  0.750000  1
  Sn  Sn34  1  0.672733  0.855837  0.250000  1
  Sn  Sn35  1  0.172975  0.644960  0.250000  1
