# generated using pymatgen
data_Rb4As2O5
_symmetry_space_group_name_H-M   'P 1'
_cell_length_a   6.03537511
_cell_length_b   6.03537508
_cell_length_c   7.77252983
_cell_angle_alpha   97.89251498
_cell_angle_beta   97.89251376
_cell_angle_gamma   66.52478318
_symmetry_Int_Tables_number   1
_chemical_formula_structural   Rb4As2O5
_chemical_formula_sum   'Rb4 As2 O5'
_cell_volume   256.16151895
_cell_formula_units_Z   1
loop_
 _symmetry_equiv_pos_site_id
 _symmetry_equiv_pos_as_xyz
  1  'x, y, z'
loop_
 _atom_site_type_symbol
 _atom_site_label
 _atom_site_symmetry_multiplicity
 _atom_site_fract_x
 _atom_site_fract_y
 _atom_site_fract_z
 _atom_site_occupancy
  Rb  Rb0  1  0.998730  0.998730  0.003146  1
  Rb  Rb1  1  0.661248  0.661248  0.149100  1
  Rb  Rb2  1  0.993053  0.993053  0.498164  1
  Rb  Rb3  1  0.325360  0.325360  0.842832  1
  As  As4  1  0.365607  0.365607  0.333497  1
  As  As5  1  0.645317  0.645317  0.683911  1
  O  O6  1  0.588648  0.169906  0.197432  1
  O  O7  1  0.169906  0.588648  0.197432  1
  O  O8  1  0.547446  0.547446  0.456700  1
  O  O9  1  0.791346  0.370255  0.783251  1
  O  O10  1  0.370255  0.791346  0.783251  1
