# generated using pymatgen
data_Nb4VFe5Si2
_symmetry_space_group_name_H-M   'P 1'
_cell_length_a   4.84174453
_cell_length_b   4.86459905
_cell_length_c   7.94805500
_cell_angle_alpha   90.00000000
_cell_angle_beta   90.00000000
_cell_angle_gamma   120.15628552
_symmetry_Int_Tables_number   1
_chemical_formula_structural   Nb4VFe5Si2
_chemical_formula_sum   'Nb4 V1 Fe5 Si2'
_cell_volume   161.86550895
_cell_formula_units_Z   1
loop_
 _symmetry_equiv_pos_site_id
 _symmetry_equiv_pos_as_xyz
  1  'x, y, z'
loop_
 _atom_site_type_symbol
 _atom_site_label
 _atom_site_symmetry_multiplicity
 _atom_site_fract_x
 _atom_site_fract_y
 _atom_site_fract_z
 _atom_site_occupancy
  Nb  Nb0  1  0.329920  0.664960  0.937867  1
  Nb  Nb1  1  0.660245  0.330122  0.067590  1
  Nb  Nb2  1  0.660245  0.330122  0.432410  1
  Nb  Nb3  1  0.329920  0.664960  0.562133  1
  V  V4  1  0.360843  0.180422  0.750000  1
  Fe  Fe5  1  0.170659  0.828365  0.250000  1
  Fe  Fe6  1  0.170659  0.342294  0.250000  1
  Fe  Fe7  1  0.658293  0.829146  0.250000  1
  Fe  Fe8  1  0.838937  0.172254  0.750000  1
  Fe  Fe9  1  0.838937  0.666685  0.750000  1
  Si  Si10  1  0.990669  0.995334  0.496587  1
  Si  Si11  1  0.990669  0.995334  0.003413  1
