# generated using pymatgen
data_Ca2Zn12Cu5
_symmetry_space_group_name_H-M   'P 1'
_cell_length_a   6.71693005
_cell_length_b   6.70325226
_cell_length_c   6.71692910
_cell_angle_alpha   83.25459601
_cell_angle_beta   82.72131852
_cell_angle_gamma   83.25459082
_symmetry_Int_Tables_number   1
_chemical_formula_structural   Ca2Zn12Cu5
_chemical_formula_sum   'Ca2 Zn12 Cu5'
_cell_volume   296.29830323
_cell_formula_units_Z   1
loop_
 _symmetry_equiv_pos_site_id
 _symmetry_equiv_pos_as_xyz
  1  'x, y, z'
loop_
 _atom_site_type_symbol
 _atom_site_label
 _atom_site_symmetry_multiplicity
 _atom_site_fract_x
 _atom_site_fract_y
 _atom_site_fract_z
 _atom_site_occupancy
  Ca  Ca0  1  0.655515  0.652727  0.655515  1
  Ca  Ca1  1  0.340928  0.341051  0.340928  1
  Zn  Zn2  1  0.101205  0.107704  0.101205  1
  Zn  Zn3  1  0.896190  0.895780  0.896190  1
  Zn  Zn4  1  0.301935  0.695528  0.998724  1
  Zn  Zn5  1  0.705282  0.005397  0.297723  1
  Zn  Zn6  1  0.001119  0.301220  0.698016  1
  Zn  Zn7  1  0.698016  0.301220  0.001119  1
  Zn  Zn8  1  0.297723  0.005397  0.705282  1
  Zn  Zn9  1  0.998724  0.695528  0.301935  1
  Zn  Zn10  1  0.157214  0.650040  0.655776  1
  Zn  Zn11  1  0.655776  0.650040  0.157214  1
  Zn  Zn12  1  0.651324  0.162635  0.651324  1
  Zn  Zn13  1  0.346494  0.849196  0.346494  1
  Cu  Cu14  1  0.345102  0.344307  0.846411  1
  Cu  Cu15  1  0.846411  0.344307  0.345102  1
  Cu  Cu16  1  0.999325  0.000083  0.500997  1
  Cu  Cu17  1  0.000722  0.497757  0.000722  1
  Cu  Cu18  1  0.500997  0.000083  0.999325  1
