# generated using pymatgen
data_Sr4Yb4PdPt3
_symmetry_space_group_name_H-M   'P 1'
_cell_length_a   4.53862500
_cell_length_b   8.03649058
_cell_length_c   9.43799100
_cell_angle_alpha   90.35536985
_cell_angle_beta   90.00000000
_cell_angle_gamma   90.00000000
_symmetry_Int_Tables_number   1
_chemical_formula_structural   Sr4Yb4PdPt3
_chemical_formula_sum   'Sr4 Yb4 Pd1 Pt3'
_cell_volume   344.24048602
_cell_formula_units_Z   1
loop_
 _symmetry_equiv_pos_site_id
 _symmetry_equiv_pos_as_xyz
  1  'x, y, z'
loop_
 _atom_site_type_symbol
 _atom_site_label
 _atom_site_symmetry_multiplicity
 _atom_site_fract_x
 _atom_site_fract_y
 _atom_site_fract_z
 _atom_site_occupancy
  Sr  Sr0  1  0.250000  0.524252  0.173558  1
  Sr  Sr1  1  0.750000  0.469431  0.827500  1
  Sr  Sr2  1  0.250000  0.025603  0.328102  1
  Sr  Sr3  1  0.750000  0.978187  0.667679  1
  Yb  Yb4  1  0.250000  0.143981  0.936512  1
  Yb  Yb5  1  0.750000  0.358165  0.435355  1
  Yb  Yb6  1  0.250000  0.642196  0.562650  1
  Yb  Yb7  1  0.750000  0.858590  0.066927  1
  Pd  Pd8  1  0.250000  0.771808  0.880108  1
  Pt  Pt9  1  0.750000  0.226996  0.121104  1
  Pt  Pt10  1  0.250000  0.273130  0.621576  1
  Pt  Pt11  1  0.750000  0.727663  0.378929  1
