# generated using pymatgen
data_YRe2NiC
_symmetry_space_group_name_H-M   'P 1'
_cell_length_a   5.64017775
_cell_length_b   5.64017698
_cell_length_c   7.59367700
_cell_angle_alpha   90.00000000
_cell_angle_beta   90.00000000
_cell_angle_gamma   140.45671699
_symmetry_Int_Tables_number   1
_chemical_formula_structural   YRe2NiC
_chemical_formula_sum   'Y2 Re4 Ni2 C2'
_cell_volume   153.79628827
_cell_formula_units_Z   2
loop_
 _symmetry_equiv_pos_site_id
 _symmetry_equiv_pos_as_xyz
  1  'x, y, z'
loop_
 _atom_site_type_symbol
 _atom_site_label
 _atom_site_symmetry_multiplicity
 _atom_site_fract_x
 _atom_site_fract_y
 _atom_site_fract_z
 _atom_site_occupancy
  Y  Y0  1  0.532163  0.467837  0.250000  1
  Y  Y1  1  0.467837  0.532163  0.750000  1
  Re  Re2  1  0.821987  0.178013  0.065770  1
  Re  Re3  1  0.178013  0.821987  0.934230  1
  Re  Re4  1  0.178013  0.821987  0.565770  1
  Re  Re5  1  0.821987  0.178013  0.434230  1
  Ni  Ni6  1  0.252576  0.747424  0.250000  1
  Ni  Ni7  1  0.747424  0.252576  0.750000  1
  C  C8  1  0.000000  0.000000  0.000000  1
  C  C9  1  0.000000  0.000000  0.500000  1
