# generated using pymatgen
data_Tm20Ir3OsPt8
_symmetry_space_group_name_H-M   'P 1'
_cell_length_a   10.89836600
_cell_length_b   10.89836600
_cell_length_c   6.30735000
_cell_angle_alpha   90.00000000
_cell_angle_beta   90.00000000
_cell_angle_gamma   90.00000000
_symmetry_Int_Tables_number   1
_chemical_formula_structural   Tm20Ir3OsPt8
_chemical_formula_sum   'Tm20 Ir3 Os1 Pt8'
_cell_volume   749.15159496
_cell_formula_units_Z   1
loop_
 _symmetry_equiv_pos_site_id
 _symmetry_equiv_pos_as_xyz
  1  'x, y, z'
loop_
 _atom_site_type_symbol
 _atom_site_label
 _atom_site_symmetry_multiplicity
 _atom_site_fract_x
 _atom_site_fract_y
 _atom_site_fract_z
 _atom_site_occupancy
  Tm  Tm0  1  0.296688  0.086255  0.372399  1
  Tm  Tm1  1  0.296945  0.913792  0.876070  1
  Tm  Tm2  1  0.703055  0.086208  0.876070  1
  Tm  Tm3  1  0.703312  0.913745  0.372399  1
  Tm  Tm4  1  0.586208  0.796945  0.876070  1
  Tm  Tm5  1  0.586255  0.203312  0.372399  1
  Tm  Tm6  1  0.413745  0.796688  0.372399  1
  Tm  Tm7  1  0.413792  0.203055  0.876070  1
  Tm  Tm8  1  0.204771  0.412992  0.625261  1
  Tm  Tm9  1  0.204722  0.586869  0.125161  1
  Tm  Tm10  1  0.795278  0.413131  0.125161  1
  Tm  Tm11  1  0.795229  0.587008  0.625261  1
  Tm  Tm12  1  0.913131  0.704722  0.125161  1
  Tm  Tm13  1  0.912992  0.295229  0.625261  1
  Tm  Tm14  1  0.087008  0.704771  0.625261  1
  Tm  Tm15  1  0.086869  0.295278  0.125161  1
  Tm  Tm16  1  0.000000  0.000000  0.499785  1
  Tm  Tm17  1  0.000000  0.000000  0.999706  1
  Tm  Tm18  1  0.500000  0.500000  0.999706  1
  Tm  Tm19  1  0.500000  0.500000  0.499785  1
  Ir  Ir20  1  0.500000  0.000000  0.621703  1
  Ir  Ir21  1  0.000000  0.500000  0.879412  1
  Ir  Ir22  1  0.000000  0.500000  0.379522  1
  Os  Os23  1  0.500000  0.000000  0.123512  1
  Pt  Pt24  1  0.846956  0.154150  0.250274  1
  Pt  Pt25  1  0.846926  0.846041  0.750052  1
  Pt  Pt26  1  0.153074  0.153959  0.750052  1
  Pt  Pt27  1  0.153044  0.845850  0.250274  1
  Pt  Pt28  1  0.653959  0.346926  0.750052  1
  Pt  Pt29  1  0.654150  0.653044  0.250274  1
  Pt  Pt30  1  0.345850  0.346956  0.250274  1
  Pt  Pt31  1  0.346041  0.653074  0.750052  1
