# generated using pymatgen
data_Tm3In3Co2Sn
_symmetry_space_group_name_H-M   'P 1'
_cell_length_a   7.81524387
_cell_length_b   7.80061589
_cell_length_c   3.61034700
_cell_angle_alpha   90.00000000
_cell_angle_beta   90.00000000
_cell_angle_gamma   119.96376137
_symmetry_Int_Tables_number   1
_chemical_formula_structural   Tm3In3Co2Sn
_chemical_formula_sum   'Tm3 In3 Co2 Sn1'
_cell_volume   190.68190299
_cell_formula_units_Z   1
loop_
 _symmetry_equiv_pos_site_id
 _symmetry_equiv_pos_as_xyz
  1  'x, y, z'
loop_
 _atom_site_type_symbol
 _atom_site_label
 _atom_site_symmetry_multiplicity
 _atom_site_fract_x
 _atom_site_fract_y
 _atom_site_fract_z
 _atom_site_occupancy
  Tm  Tm0  1  0.292868  0.246954  0.500000  1
  Tm  Tm1  1  0.753171  0.043098  0.500000  1
  Tm  Tm2  1  0.957058  0.711790  0.500000  1
  In  In3  1  0.586473  0.665754  0.000000  1
  In  In4  1  0.337265  0.921561  0.000000  1
  In  In5  1  0.666474  0.333349  0.000000  1
  Co  Co6  1  0.323454  0.656810  0.500000  1
  Co  Co7  1  0.000527  0.004060  0.000000  1
  Sn  Sn8  1  0.082710  0.416622  0.000000  1
