# generated using pymatgen
data_ErTm11Co4CuSn
_symmetry_space_group_name_H-M   'P 1'
_cell_length_a   8.17403733
_cell_length_b   8.17391517
_cell_length_c   8.17584206
_cell_angle_alpha   111.17009273
_cell_angle_beta   110.53463293
_cell_angle_gamma   106.73485123
_symmetry_Int_Tables_number   1
_chemical_formula_structural   ErTm11Co4CuSn
_chemical_formula_sum   'Er1 Tm11 Co4 Cu1 Sn1'
_cell_volume   419.82981374
_cell_formula_units_Z   1
loop_
 _symmetry_equiv_pos_site_id
 _symmetry_equiv_pos_as_xyz
  1  'x, y, z'
loop_
 _atom_site_type_symbol
 _atom_site_label
 _atom_site_symmetry_multiplicity
 _atom_site_fract_x
 _atom_site_fract_y
 _atom_site_fract_z
 _atom_site_occupancy
  Er  Er0  1  0.814376  0.288920  0.103141  1
  Tm  Tm1  1  0.314492  0.618480  0.304170  1
  Tm  Tm2  1  0.685651  0.381732  0.695715  1
  Tm  Tm3  1  0.313942  0.009940  0.695658  1
  Tm  Tm4  1  0.685643  0.989587  0.304088  1
  Tm  Tm5  1  0.418426  0.217544  0.201188  1
  Tm  Tm6  1  0.580991  0.782059  0.798545  1
  Tm  Tm7  1  0.016486  0.217510  0.798525  1
  Tm  Tm8  1  0.983686  0.782794  0.201229  1
  Tm  Tm9  1  0.185895  0.288854  0.474727  1
  Tm  Tm10  1  0.814443  0.711388  0.525810  1
  Tm  Tm11  1  0.185586  0.711189  0.896763  1
  Co  Co12  1  0.114080  0.614023  0.500541  1
  Co  Co13  1  0.886572  0.386531  0.500571  1
  Co  Co14  1  0.376129  0.999975  0.376113  1
  Co  Co15  1  0.623811  0.999736  0.623573  1
  Cu  Cu16  1  0.000088  0.999596  0.999747  1
  Sn  Sn17  1  0.499706  0.500143  0.999895  1
