# generated using pymatgen
data_Ta4Si4OsRu2Rh
_symmetry_space_group_name_H-M   'P 1'
_cell_length_a   3.85534300
_cell_length_b   6.35850764
_cell_length_c   7.30290083
_cell_angle_alpha   90.35915514
_cell_angle_beta   90.00000000
_cell_angle_gamma   90.00000000
_symmetry_Int_Tables_number   1
_chemical_formula_structural   Ta4Si4OsRu2Rh
_chemical_formula_sum   'Ta4 Si4 Os1 Ru2 Rh1'
_cell_volume   179.02145825
_cell_formula_units_Z   1
loop_
 _symmetry_equiv_pos_site_id
 _symmetry_equiv_pos_as_xyz
  1  'x, y, z'
loop_
 _atom_site_type_symbol
 _atom_site_label
 _atom_site_symmetry_multiplicity
 _atom_site_fract_x
 _atom_site_fract_y
 _atom_site_fract_z
 _atom_site_occupancy
  Ta  Ta0  1  0.250000  0.528795  0.676691  1
  Ta  Ta1  1  0.750000  0.479111  0.321890  1
  Ta  Ta2  1  0.250000  0.017864  0.820136  1
  Ta  Ta3  1  0.750000  0.978106  0.180241  1
  Si  Si4  1  0.250000  0.271056  0.124363  1
  Si  Si5  1  0.750000  0.727223  0.880542  1
  Si  Si6  1  0.250000  0.774929  0.372824  1
  Si  Si7  1  0.750000  0.228917  0.623123  1
  Os  Os8  1  0.750000  0.846006  0.562620  1
  Ru  Ru9  1  0.250000  0.152425  0.439836  1
  Ru  Ru10  1  0.250000  0.647869  0.061808  1
  Rh  Rh11  1  0.750000  0.347698  0.935925  1
