# generated using pymatgen
data_TbPu2Zr3F22
_symmetry_space_group_name_H-M   'P 1'
_cell_length_a   8.51059348
_cell_length_b   8.51059479
_cell_length_c   8.52999500
_cell_angle_alpha   124.44069806
_cell_angle_beta   106.21438016
_cell_angle_gamma   98.81757591
_symmetry_Int_Tables_number   1
_chemical_formula_structural   TbPu2Zr3F22
_chemical_formula_sum   'Tb1 Pu2 Zr3 F22'
_cell_volume   449.89976063
_cell_formula_units_Z   1
loop_
 _symmetry_equiv_pos_site_id
 _symmetry_equiv_pos_as_xyz
  1  'x, y, z'
loop_
 _atom_site_type_symbol
 _atom_site_label
 _atom_site_symmetry_multiplicity
 _atom_site_fract_x
 _atom_site_fract_y
 _atom_site_fract_z
 _atom_site_occupancy
  Tb  Tb0  1  0.679960  0.637123  0.317082  1
  Pu  Pu1  1  0.752186  0.254071  0.507238  1
  Pu  Pu2  1  0.253167  0.755052  0.507238  1
  Zr  Zr3  1  0.316880  0.363875  0.680754  1
  Zr  Zr4  1  0.182974  0.866494  0.049468  1
  Zr  Zr5  1  0.821488  0.138197  0.959685  1
  F  F6  1  0.705979  0.919707  0.346605  1
  F  F7  1  0.290080  0.095515  0.647064  1
  F  F8  1  0.551548  0.356984  0.647064  1
  F  F9  1  0.946752  0.601842  0.811010  1
  F  F10  1  0.426899  0.640627  0.346605  1
  F  F11  1  0.057561  0.397590  0.190818  1
  F  F12  1  0.793226  0.133256  0.190818  1
  F  F13  1  0.209169  0.864258  0.811010  1
  F  F14  1  0.490358  0.489783  0.980140  1
  F  F15  1  0.005115  0.000389  0.005506  1
  F  F16  1  0.784766  0.882900  0.667667  1
  F  F17  1  0.219933  0.129194  0.349127  1
  F  F18  1  0.277142  0.628024  0.905166  1
  F  F19  1  0.718747  0.359765  0.078512  1
  F  F20  1  0.974049  0.738992  0.422996  1
  F  F21  1  0.043827  0.261030  0.579144  1
  F  F22  1  0.318113  0.535317  0.579144  1
  F  F23  1  0.177160  0.761121  0.214571  1
  F  F24  1  0.684004  0.448946  0.422996  1
  F  F25  1  0.823262  0.241797  0.784001  1
  F  F26  1  0.542204  0.960738  0.784001  1
  F  F27  1  0.453450  0.037410  0.214571  1
