# generated using pymatgen
data_Y20CdHg5Rh2
_symmetry_space_group_name_H-M   'P 1'
_cell_length_a   9.72522023
_cell_length_b   9.71676086
_cell_length_c   9.64599700
_cell_angle_alpha   90.00000000
_cell_angle_beta   90.00000000
_cell_angle_gamma   119.97122904
_symmetry_Int_Tables_number   1
_chemical_formula_structural   Y20CdHg5Rh2
_chemical_formula_sum   'Y20 Cd1 Hg5 Rh2'
_cell_volume   789.63165296
_cell_formula_units_Z   1
loop_
 _symmetry_equiv_pos_site_id
 _symmetry_equiv_pos_as_xyz
  1  'x, y, z'
loop_
 _atom_site_type_symbol
 _atom_site_label
 _atom_site_symmetry_multiplicity
 _atom_site_fract_x
 _atom_site_fract_y
 _atom_site_fract_z
 _atom_site_occupancy
  Y  Y0  1  0.002687  0.001343  0.497580  1
  Y  Y1  1  0.002687  0.001343  0.002420  1
  Y  Y2  1  0.208387  0.791384  0.439314  1
  Y  Y3  1  0.208387  0.417004  0.439314  1
  Y  Y4  1  0.582659  0.791330  0.439635  1
  Y  Y5  1  0.791059  0.208284  0.560323  1
  Y  Y6  1  0.791059  0.582774  0.560323  1
  Y  Y7  1  0.417272  0.208636  0.560332  1
  Y  Y8  1  0.791059  0.208284  0.939677  1
  Y  Y9  1  0.791059  0.582774  0.939677  1
  Y  Y10  1  0.417272  0.208636  0.939668  1
  Y  Y11  1  0.208387  0.791384  0.060686  1
  Y  Y12  1  0.208387  0.417004  0.060686  1
  Y  Y13  1  0.582659  0.791330  0.060365  1
  Y  Y14  1  0.542149  0.457758  0.250000  1
  Y  Y15  1  0.542149  0.084391  0.250000  1
  Y  Y16  1  0.915388  0.457694  0.250000  1
  Y  Y17  1  0.455063  0.539587  0.750000  1
  Y  Y18  1  0.455063  0.915476  0.750000  1
  Y  Y19  1  0.084424  0.542212  0.750000  1
  Cd  Cd20  1  0.767056  0.883527  0.750000  1
  Hg  Hg21  1  0.880959  0.119865  0.250000  1
  Hg  Hg22  1  0.880959  0.761095  0.250000  1
  Hg  Hg23  1  0.239719  0.119860  0.250000  1
  Hg  Hg24  1  0.117204  0.880694  0.750000  1
  Hg  Hg25  1  0.117204  0.236509  0.750000  1
  Rh  Rh26  1  0.333096  0.666548  0.250000  1
  Rh  Rh27  1  0.666545  0.333272  0.750000  1
