# generated using pymatgen
data_Yb3Pr7Ir6
_symmetry_space_group_name_H-M   'P 1'
_cell_length_a   11.21078355
_cell_length_b   11.28913800
_cell_length_c   6.49166705
_cell_angle_alpha   90.00000000
_cell_angle_beta   90.22981343
_cell_angle_gamma   90.00000000
_symmetry_Int_Tables_number   1
_chemical_formula_structural   Yb3Pr7Ir6
_chemical_formula_sum   'Yb6 Pr14 Ir12'
_cell_volume   821.57930933
_cell_formula_units_Z   2
loop_
 _symmetry_equiv_pos_site_id
 _symmetry_equiv_pos_as_xyz
  1  'x, y, z'
loop_
 _atom_site_type_symbol
 _atom_site_label
 _atom_site_symmetry_multiplicity
 _atom_site_fract_x
 _atom_site_fract_y
 _atom_site_fract_z
 _atom_site_occupancy
  Yb  Yb0  1  0.290510  0.085909  0.380516  1
  Yb  Yb1  1  0.290510  0.914091  0.880516  1
  Yb  Yb2  1  0.003684  0.000943  0.498178  1
  Yb  Yb3  1  0.003684  0.999057  0.998178  1
  Yb  Yb4  1  0.498943  0.499628  0.997717  1
  Yb  Yb5  1  0.498943  0.500372  0.497717  1
  Pr  Pr6  1  0.711044  0.087909  0.884651  1
  Pr  Pr7  1  0.711044  0.912091  0.384651  1
  Pr  Pr8  1  0.583574  0.789672  0.881474  1
  Pr  Pr9  1  0.583574  0.210328  0.381474  1
  Pr  Pr10  1  0.407020  0.792396  0.382288  1
  Pr  Pr11  1  0.407020  0.207604  0.882288  1
  Pr  Pr12  1  0.213049  0.410793  0.618721  1
  Pr  Pr13  1  0.213049  0.589207  0.118721  1
  Pr  Pr14  1  0.787870  0.411128  0.117881  1
  Pr  Pr15  1  0.787870  0.588872  0.617881  1
  Pr  Pr16  1  0.911742  0.712190  0.120222  1
  Pr  Pr17  1  0.911742  0.287810  0.620222  1
  Pr  Pr18  1  0.091801  0.714387  0.619611  1
  Pr  Pr19  1  0.091801  0.285613  0.119611  1
  Ir  Ir20  1  0.847464  0.155185  0.249987  1
  Ir  Ir21  1  0.847464  0.844815  0.749987  1
  Ir  Ir22  1  0.152406  0.158620  0.747525  1
  Ir  Ir23  1  0.152406  0.841380  0.247525  1
  Ir  Ir24  1  0.653489  0.344094  0.749513  1
  Ir  Ir25  1  0.653489  0.655906  0.249513  1
  Ir  Ir26  1  0.345500  0.347417  0.246820  1
  Ir  Ir27  1  0.345500  0.652583  0.746820  1
  Ir  Ir28  1  0.501058  0.000544  0.118931  1
  Ir  Ir29  1  0.501058  0.999456  0.618931  1
  Ir  Ir30  1  0.000846  0.500198  0.885966  1
  Ir  Ir31  1  0.000846  0.499802  0.385966  1
