# generated using pymatgen
data_NaTbYb2(Al3Pd)6
_symmetry_space_group_name_H-M   'P 1'
_cell_length_a   7.65985760
_cell_length_b   7.66538601
_cell_length_c   9.47773400
_cell_angle_alpha   90.00000000
_cell_angle_beta   90.00000000
_cell_angle_gamma   119.55887546
_symmetry_Int_Tables_number   1
_chemical_formula_structural   NaTbYb2(Al3Pd)6
_chemical_formula_sum   'Na1 Tb1 Yb2 Al18 Pd6'
_cell_volume   484.06449362
_cell_formula_units_Z   1
loop_
 _symmetry_equiv_pos_site_id
 _symmetry_equiv_pos_as_xyz
  1  'x, y, z'
loop_
 _atom_site_type_symbol
 _atom_site_label
 _atom_site_symmetry_multiplicity
 _atom_site_fract_x
 _atom_site_fract_y
 _atom_site_fract_z
 _atom_site_occupancy
  Na  Na0  1  0.673236  0.994610  0.250000  1
  Tb  Tb1  1  0.331922  0.002663  0.750000  1
  Yb  Yb2  1  0.993950  0.669436  0.250000  1
  Yb  Yb3  1  0.002063  0.328522  0.750000  1
  Al  Al4  1  0.132004  0.130828  0.250000  1
  Al  Al5  1  0.870355  0.870277  0.750000  1
  Al  Al6  1  0.997302  0.331503  0.077969  1
  Al  Al7  1  0.998389  0.664174  0.922124  1
  Al  Al8  1  0.998389  0.664174  0.577876  1
  Al  Al9  1  0.338819  0.999994  0.419989  1
  Al  Al10  1  0.997302  0.331503  0.422031  1
  Al  Al11  1  0.666290  0.999997  0.572535  1
  Al  Al12  1  0.666290  0.999997  0.927465  1
  Al  Al13  1  0.338819  0.999994  0.080011  1
  Al  Al14  1  0.332169  0.332462  0.555216  1
  Al  Al15  1  0.666691  0.669034  0.445100  1
  Al  Al16  1  0.666691  0.669034  0.054900  1
  Al  Al17  1  0.332169  0.332462  0.944784  1
  Al  Al18  1  0.338447  0.548435  0.250000  1
  Al  Al19  1  0.656822  0.454395  0.750000  1
  Al  Al20  1  0.546178  0.343714  0.250000  1
  Al  Al21  1  0.456263  0.664391  0.750000  1
  Pd  Pd22  1  0.671062  0.329393  0.998181  1
  Pd  Pd23  1  0.325363  0.669523  0.997785  1
  Pd  Pd24  1  0.325363  0.669523  0.502215  1
  Pd  Pd25  1  0.671062  0.329393  0.501819  1
  Pd  Pd26  1  0.003294  0.000283  0.998164  1
  Pd  Pd27  1  0.003294  0.000283  0.501836  1
