# generated using pymatgen
data_Ce3PaBi5
_symmetry_space_group_name_H-M   'P 1'
_cell_length_a   9.97737012
_cell_length_b   9.95985846
_cell_length_c   6.40336100
_cell_angle_alpha   90.00000000
_cell_angle_beta   90.00000000
_cell_angle_gamma   119.94196492
_symmetry_Int_Tables_number   1
_chemical_formula_structural   Ce3PaBi5
_chemical_formula_sum   'Ce6 Pa2 Bi10'
_cell_volume   551.39337848
_cell_formula_units_Z   2
loop_
 _symmetry_equiv_pos_site_id
 _symmetry_equiv_pos_as_xyz
  1  'x, y, z'
loop_
 _atom_site_type_symbol
 _atom_site_label
 _atom_site_symmetry_multiplicity
 _atom_site_fract_x
 _atom_site_fract_y
 _atom_site_fract_z
 _atom_site_occupancy
  Ce  Ce0  1  0.617539  0.000005  0.250000  1
  Ce  Ce1  1  0.382461  0.999995  0.750000  1
  Ce  Ce2  1  0.382461  0.382466  0.250000  1
  Ce  Ce3  1  0.000000  0.617649  0.250000  1
  Ce  Ce4  1  0.000000  0.382351  0.750000  1
  Ce  Ce5  1  0.617539  0.617534  0.750000  1
  Pa  Pa6  1  0.000000  0.000000  0.000000  1
  Pa  Pa7  1  0.000000  0.000000  0.500000  1
  Bi  Bi8  1  0.277652  0.277729  0.750000  1
  Bi  Bi9  1  0.722348  0.722271  0.250000  1
  Bi  Bi10  1  0.333201  0.666601  0.500000  1
  Bi  Bi11  1  0.000000  0.277849  0.250000  1
  Bi  Bi12  1  0.277652  0.999923  0.250000  1
  Bi  Bi13  1  0.722348  0.000077  0.750000  1
  Bi  Bi14  1  0.666799  0.333399  0.000000  1
  Bi  Bi15  1  0.000000  0.722151  0.750000  1
  Bi  Bi16  1  0.333201  0.666601  0.000000  1
  Bi  Bi17  1  0.666799  0.333399  0.500000  1
