# generated using pymatgen
data_Ce4Zn2SiRh10
_symmetry_space_group_name_H-M   'P 1'
_cell_length_a   7.16962463
_cell_length_b   7.28946893
_cell_length_c   7.28946902
_cell_angle_alpha   107.72533502
_cell_angle_beta   110.70681049
_cell_angle_gamma   110.70681248
_symmetry_Int_Tables_number   1
_chemical_formula_structural   Ce4Zn2SiRh10
_chemical_formula_sum   'Ce4 Zn2 Si1 Rh10'
_cell_volume   290.41982501
_cell_formula_units_Z   1
loop_
 _symmetry_equiv_pos_site_id
 _symmetry_equiv_pos_as_xyz
  1  'x, y, z'
loop_
 _atom_site_type_symbol
 _atom_site_label
 _atom_site_symmetry_multiplicity
 _atom_site_fract_x
 _atom_site_fract_y
 _atom_site_fract_z
 _atom_site_occupancy
  Ce  Ce0  1  0.023370  0.011685  0.511685  1
  Ce  Ce1  1  0.023370  0.511685  0.011685  1
  Ce  Ce2  1  0.479063  0.970814  0.970814  1
  Ce  Ce3  1  0.479063  0.508249  0.508249  1
  Zn  Zn4  1  0.748304  0.249911  0.498393  1
  Zn  Zn5  1  0.748304  0.498393  0.249911  1
  Si  Si6  1  0.000770  0.000385  0.000385  1
  Rh  Rh7  1  0.516559  0.258279  0.758279  1
  Rh  Rh8  1  0.234434  0.489463  0.744971  1
  Rh  Rh9  1  0.234434  0.744971  0.489463  1
  Rh  Rh10  1  0.516559  0.758279  0.258279  1
  Rh  Rh11  1  0.735786  0.720522  0.015264  1
  Rh  Rh12  1  0.295470  0.013074  0.282396  1
  Rh  Rh13  1  0.966628  0.260301  0.260301  1
  Rh  Rh14  1  0.295470  0.282396  0.013074  1
  Rh  Rh15  1  0.735786  0.015264  0.720522  1
  Rh  Rh16  1  0.966628  0.706328  0.706328  1
