# generated using pymatgen
data_Ac2B3Ru4C
_symmetry_space_group_name_H-M   'P 1'
_cell_length_a   6.98798772
_cell_length_b   6.08569559
_cell_length_c   5.68520450
_cell_angle_alpha   72.74520542
_cell_angle_beta   56.78865674
_cell_angle_gamma   50.98249316
_symmetry_Int_Tables_number   1
_chemical_formula_structural   Ac2B3Ru4C
_chemical_formula_sum   'Ac2 B3 Ru4 C1'
_cell_volume   156.73030082
_cell_formula_units_Z   1
loop_
 _symmetry_equiv_pos_site_id
 _symmetry_equiv_pos_as_xyz
  1  'x, y, z'
loop_
 _atom_site_type_symbol
 _atom_site_label
 _atom_site_symmetry_multiplicity
 _atom_site_fract_x
 _atom_site_fract_y
 _atom_site_fract_z
 _atom_site_occupancy
  Ac  Ac0  1  0.999669  0.000331  0.999669  1
  Ac  Ac1  1  0.250188  0.249812  0.250188  1
  B  B2  1  0.325192  0.674808  0.325192  1
  B  B3  1  0.923364  0.576636  0.923364  1
  B  B4  1  0.575421  0.924579  0.575421  1
  Ru  Ru5  1  0.617635  0.606805  0.879370  1
  Ru  Ru6  1  0.639076  0.625987  0.366568  1
  Ru  Ru7  1  0.366568  0.368368  0.639076  1
  Ru  Ru8  1  0.879371  0.896190  0.617634  1
  C  C9  1  0.673516  0.326484  0.673516  1
