# generated using pymatgen
data_DyNpTeN2
_symmetry_space_group_name_H-M   'P 1'
_cell_length_a   6.88102402
_cell_length_b   6.88102502
_cell_length_c   6.88102593
_cell_angle_alpha   147.08356836
_cell_angle_beta   147.08356856
_cell_angle_gamma   47.24005972
_symmetry_Int_Tables_number   1
_chemical_formula_structural   DyNpTeN2
_chemical_formula_sum   'Dy1 Np1 Te1 N2'
_cell_volume   95.84351709
_cell_formula_units_Z   1
loop_
 _symmetry_equiv_pos_site_id
 _symmetry_equiv_pos_as_xyz
  1  'x, y, z'
loop_
 _atom_site_type_symbol
 _atom_site_label
 _atom_site_symmetry_multiplicity
 _atom_site_fract_x
 _atom_site_fract_y
 _atom_site_fract_z
 _atom_site_occupancy
  Dy  Dy0  1  0.340344  0.340344  0.000000  1
  Np  Np1  1  0.668758  0.668758  0.000000  1
  Te  Te2  1  0.003882  0.003882  0.000000  1
  N  N3  1  0.743508  0.243508  0.500000  1
  N  N4  1  0.243508  0.743508  0.500000  1
