# generated using pymatgen
data_HoGaFe3C
_symmetry_space_group_name_H-M   'P 1'
_cell_length_a   5.16819700
_cell_length_b   5.16819598
_cell_length_c   6.64453500
_cell_angle_alpha   90.00000000
_cell_angle_beta   90.00000000
_cell_angle_gamma   120.00000015
_symmetry_Int_Tables_number   1
_chemical_formula_structural   HoGaFe3C
_chemical_formula_sum   'Ho2 Ga2 Fe6 C2'
_cell_volume   153.69978416
_cell_formula_units_Z   2
loop_
 _symmetry_equiv_pos_site_id
 _symmetry_equiv_pos_as_xyz
  1  'x, y, z'
loop_
 _atom_site_type_symbol
 _atom_site_label
 _atom_site_symmetry_multiplicity
 _atom_site_fract_x
 _atom_site_fract_y
 _atom_site_fract_z
 _atom_site_occupancy
  Ho  Ho0  1  0.000000  0.000000  0.500000  1
  Ho  Ho1  1  0.000000  0.000000  0.000000  1
  Ga  Ga2  1  0.666667  0.333333  0.500000  1
  Ga  Ga3  1  0.333333  0.666667  0.500000  1
  Fe  Fe4  1  0.500000  0.500000  0.806645  1
  Fe  Fe5  1  0.500000  0.000000  0.806645  1
  Fe  Fe6  1  0.000000  0.500000  0.806645  1
  Fe  Fe7  1  0.500000  0.500000  0.193355  1
  Fe  Fe8  1  0.500000  0.000000  0.193355  1
  Fe  Fe9  1  0.000000  0.500000  0.193355  1
  C  C10  1  0.666667  0.333333  0.000000  1
  C  C11  1  0.333333  0.666667  0.000000  1
