# generated using pymatgen
data_PrDy4Bi3
_symmetry_space_group_name_H-M   'P 1'
_cell_length_a   8.37562900
_cell_length_b   9.61200100
_cell_length_c   12.13009300
_cell_angle_alpha   90.00000000
_cell_angle_beta   90.00000000
_cell_angle_gamma   90.00000000
_symmetry_Int_Tables_number   1
_chemical_formula_structural   PrDy4Bi3
_chemical_formula_sum   'Pr4 Dy16 Bi12'
_cell_volume   976.55199106
_cell_formula_units_Z   4
loop_
 _symmetry_equiv_pos_site_id
 _symmetry_equiv_pos_as_xyz
  1  'x, y, z'
loop_
 _atom_site_type_symbol
 _atom_site_label
 _atom_site_symmetry_multiplicity
 _atom_site_fract_x
 _atom_site_fract_y
 _atom_site_fract_z
 _atom_site_occupancy
  Pr  Pr0  1  0.684908  0.750000  0.779566  1
  Pr  Pr1  1  0.815091  0.250000  0.279566  1
  Pr  Pr2  1  0.184909  0.750000  0.720434  1
  Pr  Pr3  1  0.315092  0.250000  0.220434  1
  Dy  Dy4  1  0.194080  0.937270  0.441417  1
  Dy  Dy5  1  0.305920  0.062730  0.941417  1
  Dy  Dy6  1  0.694080  0.562729  0.058583  1
  Dy  Dy7  1  0.805920  0.437270  0.558583  1
  Dy  Dy8  1  0.805920  0.062730  0.558583  1
  Dy  Dy9  1  0.694080  0.937270  0.058583  1
  Dy  Dy10  1  0.305920  0.437270  0.941417  1
  Dy  Dy11  1  0.194080  0.562729  0.441417  1
  Dy  Dy12  1  0.524690  0.750000  0.512488  1
  Dy  Dy13  1  0.975309  0.250000  0.012488  1
  Dy  Dy14  1  0.024691  0.750000  0.987511  1
  Dy  Dy15  1  0.475309  0.250000  0.487512  1
  Dy  Dy16  1  0.851051  0.750000  0.284180  1
  Dy  Dy17  1  0.648950  0.250000  0.784180  1
  Dy  Dy18  1  0.351050  0.750000  0.215820  1
  Dy  Dy19  1  0.148949  0.250000  0.715820  1
  Bi  Bi20  1  0.063597  0.509236  0.173052  1
  Bi  Bi21  1  0.436402  0.490764  0.673052  1
  Bi  Bi22  1  0.563597  0.990765  0.326948  1
  Bi  Bi23  1  0.936401  0.009236  0.826948  1
  Bi  Bi24  1  0.936401  0.490764  0.826948  1
  Bi  Bi25  1  0.563597  0.509236  0.326948  1
  Bi  Bi26  1  0.436402  0.009236  0.673052  1
  Bi  Bi27  1  0.063597  0.990765  0.173052  1
  Bi  Bi28  1  0.907577  0.750000  0.537569  1
  Bi  Bi29  1  0.592422  0.250000  0.037570  1
  Bi  Bi30  1  0.407577  0.750000  0.962430  1
  Bi  Bi31  1  0.092423  0.250000  0.462430  1
