# generated using pymatgen
data_LaYb3HoIr2
_symmetry_space_group_name_H-M   'P 1'
_cell_length_a   6.53783736
_cell_length_b   7.37550043
_cell_length_c   8.72305441
_cell_angle_alpha   97.03355416
_cell_angle_beta   112.00853557
_cell_angle_gamma   90.00000340
_symmetry_Int_Tables_number   1
_chemical_formula_structural   LaYb3HoIr2
_chemical_formula_sum   'La2 Yb6 Ho2 Ir4'
_cell_volume   386.55615210
_cell_formula_units_Z   2
loop_
 _symmetry_equiv_pos_site_id
 _symmetry_equiv_pos_as_xyz
  1  'x, y, z'
loop_
 _atom_site_type_symbol
 _atom_site_label
 _atom_site_symmetry_multiplicity
 _atom_site_fract_x
 _atom_site_fract_y
 _atom_site_fract_z
 _atom_site_occupancy
  La  La0  1  0.984108  0.918893  0.181703  1
  La  La1  1  0.802407  0.581107  0.818297  1
  Yb  Yb2  1  0.021247  0.080364  0.821770  1
  Yb  Yb3  1  0.199476  0.419636  0.178230  1
  Yb  Yb4  1  0.635033  0.819404  0.430264  1
  Yb  Yb5  1  0.204769  0.680596  0.569736  1
  Yb  Yb6  1  0.366256  0.184580  0.570673  1
  Yb  Yb7  1  0.795583  0.315420  0.429327  1
  Ho  Ho8  1  0.429100  0.750000  0.000000  1
  Ho  Ho9  1  0.561219  0.250000  0.000000  1
  Ir  Ir10  1  0.811599  0.579050  0.203589  1
  Ir  Ir11  1  0.608011  0.920950  0.796411  1
  Ir  Ir12  1  0.185120  0.426590  0.789046  1
  Ir  Ir13  1  0.396073  0.073410  0.210954  1
