# generated using pymatgen
data_Dy10IrOs2Au3
_symmetry_space_group_name_H-M   'P 1'
_cell_length_a   11.19173127
_cell_length_b   11.13655200
_cell_length_c   6.41392531
_cell_angle_alpha   90.00000000
_cell_angle_beta   89.62341999
_cell_angle_gamma   90.00000000
_symmetry_Int_Tables_number   1
_chemical_formula_structural   Dy10IrOs2Au3
_chemical_formula_sum   'Dy20 Ir2 Os4 Au6'
_cell_volume   799.39704839
_cell_formula_units_Z   2
loop_
 _symmetry_equiv_pos_site_id
 _symmetry_equiv_pos_as_xyz
  1  'x, y, z'
loop_
 _atom_site_type_symbol
 _atom_site_label
 _atom_site_symmetry_multiplicity
 _atom_site_fract_x
 _atom_site_fract_y
 _atom_site_fract_z
 _atom_site_occupancy
  Dy  Dy0  1  0.300766  0.090072  0.363061  1
  Dy  Dy1  1  0.300766  0.909928  0.863061  1
  Dy  Dy2  1  0.694914  0.082978  0.857468  1
  Dy  Dy3  1  0.694914  0.917022  0.357468  1
  Dy  Dy4  1  0.574452  0.793897  0.859308  1
  Dy  Dy5  1  0.574452  0.206103  0.359308  1
  Dy  Dy6  1  0.410994  0.797135  0.374468  1
  Dy  Dy7  1  0.410994  0.202865  0.874468  1
  Dy  Dy8  1  0.209786  0.418909  0.630486  1
  Dy  Dy9  1  0.209786  0.581091  0.130486  1
  Dy  Dy10  1  0.804666  0.416306  0.137182  1
  Dy  Dy11  1  0.804666  0.583694  0.637182  1
  Dy  Dy12  1  0.921559  0.697782  0.140816  1
  Dy  Dy13  1  0.921559  0.302218  0.640816  1
  Dy  Dy14  1  0.094572  0.697961  0.640768  1
  Dy  Dy15  1  0.094572  0.302039  0.140768  1
  Dy  Dy16  1  0.997411  0.998573  0.498954  1
  Dy  Dy17  1  0.997411  0.001427  0.998954  1
  Dy  Dy18  1  0.492615  0.497366  0.999016  1
  Dy  Dy19  1  0.492615  0.502634  0.499016  1
  Ir  Ir20  1  0.347700  0.348057  0.250638  1
  Ir  Ir21  1  0.347700  0.651943  0.750638  1
  Os  Os22  1  0.497875  0.999238  0.115591  1
  Os  Os23  1  0.497875  0.000762  0.615591  1
  Os  Os24  1  0.002718  0.499975  0.885273  1
  Os  Os25  1  0.002718  0.500025  0.385273  1
  Au  Au26  1  0.841257  0.154811  0.251629  1
  Au  Au27  1  0.841257  0.845189  0.751629  1
  Au  Au28  1  0.153654  0.154698  0.748271  1
  Au  Au29  1  0.153654  0.845302  0.248271  1
  Au  Au30  1  0.655061  0.346514  0.747072  1
  Au  Au31  1  0.655061  0.653486  0.247072  1
