# generated using pymatgen
data_NaLa2PuB24
_symmetry_space_group_name_H-M   'P 1'
_cell_length_a   7.16379484
_cell_length_b   7.16379492
_cell_length_c   5.86368100
_cell_angle_alpha   90.00000000
_cell_angle_beta   90.00000000
_cell_angle_gamma   109.32756051
_symmetry_Int_Tables_number   1
_chemical_formula_structural   NaLa2PuB24
_chemical_formula_sum   'Na1 La2 Pu1 B24'
_cell_volume   283.96434776
_cell_formula_units_Z   1
loop_
 _symmetry_equiv_pos_site_id
 _symmetry_equiv_pos_as_xyz
  1  'x, y, z'
loop_
 _atom_site_type_symbol
 _atom_site_label
 _atom_site_symmetry_multiplicity
 _atom_site_fract_x
 _atom_site_fract_y
 _atom_site_fract_z
 _atom_site_occupancy
  Na  Na0  1  0.000000  0.000000  0.000000  1
  La  La1  1  0.751302  0.248698  0.500000  1
  La  La2  1  0.248698  0.751302  0.500000  1
  Pu  Pu3  1  0.500000  0.500000  0.000000  1
  B  B4  1  0.175701  0.324704  0.650630  1
  B  B5  1  0.924421  0.575095  0.148819  1
  B  B6  1  0.675296  0.824299  0.650630  1
  B  B7  1  0.424905  0.075579  0.148819  1
  B  B8  1  0.175701  0.324704  0.349370  1
  B  B9  1  0.924421  0.575095  0.851181  1
  B  B10  1  0.675296  0.824299  0.349370  1
  B  B11  1  0.424905  0.075579  0.851181  1
  B  B12  1  0.400049  0.400049  0.500000  1
  B  B13  1  0.149271  0.650296  0.000000  1
  B  B14  1  0.899395  0.899395  0.500000  1
  B  B15  1  0.650296  0.149271  0.000000  1
  B  B16  1  0.324704  0.175701  0.650630  1
  B  B17  1  0.075579  0.424905  0.148819  1
  B  B18  1  0.824299  0.675296  0.650630  1
  B  B19  1  0.575095  0.924421  0.148819  1
  B  B20  1  0.100605  0.100605  0.500000  1
  B  B21  1  0.850729  0.349704  0.000000  1
  B  B22  1  0.599951  0.599951  0.500000  1
  B  B23  1  0.349704  0.850729  0.000000  1
  B  B24  1  0.324704  0.175701  0.349370  1
  B  B25  1  0.075579  0.424905  0.851181  1
  B  B26  1  0.824299  0.675296  0.349370  1
  B  B27  1  0.575095  0.924421  0.851181  1
