# generated using pymatgen
data_Sm4CoRe2Os5
_symmetry_space_group_name_H-M   'P 1'
_cell_length_a   5.18809572
_cell_length_b   5.43166036
_cell_length_c   9.04159700
_cell_angle_alpha   90.00000000
_cell_angle_beta   90.00000000
_cell_angle_gamma   119.10954846
_symmetry_Int_Tables_number   1
_chemical_formula_structural   Sm4CoRe2Os5
_chemical_formula_sum   'Sm4 Co1 Re2 Os5'
_cell_volume   222.60948971
_cell_formula_units_Z   1
loop_
 _symmetry_equiv_pos_site_id
 _symmetry_equiv_pos_as_xyz
  1  'x, y, z'
loop_
 _atom_site_type_symbol
 _atom_site_label
 _atom_site_symmetry_multiplicity
 _atom_site_fract_x
 _atom_site_fract_y
 _atom_site_fract_z
 _atom_site_occupancy
  Sm  Sm0  1  0.339656  0.665549  0.439156  1
  Sm  Sm1  1  0.671236  0.331582  0.565425  1
  Sm  Sm2  1  0.671236  0.331582  0.934575  1
  Sm  Sm3  1  0.339656  0.665549  0.060844  1
  Co  Co4  1  0.171336  0.349854  0.750000  1
  Re  Re5  1  0.163132  0.846438  0.750000  1
  Re  Re6  1  0.320139  0.157829  0.250000  1
  Os  Os7  1  0.825206  0.651966  0.250000  1
  Os  Os8  1  0.647738  0.836417  0.750000  1
  Os  Os9  1  0.016472  0.997541  0.996871  1
  Os  Os10  1  0.817719  0.168155  0.250000  1
  Os  Os11  1  0.016472  0.997541  0.503129  1
