# generated using pymatgen
data_Er9Lu(GeB4)4
_symmetry_space_group_name_H-M   'P 1'
_cell_length_a   7.19868700
_cell_length_b   7.19868700
_cell_length_c   8.02899800
_cell_angle_alpha   90.00000000
_cell_angle_beta   90.00000000
_cell_angle_gamma   90.00000000
_symmetry_Int_Tables_number   1
_chemical_formula_structural   Er9Lu(GeB4)4
_chemical_formula_sum   'Er9 Lu1 Ge4 B16'
_cell_volume   416.07146429
_cell_formula_units_Z   1
loop_
 _symmetry_equiv_pos_site_id
 _symmetry_equiv_pos_as_xyz
  1  'x, y, z'
loop_
 _atom_site_type_symbol
 _atom_site_label
 _atom_site_symmetry_multiplicity
 _atom_site_fract_x
 _atom_site_fract_y
 _atom_site_fract_z
 _atom_site_occupancy
  Er  Er0  1  0.680579  0.180222  0.221386  1
  Er  Er1  1  0.319421  0.819778  0.778614  1
  Er  Er2  1  0.319421  0.819778  0.221386  1
  Er  Er3  1  0.819778  0.680579  0.221386  1
  Er  Er4  1  0.819778  0.680579  0.778614  1
  Er  Er5  1  0.680579  0.180222  0.778614  1
  Er  Er6  1  0.180222  0.319421  0.778614  1
  Er  Er7  1  0.180222  0.319421  0.221386  1
  Er  Er8  1  0.500000  0.500000  0.500000  1
  Lu  Lu9  1  0.000000  0.000000  0.500000  1
  Ge  Ge10  1  0.119727  0.622817  0.500000  1
  Ge  Ge11  1  0.880273  0.377183  0.500000  1
  Ge  Ge12  1  0.377183  0.119727  0.500000  1
  Ge  Ge13  1  0.622817  0.880273  0.500000  1
  B  B14  1  0.172589  0.039279  0.000000  1
  B  B15  1  0.827411  0.960721  0.000000  1
  B  B16  1  0.960721  0.172589  0.000000  1
  B  B17  1  0.327435  0.539315  0.000000  1
  B  B18  1  0.039279  0.827411  0.000000  1
  B  B19  1  0.672565  0.460685  0.000000  1
  B  B20  1  0.539315  0.672565  0.000000  1
  B  B21  1  0.460685  0.327435  0.000000  1
  B  B22  1  0.090068  0.589989  0.000000  1
  B  B23  1  0.909932  0.410011  0.000000  1
  B  B24  1  0.410011  0.090068  0.000000  1
  B  B25  1  0.589989  0.909932  0.000000  1
  B  B26  1  0.000000  0.000000  0.165042  1
  B  B27  1  0.000000  0.000000  0.834958  1
  B  B28  1  0.500000  0.500000  0.835353  1
  B  B29  1  0.500000  0.500000  0.164647  1
