# generated using pymatgen
data_ErTh2In3CuPd2
_symmetry_space_group_name_H-M   'P 1'
_cell_length_a   7.69866466
_cell_length_b   7.69866501
_cell_length_c   4.02379400
_cell_angle_alpha   90.00000000
_cell_angle_beta   90.00000000
_cell_angle_gamma   120.24679490
_symmetry_Int_Tables_number   1
_chemical_formula_structural   ErTh2In3CuPd2
_chemical_formula_sum   'Er1 Th2 In3 Cu1 Pd2'
_cell_volume   206.02113798
_cell_formula_units_Z   1
loop_
 _symmetry_equiv_pos_site_id
 _symmetry_equiv_pos_as_xyz
  1  'x, y, z'
loop_
 _atom_site_type_symbol
 _atom_site_label
 _atom_site_symmetry_multiplicity
 _atom_site_fract_x
 _atom_site_fract_y
 _atom_site_fract_z
 _atom_site_occupancy
  Er  Er0  1  0.411773  0.411773  0.500000  1
  Th  Th1  1  0.585120  0.001012  0.500000  1
  Th  Th2  1  0.001012  0.585120  0.500000  1
  In  In3  1  0.246652  0.008415  0.000000  1
  In  In4  1  0.008415  0.246652  0.000000  1
  In  In5  1  0.747435  0.747435  0.000000  1
  Cu  Cu6  1  0.995638  0.995638  0.500000  1
  Pd  Pd7  1  0.332420  0.671533  0.000000  1
  Pd  Pd8  1  0.671533  0.332420  0.000000  1
