# generated using pymatgen
data_Sc2SnB2Ir4Rh
_symmetry_space_group_name_H-M   'P 1'
_cell_length_a   9.42024224
_cell_length_b   9.44939624
_cell_length_c   3.22374900
_cell_angle_alpha   90.00000000
_cell_angle_beta   90.00000000
_cell_angle_gamma   90.02571846
_symmetry_Int_Tables_number   1
_chemical_formula_structural   Sc2SnB2Ir4Rh
_chemical_formula_sum   'Sc4 Sn2 B4 Ir8 Rh2'
_cell_volume   286.96392760
_cell_formula_units_Z   2
loop_
 _symmetry_equiv_pos_site_id
 _symmetry_equiv_pos_as_xyz
  1  'x, y, z'
loop_
 _atom_site_type_symbol
 _atom_site_label
 _atom_site_symmetry_multiplicity
 _atom_site_fract_x
 _atom_site_fract_y
 _atom_site_fract_z
 _atom_site_occupancy
  Sc  Sc0  1  0.824913  0.324621  0.000000  1
  Sc  Sc1  1  0.324263  0.175273  0.000000  1
  Sc  Sc2  1  0.675737  0.824727  0.000000  1
  Sc  Sc3  1  0.175087  0.675379  0.000000  1
  Sn  Sn4  1  0.000000  0.000000  0.000000  1
  Sn  Sn5  1  0.500000  0.500000  0.000000  1
  B  B6  1  0.621437  0.121798  0.000000  1
  B  B7  1  0.119726  0.377600  0.000000  1
  B  B8  1  0.880274  0.622400  0.000000  1
  B  B9  1  0.378563  0.878202  0.000000  1
  Ir  Ir10  1  0.072749  0.223771  0.500000  1
  Ir  Ir11  1  0.222315  0.928590  0.500000  1
  Ir  Ir12  1  0.777685  0.071410  0.500000  1
  Ir  Ir13  1  0.927251  0.776229  0.500000  1
  Ir  Ir14  1  0.427701  0.722834  0.500000  1
  Ir  Ir15  1  0.572299  0.277166  0.500000  1
  Ir  Ir16  1  0.500000  0.000000  0.500000  1
  Ir  Ir17  1  0.000000  0.500000  0.500000  1
  Rh  Rh18  1  0.721575  0.571406  0.500000  1
  Rh  Rh19  1  0.278425  0.428594  0.500000  1
