# generated using pymatgen
data_Li2Lu3AgSn3
_symmetry_space_group_name_H-M   'P 1'
_cell_length_a   7.19512477
_cell_length_b   7.17934239
_cell_length_c   4.52756000
_cell_angle_alpha   90.00000000
_cell_angle_beta   90.00000000
_cell_angle_gamma   119.92746197
_symmetry_Int_Tables_number   1
_chemical_formula_structural   Li2Lu3AgSn3
_chemical_formula_sum   'Li2 Lu3 Ag1 Sn3'
_cell_volume   202.69116584
_cell_formula_units_Z   1
loop_
 _symmetry_equiv_pos_site_id
 _symmetry_equiv_pos_as_xyz
  1  'x, y, z'
loop_
 _atom_site_type_symbol
 _atom_site_label
 _atom_site_symmetry_multiplicity
 _atom_site_fract_x
 _atom_site_fract_y
 _atom_site_fract_z
 _atom_site_occupancy
  Li  Li0  1  0.233385  0.229974  0.500000  1
  Li  Li1  1  0.766615  0.996589  0.500000  1
  Lu  Lu2  1  0.000000  0.445652  0.000000  1
  Lu  Lu3  1  0.567519  0.565541  0.000000  1
  Lu  Lu4  1  0.432481  0.998023  0.000000  1
  Ag  Ag5  1  0.000000  0.762758  0.500000  1
  Sn  Sn6  1  0.339817  0.665549  0.500000  1
  Sn  Sn7  1  0.000000  0.010185  0.000000  1
  Sn  Sn8  1  0.660183  0.325731  0.500000  1
