# generated using pymatgen
data_Y10Al3CoTe4
_symmetry_space_group_name_H-M   'P 1'
_cell_length_a   7.93032784
_cell_length_b   7.93032812
_cell_length_c   15.08154300
_cell_angle_alpha   90.00000000
_cell_angle_beta   90.00000000
_cell_angle_gamma   149.86066162
_symmetry_Int_Tables_number   1
_chemical_formula_structural   Y10Al3CoTe4
_chemical_formula_sum   'Y10 Al3 Co1 Te4'
_cell_volume   476.23607559
_cell_formula_units_Z   1
loop_
 _symmetry_equiv_pos_site_id
 _symmetry_equiv_pos_as_xyz
  1  'x, y, z'
loop_
 _atom_site_type_symbol
 _atom_site_label
 _atom_site_symmetry_multiplicity
 _atom_site_fract_x
 _atom_site_fract_y
 _atom_site_fract_z
 _atom_site_occupancy
  Y  Y0  1  0.967364  0.032636  0.112428  1
  Y  Y1  1  0.037813  0.962187  0.883579  1
  Y  Y2  1  0.037813  0.962187  0.616421  1
  Y  Y3  1  0.967364  0.032636  0.387572  1
  Y  Y4  1  0.743910  0.256090  0.629124  1
  Y  Y5  1  0.252053  0.747947  0.385249  1
  Y  Y6  1  0.252053  0.747947  0.114751  1
  Y  Y7  1  0.743910  0.256090  0.870876  1
  Y  Y8  1  0.608580  0.391420  0.250000  1
  Y  Y9  1  0.388434  0.611566  0.750000  1
  Al  Al10  1  0.413757  0.586243  0.250000  1
  Al  Al11  1  0.589586  0.410414  0.750000  1
  Al  Al12  1  0.809931  0.190069  0.250000  1
  Co  Co13  1  0.185006  0.814994  0.750000  1
  Te  Te14  1  0.615261  0.384739  0.038820  1
  Te  Te15  1  0.385952  0.614048  0.960695  1
  Te  Te16  1  0.385952  0.614048  0.539305  1
  Te  Te17  1  0.615261  0.384739  0.461180  1
