# generated using pymatgen
data_CePr3Er2(Al3Ru)8
_symmetry_space_group_name_H-M   'P 1'
_cell_length_a   8.86087500
_cell_length_b   8.87171020
_cell_length_c   9.65745100
_cell_angle_alpha   90.00000000
_cell_angle_beta   90.00000000
_cell_angle_gamma   119.95960355
_symmetry_Int_Tables_number   1
_chemical_formula_structural   CePr3Er2(Al3Ru)8
_chemical_formula_sum   'Ce1 Pr3 Er2 Al24 Ru8'
_cell_volume   657.73922519
_cell_formula_units_Z   1
loop_
 _symmetry_equiv_pos_site_id
 _symmetry_equiv_pos_as_xyz
  1  'x, y, z'
loop_
 _atom_site_type_symbol
 _atom_site_label
 _atom_site_symmetry_multiplicity
 _atom_site_fract_x
 _atom_site_fract_y
 _atom_site_fract_z
 _atom_site_occupancy
  Ce  Ce0  1  0.195509  0.391019  0.250000  1
  Pr  Pr1  1  0.808472  0.616944  0.750000  1
  Pr  Pr2  1  0.384506  0.191676  0.750000  1
  Pr  Pr3  1  0.807169  0.191676  0.750000  1
  Er  Er4  1  0.192708  0.805734  0.250000  1
  Er  Er5  1  0.613026  0.805734  0.250000  1
  Al  Al6  1  0.334361  0.668724  0.483980  1
  Al  Al7  1  0.666598  0.333194  0.992467  1
  Al  Al8  1  0.666598  0.333194  0.507533  1
  Al  Al9  1  0.334361  0.668724  0.016020  1
  Al  Al10  1  0.163225  0.326450  0.573389  1
  Al  Al11  1  0.673237  0.836288  0.571272  1
  Al  Al12  1  0.163051  0.836288  0.571272  1
  Al  Al13  1  0.836746  0.160865  0.081146  1
  Al  Al14  1  0.836746  0.160865  0.418854  1
  Al  Al15  1  0.838036  0.676071  0.080624  1
  Al  Al16  1  0.324120  0.160865  0.081146  1
  Al  Al17  1  0.673237  0.836288  0.928728  1
  Al  Al18  1  0.163225  0.326450  0.926611  1
  Al  Al19  1  0.838036  0.676071  0.419376  1
  Al  Al20  1  0.000089  0.000176  0.250000  1
  Al  Al21  1  0.000099  0.000199  0.750000  1
  Al  Al22  1  0.559714  0.119429  0.250000  1
  Al  Al23  1  0.437390  0.563259  0.750000  1
  Al  Al24  1  0.125869  0.563259  0.750000  1
  Al  Al25  1  0.876819  0.440352  0.250000  1
  Al  Al26  1  0.563533  0.440352  0.250000  1
  Al  Al27  1  0.436173  0.872347  0.750000  1
  Al  Al28  1  0.163051  0.836288  0.928728  1
  Al  Al29  1  0.324120  0.160865  0.418854  1
  Ru  Ru30  1  0.999664  0.999327  0.499142  1
  Ru  Ru31  1  0.999664  0.999327  0.000858  1
  Ru  Ru32  1  0.498730  0.997461  0.496265  1
  Ru  Ru33  1  0.498136  0.501695  0.005059  1
  Ru  Ru34  1  0.003559  0.501695  0.005059  1
  Ru  Ru35  1  0.003559  0.501695  0.494941  1
  Ru  Ru36  1  0.498136  0.501695  0.494941  1
  Ru  Ru37  1  0.498730  0.997461  0.003735  1
