# generated using pymatgen
data_Ho4ReMoOs6
_symmetry_space_group_name_H-M   'P 1'
_cell_length_a   5.22874080
_cell_length_b   5.22874038
_cell_length_c   8.98000900
_cell_angle_alpha   90.00000000
_cell_angle_beta   90.00000000
_cell_angle_gamma   116.43729313
_symmetry_Int_Tables_number   1
_chemical_formula_structural   Ho4ReMoOs6
_chemical_formula_sum   'Ho4 Re1 Mo1 Os6'
_cell_volume   219.83599503
_cell_formula_units_Z   1
loop_
 _symmetry_equiv_pos_site_id
 _symmetry_equiv_pos_as_xyz
  1  'x, y, z'
loop_
 _atom_site_type_symbol
 _atom_site_label
 _atom_site_symmetry_multiplicity
 _atom_site_fract_x
 _atom_site_fract_y
 _atom_site_fract_z
 _atom_site_occupancy
  Ho  Ho0  1  0.330857  0.669143  0.436785  1
  Ho  Ho1  1  0.667773  0.332227  0.565504  1
  Ho  Ho2  1  0.667773  0.332227  0.934496  1
  Ho  Ho3  1  0.330857  0.669143  0.063215  1
  Re  Re4  1  0.170110  0.829890  0.750000  1
  Mo  Mo5  1  0.833745  0.166255  0.250000  1
  Os  Os6  1  0.999553  0.000447  0.501971  1
  Os  Os7  1  0.999553  0.000447  0.998029  1
  Os  Os8  1  0.827588  0.654820  0.250000  1
  Os  Os9  1  0.345180  0.172412  0.250000  1
  Os  Os10  1  0.171205  0.344194  0.750000  1
  Os  Os11  1  0.655806  0.828795  0.750000  1
