# generated using pymatgen
data_Tb3Nd3Mg2(Co4P3)4
_symmetry_space_group_name_H-M   'P 1'
_cell_length_a   3.77340000
_cell_length_b   10.72989692
_cell_length_c   12.42150106
_cell_angle_alpha   90.04735851
_cell_angle_beta   90.00000000
_cell_angle_gamma   90.00000000
_symmetry_Int_Tables_number   1
_chemical_formula_structural   Tb3Nd3Mg2(Co4P3)4
_chemical_formula_sum   'Tb3 Nd3 Mg2 Co16 P12'
_cell_volume   502.92396080
_cell_formula_units_Z   1
loop_
 _symmetry_equiv_pos_site_id
 _symmetry_equiv_pos_as_xyz
  1  'x, y, z'
loop_
 _atom_site_type_symbol
 _atom_site_label
 _atom_site_symmetry_multiplicity
 _atom_site_fract_x
 _atom_site_fract_y
 _atom_site_fract_z
 _atom_site_occupancy
  Tb  Tb0  1  0.500000  0.179273  0.205544  1
  Tb  Tb1  1  0.000000  0.677822  0.794852  1
  Tb  Tb2  1  0.000000  0.321739  0.793803  1
  Nd  Nd3  1  0.000000  0.499712  0.526699  1
  Nd  Nd4  1  0.500000  0.000343  0.473911  1
  Nd  Nd5  1  0.500000  0.821890  0.206329  1
  Mg  Mg6  1  0.500000  0.499582  0.154165  1
  Mg  Mg7  1  0.000000  0.000149  0.845680  1
  Co  Co8  1  0.500000  0.499544  0.708466  1
  Co  Co9  1  0.000000  0.003519  0.291844  1
  Co  Co10  1  0.000000  0.498834  0.987871  1
  Co  Co11  1  0.500000  0.001325  0.009715  1
  Co  Co12  1  0.500000  0.332450  0.996323  1
  Co  Co13  1  0.500000  0.666504  0.995216  1
  Co  Co14  1  0.000000  0.168689  0.002238  1
  Co  Co15  1  0.000000  0.832614  0.001745  1
  Co  Co16  1  0.500000  0.296369  0.431209  1
  Co  Co17  1  0.500000  0.702982  0.433424  1
  Co  Co18  1  0.000000  0.204084  0.569020  1
  Co  Co19  1  0.000000  0.796001  0.570688  1
  Co  Co20  1  0.500000  0.878370  0.707845  1
  Co  Co21  1  0.500000  0.121576  0.707194  1
  Co  Co22  1  0.000000  0.619477  0.294820  1
  Co  Co23  1  0.000000  0.378043  0.292413  1
  P  P24  1  0.500000  0.499211  0.886000  1
  P  P25  1  0.000000  0.002549  0.111652  1
  P  P26  1  0.500000  0.499940  0.351726  1
  P  P27  1  0.000000  0.000078  0.648697  1
  P  P28  1  0.500000  0.305642  0.616001  1
  P  P29  1  0.500000  0.693659  0.617404  1
  P  P30  1  0.000000  0.194787  0.384039  1
  P  P31  1  0.000000  0.804249  0.387615  1
  P  P32  1  0.500000  0.839217  0.894119  1
  P  P33  1  0.500000  0.161453  0.893502  1
  P  P34  1  0.000000  0.659046  0.102819  1
  P  P35  1  0.000000  0.339279  0.105412  1
