# generated using pymatgen
data_Tb19Y(SnBi)8
_symmetry_space_group_name_H-M   'P 1'
_cell_length_a   8.20878800
_cell_length_b   8.24671900
_cell_length_c   15.69730500
_cell_angle_alpha   90.00000000
_cell_angle_beta   90.00000000
_cell_angle_gamma   90.00245819
_symmetry_Int_Tables_number   1
_chemical_formula_structural   Tb19Y(SnBi)8
_chemical_formula_sum   'Tb19 Y1 Sn8 Bi8'
_cell_volume   1062.63797703
_cell_formula_units_Z   1
loop_
 _symmetry_equiv_pos_site_id
 _symmetry_equiv_pos_as_xyz
  1  'x, y, z'
loop_
 _atom_site_type_symbol
 _atom_site_label
 _atom_site_symmetry_multiplicity
 _atom_site_fract_x
 _atom_site_fract_y
 _atom_site_fract_z
 _atom_site_occupancy
  Tb  Tb0  1  0.386309  0.838241  0.876621  1
  Tb  Tb1  1  0.886224  0.661791  0.623360  1
  Tb  Tb2  1  0.613714  0.161804  0.376596  1
  Tb  Tb3  1  0.113639  0.338158  0.123401  1
  Tb  Tb4  1  0.613714  0.161804  0.123404  1
  Tb  Tb5  1  0.113639  0.338158  0.376599  1
  Tb  Tb6  1  0.386309  0.838241  0.623379  1
  Tb  Tb7  1  0.886224  0.661791  0.876640  1
  Tb  Tb8  1  0.552965  0.328013  0.889848  1
  Tb  Tb9  1  0.052868  0.171933  0.610151  1
  Tb  Tb10  1  0.447164  0.672037  0.389797  1
  Tb  Tb11  1  0.947081  0.828008  0.110181  1
  Tb  Tb12  1  0.447164  0.672037  0.110203  1
  Tb  Tb13  1  0.947081  0.828008  0.389819  1
  Tb  Tb14  1  0.552965  0.328013  0.610152  1
  Tb  Tb15  1  0.052868  0.171933  0.889849  1
  Tb  Tb16  1  0.717559  0.001929  0.750000  1
  Tb  Tb17  1  0.782492  0.501949  0.250000  1
  Tb  Tb18  1  0.282465  0.998021  0.250000  1
  Y  Y19  1  0.217688  0.498073  0.750000  1
  Sn  Sn20  1  0.582785  0.626152  0.750000  1
  Sn  Sn21  1  0.082887  0.873800  0.750000  1
  Sn  Sn22  1  0.417071  0.373868  0.250000  1
  Sn  Sn23  1  0.917097  0.126153  0.250000  1
  Sn  Sn24  1  0.356235  0.143801  0.750000  1
  Sn  Sn25  1  0.856329  0.356297  0.750000  1
  Sn  Sn26  1  0.643782  0.856323  0.250000  1
  Sn  Sn27  1  0.143813  0.643644  0.250000  1
  Bi  Bi28  1  0.270444  0.020784  0.044230  1
  Bi  Bi29  1  0.770388  0.479206  0.455766  1
  Bi  Bi30  1  0.729581  0.979219  0.544261  1
  Bi  Bi31  1  0.229521  0.520799  0.955651  1
  Bi  Bi32  1  0.729581  0.979219  0.955739  1
  Bi  Bi33  1  0.229521  0.520799  0.544349  1
  Bi  Bi34  1  0.270444  0.020784  0.455770  1
  Bi  Bi35  1  0.770388  0.479206  0.044234  1
