# generated using pymatgen
data_Ba2SmSc3O8
_symmetry_space_group_name_H-M   'P 1'
_cell_length_a   4.09777700
_cell_length_b   24.81498000
_cell_length_c   4.09783100
_cell_angle_alpha   90.00006555
_cell_angle_beta   89.99946868
_cell_angle_gamma   89.99997011
_symmetry_Int_Tables_number   1
_chemical_formula_structural   Ba2SmSc3O8
_chemical_formula_sum   'Ba4 Sm2 Sc6 O16'
_cell_volume   416.69308513
_cell_formula_units_Z   2
loop_
 _symmetry_equiv_pos_site_id
 _symmetry_equiv_pos_as_xyz
  1  'x, y, z'
loop_
 _atom_site_type_symbol
 _atom_site_label
 _atom_site_symmetry_multiplicity
 _atom_site_fract_x
 _atom_site_fract_y
 _atom_site_fract_z
 _atom_site_occupancy
  Ba  Ba0  1  0.500006  0.077671  0.500017  1
  Ba  Ba1  1  0.499985  0.577675  0.499992  1
  Ba  Ba2  1  0.499987  0.422331  0.499993  1
  Ba  Ba3  1  0.500008  0.922328  0.500020  1
  Sm  Sm4  1  0.500007  0.249999  0.499989  1
  Sm  Sm5  1  0.500000  0.749999  0.499999  1
  Sc  Sc6  1  0.000003  0.500002  0.999990  1
  Sc  Sc7  1  0.000004  0.669342  0.000000  1
  Sc  Sc8  1  0.000003  0.330660  0.999988  1
  Sc  Sc9  1  0.000006  0.999997  0.000007  1
  Sc  Sc10  1  0.000003  0.169340  0.999998  1
  Sc  Sc11  1  0.000003  0.830658  0.000005  1
  O  O12  1  0.000006  0.999998  0.500026  1
  O  O13  1  0.999983  0.500003  0.499990  1
  O  O14  1  0.500006  0.999998  0.000025  1
  O  O15  1  0.499982  0.500004  0.999993  1
  O  O16  1  0.000006  0.090888  0.000009  1
  O  O17  1  0.999990  0.590890  0.999994  1
  O  O18  1  0.999994  0.409113  0.999988  1
  O  O19  1  0.000004  0.909110  0.000014  1
  O  O20  1  0.500005  0.192373  0.999991  1
  O  O21  1  0.499999  0.692374  0.000001  1
  O  O22  1  0.000004  0.192374  0.499994  1
  O  O23  1  0.999999  0.692374  0.500001  1
  O  O24  1  0.500004  0.307625  0.999991  1
  O  O25  1  0.500001  0.807623  0.999997  1
  O  O26  1  0.000006  0.307625  0.499990  1
  O  O27  1  0.999997  0.807623  0.499999  1
