# generated using pymatgen
data_Li2LaSmSi2Sn
_symmetry_space_group_name_H-M   'P 1'
_cell_length_a   9.80645228
_cell_length_b   9.80645225
_cell_length_c   6.92277300
_cell_angle_alpha   90.00000000
_cell_angle_beta   90.00000000
_cell_angle_gamma   153.15972666
_symmetry_Int_Tables_number   1
_chemical_formula_structural   Li2LaSmSi2Sn
_chemical_formula_sum   'Li4 La2 Sm2 Si4 Sn2'
_cell_volume   300.58432480
_cell_formula_units_Z   2
loop_
 _symmetry_equiv_pos_site_id
 _symmetry_equiv_pos_as_xyz
  1  'x, y, z'
loop_
 _atom_site_type_symbol
 _atom_site_label
 _atom_site_symmetry_multiplicity
 _atom_site_fract_x
 _atom_site_fract_y
 _atom_site_fract_z
 _atom_site_occupancy
  Li  Li0  1  0.815404  0.184596  0.553873  1
  Li  Li1  1  0.184596  0.815404  0.446127  1
  Li  Li2  1  0.184596  0.815404  0.053873  1
  Li  Li3  1  0.815404  0.184596  0.946127  1
  La  La4  1  0.549044  0.450956  0.250000  1
  La  La5  1  0.450956  0.549044  0.750000  1
  Sm  Sm6  1  0.350593  0.649407  0.250000  1
  Sm  Sm7  1  0.649407  0.350593  0.750000  1
  Si  Si8  1  0.942758  0.057242  0.076002  1
  Si  Si9  1  0.057242  0.942758  0.923998  1
  Si  Si10  1  0.057242  0.942758  0.576002  1
  Si  Si11  1  0.942758  0.057242  0.423998  1
  Sn  Sn12  1  0.720634  0.279366  0.250000  1
  Sn  Sn13  1  0.279366  0.720634  0.750000  1
