# generated using pymatgen
data_CsPr2(PN2)6
_symmetry_space_group_name_H-M   'P 1'
_cell_length_a   10.01648600
_cell_length_b   10.01648600
_cell_length_c   10.01648600
_cell_angle_alpha   90.00000000
_cell_angle_beta   90.00000000
_cell_angle_gamma   90.00000000
_symmetry_Int_Tables_number   1
_chemical_formula_structural   CsPr2(PN2)6
_chemical_formula_sum   'Cs4 Pr8 P24 N48'
_cell_volume   1004.95395813
_cell_formula_units_Z   4
loop_
 _symmetry_equiv_pos_site_id
 _symmetry_equiv_pos_as_xyz
  1  'x, y, z'
loop_
 _atom_site_type_symbol
 _atom_site_label
 _atom_site_symmetry_multiplicity
 _atom_site_fract_x
 _atom_site_fract_y
 _atom_site_fract_z
 _atom_site_occupancy
  Cs  Cs0  1  0.000000  0.500000  0.500000  1
  Cs  Cs1  1  0.500000  0.500000  0.000000  1
  Cs  Cs2  1  0.500000  0.000000  0.500000  1
  Cs  Cs3  1  0.000000  0.000000  0.000000  1
  Pr  Pr4  1  0.374217  0.125783  0.874217  1
  Pr  Pr5  1  0.125783  0.874217  0.374217  1
  Pr  Pr6  1  0.874217  0.374217  0.125783  1
  Pr  Pr7  1  0.625783  0.625783  0.625783  1
  Pr  Pr8  1  0.625783  0.874217  0.125783  1
  Pr  Pr9  1  0.874217  0.125783  0.625783  1
  Pr  Pr10  1  0.125783  0.625783  0.874217  1
  Pr  Pr11  1  0.374217  0.374217  0.374217  1
  P  P12  1  0.688393  0.341963  0.387026  1
  P  P13  1  0.188393  0.158037  0.612974  1
  P  P14  1  0.311607  0.841963  0.112974  1
  P  P15  1  0.158037  0.612974  0.188393  1
  P  P16  1  0.112974  0.311607  0.841963  1
  P  P17  1  0.612974  0.188393  0.158037  1
  P  P18  1  0.341963  0.387026  0.688393  1
  P  P19  1  0.387026  0.688393  0.341963  1
  P  P20  1  0.841963  0.112974  0.311607  1
  P  P21  1  0.658037  0.887026  0.811607  1
  P  P22  1  0.887026  0.811607  0.658037  1
  P  P23  1  0.811607  0.658037  0.887026  1
  P  P24  1  0.311607  0.658037  0.612974  1
  P  P25  1  0.811607  0.841963  0.387026  1
  P  P26  1  0.688393  0.158037  0.887026  1
  P  P27  1  0.841963  0.387026  0.811607  1
  P  P28  1  0.887026  0.688393  0.158037  1
  P  P29  1  0.387026  0.811607  0.841963  1
  P  P30  1  0.658037  0.612974  0.311607  1
  P  P31  1  0.612974  0.311607  0.658037  1
  P  P32  1  0.158037  0.887026  0.688393  1
  P  P33  1  0.341963  0.112974  0.188393  1
  P  P34  1  0.112974  0.188393  0.341963  1
  P  P35  1  0.188393  0.341963  0.112974  1
  N  N36  1  0.714251  0.501165  0.414113  1
  N  N37  1  0.214251  0.998835  0.585887  1
  N  N38  1  0.285749  0.001165  0.085887  1
  N  N39  1  0.998835  0.585887  0.214251  1
  N  N40  1  0.085887  0.285749  0.001165  1
  N  N41  1  0.585887  0.214251  0.998835  1
  N  N42  1  0.501165  0.414113  0.714251  1
  N  N43  1  0.414113  0.714251  0.501165  1
  N  N44  1  0.001165  0.085887  0.285749  1
  N  N45  1  0.498835  0.914113  0.785749  1
  N  N46  1  0.914113  0.785749  0.498835  1
  N  N47  1  0.785749  0.498835  0.914113  1
  N  N48  1  0.285749  0.498835  0.585887  1
  N  N49  1  0.785749  0.001165  0.414113  1
  N  N50  1  0.714251  0.998835  0.914113  1
  N  N51  1  0.001165  0.414113  0.785749  1
  N  N52  1  0.914113  0.714251  0.998835  1
  N  N53  1  0.414113  0.785749  0.001165  1
  N  N54  1  0.498835  0.585887  0.285749  1
  N  N55  1  0.585887  0.285749  0.498835  1
  N  N56  1  0.170108  0.740162  0.615277  1
  N  N57  1  0.998835  0.914113  0.714251  1
  N  N58  1  0.085887  0.214251  0.501165  1
  N  N59  1  0.214251  0.501165  0.085887  1
  N  N60  1  0.829892  0.259838  0.384723  1
  N  N61  1  0.329892  0.240162  0.615277  1
  N  N62  1  0.170108  0.759838  0.115277  1
  N  N63  1  0.240162  0.615277  0.329892  1
  N  N64  1  0.115277  0.170108  0.759838  1
  N  N65  1  0.615277  0.329892  0.240162  1
  N  N66  1  0.259838  0.384723  0.829892  1
  N  N67  1  0.384723  0.829892  0.259838  1
  N  N68  1  0.759838  0.115277  0.170108  1
  N  N69  1  0.740162  0.884723  0.670108  1
  N  N70  1  0.884723  0.670108  0.740162  1
  N  N71  1  0.670108  0.740162  0.884723  1
  N  N72  1  0.329892  0.259838  0.115277  1
  N  N73  1  0.115277  0.329892  0.259838  1
  N  N74  1  0.259838  0.115277  0.329892  1
  N  N75  1  0.240162  0.884723  0.829892  1
  N  N76  1  0.615277  0.170108  0.740162  1
  N  N77  1  0.740162  0.615277  0.170108  1
  N  N78  1  0.384723  0.670108  0.759838  1
  N  N79  1  0.884723  0.829892  0.240162  1
  N  N80  1  0.759838  0.384723  0.670108  1
  N  N81  1  0.829892  0.240162  0.884723  1
  N  N82  1  0.670108  0.759838  0.384723  1
  N  N83  1  0.501165  0.085887  0.214251  1
