# generated using pymatgen
data_Rb3NbSO3
_symmetry_space_group_name_H-M   'P 1'
_cell_length_a   6.39965300
_cell_length_b   7.11076567
_cell_length_c   9.41362391
_cell_angle_alpha   77.62418524
_cell_angle_beta   90.00000000
_cell_angle_gamma   90.00000000
_symmetry_Int_Tables_number   1
_chemical_formula_structural   Rb3NbSO3
_chemical_formula_sum   'Rb6 Nb2 S2 O6'
_cell_volume   418.42609684
_cell_formula_units_Z   2
loop_
 _symmetry_equiv_pos_site_id
 _symmetry_equiv_pos_as_xyz
  1  'x, y, z'
loop_
 _atom_site_type_symbol
 _atom_site_label
 _atom_site_symmetry_multiplicity
 _atom_site_fract_x
 _atom_site_fract_y
 _atom_site_fract_z
 _atom_site_occupancy
  Rb  Rb0  1  0.750000  0.690041  0.467260  1
  Rb  Rb1  1  0.250000  0.245714  0.003379  1
  Rb  Rb2  1  0.250000  0.309959  0.532740  1
  Rb  Rb3  1  0.750000  0.754286  0.996621  1
  Rb  Rb4  1  0.250000  0.778106  0.721412  1
  Rb  Rb5  1  0.750000  0.221894  0.278588  1
  Nb  Nb6  1  0.750000  0.299426  0.789216  1
  Nb  Nb7  1  0.250000  0.700574  0.210784  1
  S  S8  1  0.750000  0.055203  0.650858  1
  S  S9  1  0.250000  0.944797  0.349142  1
  O  O10  1  0.250000  0.810017  0.012868  1
  O  O11  1  0.750000  0.189983  0.987132  1
  O  O12  1  0.985021  0.453563  0.741716  1
  O  O13  1  0.014979  0.546437  0.258284  1
  O  O14  1  0.514979  0.453563  0.741716  1
  O  O15  1  0.485021  0.546437  0.258284  1
