# generated using pymatgen
data_Tb9Ho2Zn4In9
_symmetry_space_group_name_H-M   'P 1'
_cell_length_a   3.77675800
_cell_length_b   13.00778798
_cell_length_c   13.00546100
_cell_angle_alpha   112.59434598
_cell_angle_beta   90.00000000
_cell_angle_gamma   90.00000000
_symmetry_Int_Tables_number   1
_chemical_formula_structural   Tb9Ho2Zn4In9
_chemical_formula_sum   'Tb9 Ho2 Zn4 In9'
_cell_volume   589.88424610
_cell_formula_units_Z   1
loop_
 _symmetry_equiv_pos_site_id
 _symmetry_equiv_pos_as_xyz
  1  'x, y, z'
loop_
 _atom_site_type_symbol
 _atom_site_label
 _atom_site_symmetry_multiplicity
 _atom_site_fract_x
 _atom_site_fract_y
 _atom_site_fract_z
 _atom_site_occupancy
  Tb  Tb0  1  0.000000  0.583175  0.931404  1
  Tb  Tb1  1  0.000000  0.416825  0.068596  1
  Tb  Tb2  1  0.000000  0.160297  0.838886  1
  Tb  Tb3  1  0.000000  0.839703  0.161114  1
  Tb  Tb4  1  0.000000  0.365690  0.633297  1
  Tb  Tb5  1  0.000000  0.634310  0.366703  1
  Tb  Tb6  1  0.000000  0.701174  0.700771  1
  Tb  Tb7  1  0.000000  0.298826  0.299229  1
  Tb  Tb8  1  0.000000  0.000000  0.000000  1
  Ho  Ho9  1  0.000000  0.931031  0.583256  1
  Ho  Ho10  1  0.000000  0.068969  0.416744  1
  Zn  Zn11  1  0.500000  0.749391  0.550819  1
  Zn  Zn12  1  0.500000  0.250609  0.449181  1
  Zn  Zn13  1  0.500000  0.550342  0.747778  1
  Zn  Zn14  1  0.500000  0.449658  0.252222  1
  In  In15  1  0.500000  0.154060  0.631792  1
  In  In16  1  0.500000  0.845940  0.368208  1
  In  In17  1  0.500000  0.633537  0.156139  1
  In  In18  1  0.500000  0.366463  0.843861  1
  In  In19  1  0.500000  0.930472  0.781557  1
  In  In20  1  0.500000  0.069528  0.218443  1
  In  In21  1  0.500000  0.782450  0.930124  1
  In  In22  1  0.500000  0.217550  0.069876  1
  In  In23  1  0.500000  0.500000  0.500000  1
