# generated using pymatgen
data_Ta3BeB2Ru3
_symmetry_space_group_name_H-M   'P 1'
_cell_length_a   3.18341800
_cell_length_b   9.02606800
_cell_length_c   15.69033400
_cell_angle_alpha   90.00000000
_cell_angle_beta   90.00000000
_cell_angle_gamma   90.00000000
_symmetry_Int_Tables_number   1
_chemical_formula_structural   Ta3BeB2Ru3
_chemical_formula_sum   'Ta12 Be4 B8 Ru12'
_cell_volume   450.84209284
_cell_formula_units_Z   4
loop_
 _symmetry_equiv_pos_site_id
 _symmetry_equiv_pos_as_xyz
  1  'x, y, z'
loop_
 _atom_site_type_symbol
 _atom_site_label
 _atom_site_symmetry_multiplicity
 _atom_site_fract_x
 _atom_site_fract_y
 _atom_site_fract_z
 _atom_site_occupancy
  Ta  Ta0  1  0.000000  0.801341  0.495067  1
  Ta  Ta1  1  0.000000  0.198659  0.504933  1
  Ta  Ta2  1  0.000000  0.301341  0.004933  1
  Ta  Ta3  1  0.000000  0.698659  0.995067  1
  Ta  Ta4  1  0.000000  0.514607  0.594883  1
  Ta  Ta5  1  0.000000  0.485393  0.405117  1
  Ta  Ta6  1  0.000000  0.014607  0.905117  1
  Ta  Ta7  1  0.000000  0.985393  0.094883  1
  Ta  Ta8  1  0.000000  0.685006  0.203879  1
  Ta  Ta9  1  0.000000  0.314994  0.796121  1
  Ta  Ta10  1  0.000000  0.185006  0.296121  1
  Ta  Ta11  1  0.000000  0.814994  0.703879  1
  Be  Be12  1  0.000000  0.609948  0.832283  1
  Be  Be13  1  0.000000  0.390052  0.167717  1
  Be  Be14  1  0.000000  0.109948  0.667717  1
  Be  Be15  1  0.000000  0.890052  0.332283  1
  B  B16  1  0.500000  0.604723  0.496457  1
  B  B17  1  0.500000  0.395277  0.503543  1
  B  B18  1  0.500000  0.104723  0.003543  1
  B  B19  1  0.500000  0.895277  0.996457  1
  B  B20  1  0.500000  0.714173  0.599242  1
  B  B21  1  0.500000  0.285827  0.400758  1
  B  B22  1  0.500000  0.214173  0.900758  1
  B  B23  1  0.500000  0.785827  0.099242  1
  Ru  Ru24  1  0.500000  0.713809  0.357988  1
  Ru  Ru25  1  0.500000  0.286191  0.642012  1
  Ru  Ru26  1  0.500000  0.213809  0.142012  1
  Ru  Ru27  1  0.500000  0.786191  0.857988  1
  Ru  Ru28  1  0.500000  0.522041  0.093640  1
  Ru  Ru29  1  0.500000  0.477959  0.906360  1
  Ru  Ru30  1  0.500000  0.022041  0.406360  1
  Ru  Ru31  1  0.500000  0.977959  0.593640  1
  Ru  Ru32  1  0.500000  0.566822  0.730587  1
  Ru  Ru33  1  0.500000  0.433178  0.269413  1
  Ru  Ru34  1  0.500000  0.066822  0.769413  1
  Ru  Ru35  1  0.500000  0.933178  0.230587  1
