# generated using pymatgen
data_Tb3Lu9In2CoTc2
_symmetry_space_group_name_H-M   'P 1'
_cell_length_a   8.28349549
_cell_length_b   8.29058937
_cell_length_c   8.30850504
_cell_angle_alpha   108.79736353
_cell_angle_beta   108.76237758
_cell_angle_gamma   110.76074190
_symmetry_Int_Tables_number   1
_chemical_formula_structural   Tb3Lu9In2CoTc2
_chemical_formula_sum   'Tb3 Lu9 In2 Co1 Tc2'
_cell_volume   439.61031583
_cell_formula_units_Z   1
loop_
 _symmetry_equiv_pos_site_id
 _symmetry_equiv_pos_as_xyz
  1  'x, y, z'
loop_
 _atom_site_type_symbol
 _atom_site_label
 _atom_site_symmetry_multiplicity
 _atom_site_fract_x
 _atom_site_fract_y
 _atom_site_fract_z
 _atom_site_occupancy
  Tb  Tb0  1  0.299012  0.300811  0.607764  1
  Tb  Tb1  1  0.691248  0.693047  0.392236  1
  Tb  Tb2  1  0.692437  0.300272  0.000000  1
  Lu  Lu3  1  0.301863  0.690999  0.000000  1
  Lu  Lu4  1  0.189030  0.428615  0.237445  1
  Lu  Lu5  1  0.809748  0.571687  0.763872  1
  Lu  Lu6  1  0.189067  0.948808  0.761659  1
  Lu  Lu7  1  0.951584  0.191170  0.762555  1
  Lu  Lu8  1  0.805883  0.043412  0.235807  1
  Lu  Lu9  1  0.045877  0.807815  0.236128  1
  Lu  Lu10  1  0.427408  0.187150  0.238341  1
  Lu  Lu11  1  0.570078  0.807606  0.764193  1
  In  In12  1  0.998269  0.497587  0.500213  1
  In  In13  1  0.498056  0.997374  0.499787  1
  Co  Co14  1  0.640982  0.642886  0.000000  1
  Tc  Tc15  1  0.388706  0.390138  0.000000  1
  Tc  Tc16  1  0.000753  0.000622  0.000000  1
