# generated using pymatgen
data_TbDy3(Lu3Sn4)2
_symmetry_space_group_name_H-M   'P 1'
_cell_length_a   7.94937700
_cell_length_b   8.08010802
_cell_length_c   15.26336004
_cell_angle_alpha   89.99126253
_cell_angle_beta   90.00000000
_cell_angle_gamma   90.00000000
_symmetry_Int_Tables_number   1
_chemical_formula_structural   TbDy3(Lu3Sn4)2
_chemical_formula_sum   'Tb2 Dy6 Lu12 Sn16'
_cell_volume   980.39345804
_cell_formula_units_Z   2
loop_
 _symmetry_equiv_pos_site_id
 _symmetry_equiv_pos_as_xyz
  1  'x, y, z'
loop_
 _atom_site_type_symbol
 _atom_site_label
 _atom_site_symmetry_multiplicity
 _atom_site_fract_x
 _atom_site_fract_y
 _atom_site_fract_z
 _atom_site_occupancy
  Tb  Tb0  1  0.521888  0.320365  0.902886  1
  Tb  Tb1  1  0.021888  0.179635  0.597114  1
  Dy  Dy2  1  0.478090  0.679654  0.402852  1
  Dy  Dy3  1  0.978090  0.820346  0.097148  1
  Dy  Dy4  1  0.478093  0.679656  0.097167  1
  Dy  Dy5  1  0.978093  0.820344  0.402833  1
  Dy  Dy6  1  0.521930  0.320366  0.597172  1
  Dy  Dy7  1  0.021930  0.179634  0.902828  1
  Lu  Lu8  1  0.367510  0.836129  0.877403  1
  Lu  Lu9  1  0.867510  0.663871  0.622597  1
  Lu  Lu10  1  0.632492  0.163831  0.377399  1
  Lu  Lu11  1  0.132492  0.336169  0.122601  1
  Lu  Lu12  1  0.632510  0.163818  0.122629  1
  Lu  Lu13  1  0.132510  0.336182  0.377371  1
  Lu  Lu14  1  0.367524  0.836118  0.622585  1
  Lu  Lu15  1  0.867524  0.663882  0.877415  1
  Lu  Lu16  1  0.197538  0.504634  0.749991  1
  Lu  Lu17  1  0.697538  0.995366  0.750009  1
  Lu  Lu18  1  0.802452  0.495448  0.249992  1
  Lu  Lu19  1  0.302452  0.004552  0.250008  1
  Sn  Sn20  1  0.294192  0.036864  0.041691  1
  Sn  Sn21  1  0.794192  0.463136  0.458309  1
  Sn  Sn22  1  0.705624  0.963016  0.541654  1
  Sn  Sn23  1  0.205624  0.536984  0.958346  1
  Sn  Sn24  1  0.705866  0.963036  0.958324  1
  Sn  Sn25  1  0.205866  0.536964  0.541676  1
  Sn  Sn26  1  0.294328  0.036820  0.458248  1
  Sn  Sn27  1  0.794328  0.463180  0.041752  1
  Sn  Sn28  1  0.564038  0.621396  0.749986  1
  Sn  Sn29  1  0.064038  0.878604  0.750014  1
  Sn  Sn30  1  0.435972  0.378672  0.250005  1
  Sn  Sn31  1  0.935972  0.121328  0.249995  1
  Sn  Sn32  1  0.330529  0.147266  0.749948  1
  Sn  Sn33  1  0.830529  0.352734  0.750052  1
  Sn  Sn34  1  0.669424  0.852616  0.249999  1
  Sn  Sn35  1  0.169424  0.647384  0.250001  1
