# generated using pymatgen
data_Sc12Cd(RuI8)2
_symmetry_space_group_name_H-M   'P 1'
_cell_length_a   9.15955123
_cell_length_b   12.24546813
_cell_length_c   12.93045047
_cell_angle_alpha   117.25892309
_cell_angle_beta   100.97062135
_cell_angle_gamma   100.37708213
_symmetry_Int_Tables_number   1
_chemical_formula_structural   Sc12Cd(RuI8)2
_chemical_formula_sum   'Sc12 Cd1 Ru2 I16'
_cell_volume   1204.86675439
_cell_formula_units_Z   1
loop_
 _symmetry_equiv_pos_site_id
 _symmetry_equiv_pos_as_xyz
  1  'x, y, z'
loop_
 _atom_site_type_symbol
 _atom_site_label
 _atom_site_symmetry_multiplicity
 _atom_site_fract_x
 _atom_site_fract_y
 _atom_site_fract_z
 _atom_site_occupancy
  Sc  Sc0  1  0.104237  0.266707  0.357180  1
  Sc  Sc1  1  0.895763  0.733293  0.642820  1
  Sc  Sc2  1  0.762949  0.536588  0.326905  1
  Sc  Sc3  1  0.237051  0.463412  0.673095  1
  Sc  Sc4  1  0.294029  0.733972  0.642893  1
  Sc  Sc5  1  0.705971  0.266028  0.357107  1
  Sc  Sc6  1  0.161234  0.536869  0.327359  1
  Sc  Sc7  1  0.838766  0.463131  0.672641  1
  Sc  Sc8  1  0.412076  0.368748  0.289492  1
  Sc  Sc9  1  0.587924  0.631252  0.710508  1
  Sc  Sc10  1  0.461730  0.320403  0.519952  1
  Sc  Sc11  1  0.538270  0.679597  0.480048  1
  Cd  Cd12  1  0.000000  0.500000  0.500000  1
  Ru  Ru13  1  0.336568  0.500153  0.499810  1
  Ru  Ru14  1  0.663433  0.499847  0.500190  1
  I  I15  1  0.391031  0.735747  0.877104  1
  I  I16  1  0.608969  0.264253  0.122896  1
  I  I17  1  0.183296  0.953420  0.775881  1
  I  I18  1  0.816704  0.046580  0.224119  1
  I  I19  1  0.340601  0.103406  0.256700  1
  I  I20  1  0.659399  0.896594  0.743300  1
  I  I21  1  0.560169  0.438447  0.794125  1
  I  I22  1  0.439831  0.561553  0.205875  1
  I  I23  1  0.304421  0.822436  0.462998  1
  I  I24  1  0.695579  0.177564  0.537002  1
  I  I25  1  0.166930  0.177138  0.534995  1
  I  I26  1  0.833070  0.822862  0.465005  1
  I  I27  1  0.927214  0.573569  0.166636  1
  I  I28  1  0.072786  0.426431  0.833364  1
  I  I29  1  0.923419  0.734328  0.876972  1
  I  I30  1  0.076581  0.265672  0.123028  1
