# generated using pymatgen
data_CsNa3SnO4
_symmetry_space_group_name_H-M   'P 1'
_cell_length_a   12.01501002
_cell_length_b   8.75669962
_cell_length_c   6.77838684
_cell_angle_alpha   100.41070583
_cell_angle_beta   109.54677895
_cell_angle_gamma   91.07919416
_symmetry_Int_Tables_number   1
_chemical_formula_structural   CsNa3SnO4
_chemical_formula_sum   'Cs4 Na12 Sn4 O16'
_cell_volume   658.57865583
_cell_formula_units_Z   4
loop_
 _symmetry_equiv_pos_site_id
 _symmetry_equiv_pos_as_xyz
  1  'x, y, z'
loop_
 _atom_site_type_symbol
 _atom_site_label
 _atom_site_symmetry_multiplicity
 _atom_site_fract_x
 _atom_site_fract_y
 _atom_site_fract_z
 _atom_site_occupancy
  Cs  Cs0  1  0.121084  0.382719  0.111919  1
  Cs  Cs1  1  0.373842  0.139634  0.334596  1
  Cs  Cs2  1  0.626158  0.860366  0.665404  1
  Cs  Cs3  1  0.878916  0.617281  0.888081  1
  Na  Na4  1  0.893817  0.053414  0.082512  1
  Na  Na5  1  0.612321  0.671792  0.091120  1
  Na  Na6  1  0.624236  0.043440  0.196161  1
  Na  Na7  1  0.874016  0.428633  0.332884  1
  Na  Na8  1  0.145387  0.825141  0.345730  1
  Na  Na9  1  0.603229  0.446947  0.413952  1
  Na  Na10  1  0.396771  0.553053  0.586048  1
  Na  Na11  1  0.854612  0.174860  0.654269  1
  Na  Na12  1  0.125984  0.571367  0.667116  1
  Na  Na13  1  0.375765  0.956561  0.803839  1
  Na  Na14  1  0.387679  0.328208  0.908881  1
  Na  Na15  1  0.106183  0.946586  0.917489  1
  Sn  Sn16  1  0.352951  0.710355  0.185245  1
  Sn  Sn17  1  0.865368  0.791071  0.428597  1
  Sn  Sn18  1  0.134633  0.208929  0.571403  1
  Sn  Sn19  1  0.647048  0.289646  0.814753  1
  O  O20  1  0.182543  0.713371  0.010037  1
  O  O21  1  0.461334  0.835930  0.096160  1
  O  O22  1  0.778372  0.886930  0.180404  1
  O  O23  1  0.410378  0.500647  0.220303  1
  O  O24  1  0.094918  0.070655  0.284220  1
  O  O25  1  0.000514  0.674661  0.391329  1
  O  O26  1  0.747623  0.618089  0.410277  1
  O  O27  1  0.354559  0.800427  0.480782  1
  O  O28  1  0.645440  0.199572  0.519217  1
  O  O29  1  0.252377  0.381911  0.589723  1
  O  O30  1  0.999485  0.325338  0.608670  1
  O  O31  1  0.905082  0.929344  0.715779  1
  O  O32  1  0.589622  0.499353  0.779698  1
  O  O33  1  0.221628  0.113071  0.819597  1
  O  O34  1  0.538667  0.164070  0.903840  1
  O  O35  1  0.817457  0.286628  0.989963  1
