# generated using pymatgen
data_K8Hf5ZrBeI20
_symmetry_space_group_name_H-M   'P 1'
_cell_length_a   12.55525309
_cell_length_b   12.55525320
_cell_length_c   12.55825200
_cell_angle_alpha   59.99209864
_cell_angle_beta   59.99209835
_cell_angle_gamma   60.01580325
_symmetry_Int_Tables_number   1
_chemical_formula_structural   K8Hf5ZrBeI20
_chemical_formula_sum   'K8 Hf5 Zr1 Be1 I20'
_cell_volume   1399.79711475
_cell_formula_units_Z   1
loop_
 _symmetry_equiv_pos_site_id
 _symmetry_equiv_pos_as_xyz
  1  'x, y, z'
loop_
 _atom_site_type_symbol
 _atom_site_label
 _atom_site_symmetry_multiplicity
 _atom_site_fract_x
 _atom_site_fract_y
 _atom_site_fract_z
 _atom_site_occupancy
  K  K0  1  0.361551  0.361551  0.361544  1
  K  K1  1  0.638502  0.638502  0.638204  1
  K  K2  1  0.361551  0.361551  0.915354  1
  K  K3  1  0.361796  0.915209  0.361498  1
  K  K4  1  0.638502  0.638502  0.084791  1
  K  K5  1  0.638456  0.084646  0.638449  1
  K  K6  1  0.915209  0.361796  0.361498  1
  K  K7  1  0.084646  0.638456  0.638449  1
  Hf  Hf8  1  0.864872  0.134866  0.135128  1
  Hf  Hf9  1  0.134866  0.864872  0.865134  1
  Hf  Hf10  1  0.134866  0.864872  0.135128  1
  Hf  Hf11  1  0.864872  0.134866  0.865134  1
  Hf  Hf12  1  0.135083  0.135083  0.864917  1
  Zr  Zr13  1  0.864050  0.864050  0.135950  1
  Be  Be14  1  0.000558  0.000558  0.999442  1
  I  I15  1  0.325032  0.000004  0.999996  1
  I  I16  1  0.673897  0.001617  0.998383  1
  I  I17  1  0.000004  0.325032  0.674968  1
  I  I18  1  0.001617  0.673897  0.326103  1
  I  I19  1  0.000004  0.325032  0.999996  1
  I  I20  1  0.673897  0.001617  0.326103  1
  I  I21  1  0.001617  0.673897  0.998383  1
  I  I22  1  0.325032  0.000004  0.674968  1
  I  I23  1  0.000049  0.000049  0.324958  1
  I  I24  1  0.000049  0.000049  0.674944  1
  I  I25  1  0.675042  0.325056  0.999951  1
  I  I26  1  0.325056  0.675042  0.999951  1
  I  I27  1  0.684984  0.315266  0.315016  1
  I  I28  1  0.315266  0.684984  0.684734  1
  I  I29  1  0.315266  0.684984  0.315016  1
  I  I30  1  0.684984  0.315266  0.684734  1
  I  I31  1  0.315085  0.315085  0.684915  1
  I  I32  1  0.683790  0.683790  0.316210  1
  I  I33  1  0.249974  0.249974  0.250026  1
  I  I34  1  0.749974  0.749974  0.750026  1
