# generated using pymatgen
data_CaTbEr2(SiPd)4
_symmetry_space_group_name_H-M   'P 1'
_cell_length_a   4.33754300
_cell_length_b   7.46092800
_cell_length_c   14.04137300
_cell_angle_alpha   90.00000000
_cell_angle_beta   90.00000000
_cell_angle_gamma   90.00000000
_symmetry_Int_Tables_number   1
_chemical_formula_structural   CaTbEr2(SiPd)4
_chemical_formula_sum   'Ca2 Tb2 Er4 Si8 Pd8'
_cell_volume   454.40826128
_cell_formula_units_Z   2
loop_
 _symmetry_equiv_pos_site_id
 _symmetry_equiv_pos_as_xyz
  1  'x, y, z'
loop_
 _atom_site_type_symbol
 _atom_site_label
 _atom_site_symmetry_multiplicity
 _atom_site_fract_x
 _atom_site_fract_y
 _atom_site_fract_z
 _atom_site_occupancy
  Ca  Ca0  1  0.000000  0.290505  0.500000  1
  Ca  Ca1  1  0.500000  0.709495  0.000000  1
  Tb  Tb2  1  0.000000  0.301855  0.000000  1
  Tb  Tb3  1  0.500000  0.698145  0.500000  1
  Er  Er4  1  0.000000  0.207441  0.249648  1
  Er  Er5  1  0.500000  0.792559  0.250352  1
  Er  Er6  1  0.000000  0.207441  0.750352  1
  Er  Er7  1  0.500000  0.792559  0.749648  1
  Si  Si8  1  0.000000  0.907155  0.593717  1
  Si  Si9  1  0.500000  0.092845  0.906283  1
  Si  Si10  1  0.000000  0.907155  0.406283  1
  Si  Si11  1  0.500000  0.092845  0.093717  1
  Si  Si12  1  0.000000  0.589542  0.150551  1
  Si  Si13  1  0.500000  0.410458  0.349449  1
  Si  Si14  1  0.000000  0.589542  0.849449  1
  Si  Si15  1  0.500000  0.410458  0.650551  1
  Pd  Pd16  1  0.500000  0.076290  0.611437  1
  Pd  Pd17  1  0.000000  0.923710  0.888563  1
  Pd  Pd18  1  0.500000  0.076290  0.388563  1
  Pd  Pd19  1  0.000000  0.923710  0.111437  1
  Pd  Pd20  1  0.500000  0.419261  0.157687  1
  Pd  Pd21  1  0.000000  0.580739  0.342313  1
  Pd  Pd22  1  0.500000  0.419261  0.842313  1
  Pd  Pd23  1  0.000000  0.580739  0.657687  1
