# generated using pymatgen
data_PuTcH9
_symmetry_space_group_name_H-M   'P 1'
_cell_length_a   4.78019500
_cell_length_b   4.78019499
_cell_length_c   8.66105800
_cell_angle_alpha   90.00000000
_cell_angle_beta   90.00000000
_cell_angle_gamma   120.00000702
_symmetry_Int_Tables_number   1
_chemical_formula_structural   PuTcH9
_chemical_formula_sum   'Pu2 Tc2 H18'
_cell_volume   171.39287869
_cell_formula_units_Z   2
loop_
 _symmetry_equiv_pos_site_id
 _symmetry_equiv_pos_as_xyz
  1  'x, y, z'
loop_
 _atom_site_type_symbol
 _atom_site_label
 _atom_site_symmetry_multiplicity
 _atom_site_fract_x
 _atom_site_fract_y
 _atom_site_fract_z
 _atom_site_occupancy
  Pu  Pu0  1  0.000000  0.000000  0.000000  1
  Pu  Pu1  1  0.000000  0.000000  0.500000  1
  Tc  Tc2  1  0.333333  0.666667  0.250000  1
  Tc  Tc3  1  0.666667  0.333333  0.750000  1
  H  H4  1  0.479809  0.520191  0.390223  1
  H  H5  1  0.479809  0.959617  0.390223  1
  H  H6  1  0.040383  0.520191  0.390223  1
  H  H7  1  0.959617  0.479809  0.890223  1
  H  H8  1  0.129458  0.258916  0.250000  1
  H  H9  1  0.870542  0.129458  0.750000  1
  H  H10  1  0.258916  0.129458  0.750000  1
  H  H11  1  0.741084  0.870542  0.250000  1
  H  H12  1  0.129458  0.870542  0.250000  1
  H  H13  1  0.870542  0.741084  0.750000  1
  H  H14  1  0.479809  0.959617  0.109777  1
  H  H15  1  0.520191  0.479809  0.609777  1
  H  H16  1  0.959617  0.479809  0.609777  1
  H  H17  1  0.040383  0.520191  0.109777  1
  H  H18  1  0.479809  0.520191  0.109777  1
  H  H19  1  0.520191  0.040383  0.890223  1
  H  H20  1  0.520191  0.479809  0.890223  1
  H  H21  1  0.520191  0.040383  0.609777  1
