# generated using pymatgen
data_Zn22Ir2PdRh
_symmetry_space_group_name_H-M   'P 1'
_cell_length_a   7.93521920
_cell_length_b   7.93428668
_cell_length_c   7.93521997
_cell_angle_alpha   109.47798464
_cell_angle_beta   109.51125510
_cell_angle_gamma   109.47797070
_symmetry_Int_Tables_number   1
_chemical_formula_structural   Zn22Ir2PdRh
_chemical_formula_sum   'Zn22 Ir2 Pd1 Rh1'
_cell_volume   384.34082596
_cell_formula_units_Z   1
loop_
 _symmetry_equiv_pos_site_id
 _symmetry_equiv_pos_as_xyz
  1  'x, y, z'
loop_
 _atom_site_type_symbol
 _atom_site_label
 _atom_site_symmetry_multiplicity
 _atom_site_fract_x
 _atom_site_fract_y
 _atom_site_fract_z
 _atom_site_occupancy
  Zn  Zn0  1  0.999577  0.790177  0.999577  1
  Zn  Zn1  1  0.784623  0.997476  0.999184  1
  Zn  Zn2  1  0.999184  0.997476  0.784623  1
  Zn  Zn3  1  0.214982  0.213074  0.214982  1
  Zn  Zn4  1  0.352192  0.618232  0.352192  1
  Zn  Zn5  1  0.266079  0.000779  0.649591  1
  Zn  Zn6  1  0.649591  0.000779  0.266079  1
  Zn  Zn7  1  0.267755  0.649950  0.999491  1
  Zn  Zn8  1  0.733234  0.734601  0.383948  1
  Zn  Zn9  1  0.383948  0.734601  0.733234  1
  Zn  Zn10  1  0.999491  0.649950  0.267755  1
  Zn  Zn11  1  0.999557  0.266357  0.648748  1
  Zn  Zn12  1  0.648748  0.266357  0.999557  1
  Zn  Zn13  1  0.351042  0.352312  0.616586  1
  Zn  Zn14  1  0.616586  0.352312  0.351042  1
  Zn  Zn15  1  0.731431  0.382249  0.731431  1
  Zn  Zn16  1  0.357097  0.357740  0.001930  1
  Zn  Zn17  1  0.998948  0.639668  0.645393  1
  Zn  Zn18  1  0.001930  0.357740  0.357097  1
  Zn  Zn19  1  0.355317  0.995950  0.355317  1
  Zn  Zn20  1  0.643234  0.999071  0.643234  1
  Zn  Zn21  1  0.645393  0.639668  0.998948  1
  Ir  Ir22  1  0.346193  0.001084  0.999816  1
  Ir  Ir23  1  0.999816  0.001084  0.346193  1
  Pd  Pd24  1  0.999870  0.346610  0.999870  1
  Rh  Rh25  1  0.654181  0.654700  0.654181  1
