# generated using pymatgen
data_Er10Cd3Pt
_symmetry_space_group_name_H-M   'P 1'
_cell_length_a   9.58603500
_cell_length_b   9.58603403
_cell_length_c   9.77352200
_cell_angle_alpha   90.00000000
_cell_angle_beta   90.00000000
_cell_angle_gamma   119.99999990
_symmetry_Int_Tables_number   1
_chemical_formula_structural   Er10Cd3Pt
_chemical_formula_sum   'Er20 Cd6 Pt2'
_cell_volume   777.78525154
_cell_formula_units_Z   2
loop_
 _symmetry_equiv_pos_site_id
 _symmetry_equiv_pos_as_xyz
  1  'x, y, z'
loop_
 _atom_site_type_symbol
 _atom_site_label
 _atom_site_symmetry_multiplicity
 _atom_site_fract_x
 _atom_site_fract_y
 _atom_site_fract_z
 _atom_site_occupancy
  Er  Er0  1  0.208714  0.791286  0.942881  1
  Er  Er1  1  0.208714  0.417428  0.942881  1
  Er  Er2  1  0.582572  0.791286  0.942881  1
  Er  Er3  1  0.791286  0.208714  0.057119  1
  Er  Er4  1  0.791286  0.582572  0.057119  1
  Er  Er5  1  0.417428  0.208714  0.057119  1
  Er  Er6  1  0.791286  0.208714  0.442881  1
  Er  Er7  1  0.791286  0.582572  0.442881  1
  Er  Er8  1  0.417428  0.208714  0.442881  1
  Er  Er9  1  0.208714  0.791286  0.557119  1
  Er  Er10  1  0.208714  0.417428  0.557119  1
  Er  Er11  1  0.582572  0.791286  0.557119  1
  Er  Er12  1  0.542350  0.457650  0.750000  1
  Er  Er13  1  0.542350  0.084699  0.750000  1
  Er  Er14  1  0.915301  0.457650  0.750000  1
  Er  Er15  1  0.457650  0.542350  0.250000  1
  Er  Er16  1  0.457650  0.915301  0.250000  1
  Er  Er17  1  0.084699  0.542350  0.250000  1
  Er  Er18  1  0.000000  0.000000  0.000000  1
  Er  Er19  1  0.000000  0.000000  0.500000  1
  Cd  Cd20  1  0.885356  0.114644  0.750000  1
  Cd  Cd21  1  0.885356  0.770712  0.750000  1
  Cd  Cd22  1  0.229288  0.114644  0.750000  1
  Cd  Cd23  1  0.114644  0.885356  0.250000  1
  Cd  Cd24  1  0.114644  0.229288  0.250000  1
  Cd  Cd25  1  0.770712  0.885356  0.250000  1
  Pt  Pt26  1  0.333333  0.666667  0.750000  1
  Pt  Pt27  1  0.666667  0.333333  0.250000  1
