# generated using pymatgen
data_TbCl13
_symmetry_space_group_name_H-M   'P 1'
_cell_length_a   12.11266577
_cell_length_b   16.81452479
_cell_length_c   9.75013000
_cell_angle_alpha   96.67910940
_cell_angle_beta   109.29021521
_cell_angle_gamma   132.70658093
_symmetry_Int_Tables_number   1
_chemical_formula_structural   TbCl13
_chemical_formula_sum   'Tb2 Cl26'
_cell_volume   1200.05839798
_cell_formula_units_Z   2
loop_
 _symmetry_equiv_pos_site_id
 _symmetry_equiv_pos_as_xyz
  1  'x, y, z'
loop_
 _atom_site_type_symbol
 _atom_site_label
 _atom_site_symmetry_multiplicity
 _atom_site_fract_x
 _atom_site_fract_y
 _atom_site_fract_z
 _atom_site_occupancy
  Tb  Tb0  1  0.868077  0.038295  0.953384  1
  Tb  Tb1  1  0.381923  0.711705  0.546616  1
  Cl  Cl2  1  0.260890  0.433053  0.630396  1
  Cl  Cl3  1  0.726520  0.362916  0.032629  1
  Cl  Cl4  1  0.931099  0.070196  0.547143  1
  Cl  Cl5  1  0.989110  0.316947  0.869604  1
  Cl  Cl6  1  0.599745  0.175566  0.257594  1
  Cl  Cl7  1  0.650255  0.574434  0.242406  1
  Cl  Cl8  1  0.318901  0.679804  0.952857  1
  Cl  Cl9  1  0.523480  0.387084  0.467371  1
  Cl  Cl10  1  0.025259  0.789112  0.732874  1
  Cl  Cl11  1  0.396781  0.649422  0.312152  1
  Cl  Cl12  1  0.053911  0.106759  0.789370  1
  Cl  Cl13  1  0.712436  0.167129  0.448099  1
  Cl  Cl14  1  0.185230  0.144779  0.107682  1
  Cl  Cl15  1  0.723447  0.523557  0.705186  1
  Cl  Cl16  1  0.216305  0.944414  0.234846  1
  Cl  Cl17  1  0.304918  0.505545  0.473034  1
  Cl  Cl18  1  0.224741  0.960888  0.767126  1
  Cl  Cl19  1  0.853219  0.100578  0.187848  1
  Cl  Cl20  1  0.655728  0.801797  0.838387  1
  Cl  Cl21  1  0.594272  0.948203  0.661613  1
  Cl  Cl22  1  0.033695  0.805586  0.265154  1
  Cl  Cl23  1  0.945082  0.244455  0.026966  1
  Cl  Cl24  1  0.196089  0.643241  0.710630  1
  Cl  Cl25  1  0.526553  0.226443  0.794814  1
  Cl  Cl26  1  0.064770  0.605221  0.392318  1
  Cl  Cl27  1  0.537564  0.582871  0.051901  1
