# generated using pymatgen
data_YMg7(B6Os)4
_symmetry_space_group_name_H-M   'P 1'
_cell_length_a   8.89955296
_cell_length_b   11.09331489
_cell_length_c   3.51309500
_cell_angle_alpha   90.00000000
_cell_angle_beta   90.00000000
_cell_angle_gamma   90.15314489
_symmetry_Int_Tables_number   1
_chemical_formula_structural   YMg7(B6Os)4
_chemical_formula_sum   'Y1 Mg7 B24 Os4'
_cell_volume   346.83097388
_cell_formula_units_Z   1
loop_
 _symmetry_equiv_pos_site_id
 _symmetry_equiv_pos_as_xyz
  1  'x, y, z'
loop_
 _atom_site_type_symbol
 _atom_site_label
 _atom_site_symmetry_multiplicity
 _atom_site_fract_x
 _atom_site_fract_y
 _atom_site_fract_z
 _atom_site_occupancy
  Y  Y0  1  0.323246  0.085761  0.000000  1
  Mg  Mg1  1  0.946137  0.129100  0.000000  1
  Mg  Mg2  1  0.447051  0.373644  0.000000  1
  Mg  Mg3  1  0.830226  0.413758  0.000000  1
  Mg  Mg4  1  0.168599  0.587800  0.000000  1
  Mg  Mg5  1  0.556058  0.626834  0.000000  1
  Mg  Mg6  1  0.054884  0.870429  0.000000  1
  Mg  Mg7  1  0.670076  0.912241  0.000000  1
  B  B8  1  0.092432  0.025146  0.500000  1
  B  B9  1  0.556663  0.064717  0.500000  1
  B  B10  1  0.757307  0.079066  0.500000  1
  B  B11  1  0.129370  0.184044  0.500000  1
  B  B12  1  0.483386  0.213792  0.500000  1
  B  B13  1  0.797913  0.238992  0.500000  1
  B  B14  1  0.296509  0.264688  0.500000  1
  B  B15  1  0.980841  0.289370  0.500000  1
  B  B16  1  0.633035  0.320336  0.500000  1
  B  B17  1  0.256168  0.423204  0.500000  1
  B  B18  1  0.054003  0.436821  0.500000  1
  B  B19  1  0.592693  0.475506  0.500000  1
  B  B20  1  0.408594  0.525039  0.500000  1
  B  B21  1  0.943891  0.564753  0.500000  1
  B  B22  1  0.743608  0.579413  0.500000  1
  B  B23  1  0.368244  0.678824  0.500000  1
  B  B24  1  0.018782  0.710759  0.500000  1
  B  B25  1  0.702584  0.738308  0.500000  1
  B  B26  1  0.201674  0.759717  0.500000  1
  B  B27  1  0.520270  0.786876  0.500000  1
  B  B28  1  0.868776  0.819394  0.500000  1
  B  B29  1  0.243808  0.916046  0.500000  1
  B  B30  1  0.444372  0.931925  0.500000  1
  B  B31  1  0.906958  0.974239  0.500000  1
  Os  Os32  1  0.644047  0.181109  0.000000  1
  Os  Os33  1  0.143261  0.324507  0.000000  1
  Os  Os34  1  0.856875  0.680075  0.000000  1
  Os  Os35  1  0.357658  0.813766  0.000000  1
