# generated using pymatgen
data_Hf8TcOs4Ru3
_symmetry_space_group_name_H-M   'P 1'
_cell_length_a   6.48757800
_cell_length_b   4.60685200
_cell_length_c   9.20141200
_cell_angle_alpha   89.99967642
_cell_angle_beta   90.00020923
_cell_angle_gamma   90.00020548
_symmetry_Int_Tables_number   1
_chemical_formula_structural   Hf8TcOs4Ru3
_chemical_formula_sum   'Hf8 Tc1 Os4 Ru3'
_cell_volume   275.00546838
_cell_formula_units_Z   1
loop_
 _symmetry_equiv_pos_site_id
 _symmetry_equiv_pos_as_xyz
  1  'x, y, z'
loop_
 _atom_site_type_symbol
 _atom_site_label
 _atom_site_symmetry_multiplicity
 _atom_site_fract_x
 _atom_site_fract_y
 _atom_site_fract_z
 _atom_site_occupancy
  Hf  Hf0  1  0.498576  0.750003  0.125004  1
  Hf  Hf1  1  0.001482  0.749998  0.125007  1
  Hf  Hf2  1  0.499268  0.250002  0.373936  1
  Hf  Hf3  1  0.000824  0.250001  0.373937  1
  Hf  Hf4  1  0.000126  0.749998  0.625006  1
  Hf  Hf5  1  0.499784  0.750002  0.625010  1
  Hf  Hf6  1  0.000751  0.249998  0.876044  1
  Hf  Hf7  1  0.499191  0.250000  0.876046  1
  Tc  Tc8  1  0.250028  0.250001  0.124990  1
  Os  Os9  1  0.750027  0.250001  0.125008  1
  Os  Os10  1  0.250028  0.750002  0.376224  1
  Os  Os11  1  0.749972  0.250001  0.625009  1
  Os  Os12  1  0.249972  0.749999  0.873761  1
  Ru  Ru13  1  0.750032  0.750001  0.375808  1
  Ru  Ru14  1  0.249971  0.250000  0.624985  1
  Ru  Ru15  1  0.749969  0.750001  0.874226  1
