# generated using pymatgen
data_Ho2ErHfSn2Ir3
_symmetry_space_group_name_H-M   'P 1'
_cell_length_a   7.33596304
_cell_length_b   7.33812269
_cell_length_c   4.18562200
_cell_angle_alpha   90.00000000
_cell_angle_beta   90.00000000
_cell_angle_gamma   120.85103822
_symmetry_Int_Tables_number   1
_chemical_formula_structural   Ho2ErHfSn2Ir3
_chemical_formula_sum   'Ho2 Er1 Hf1 Sn2 Ir3'
_cell_volume   193.43904790
_cell_formula_units_Z   1
loop_
 _symmetry_equiv_pos_site_id
 _symmetry_equiv_pos_as_xyz
  1  'x, y, z'
loop_
 _atom_site_type_symbol
 _atom_site_label
 _atom_site_symmetry_multiplicity
 _atom_site_fract_x
 _atom_site_fract_y
 _atom_site_fract_z
 _atom_site_occupancy
  Ho  Ho0  1  0.396440  0.396483  0.500000  1
  Ho  Ho1  1  0.589199  0.003262  0.500000  1
  Er  Er2  1  0.003049  0.589378  0.500000  1
  Hf  Hf3  1  0.750516  0.750275  0.000000  1
  Sn  Sn4  1  0.254278  0.998223  0.000000  1
  Sn  Sn5  1  0.998419  0.254554  0.000000  1
  Ir  Ir6  1  0.673232  0.352095  0.000000  1
  Ir  Ir7  1  0.351557  0.672730  0.000000  1
  Ir  Ir8  1  0.983310  0.983000  0.500000  1
