# generated using pymatgen
data_Mn28Fe
_symmetry_space_group_name_H-M   'P 1'
_cell_length_a   7.46496337
_cell_length_b   7.46496270
_cell_length_c   7.46496300
_cell_angle_alpha   109.47122144
_cell_angle_beta   109.47121964
_cell_angle_gamma   109.47122727
_symmetry_Int_Tables_number   1
_chemical_formula_structural   Mn28Fe
_chemical_formula_sum   'Mn28 Fe1'
_cell_volume   320.22929342
_cell_formula_units_Z   1
loop_
 _symmetry_equiv_pos_site_id
 _symmetry_equiv_pos_as_xyz
  1  'x, y, z'
loop_
 _atom_site_type_symbol
 _atom_site_label
 _atom_site_symmetry_multiplicity
 _atom_site_fract_x
 _atom_site_fract_y
 _atom_site_fract_z
 _atom_site_occupancy
  Mn  Mn0  1  0.632995  0.000000  0.000000  1
  Mn  Mn1  1  0.000000  0.632995  0.000000  1
  Mn  Mn2  1  0.000000  0.000000  0.632995  1
  Mn  Mn3  1  0.367005  0.367005  0.367005  1
  Mn  Mn4  1  0.388500  0.676610  0.000000  1
  Mn  Mn5  1  0.711889  0.323390  0.323390  1
  Mn  Mn6  1  0.388500  0.000000  0.676610  1
  Mn  Mn7  1  0.676610  0.388500  0.000000  1
  Mn  Mn8  1  0.000000  0.388500  0.676610  1
  Mn  Mn9  1  0.323390  0.711889  0.323390  1
  Mn  Mn10  1  0.323390  0.323390  0.711889  1
  Mn  Mn11  1  0.000000  0.676610  0.388500  1
  Mn  Mn12  1  0.676610  0.000000  0.388500  1
  Mn  Mn13  1  0.611500  0.611500  0.288111  1
  Mn  Mn14  1  0.288111  0.611500  0.611500  1
  Mn  Mn15  1  0.611500  0.288111  0.611500  1
  Mn  Mn16  1  0.370607  0.193506  0.000000  1
  Mn  Mn17  1  0.177101  0.806494  0.806494  1
  Mn  Mn18  1  0.370607  0.000000  0.193506  1
  Mn  Mn19  1  0.193506  0.370607  0.000000  1
  Mn  Mn20  1  0.000000  0.370607  0.193506  1
  Mn  Mn21  1  0.806494  0.177101  0.806494  1
  Mn  Mn22  1  0.806494  0.806494  0.177101  1
  Mn  Mn23  1  0.000000  0.193506  0.370607  1
  Mn  Mn24  1  0.193506  0.000000  0.370607  1
  Mn  Mn25  1  0.629393  0.629393  0.822899  1
  Mn  Mn26  1  0.822899  0.629393  0.629393  1
  Mn  Mn27  1  0.629393  0.822899  0.629393  1
  Fe  Fe28  1  0.000000  0.000000  0.000000  1
