# generated using pymatgen
data_Dy8Lu2IrPt5
_symmetry_space_group_name_H-M   'P 1'
_cell_length_a   11.01398700
_cell_length_b   11.01398700
_cell_length_c   6.40729200
_cell_angle_alpha   90.00000000
_cell_angle_beta   90.00000000
_cell_angle_gamma   90.00000000
_symmetry_Int_Tables_number   1
_chemical_formula_structural   Dy8Lu2IrPt5
_chemical_formula_sum   'Dy16 Lu4 Ir2 Pt10'
_cell_volume   777.25519895
_cell_formula_units_Z   2
loop_
 _symmetry_equiv_pos_site_id
 _symmetry_equiv_pos_as_xyz
  1  'x, y, z'
loop_
 _atom_site_type_symbol
 _atom_site_label
 _atom_site_symmetry_multiplicity
 _atom_site_fract_x
 _atom_site_fract_y
 _atom_site_fract_z
 _atom_site_occupancy
  Dy  Dy0  1  0.291033  0.088264  0.377272  1
  Dy  Dy1  1  0.291033  0.911736  0.877272  1
  Dy  Dy2  1  0.708967  0.088264  0.877272  1
  Dy  Dy3  1  0.708967  0.911736  0.377272  1
  Dy  Dy4  1  0.588264  0.791033  0.877272  1
  Dy  Dy5  1  0.588264  0.208967  0.377272  1
  Dy  Dy6  1  0.411736  0.791033  0.377272  1
  Dy  Dy7  1  0.411736  0.208967  0.877272  1
  Dy  Dy8  1  0.206612  0.412978  0.622967  1
  Dy  Dy9  1  0.206612  0.587022  0.122967  1
  Dy  Dy10  1  0.793388  0.412978  0.122967  1
  Dy  Dy11  1  0.793388  0.587022  0.622967  1
  Dy  Dy12  1  0.912978  0.706612  0.122967  1
  Dy  Dy13  1  0.912978  0.293388  0.622967  1
  Dy  Dy14  1  0.087022  0.706612  0.622967  1
  Dy  Dy15  1  0.087022  0.293388  0.122967  1
  Lu  Lu16  1  0.000000  0.000000  0.500674  1
  Lu  Lu17  1  0.000000  0.000000  0.000674  1
  Lu  Lu18  1  0.500000  0.500000  0.000674  1
  Lu  Lu19  1  0.500000  0.500000  0.500674  1
  Ir  Ir20  1  0.000000  0.500000  0.878293  1
  Ir  Ir21  1  0.000000  0.500000  0.378293  1
  Pt  Pt22  1  0.848332  0.150201  0.250240  1
  Pt  Pt23  1  0.848332  0.849799  0.750240  1
  Pt  Pt24  1  0.151668  0.150201  0.750240  1
  Pt  Pt25  1  0.151668  0.849799  0.250240  1
  Pt  Pt26  1  0.650201  0.348332  0.750240  1
  Pt  Pt27  1  0.650201  0.651668  0.250240  1
  Pt  Pt28  1  0.349799  0.348332  0.250240  1
  Pt  Pt29  1  0.349799  0.651668  0.750240  1
  Pt  Pt30  1  0.500000  0.000000  0.118443  1
  Pt  Pt31  1  0.500000  0.000000  0.618443  1
