# generated using pymatgen
data_Nd3Lu3TcAs2
_symmetry_space_group_name_H-M   'P 1'
_cell_length_a   7.95524200
_cell_length_b   7.95524229
_cell_length_c   4.22581600
_cell_angle_alpha   90.00000000
_cell_angle_beta   90.00000000
_cell_angle_gamma   119.99999879
_symmetry_Int_Tables_number   1
_chemical_formula_structural   Nd3Lu3TcAs2
_chemical_formula_sum   'Nd3 Lu3 Tc1 As2'
_cell_volume   231.60505121
_cell_formula_units_Z   1
loop_
 _symmetry_equiv_pos_site_id
 _symmetry_equiv_pos_as_xyz
  1  'x, y, z'
loop_
 _atom_site_type_symbol
 _atom_site_label
 _atom_site_symmetry_multiplicity
 _atom_site_fract_x
 _atom_site_fract_y
 _atom_site_fract_z
 _atom_site_occupancy
  Nd  Nd0  1  0.593409  0.000000  0.000000  1
  Nd  Nd1  1  0.406591  0.406591  0.000000  1
  Nd  Nd2  1  0.000000  0.593409  0.000000  1
  Lu  Lu3  1  0.239280  0.000000  0.499999  1
  Lu  Lu4  1  0.000000  0.239280  0.499999  1
  Lu  Lu5  1  0.760720  0.760721  0.499999  1
  Tc  Tc6  1  0.000000  0.000000  0.000000  1
  As  As7  1  0.666666  0.333333  0.499999  1
  As  As8  1  0.333333  0.666667  0.499999  1
