# generated using pymatgen
data_DyEr(HfRh)2
_symmetry_space_group_name_H-M   'P 1'
_cell_length_a   4.60634100
_cell_length_b   6.99518800
_cell_length_c   8.20577300
_cell_angle_alpha   90.00000000
_cell_angle_beta   90.00000000
_cell_angle_gamma   90.00000000
_symmetry_Int_Tables_number   1
_chemical_formula_structural   DyEr(HfRh)2
_chemical_formula_sum   'Dy2 Er2 Hf4 Rh4'
_cell_volume   264.40823344
_cell_formula_units_Z   2
loop_
 _symmetry_equiv_pos_site_id
 _symmetry_equiv_pos_as_xyz
  1  'x, y, z'
loop_
 _atom_site_type_symbol
 _atom_site_label
 _atom_site_symmetry_multiplicity
 _atom_site_fract_x
 _atom_site_fract_y
 _atom_site_fract_z
 _atom_site_occupancy
  Dy  Dy0  1  0.250000  0.982872  0.323242  1
  Dy  Dy1  1  0.250000  0.482872  0.176758  1
  Er  Er2  1  0.750000  0.018222  0.677764  1
  Er  Er3  1  0.750000  0.518222  0.822236  1
  Hf  Hf4  1  0.250000  0.359373  0.575330  1
  Hf  Hf5  1  0.250000  0.859373  0.924670  1
  Hf  Hf6  1  0.750000  0.639747  0.427751  1
  Hf  Hf7  1  0.750000  0.139747  0.072249  1
  Rh  Rh8  1  0.250000  0.231951  0.909192  1
  Rh  Rh9  1  0.250000  0.731951  0.590808  1
  Rh  Rh10  1  0.750000  0.767837  0.088410  1
  Rh  Rh11  1  0.750000  0.267837  0.411590  1
