# generated using pymatgen
data_Dy5TmSi24Os3Ru5
_symmetry_space_group_name_H-M   'P 1'
_cell_length_a   10.11469105
_cell_length_b   10.11469045
_cell_length_c   8.14531505
_cell_angle_alpha   90.00516234
_cell_angle_beta   90.00517064
_cell_angle_gamma   132.50681580
_symmetry_Int_Tables_number   1
_chemical_formula_structural   Dy5TmSi24Os3Ru5
_chemical_formula_sum   'Dy5 Tm1 Si24 Os3 Ru5'
_cell_volume   614.32279817
_cell_formula_units_Z   1
loop_
 _symmetry_equiv_pos_site_id
 _symmetry_equiv_pos_as_xyz
  1  'x, y, z'
loop_
 _atom_site_type_symbol
 _atom_site_label
 _atom_site_symmetry_multiplicity
 _atom_site_fract_x
 _atom_site_fract_y
 _atom_site_fract_z
 _atom_site_occupancy
  Dy  Dy0  1  0.999955  0.000045  0.000000  1
  Dy  Dy1  1  0.502299  0.002348  0.750150  1
  Dy  Dy2  1  0.997652  0.497701  0.249850  1
  Dy  Dy3  1  0.497800  0.997570  0.249711  1
  Dy  Dy4  1  0.002430  0.502200  0.750289  1
  Tm  Tm5  1  0.500011  0.499989  0.500000  1
  Si  Si6  1  0.795931  0.204069  0.500000  1
  Si  Si7  1  0.295895  0.704105  0.000000  1
  Si  Si8  1  0.204157  0.795843  0.500000  1
  Si  Si9  1  0.704733  0.295267  0.000000  1
  Si  Si10  1  0.332576  0.332328  0.833316  1
  Si  Si11  1  0.667672  0.667424  0.166684  1
  Si  Si12  1  0.166863  0.167009  0.332647  1
  Si  Si13  1  0.832991  0.833137  0.667353  1
  Si  Si14  1  0.121489  0.888260  0.728291  1
  Si  Si15  1  0.111740  0.878511  0.271709  1
  Si  Si16  1  0.612331  0.378690  0.227505  1
  Si  Si17  1  0.621310  0.387669  0.772495  1
  Si  Si18  1  0.877969  0.111655  0.270658  1
  Si  Si19  1  0.888345  0.122031  0.729342  1
  Si  Si20  1  0.388442  0.621983  0.772097  1
  Si  Si21  1  0.378017  0.611558  0.227903  1
  Si  Si22  1  0.344907  0.111912  0.505556  1
  Si  Si23  1  0.888088  0.655093  0.494444  1
  Si  Si24  1  0.388487  0.155571  0.004443  1
  Si  Si25  1  0.844429  0.611513  0.995557  1
  Si  Si26  1  0.655294  0.888250  0.494201  1
  Si  Si27  1  0.111750  0.344706  0.505799  1
  Si  Si28  1  0.612911  0.846199  0.994776  1
  Si  Si29  1  0.153801  0.387089  0.005224  1
  Os  Os30  1  0.669430  0.330570  0.500000  1
  Os  Os31  1  0.169858  0.830142  0.000000  1
  Os  Os32  1  0.330558  0.669442  0.500000  1
  Ru  Ru33  1  0.830036  0.169964  0.000000  1
  Ru  Ru34  1  0.128424  0.128297  0.626301  1
  Ru  Ru35  1  0.871703  0.871576  0.373699  1
  Ru  Ru36  1  0.374054  0.374335  0.128725  1
  Ru  Ru37  1  0.625665  0.625946  0.871275  1
