# generated using pymatgen
data_Er19TmIr7Rh5
_symmetry_space_group_name_H-M   'P 1'
_cell_length_a   10.77532508
_cell_length_b   10.77548045
_cell_length_c   6.33087402
_cell_angle_alpha   89.99090224
_cell_angle_beta   89.99290051
_cell_angle_gamma   89.91884250
_symmetry_Int_Tables_number   1
_chemical_formula_structural   Er19TmIr7Rh5
_chemical_formula_sum   'Er19 Tm1 Ir7 Rh5'
_cell_volume   735.07262870
_cell_formula_units_Z   1
loop_
 _symmetry_equiv_pos_site_id
 _symmetry_equiv_pos_as_xyz
  1  'x, y, z'
loop_
 _atom_site_type_symbol
 _atom_site_label
 _atom_site_symmetry_multiplicity
 _atom_site_fract_x
 _atom_site_fract_y
 _atom_site_fract_z
 _atom_site_occupancy
  Er  Er0  1  0.290205  0.088292  0.378643  1
  Er  Er1  1  0.290495  0.911585  0.877974  1
  Er  Er2  1  0.708929  0.088022  0.877539  1
  Er  Er3  1  0.708975  0.909916  0.378779  1
  Er  Er4  1  0.588332  0.790265  0.878484  1
  Er  Er5  1  0.586958  0.209841  0.378218  1
  Er  Er6  1  0.411362  0.790325  0.378340  1
  Er  Er7  1  0.411466  0.209527  0.878120  1
  Er  Er8  1  0.209803  0.411700  0.621474  1
  Er  Er9  1  0.209602  0.588654  0.121710  1
  Er  Er10  1  0.790226  0.413025  0.121825  1
  Er  Er11  1  0.790394  0.588518  0.621823  1
  Er  Er12  1  0.911734  0.709780  0.121356  1
  Er  Er13  1  0.911982  0.291079  0.622496  1
  Er  Er14  1  0.088410  0.709512  0.622029  1
  Er  Er15  1  0.090069  0.291025  0.121187  1
  Er  Er16  1  0.000024  0.999776  0.499973  1
  Er  Er17  1  0.000225  0.999989  0.000046  1
  Er  Er18  1  0.499918  0.499769  0.999855  1
  Tm  Tm19  1  0.500223  0.500076  0.500110  1
  Ir  Ir20  1  0.845875  0.846709  0.750065  1
  Ir  Ir21  1  0.153304  0.154112  0.749931  1
  Ir  Ir22  1  0.154050  0.845942  0.249986  1
  Ir  Ir23  1  0.654602  0.345388  0.749786  1
  Ir  Ir24  1  0.654036  0.653658  0.249991  1
  Ir  Ir25  1  0.346349  0.345953  0.250430  1
  Ir  Ir26  1  0.346090  0.653911  0.749778  1
  Rh  Rh27  1  0.845828  0.154157  0.250012  1
  Rh  Rh28  1  0.500532  0.000228  0.123818  1
  Rh  Rh29  1  0.500437  0.000229  0.623238  1
  Rh  Rh30  1  0.999781  0.499571  0.876801  1
  Rh  Rh31  1  0.999783  0.499467  0.376183  1
