# generated using pymatgen
data_LiFe(Co2Si)2
_symmetry_space_group_name_H-M   'P 1'
_cell_length_a   3.92135900
_cell_length_b   3.92135900
_cell_length_c   5.54601800
_cell_angle_alpha   90.00000000
_cell_angle_beta   90.00000000
_cell_angle_gamma   90.00000000
_symmetry_Int_Tables_number   1
_chemical_formula_structural   LiFe(Co2Si)2
_chemical_formula_sum   'Li1 Fe1 Co4 Si2'
_cell_volume   85.28143162
_cell_formula_units_Z   1
loop_
 _symmetry_equiv_pos_site_id
 _symmetry_equiv_pos_as_xyz
  1  'x, y, z'
loop_
 _atom_site_type_symbol
 _atom_site_label
 _atom_site_symmetry_multiplicity
 _atom_site_fract_x
 _atom_site_fract_y
 _atom_site_fract_z
 _atom_site_occupancy
  Li  Li0  1  0.499998  0.499998  0.000000  1
  Fe  Fe1  1  0.000000  0.000000  0.500000  1
  Co  Co2  1  0.499998  0.000000  0.252209  1
  Co  Co3  1  0.000000  0.499998  0.252209  1
  Co  Co4  1  0.499998  0.000000  0.747792  1
  Co  Co5  1  0.000000  0.499998  0.747792  1
  Si  Si6  1  0.000000  0.000000  0.000000  1
  Si  Si7  1  0.499998  0.499998  0.500000  1
