# generated using pymatgen
data_Sc22FeOs5Pt2
_symmetry_space_group_name_H-M   'P 1'
_cell_length_a   9.47301861
_cell_length_b   9.46267867
_cell_length_c   9.47301864
_cell_angle_alpha   60.03610226
_cell_angle_beta   59.92780061
_cell_angle_gamma   60.03610379
_symmetry_Int_Tables_number   1
_chemical_formula_structural   Sc22FeOs5Pt2
_chemical_formula_sum   'Sc22 Fe1 Os5 Pt2'
_cell_volume   600.44725723
_cell_formula_units_Z   1
loop_
 _symmetry_equiv_pos_site_id
 _symmetry_equiv_pos_as_xyz
  1  'x, y, z'
loop_
 _atom_site_type_symbol
 _atom_site_label
 _atom_site_symmetry_multiplicity
 _atom_site_fract_x
 _atom_site_fract_y
 _atom_site_fract_z
 _atom_site_occupancy
  Sc  Sc0  1  0.840991  0.847506  0.840991  1
  Sc  Sc1  1  0.529488  0.159009  0.152494  1
  Sc  Sc2  1  0.152494  0.159009  0.529488  1
  Sc  Sc3  1  0.159009  0.529488  0.159009  1
  Sc  Sc4  1  0.847506  0.840991  0.470512  1
  Sc  Sc5  1  0.840991  0.470512  0.840991  1
  Sc  Sc6  1  0.470512  0.840991  0.847506  1
  Sc  Sc7  1  0.159009  0.152494  0.159009  1
  Sc  Sc8  1  0.197539  0.802461  0.197539  1
  Sc  Sc9  1  0.197521  0.802479  0.802479  1
  Sc  Sc10  1  0.802479  0.197521  0.197521  1
  Sc  Sc11  1  0.802479  0.802479  0.197521  1
  Sc  Sc12  1  0.197521  0.197521  0.802479  1
  Sc  Sc13  1  0.802461  0.197539  0.802461  1
  Sc  Sc14  1  0.383308  0.388928  0.383308  1
  Sc  Sc15  1  0.155547  0.616692  0.611072  1
  Sc  Sc16  1  0.616692  0.155547  0.616692  1
  Sc  Sc17  1  0.611072  0.616692  0.155547  1
  Sc  Sc18  1  0.383308  0.844453  0.383308  1
  Sc  Sc19  1  0.388928  0.383308  0.844453  1
  Sc  Sc20  1  0.844453  0.383308  0.388928  1
  Sc  Sc21  1  0.616692  0.611072  0.616692  1
  Fe  Fe22  1  0.500000  0.500000  0.500000  1
  Os  Os23  1  0.500000  0.500000  0.000000  1
  Os  Os24  1  0.000000  0.000000  0.500000  1
  Os  Os25  1  0.000000  0.500000  0.500000  1
  Os  Os26  1  0.500000  0.000000  0.000000  1
  Os  Os27  1  0.000000  0.000000  0.000000  1
  Pt  Pt28  1  0.500000  0.000000  0.500000  1
  Pt  Pt29  1  0.000000  0.500000  0.000000  1
