# generated using pymatgen
data_HoHf3(Al3Ir)6
_symmetry_space_group_name_H-M   'P 1'
_cell_length_a   7.48613038
_cell_length_b   7.47815893
_cell_length_c   9.27602900
_cell_angle_alpha   90.00000000
_cell_angle_beta   90.00000000
_cell_angle_gamma   119.79232071
_symmetry_Int_Tables_number   1
_chemical_formula_structural   HoHf3(Al3Ir)6
_chemical_formula_sum   'Ho1 Hf3 Al18 Ir6'
_cell_volume   450.66088218
_cell_formula_units_Z   1
loop_
 _symmetry_equiv_pos_site_id
 _symmetry_equiv_pos_as_xyz
  1  'x, y, z'
loop_
 _atom_site_type_symbol
 _atom_site_label
 _atom_site_symmetry_multiplicity
 _atom_site_fract_x
 _atom_site_fract_y
 _atom_site_fract_z
 _atom_site_occupancy
  Ho  Ho0  1  0.329281  0.005512  0.750000  1
  Hf  Hf1  1  0.994479  0.671558  0.250000  1
  Hf  Hf2  1  0.005248  0.329230  0.750000  1
  Hf  Hf3  1  0.671617  0.994601  0.250000  1
  Al  Al4  1  0.123387  0.124517  0.250000  1
  Al  Al5  1  0.872044  0.875243  0.750000  1
  Al  Al6  1  0.997810  0.334532  0.077341  1
  Al  Al7  1  0.999717  0.662779  0.925267  1
  Al  Al8  1  0.999717  0.662779  0.574733  1
  Al  Al9  1  0.334825  0.998303  0.419691  1
  Al  Al10  1  0.997810  0.334532  0.422659  1
  Al  Al11  1  0.667960  0.001970  0.574849  1
  Al  Al12  1  0.667960  0.001970  0.925151  1
  Al  Al13  1  0.334825  0.998303  0.080309  1
  Al  Al14  1  0.331282  0.333720  0.556939  1
  Al  Al15  1  0.668219  0.668154  0.439379  1
  Al  Al16  1  0.668219  0.668154  0.060621  1
  Al  Al17  1  0.331282  0.333720  0.943061  1
  Al  Al18  1  0.338307  0.552114  0.250000  1
  Al  Al19  1  0.666018  0.452454  0.750000  1
  Al  Al20  1  0.553179  0.339347  0.250000  1
  Al  Al21  1  0.447475  0.657197  0.750000  1
  Ir  Ir22  1  0.673412  0.327952  0.001469  1
  Ir  Ir23  1  0.327821  0.673107  0.001796  1
  Ir  Ir24  1  0.327821  0.673107  0.498204  1
  Ir  Ir25  1  0.673412  0.327952  0.498531  1
  Ir  Ir26  1  0.998436  0.998597  0.001823  1
  Ir  Ir27  1  0.998436  0.998597  0.498177  1
