# generated using pymatgen
data_Li2Dy16In2Co3Ir
_symmetry_space_group_name_H-M   'P 1'
_cell_length_a   9.60078817
_cell_length_b   9.54334965
_cell_length_c   9.57582400
_cell_angle_alpha   59.88737147
_cell_angle_beta   60.08597739
_cell_angle_gamma   60.01391513
_symmetry_Int_Tables_number   1
_chemical_formula_structural   Li2Dy16In2Co3Ir
_chemical_formula_sum   'Li2 Dy16 In2 Co3 Ir1'
_cell_volume   620.33231042
_cell_formula_units_Z   1
loop_
 _symmetry_equiv_pos_site_id
 _symmetry_equiv_pos_as_xyz
  1  'x, y, z'
loop_
 _atom_site_type_symbol
 _atom_site_label
 _atom_site_symmetry_multiplicity
 _atom_site_fract_x
 _atom_site_fract_y
 _atom_site_fract_z
 _atom_site_occupancy
  Li  Li0  1  0.821959  0.821554  0.825128  1
  Li  Li1  1  0.821959  0.821554  0.531357  1
  Dy  Dy2  1  0.590867  0.599663  0.601934  1
  Dy  Dy3  1  0.590867  0.599663  0.207536  1
  Dy  Dy4  1  0.588952  0.214725  0.598162  1
  Dy  Dy5  1  0.217891  0.593954  0.594078  1
  Dy  Dy6  1  0.067668  0.438156  0.438874  1
  Dy  Dy7  1  0.438260  0.062722  0.060827  1
  Dy  Dy8  1  0.438260  0.062722  0.438190  1
  Dy  Dy9  1  0.067668  0.438156  0.055302  1
  Dy  Dy10  1  0.442184  0.439534  0.059141  1
  Dy  Dy11  1  0.072474  0.061950  0.432788  1
  Dy  Dy12  1  0.187160  0.811903  0.812366  1
  Dy  Dy13  1  0.811494  0.188935  0.190102  1
  Dy  Dy14  1  0.811494  0.188935  0.809469  1
  Dy  Dy15  1  0.187160  0.811903  0.188571  1
  Dy  Dy16  1  0.810856  0.807140  0.191002  1
  Dy  Dy17  1  0.185157  0.187001  0.813921  1
  In  In18  1  0.834933  0.506771  0.829148  1
  In  In19  1  0.506464  0.834474  0.829530  1
  Co  Co20  1  0.393013  0.393411  0.387090  1
  Co  Co21  1  0.393013  0.393411  0.826485  1
  Co  Co22  1  0.393354  0.827669  0.389490  1
  Ir  Ir23  1  0.826891  0.394092  0.389510  1
