# generated using pymatgen
data_Sm8Zn3Si12Pd
_symmetry_space_group_name_H-M   'P 1'
_cell_length_a   8.16358000
_cell_length_b   8.16357906
_cell_length_c   8.39063100
_cell_angle_alpha   89.99997072
_cell_angle_beta   90.00001385
_cell_angle_gamma   120.00001192
_symmetry_Int_Tables_number   1
_chemical_formula_structural   Sm8Zn3Si12Pd
_chemical_formula_sum   'Sm8 Zn3 Si12 Pd1'
_cell_volume   484.26876438
_cell_formula_units_Z   1
loop_
 _symmetry_equiv_pos_site_id
 _symmetry_equiv_pos_as_xyz
  1  'x, y, z'
loop_
 _atom_site_type_symbol
 _atom_site_label
 _atom_site_symmetry_multiplicity
 _atom_site_fract_x
 _atom_site_fract_y
 _atom_site_fract_z
 _atom_site_occupancy
  Sm  Sm0  1  0.499349  0.500650  0.750703  1
  Sm  Sm1  1  0.499891  0.500109  0.249256  1
  Sm  Sm2  1  0.001301  0.500651  0.750703  1
  Sm  Sm3  1  0.000218  0.500109  0.249256  1
  Sm  Sm4  1  0.499349  0.998699  0.750703  1
  Sm  Sm5  1  0.499891  0.999782  0.249256  1
  Sm  Sm6  1  0.000000  0.000000  0.749169  1
  Sm  Sm7  1  0.000000  0.000000  0.251088  1
  Zn  Zn8  1  0.666667  0.333333  0.997031  1
  Zn  Zn9  1  0.333333  0.666667  0.002221  1
  Zn  Zn10  1  0.333333  0.666670  0.499040  1
  Si  Si11  1  0.833328  0.166672  0.000809  1
  Si  Si12  1  0.166358  0.833642  0.999436  1
  Si  Si13  1  0.333345  0.166672  0.000809  1
  Si  Si14  1  0.164140  0.835860  0.499658  1
  Si  Si15  1  0.667284  0.833642  0.999436  1
  Si  Si16  1  0.832094  0.167906  0.500531  1
  Si  Si17  1  0.833327  0.666655  0.000809  1
  Si  Si18  1  0.671720  0.835860  0.499658  1
  Si  Si19  1  0.166358  0.332716  0.999436  1
  Si  Si20  1  0.335812  0.167906  0.500531  1
  Si  Si21  1  0.164140  0.328280  0.499658  1
  Si  Si22  1  0.832094  0.664188  0.500531  1
  Pd  Pd23  1  0.666667  0.333333  0.500277  1
