# generated using pymatgen
data_YbErTm2(FeB4)4
_symmetry_space_group_name_H-M   'P 1'
_cell_length_a   3.33678400
_cell_length_b   5.85941946
_cell_length_c   11.33102405
_cell_angle_alpha   89.96519388
_cell_angle_beta   90.00000000
_cell_angle_gamma   90.00000000
_symmetry_Int_Tables_number   1
_chemical_formula_structural   YbErTm2(FeB4)4
_chemical_formula_sum   'Yb1 Er1 Tm2 Fe4 B16'
_cell_volume   221.53980276
_cell_formula_units_Z   1
loop_
 _symmetry_equiv_pos_site_id
 _symmetry_equiv_pos_as_xyz
  1  'x, y, z'
loop_
 _atom_site_type_symbol
 _atom_site_label
 _atom_site_symmetry_multiplicity
 _atom_site_fract_x
 _atom_site_fract_y
 _atom_site_fract_z
 _atom_site_occupancy
  Yb  Yb0  1  0.000000  0.627159  0.349618  1
  Er  Er1  1  0.000000  0.873338  0.849462  1
  Tm  Tm2  1  0.000000  0.373138  0.649749  1
  Tm  Tm3  1  0.000000  0.127107  0.151350  1
  Fe  Fe4  1  0.000000  0.634285  0.087256  1
  Fe  Fe5  1  0.000000  0.366049  0.911388  1
  Fe  Fe6  1  0.000000  0.132761  0.413334  1
  Fe  Fe7  1  0.000000  0.867419  0.588469  1
  B  B8  1  0.500000  0.782687  0.183840  1
  B  B9  1  0.500000  0.217104  0.815707  1
  B  B10  1  0.500000  0.282519  0.316371  1
  B  B11  1  0.500000  0.716267  0.683389  1
  B  B12  1  0.500000  0.862204  0.031590  1
  B  B13  1  0.500000  0.138309  0.968463  1
  B  B14  1  0.500000  0.361749  0.468486  1
  B  B15  1  0.500000  0.638169  0.531824  1
  B  B16  1  0.500000  0.887513  0.453798  1
  B  B17  1  0.500000  0.111779  0.546161  1
  B  B18  1  0.500000  0.388481  0.046475  1
  B  B19  1  0.500000  0.611470  0.953553  1
  B  B20  1  0.500000  0.976796  0.309526  1
  B  B21  1  0.500000  0.024468  0.690690  1
  B  B22  1  0.500000  0.475661  0.190673  1
  B  B23  1  0.500000  0.523569  0.808829  1
