# generated using pymatgen
data_Tb4Sc4B24Ir3Rh
_symmetry_space_group_name_H-M   'P 1'
_cell_length_a   3.55871100
_cell_length_b   9.02680710
_cell_length_c   11.40216913
_cell_angle_alpha   89.98267286
_cell_angle_beta   90.00000000
_cell_angle_gamma   90.00000000
_symmetry_Int_Tables_number   1
_chemical_formula_structural   Tb4Sc4B24Ir3Rh
_chemical_formula_sum   'Tb4 Sc4 B24 Ir3 Rh1'
_cell_volume   366.28095811
_cell_formula_units_Z   1
loop_
 _symmetry_equiv_pos_site_id
 _symmetry_equiv_pos_as_xyz
  1  'x, y, z'
loop_
 _atom_site_type_symbol
 _atom_site_label
 _atom_site_symmetry_multiplicity
 _atom_site_fract_x
 _atom_site_fract_y
 _atom_site_fract_z
 _atom_site_occupancy
  Tb  Tb0  1  0.500000  0.319793  0.413501  1
  Tb  Tb1  1  0.500000  0.680008  0.585819  1
  Tb  Tb2  1  0.500000  0.179753  0.914673  1
  Tb  Tb3  1  0.500000  0.820746  0.086168  1
  Sc  Sc4  1  0.500000  0.444661  0.124409  1
  Sc  Sc5  1  0.500000  0.554921  0.875915  1
  Sc  Sc6  1  0.500000  0.054753  0.624169  1
  Sc  Sc7  1  0.500000  0.945375  0.375388  1
  B  B8  1  0.000000  0.099924  0.472960  1
  B  B9  1  0.000000  0.900160  0.526935  1
  B  B10  1  0.000000  0.400017  0.972999  1
  B  B11  1  0.000000  0.599877  0.026999  1
  B  B12  1  0.000000  0.129853  0.318247  1
  B  B13  1  0.000000  0.870142  0.681610  1
  B  B14  1  0.000000  0.370316  0.818447  1
  B  B15  1  0.000000  0.629735  0.181802  1
  B  B16  1  0.000000  0.054791  0.066073  1
  B  B17  1  0.000000  0.945223  0.933971  1
  B  B18  1  0.000000  0.445009  0.566127  1
  B  B19  1  0.000000  0.554967  0.433770  1
  B  B20  1  0.000000  0.481881  0.284840  1
  B  B21  1  0.000000  0.517966  0.715109  1
  B  B22  1  0.000000  0.017879  0.784923  1
  B  B23  1  0.000000  0.982177  0.215039  1
  B  B24  1  0.000000  0.254032  0.080723  1
  B  B25  1  0.000000  0.745959  0.919427  1
  B  B26  1  0.000000  0.245717  0.580562  1
  B  B27  1  0.000000  0.754259  0.419420  1
  B  B28  1  0.000000  0.295672  0.235231  1
  B  B29  1  0.000000  0.704333  0.764791  1
  B  B30  1  0.000000  0.204389  0.735108  1
  B  B31  1  0.000000  0.795853  0.264853  1
  Ir  Ir32  1  0.500000  0.858089  0.817958  1
  Ir  Ir33  1  0.500000  0.358571  0.681617  1
  Ir  Ir34  1  0.500000  0.641592  0.318568  1
  Rh  Rh35  1  0.500000  0.141607  0.181853  1
