# generated using pymatgen
data_YAg3(NO3)8
_symmetry_space_group_name_H-M   'P 1'
_cell_length_a   7.89471371
_cell_length_b   7.89471371
_cell_length_c   7.89471371
_cell_angle_alpha   89.65276453
_cell_angle_beta   90.34723547
_cell_angle_gamma   89.65276453
_symmetry_Int_Tables_number   1
_chemical_formula_structural   YAg3(NO3)8
_chemical_formula_sum   'Y1 Ag3 N8 O24'
_cell_volume   492.02269204
_cell_formula_units_Z   1
loop_
 _symmetry_equiv_pos_site_id
 _symmetry_equiv_pos_as_xyz
  1  'x, y, z'
loop_
 _atom_site_type_symbol
 _atom_site_label
 _atom_site_symmetry_multiplicity
 _atom_site_fract_x
 _atom_site_fract_y
 _atom_site_fract_z
 _atom_site_occupancy
  Y  Y0  1  0.000000  0.500001  0.500001  1
  Ag  Ag1  1  0.000000  0.000000  0.000000  1
  Ag  Ag2  1  0.500001  0.500001  0.000000  1
  Ag  Ag3  1  0.500001  0.000000  0.500001  1
  N  N4  1  0.814932  0.374886  0.193520  1
  N  N5  1  0.652535  0.847465  0.152535  1
  N  N6  1  0.306479  0.314931  0.374886  1
  N  N7  1  0.125113  0.806480  0.314931  1
  N  N8  1  0.874887  0.193520  0.685068  1
  N  N9  1  0.693520  0.685068  0.625113  1
  N  N10  1  0.347464  0.152535  0.847465  1
  N  N11  1  0.185068  0.625113  0.806480  1
  O  O12  1  0.732621  0.340280  0.060029  1
  O  O13  1  0.754699  0.828042  0.031171  1
  O  O14  1  0.956326  0.304901  0.223060  1
  O  O15  1  0.531171  0.745301  0.171960  1
  O  O16  1  0.276941  0.456327  0.304901  1
  O  O17  1  0.159721  0.939971  0.232621  1
  O  O18  1  0.757807  0.480923  0.299322  1
  O  O19  1  0.671959  0.968829  0.254698  1
  O  O20  1  0.439972  0.232621  0.340280  1
  O  O21  1  0.019078  0.700677  0.257806  1
  O  O22  1  0.200677  0.257806  0.480923  1
  O  O23  1  0.195098  0.776942  0.456327  1
  O  O24  1  0.804901  0.223060  0.543674  1
  O  O25  1  0.799323  0.742194  0.519078  1
  O  O26  1  0.980922  0.299322  0.742194  1
  O  O27  1  0.560029  0.767379  0.659720  1
  O  O28  1  0.328041  0.031171  0.745301  1
  O  O29  1  0.242195  0.519078  0.700677  1
  O  O30  1  0.840281  0.060029  0.767379  1
  O  O31  1  0.723059  0.543674  0.695099  1
  O  O32  1  0.468830  0.254698  0.828042  1
  O  O33  1  0.043674  0.695099  0.776942  1
  O  O34  1  0.245301  0.171960  0.968829  1
  O  O35  1  0.267378  0.659720  0.939971  1
