# generated using pymatgen
data_Ac2Nd(SnPt)3
_symmetry_space_group_name_H-M   'P 1'
_cell_length_a   7.84280851
_cell_length_b   7.79699720
_cell_length_c   4.26334500
_cell_angle_alpha   90.00000000
_cell_angle_beta   90.00000000
_cell_angle_gamma   119.80695351
_symmetry_Int_Tables_number   1
_chemical_formula_structural   Ac2Nd(SnPt)3
_chemical_formula_sum   'Ac2 Nd1 Sn3 Pt3'
_cell_volume   226.21512298
_cell_formula_units_Z   1
loop_
 _symmetry_equiv_pos_site_id
 _symmetry_equiv_pos_as_xyz
  1  'x, y, z'
loop_
 _atom_site_type_symbol
 _atom_site_label
 _atom_site_symmetry_multiplicity
 _atom_site_fract_x
 _atom_site_fract_y
 _atom_site_fract_z
 _atom_site_occupancy
  Ac  Ac0  1  0.586329  0.585739  0.000000  1
  Ac  Ac1  1  0.413671  0.999411  0.000000  1
  Nd  Nd2  1  0.000000  0.408978  0.000000  1
  Sn  Sn3  1  0.000000  0.748254  0.500000  1
  Sn  Sn4  1  0.241236  0.248327  0.500000  1
  Sn  Sn5  1  0.758764  0.007091  0.500000  1
  Pt  Pt6  1  0.000000  0.004536  0.000000  1
  Pt  Pt7  1  0.325055  0.661360  0.500000  1
  Pt  Pt8  1  0.674945  0.336304  0.500000  1
