# generated using pymatgen
data_TmMg(NiPt)2
_symmetry_space_group_name_H-M   'P 1'
_cell_length_a   4.94732919
_cell_length_b   5.12186805
_cell_length_c   5.12186788
_cell_angle_alpha   63.52887332
_cell_angle_beta   61.12099670
_cell_angle_gamma   61.12100641
_symmetry_Int_Tables_number   1
_chemical_formula_structural   TmMg(NiPt)2
_chemical_formula_sum   'Tm1 Mg1 Ni2 Pt2'
_cell_volume   95.61520817
_cell_formula_units_Z   1
loop_
 _symmetry_equiv_pos_site_id
 _symmetry_equiv_pos_as_xyz
  1  'x, y, z'
loop_
 _atom_site_type_symbol
 _atom_site_label
 _atom_site_symmetry_multiplicity
 _atom_site_fract_x
 _atom_site_fract_y
 _atom_site_fract_z
 _atom_site_occupancy
  Tm  Tm0  1  0.002613  0.997387  0.997387  1
  Mg  Mg1  1  0.241976  0.258024  0.258024  1
  Ni  Ni2  1  0.127573  0.622787  0.622787  1
  Ni  Ni3  1  0.626853  0.622787  0.622787  1
  Pt  Pt4  1  0.625493  0.622737  0.126278  1
  Pt  Pt5  1  0.625493  0.126278  0.622737  1
