# generated using pymatgen
data_Lu16In6TcAg
_symmetry_space_group_name_H-M   'P 1'
_cell_length_a   10.31058700
_cell_length_b   10.31058702
_cell_length_c   6.81940800
_cell_angle_alpha   90.00000000
_cell_angle_beta   90.00000000
_cell_angle_gamma   120.00000316
_symmetry_Int_Tables_number   1
_chemical_formula_structural   Lu16In6TcAg
_chemical_formula_sum   'Lu16 In6 Tc1 Ag1'
_cell_volume   627.83290797
_cell_formula_units_Z   1
loop_
 _symmetry_equiv_pos_site_id
 _symmetry_equiv_pos_as_xyz
  1  'x, y, z'
loop_
 _atom_site_type_symbol
 _atom_site_label
 _atom_site_symmetry_multiplicity
 _atom_site_fract_x
 _atom_site_fract_y
 _atom_site_fract_z
 _atom_site_occupancy
  Lu  Lu0  1  0.532088  0.064177  0.525252  1
  Lu  Lu1  1  0.935823  0.467912  0.525252  1
  Lu  Lu2  1  0.532088  0.467912  0.525252  1
  Lu  Lu3  1  0.478947  0.957892  0.030607  1
  Lu  Lu4  1  0.042108  0.521053  0.030607  1
  Lu  Lu5  1  0.478947  0.521053  0.030607  1
  Lu  Lu6  1  0.173564  0.347129  0.733338  1
  Lu  Lu7  1  0.652871  0.826436  0.733338  1
  Lu  Lu8  1  0.173564  0.826436  0.733338  1
  Lu  Lu9  1  0.823890  0.647778  0.233765  1
  Lu  Lu10  1  0.352222  0.176110  0.233765  1
  Lu  Lu11  1  0.823890  0.176110  0.233765  1
  Lu  Lu12  1  0.666667  0.333333  0.892038  1
  Lu  Lu13  1  0.333333  0.666667  0.385702  1
  Lu  Lu14  1  0.000000  0.000000  0.509868  1
  Lu  Lu15  1  0.000000  0.000000  0.005632  1
  In  In16  1  0.838581  0.677161  0.766607  1
  In  In17  1  0.322839  0.161419  0.766607  1
  In  In18  1  0.838581  0.161419  0.766607  1
  In  In19  1  0.164487  0.328973  0.265556  1
  In  In20  1  0.671027  0.835513  0.265556  1
  In  In21  1  0.164487  0.835513  0.265556  1
  Tc  Tc22  1  0.666667  0.333333  0.293180  1
  Ag  Ag23  1  0.333333  0.666667  0.803885  1
