# generated using pymatgen
data_Hf3ScSi6Ir7
_symmetry_space_group_name_H-M   'P 1'
_cell_length_a   6.98834612
_cell_length_b   7.00133483
_cell_length_c   6.98834651
_cell_angle_alpha   109.50887965
_cell_angle_beta   109.43353301
_cell_angle_gamma   109.50888188
_symmetry_Int_Tables_number   1
_chemical_formula_structural   Hf3ScSi6Ir7
_chemical_formula_sum   'Hf3 Sc1 Si6 Ir7'
_cell_volume   263.09084768
_cell_formula_units_Z   1
loop_
 _symmetry_equiv_pos_site_id
 _symmetry_equiv_pos_as_xyz
  1  'x, y, z'
loop_
 _atom_site_type_symbol
 _atom_site_label
 _atom_site_symmetry_multiplicity
 _atom_site_fract_x
 _atom_site_fract_y
 _atom_site_fract_z
 _atom_site_occupancy
  Hf  Hf0  1  0.000000  0.000000  0.500000  1
  Hf  Hf1  1  0.500000  0.000000  0.000000  1
  Hf  Hf2  1  0.500000  0.500000  0.500000  1
  Sc  Sc3  1  0.000000  0.500000  0.000000  1
  Si  Si4  1  0.682308  0.680237  0.000000  1
  Si  Si5  1  0.317692  0.997929  0.317692  1
  Si  Si6  1  0.000000  0.319763  0.317692  1
  Si  Si7  1  0.317692  0.319763  0.000000  1
  Si  Si8  1  0.682308  0.002071  0.682308  1
  Si  Si9  1  0.000000  0.680237  0.682308  1
  Ir  Ir10  1  0.749296  0.249296  0.498593  1
  Ir  Ir11  1  0.749296  0.500000  0.250704  1
  Ir  Ir12  1  0.498593  0.249296  0.749296  1
  Ir  Ir13  1  0.250704  0.500000  0.749296  1
  Ir  Ir14  1  0.250704  0.750704  0.501407  1
  Ir  Ir15  1  0.501407  0.750704  0.250704  1
  Ir  Ir16  1  0.000000  0.000000  0.000000  1
