# generated using pymatgen
data_Th8Mg4IrAu7
_symmetry_space_group_name_H-M   'P 1'
_cell_length_a   8.05726597
_cell_length_b   8.05726667
_cell_length_c   7.91749700
_cell_angle_alpha   90.08549641
_cell_angle_beta   90.08550353
_cell_angle_gamma   90.02376558
_symmetry_Int_Tables_number   1
_chemical_formula_structural   Th8Mg4IrAu7
_chemical_formula_sum   'Th8 Mg4 Ir1 Au7'
_cell_volume   513.99907845
_cell_formula_units_Z   1
loop_
 _symmetry_equiv_pos_site_id
 _symmetry_equiv_pos_as_xyz
  1  'x, y, z'
loop_
 _atom_site_type_symbol
 _atom_site_label
 _atom_site_symmetry_multiplicity
 _atom_site_fract_x
 _atom_site_fract_y
 _atom_site_fract_z
 _atom_site_occupancy
  Th  Th0  1  0.181176  0.181176  0.011195  1
  Th  Th1  1  0.831801  0.831801  0.998587  1
  Th  Th2  1  0.660765  0.325372  0.492113  1
  Th  Th3  1  0.325372  0.660765  0.492113  1
  Th  Th4  1  0.665817  0.321773  0.007300  1
  Th  Th5  1  0.321773  0.665817  0.007300  1
  Th  Th6  1  0.825529  0.825529  0.501021  1
  Th  Th7  1  0.184229  0.184229  0.490180  1
  Mg  Mg8  1  0.500098  0.999653  0.248990  1
  Mg  Mg9  1  0.497595  0.995105  0.750465  1
  Mg  Mg10  1  0.999653  0.500098  0.248990  1
  Mg  Mg11  1  0.995105  0.497595  0.750465  1
  Ir  Ir12  1  0.369281  0.369281  0.248159  1
  Au  Au13  1  0.630840  0.630840  0.754349  1
  Au  Au14  1  0.634295  0.634295  0.244575  1
  Au  Au15  1  0.870508  0.135401  0.745697  1
  Au  Au16  1  0.870897  0.129699  0.254388  1
  Au  Au17  1  0.370166  0.370166  0.754031  1
  Au  Au18  1  0.129699  0.870897  0.254388  1
  Au  Au19  1  0.135401  0.870508  0.745697  1
