# generated using pymatgen
data_AcPr(AgHg)2
_symmetry_space_group_name_H-M   'P 1'
_cell_length_a   4.98078400
_cell_length_b   4.98078395
_cell_length_c   7.51822800
_cell_angle_alpha   90.00000000
_cell_angle_beta   90.00000000
_cell_angle_gamma   119.99998702
_symmetry_Int_Tables_number   1
_chemical_formula_structural   AcPr(AgHg)2
_chemical_formula_sum   'Ac1 Pr1 Ag2 Hg2'
_cell_volume   161.52568563
_cell_formula_units_Z   1
loop_
 _symmetry_equiv_pos_site_id
 _symmetry_equiv_pos_as_xyz
  1  'x, y, z'
loop_
 _atom_site_type_symbol
 _atom_site_label
 _atom_site_symmetry_multiplicity
 _atom_site_fract_x
 _atom_site_fract_y
 _atom_site_fract_z
 _atom_site_occupancy
  Ac  Ac0  1  0.000000  0.000000  0.002505  1
  Pr  Pr1  1  0.000000  0.000000  0.502341  1
  Ag  Ag2  1  0.666667  0.333333  0.272945  1
  Ag  Ag3  1  0.333333  0.666667  0.729792  1
  Hg  Hg4  1  0.333333  0.666667  0.278430  1
  Hg  Hg5  1  0.666667  0.333333  0.728386  1
