# generated using pymatgen
data_Al10Cr3
_symmetry_space_group_name_H-M   'P 1'
_cell_length_a   7.51662901
_cell_length_b   7.51642764
_cell_length_c   8.00515900
_cell_angle_alpha   90.00000000
_cell_angle_beta   90.00000000
_cell_angle_gamma   119.99540787
_symmetry_Int_Tables_number   1
_chemical_formula_structural   Al10Cr3
_chemical_formula_sum   'Al20 Cr6'
_cell_volume   391.70154572
_cell_formula_units_Z   2
loop_
 _symmetry_equiv_pos_site_id
 _symmetry_equiv_pos_as_xyz
  1  'x, y, z'
loop_
 _atom_site_type_symbol
 _atom_site_label
 _atom_site_symmetry_multiplicity
 _atom_site_fract_x
 _atom_site_fract_y
 _atom_site_fract_z
 _atom_site_occupancy
  Al  Al0  1  0.456430  0.912931  0.250000  1
  Al  Al1  1  0.543570  0.087069  0.750000  1
  Al  Al2  1  0.087078  0.543575  0.250000  1
  Al  Al3  1  0.912922  0.456425  0.750000  1
  Al  Al4  1  0.456482  0.543548  0.250000  1
  Al  Al5  1  0.543518  0.456452  0.750000  1
  Al  Al6  1  0.202101  0.404217  0.562260  1
  Al  Al7  1  0.797899  0.595783  0.437740  1
  Al  Al8  1  0.595777  0.797896  0.562248  1
  Al  Al9  1  0.797899  0.595783  0.062260  1
  Al  Al10  1  0.404223  0.202104  0.437752  1
  Al  Al11  1  0.202101  0.404217  0.937740  1
  Al  Al12  1  0.202113  0.797882  0.562223  1
  Al  Al13  1  0.404223  0.202104  0.062248  1
  Al  Al14  1  0.797887  0.202118  0.437777  1
  Al  Al15  1  0.595777  0.797896  0.937752  1
  Al  Al16  1  0.797887  0.202118  0.062223  1
  Al  Al17  1  0.202113  0.797882  0.937777  1
  Al  Al18  1  0.000000  0.000000  0.000000  1
  Al  Al19  1  0.000000  0.000000  0.500000  1
  Cr  Cr20  1  0.115382  0.230756  0.250000  1
  Cr  Cr21  1  0.884618  0.769244  0.750000  1
  Cr  Cr22  1  0.769186  0.884570  0.250000  1
  Cr  Cr23  1  0.230814  0.115430  0.750000  1
  Cr  Cr24  1  0.115368  0.884593  0.250000  1
  Cr  Cr25  1  0.884632  0.115407  0.750000  1
