# generated using pymatgen
data_TmPa(B2Os)2
_symmetry_space_group_name_H-M   'P 1'
_cell_length_a   5.80114000
_cell_length_b   5.33599300
_cell_length_c   6.47915800
_cell_angle_alpha   90.00000000
_cell_angle_beta   90.00000000
_cell_angle_gamma   90.00000000
_symmetry_Int_Tables_number   1
_chemical_formula_structural   TmPa(B2Os)2
_chemical_formula_sum   'Tm2 Pa2 B8 Os4'
_cell_volume   200.56131498
_cell_formula_units_Z   2
loop_
 _symmetry_equiv_pos_site_id
 _symmetry_equiv_pos_as_xyz
  1  'x, y, z'
loop_
 _atom_site_type_symbol
 _atom_site_label
 _atom_site_symmetry_multiplicity
 _atom_site_fract_x
 _atom_site_fract_y
 _atom_site_fract_z
 _atom_site_occupancy
  Tm  Tm0  1  0.993518  0.750000  0.664047  1
  Tm  Tm1  1  0.493518  0.750000  0.835953  1
  Pa  Pa2  1  0.001131  0.250000  0.332071  1
  Pa  Pa3  1  0.501131  0.250000  0.167929  1
  B  B4  1  0.365912  0.084690  0.540238  1
  B  B5  1  0.865912  0.415310  0.959762  1
  B  B6  1  0.635060  0.587479  0.469160  1
  B  B7  1  0.135060  0.912521  0.030840  1
  B  B8  1  0.635060  0.912521  0.469160  1
  B  B9  1  0.135060  0.587479  0.030840  1
  B  B10  1  0.365912  0.415310  0.540238  1
  B  B11  1  0.865912  0.084690  0.959762  1
  Os  Os12  1  0.188200  0.250000  0.819161  1
  Os  Os13  1  0.688200  0.250000  0.680839  1
  Os  Os14  1  0.815206  0.750000  0.190205  1
  Os  Os15  1  0.315206  0.750000  0.309795  1
