# generated using pymatgen
data_Ho5Tm5Sn8
_symmetry_space_group_name_H-M   'P 1'
_cell_length_a   7.96793400
_cell_length_b   8.10314302
_cell_length_c   15.32901403
_cell_angle_alpha   89.99280819
_cell_angle_beta   90.00000000
_cell_angle_gamma   90.00000000
_symmetry_Int_Tables_number   1
_chemical_formula_structural   Ho5Tm5Sn8
_chemical_formula_sum   'Ho10 Tm10 Sn16'
_cell_volume   989.72251580
_cell_formula_units_Z   2
loop_
 _symmetry_equiv_pos_site_id
 _symmetry_equiv_pos_as_xyz
  1  'x, y, z'
loop_
 _atom_site_type_symbol
 _atom_site_label
 _atom_site_symmetry_multiplicity
 _atom_site_fract_x
 _atom_site_fract_y
 _atom_site_fract_z
 _atom_site_occupancy
  Ho  Ho0  1  0.367979  0.836924  0.621888  1
  Ho  Ho1  1  0.867979  0.663076  0.878112  1
  Ho  Ho2  1  0.521088  0.320248  0.903254  1
  Ho  Ho3  1  0.021088  0.179752  0.596746  1
  Ho  Ho4  1  0.478713  0.679295  0.402466  1
  Ho  Ho5  1  0.978713  0.820705  0.097534  1
  Ho  Ho6  1  0.479046  0.679316  0.097211  1
  Ho  Ho7  1  0.979046  0.820684  0.402789  1
  Ho  Ho8  1  0.521093  0.320413  0.596964  1
  Ho  Ho9  1  0.021093  0.179587  0.903036  1
  Tm  Tm10  1  0.367465  0.837362  0.877405  1
  Tm  Tm11  1  0.867465  0.662638  0.622595  1
  Tm  Tm12  1  0.632396  0.162402  0.377373  1
  Tm  Tm13  1  0.132396  0.337598  0.122627  1
  Tm  Tm14  1  0.632129  0.162568  0.123132  1
  Tm  Tm15  1  0.132129  0.337432  0.376868  1
  Tm  Tm16  1  0.198302  0.503679  0.750088  1
  Tm  Tm17  1  0.698302  0.996321  0.749912  1
  Tm  Tm18  1  0.801596  0.496047  0.250179  1
  Tm  Tm19  1  0.301596  0.003953  0.249821  1
  Sn  Sn20  1  0.293312  0.037656  0.041594  1
  Sn  Sn21  1  0.793312  0.462344  0.458406  1
  Sn  Sn22  1  0.708348  0.962450  0.541279  1
  Sn  Sn23  1  0.208348  0.537550  0.958721  1
  Sn  Sn24  1  0.705764  0.964182  0.958654  1
  Sn  Sn25  1  0.205764  0.535818  0.541346  1
  Sn  Sn26  1  0.292972  0.038363  0.457640  1
  Sn  Sn27  1  0.792972  0.461637  0.042360  1
  Sn  Sn28  1  0.564659  0.619233  0.749966  1
  Sn  Sn29  1  0.064659  0.880767  0.750034  1
  Sn  Sn30  1  0.435393  0.379711  0.250083  1
  Sn  Sn31  1  0.935393  0.120289  0.249917  1
  Sn  Sn32  1  0.330081  0.148390  0.750098  1
  Sn  Sn33  1  0.830081  0.351610  0.749902  1
  Sn  Sn34  1  0.669664  0.851734  0.249971  1
  Sn  Sn35  1  0.169664  0.648266  0.250029  1
