# generated using pymatgen
data_DyBeInF6
_symmetry_space_group_name_H-M   'P 1'
_cell_length_a   5.89652800
_cell_length_b   6.55203322
_cell_length_c   7.35238943
_cell_angle_alpha   65.94471562
_cell_angle_beta   90.00000000
_cell_angle_gamma   90.00000000
_symmetry_Int_Tables_number   1
_chemical_formula_structural   DyBeInF6
_chemical_formula_sum   'Dy2 Be2 In2 F12'
_cell_volume   259.38467030
_cell_formula_units_Z   2
loop_
 _symmetry_equiv_pos_site_id
 _symmetry_equiv_pos_as_xyz
  1  'x, y, z'
loop_
 _atom_site_type_symbol
 _atom_site_label
 _atom_site_symmetry_multiplicity
 _atom_site_fract_x
 _atom_site_fract_y
 _atom_site_fract_z
 _atom_site_occupancy
  Dy  Dy0  1  0.250000  0.392060  0.185340  1
  Dy  Dy1  1  0.750000  0.607940  0.814660  1
  Be  Be2  1  0.250000  0.768308  0.464992  1
  Be  Be3  1  0.750000  0.231692  0.535008  1
  In  In4  1  0.250000  0.073028  0.809309  1
  In  In5  1  0.750000  0.926972  0.190691  1
  F  F6  1  0.463238  0.749579  0.597587  1
  F  F7  1  0.536762  0.250421  0.402413  1
  F  F8  1  0.963238  0.250421  0.402413  1
  F  F9  1  0.036762  0.749579  0.597587  1
  F  F10  1  0.250000  0.584718  0.382830  1
  F  F11  1  0.750000  0.415282  0.617170  1
  F  F12  1  0.498644  0.679599  0.023744  1
  F  F13  1  0.501356  0.320401  0.976256  1
  F  F14  1  0.998644  0.320401  0.976256  1
  F  F15  1  0.001356  0.679599  0.023744  1
  F  F16  1  0.250000  0.002715  0.280582  1
  F  F17  1  0.750000  0.997285  0.719418  1
