# generated using pymatgen
data_Ho8Tm4Th4Mg3TlIr4
_symmetry_space_group_name_H-M   'P 1'
_cell_length_a   9.75323604
_cell_length_b   9.75323668
_cell_length_c   9.76113500
_cell_angle_alpha   59.97321130
_cell_angle_beta   59.97320912
_cell_angle_gamma   60.05359224
_symmetry_Int_Tables_number   1
_chemical_formula_structural   Ho8Tm4Th4Mg3TlIr4
_chemical_formula_sum   'Ho8 Tm4 Th4 Mg3 Tl1 Ir4'
_cell_volume   656.57189820
_cell_formula_units_Z   1
loop_
 _symmetry_equiv_pos_site_id
 _symmetry_equiv_pos_as_xyz
  1  'x, y, z'
loop_
 _atom_site_type_symbol
 _atom_site_label
 _atom_site_symmetry_multiplicity
 _atom_site_fract_x
 _atom_site_fract_y
 _atom_site_fract_z
 _atom_site_occupancy
  Ho  Ho0  1  0.186337  0.186337  0.813745  1
  Ho  Ho1  1  0.813623  0.813623  0.184270  1
  Ho  Ho2  1  0.935998  0.565474  0.565623  1
  Ho  Ho3  1  0.565308  0.934793  0.934907  1
  Ho  Ho4  1  0.565474  0.935998  0.565623  1
  Ho  Ho5  1  0.934793  0.565308  0.934907  1
  Ho  Ho6  1  0.565430  0.565430  0.935976  1
  Ho  Ho7  1  0.934632  0.934632  0.565592  1
  Tm  Tm8  1  0.812625  0.187035  0.187221  1
  Tm  Tm9  1  0.185037  0.813265  0.813125  1
  Tm  Tm10  1  0.187035  0.812625  0.187221  1
  Tm  Tm11  1  0.813265  0.185037  0.813125  1
  Th  Th12  1  0.347900  0.347900  0.347228  1
  Th  Th13  1  0.349871  0.349871  0.953273  1
  Th  Th14  1  0.349267  0.953387  0.349733  1
  Th  Th15  1  0.953387  0.349267  0.349733  1
  Mg  Mg16  1  0.580362  0.580362  0.257971  1
  Mg  Mg17  1  0.580464  0.257840  0.580098  1
  Mg  Mg18  1  0.257840  0.580464  0.580098  1
  Tl  Tl19  1  0.583004  0.583004  0.582555  1
  Ir  Ir20  1  0.141733  0.141733  0.143446  1
  Ir  Ir21  1  0.141152  0.141152  0.572656  1
  Ir  Ir22  1  0.143062  0.572400  0.140938  1
  Ir  Ir23  1  0.572400  0.143062  0.140938  1
