# generated using pymatgen
data_K2Ti(CuTe2)2
_symmetry_space_group_name_H-M   'P 1'
_cell_length_a   6.09682300
_cell_length_b   6.09682300
_cell_length_c   14.62944300
_cell_angle_alpha   90.00000000
_cell_angle_beta   90.00000000
_cell_angle_gamma   90.00000000
_symmetry_Int_Tables_number   1
_chemical_formula_structural   K2Ti(CuTe2)2
_chemical_formula_sum   'K4 Ti2 Cu4 Te8'
_cell_volume   543.79469326
_cell_formula_units_Z   2
loop_
 _symmetry_equiv_pos_site_id
 _symmetry_equiv_pos_as_xyz
  1  'x, y, z'
loop_
 _atom_site_type_symbol
 _atom_site_label
 _atom_site_symmetry_multiplicity
 _atom_site_fract_x
 _atom_site_fract_y
 _atom_site_fract_z
 _atom_site_occupancy
  K  K0  1  0.241655  0.241655  0.000000  1
  K  K1  1  0.758345  0.758345  0.000000  1
  K  K2  1  0.758345  0.241655  0.500000  1
  K  K3  1  0.241655  0.758345  0.500000  1
  Ti  Ti4  1  0.000000  0.000000  0.250000  1
  Ti  Ti5  1  0.000000  0.000000  0.750000  1
  Cu  Cu6  1  0.000000  0.500000  0.250000  1
  Cu  Cu7  1  0.000000  0.500000  0.750000  1
  Cu  Cu8  1  0.500000  0.000000  0.750000  1
  Cu  Cu9  1  0.500000  0.000000  0.250000  1
  Te  Te10  1  0.250558  0.250558  0.352973  1
  Te  Te11  1  0.749442  0.749442  0.647027  1
  Te  Te12  1  0.749442  0.749442  0.352973  1
  Te  Te13  1  0.749442  0.250558  0.852973  1
  Te  Te14  1  0.749442  0.250558  0.147027  1
  Te  Te15  1  0.250558  0.250558  0.647027  1
  Te  Te16  1  0.250558  0.749442  0.147027  1
  Te  Te17  1  0.250558  0.749442  0.852973  1
