# generated using pymatgen
data_Tb2Dy8Os3Ru
_symmetry_space_group_name_H-M   'P 1'
_cell_length_a   8.47905169
_cell_length_b   8.47976999
_cell_length_c   7.32828202
_cell_angle_alpha   83.23275937
_cell_angle_beta   83.27246085
_cell_angle_gamma   44.27008137
_symmetry_Int_Tables_number   1
_chemical_formula_structural   Tb2Dy8Os3Ru
_chemical_formula_sum   'Tb2 Dy8 Os3 Ru1'
_cell_volume   364.83171615
_cell_formula_units_Z   1
loop_
 _symmetry_equiv_pos_site_id
 _symmetry_equiv_pos_as_xyz
  1  'x, y, z'
loop_
 _atom_site_type_symbol
 _atom_site_label
 _atom_site_symmetry_multiplicity
 _atom_site_fract_x
 _atom_site_fract_y
 _atom_site_fract_z
 _atom_site_occupancy
  Tb  Tb0  1  0.207530  0.976926  0.584032  1
  Tb  Tb1  1  0.021826  0.793875  0.915797  1
  Dy  Dy2  1  0.203645  0.360298  0.315653  1
  Dy  Dy3  1  0.640512  0.793733  0.185803  1
  Dy  Dy4  1  0.794850  0.640798  0.684783  1
  Dy  Dy5  1  0.360324  0.204513  0.814873  1
  Dy  Dy6  1  0.978481  0.207598  0.083990  1
  Dy  Dy7  1  0.792647  0.023172  0.414963  1
  Dy  Dy8  1  0.576990  0.423401  0.749490  1
  Dy  Dy9  1  0.422773  0.577725  0.250526  1
  Os  Os10  1  0.176672  0.603132  0.575705  1
  Os  Os11  1  0.397403  0.822876  0.924957  1
  Os  Os12  1  0.822715  0.397068  0.423985  1
  Ru  Ru13  1  0.603636  0.174884  0.075444  1
