# generated using pymatgen
data_Dy2Er4Al24Os5Rh3
_symmetry_space_group_name_H-M   'P 1'
_cell_length_a   8.76543996
_cell_length_b   8.78564956
_cell_length_c   9.57095829
_cell_angle_alpha   89.99446950
_cell_angle_beta   89.81807061
_cell_angle_gamma   119.33558238
_symmetry_Int_Tables_number   1
_chemical_formula_structural   Dy2Er4Al24Os5Rh3
_chemical_formula_sum   'Dy2 Er4 Al24 Os5 Rh3'
_cell_volume   642.53911363
_cell_formula_units_Z   1
loop_
 _symmetry_equiv_pos_site_id
 _symmetry_equiv_pos_as_xyz
  1  'x, y, z'
loop_
 _atom_site_type_symbol
 _atom_site_label
 _atom_site_symmetry_multiplicity
 _atom_site_fract_x
 _atom_site_fract_y
 _atom_site_fract_z
 _atom_site_occupancy
  Dy  Dy0  1  0.187318  0.384229  0.251898  1
  Dy  Dy1  1  0.812682  0.615771  0.748102  1
  Er  Er2  1  0.612283  0.813873  0.251378  1
  Er  Er3  1  0.387717  0.186127  0.748622  1
  Er  Er4  1  0.197063  0.808678  0.251894  1
  Er  Er5  1  0.802937  0.191322  0.748106  1
  Al  Al6  1  0.333609  0.667764  0.025072  1
  Al  Al7  1  0.666391  0.332236  0.974928  1
  Al  Al8  1  0.667456  0.332646  0.522568  1
  Al  Al9  1  0.332544  0.667354  0.477432  1
  Al  Al10  1  0.161916  0.325530  0.577445  1
  Al  Al11  1  0.838084  0.674470  0.422555  1
  Al  Al12  1  0.673375  0.836878  0.576455  1
  Al  Al13  1  0.835811  0.674540  0.077609  1
  Al  Al14  1  0.326625  0.163122  0.423545  1
  Al  Al15  1  0.164189  0.325460  0.922391  1
  Al  Al16  1  0.163969  0.834576  0.575831  1
  Al  Al17  1  0.326447  0.162876  0.076453  1
  Al  Al18  1  0.836031  0.165424  0.424169  1
  Al  Al19  1  0.673553  0.837124  0.923547  1
  Al  Al20  1  0.833792  0.162838  0.076194  1
  Al  Al21  1  0.166208  0.837162  0.923806  1
  Al  Al22  1  0.561460  0.126174  0.249533  1
  Al  Al23  1  0.438540  0.873826  0.750467  1
  Al  Al24  1  0.875697  0.439662  0.249984  1
  Al  Al25  1  0.124303  0.560338  0.750016  1
  Al  Al26  1  0.560614  0.440551  0.249550  1
  Al  Al27  1  0.439386  0.559449  0.750450  1
  Al  Al28  1  0.998514  0.001177  0.250075  1
  Al  Al29  1  0.001486  0.998823  0.749925  1
  Os  Os30  1  0.500000  0.000000  0.000000  1
  Os  Os31  1  0.500000  0.000000  0.500000  1
  Os  Os32  1  0.000000  0.500000  0.500000  1
  Os  Os33  1  0.000000  0.000000  0.000000  1
  Os  Os34  1  0.000000  0.000000  0.500000  1
  Rh  Rh35  1  0.000000  0.500000  0.000000  1
  Rh  Rh36  1  0.500000  0.500000  0.000000  1
  Rh  Rh37  1  0.500000  0.500000  0.500000  1
