# generated using pymatgen
data_Sm6PuO12
_symmetry_space_group_name_H-M   'P 1'
_cell_length_a   6.74463922
_cell_length_b   6.72353426
_cell_length_c   6.76014500
_cell_angle_alpha   99.20835103
_cell_angle_beta   99.21035344
_cell_angle_gamma   99.03303090
_symmetry_Int_Tables_number   1
_chemical_formula_structural   Sm6PuO12
_chemical_formula_sum   'Sm6 Pu1 O12'
_cell_volume   293.41277899
_cell_formula_units_Z   1
loop_
 _symmetry_equiv_pos_site_id
 _symmetry_equiv_pos_as_xyz
  1  'x, y, z'
loop_
 _atom_site_type_symbol
 _atom_site_label
 _atom_site_symmetry_multiplicity
 _atom_site_fract_x
 _atom_site_fract_y
 _atom_site_fract_z
 _atom_site_occupancy
  Sm  Sm0  1  0.316013  0.611214  0.145883  1
  Sm  Sm1  1  0.607816  0.143913  0.314515  1
  Sm  Sm2  1  0.392052  0.855756  0.686019  1
  Sm  Sm3  1  0.683385  0.388658  0.854083  1
  Sm  Sm4  1  0.854113  0.680097  0.387344  1
  Sm  Sm5  1  0.145875  0.318723  0.612922  1
  Pu  Pu6  1  0.000207  0.000336  0.999867  1
  O  O7  1  0.925383  0.696367  0.043924  1
  O  O8  1  0.178196  0.591684  0.435052  1
  O  O9  1  0.821878  0.408297  0.565214  1
  O  O10  1  0.569861  0.823420  0.412409  1
  O  O11  1  0.590053  0.433434  0.176683  1
  O  O12  1  0.409479  0.565827  0.823621  1
  O  O13  1  0.959785  0.073158  0.296548  1
  O  O14  1  0.040935  0.929023  0.702707  1
  O  O15  1  0.695676  0.045732  0.927998  1
  O  O16  1  0.074019  0.304606  0.956437  1
  O  O17  1  0.304692  0.953905  0.071307  1
  O  O18  1  0.430580  0.175849  0.587468  1
