# generated using pymatgen
data_Lu4UZn3Ru4
_symmetry_space_group_name_H-M   'P 1'
_cell_length_a   5.62010700
_cell_length_b   5.28403565
_cell_length_c   8.92947300
_cell_angle_alpha   90.00000000
_cell_angle_beta   90.00000000
_cell_angle_gamma   122.12717801
_symmetry_Int_Tables_number   1
_chemical_formula_structural   Lu4UZn3Ru4
_chemical_formula_sum   'Lu4 U1 Zn3 Ru4'
_cell_volume   224.57053656
_cell_formula_units_Z   1
loop_
 _symmetry_equiv_pos_site_id
 _symmetry_equiv_pos_as_xyz
  1  'x, y, z'
loop_
 _atom_site_type_symbol
 _atom_site_label
 _atom_site_symmetry_multiplicity
 _atom_site_fract_x
 _atom_site_fract_y
 _atom_site_fract_z
 _atom_site_occupancy
  Lu  Lu0  1  0.337908  0.675818  0.441238  1
  Lu  Lu1  1  0.674486  0.348972  0.556643  1
  Lu  Lu2  1  0.674486  0.348972  0.943357  1
  Lu  Lu3  1  0.337908  0.675818  0.058762  1
  U  U4  1  0.135249  0.270500  0.750000  1
  Zn  Zn5  1  0.341981  0.183715  0.250000  1
  Zn  Zn6  1  0.842522  0.685041  0.250000  1
  Zn  Zn7  1  0.841736  0.183715  0.250000  1
  Ru  Ru8  1  0.144723  0.775508  0.750000  1
  Ru  Ru9  1  0.630784  0.775508  0.750000  1
  Ru  Ru10  1  0.019109  0.038217  0.999671  1
  Ru  Ru11  1  0.019109  0.038217  0.500329  1
