# generated using pymatgen
data_Tm5Co19(Si3P)3
_symmetry_space_group_name_H-M   'P 1'
_cell_length_a   12.07849600
_cell_length_b   12.07849654
_cell_length_c   3.68385300
_cell_angle_alpha   90.00000000
_cell_angle_beta   90.00000000
_cell_angle_gamma   119.99999852
_symmetry_Int_Tables_number   1
_chemical_formula_structural   Tm5Co19(Si3P)3
_chemical_formula_sum   'Tm5 Co19 Si9 P3'
_cell_volume   465.43460415
_cell_formula_units_Z   1
loop_
 _symmetry_equiv_pos_site_id
 _symmetry_equiv_pos_as_xyz
  1  'x, y, z'
loop_
 _atom_site_type_symbol
 _atom_site_label
 _atom_site_symmetry_multiplicity
 _atom_site_fract_x
 _atom_site_fract_y
 _atom_site_fract_z
 _atom_site_occupancy
  Tm  Tm0  1  0.666667  0.333333  0.000000  1
  Tm  Tm1  1  0.333333  0.666667  0.000000  1
  Tm  Tm2  1  0.184344  0.184344  0.500000  1
  Tm  Tm3  1  0.815656  0.000000  0.500000  1
  Tm  Tm4  1  0.000000  0.815656  0.500000  1
  Co  Co5  1  0.824173  0.196920  0.000000  1
  Co  Co6  1  0.803080  0.627251  0.000000  1
  Co  Co7  1  0.372749  0.175827  0.000000  1
  Co  Co8  1  0.196920  0.824173  0.000000  1
  Co  Co9  1  0.627251  0.803080  0.000000  1
  Co  Co10  1  0.175827  0.372749  0.000000  1
  Co  Co11  1  0.557729  0.557729  0.000000  1
  Co  Co12  1  0.442271  0.000000  0.000000  1
  Co  Co13  1  0.000000  0.442271  0.000000  1
  Co  Co14  1  0.645150  0.123737  0.500000  1
  Co  Co15  1  0.876263  0.521414  0.500000  1
  Co  Co16  1  0.478586  0.354850  0.500000  1
  Co  Co17  1  0.123737  0.645150  0.500000  1
  Co  Co18  1  0.521414  0.876263  0.500000  1
  Co  Co19  1  0.354850  0.478586  0.500000  1
  Co  Co20  1  0.722619  0.722619  0.500000  1
  Co  Co21  1  0.277381  0.000000  0.500000  1
  Co  Co22  1  0.000000  0.277381  0.500000  1
  Co  Co23  1  0.000000  0.000000  0.000000  1
  Si  Si24  1  0.369175  0.369175  0.000000  1
  Si  Si25  1  0.630825  0.000000  0.000000  1
  Si  Si26  1  0.000000  0.630825  0.000000  1
  Si  Si27  1  0.839823  0.318459  0.500000  1
  Si  Si28  1  0.681541  0.521364  0.500000  1
  Si  Si29  1  0.478636  0.160177  0.500000  1
  Si  Si30  1  0.318459  0.839823  0.500000  1
  Si  Si31  1  0.521364  0.681541  0.500000  1
  Si  Si32  1  0.160177  0.478636  0.500000  1
  P  P33  1  0.819540  0.819540  0.000000  1
  P  P34  1  0.180460  0.000000  0.000000  1
  P  P35  1  0.000000  0.180460  0.000000  1
