# generated using pymatgen
data_CsGaCoF6
_symmetry_space_group_name_H-M   'P 1'
_cell_length_a   7.44181612
_cell_length_b   7.44181575
_cell_length_c   7.44181603
_cell_angle_alpha   119.90832803
_cell_angle_beta   120.20706359
_cell_angle_gamma   89.90029747
_symmetry_Int_Tables_number   1
_chemical_formula_structural   CsGaCoF6
_chemical_formula_sum   'Cs2 Ga2 Co2 F12'
_cell_volume   291.16451658
_cell_formula_units_Z   2
loop_
 _symmetry_equiv_pos_site_id
 _symmetry_equiv_pos_as_xyz
  1  'x, y, z'
loop_
 _atom_site_type_symbol
 _atom_site_label
 _atom_site_symmetry_multiplicity
 _atom_site_fract_x
 _atom_site_fract_y
 _atom_site_fract_z
 _atom_site_occupancy
  Cs  Cs0  1  0.622089  0.872089  0.750000  1
  Cs  Cs1  1  0.377911  0.127911  0.250000  1
  Ga  Ga2  1  0.000000  0.500000  0.000000  1
  Ga  Ga3  1  0.000000  0.000000  0.500000  1
  Co  Co4  1  0.500000  0.500000  0.000000  1
  Co  Co5  1  0.000000  0.500000  0.500000  1
  F  F6  1  0.058984  0.808984  0.250000  1
  F  F7  1  0.674567  0.424567  0.250000  1
  F  F8  1  0.060742  0.830922  0.636180  1
  F  F9  1  0.694741  0.424561  0.863820  1
  F  F10  1  0.694741  0.830922  0.270180  1
  F  F11  1  0.060742  0.424561  0.229820  1
  F  F12  1  0.941016  0.191016  0.750000  1
  F  F13  1  0.325433  0.575433  0.750000  1
  F  F14  1  0.939258  0.169078  0.363820  1
  F  F15  1  0.305259  0.575439  0.136180  1
  F  F16  1  0.305259  0.169078  0.729820  1
  F  F17  1  0.939258  0.575439  0.770180  1
