# generated using pymatgen
data_Np2Ge4Ru3
_symmetry_space_group_name_H-M   'P 1'
_cell_length_a   8.22007600
_cell_length_b   5.72622617
_cell_length_c   6.81198100
_cell_angle_alpha   75.59600767
_cell_angle_beta   90.00000000
_cell_angle_gamma   90.00000000
_symmetry_Int_Tables_number   1
_chemical_formula_structural   Np2Ge4Ru3
_chemical_formula_sum   'Np4 Ge8 Ru6'
_cell_volume   310.56098935
_cell_formula_units_Z   2
loop_
 _symmetry_equiv_pos_site_id
 _symmetry_equiv_pos_as_xyz
  1  'x, y, z'
loop_
 _atom_site_type_symbol
 _atom_site_label
 _atom_site_symmetry_multiplicity
 _atom_site_fract_x
 _atom_site_fract_y
 _atom_site_fract_z
 _atom_site_occupancy
  Np  Np0  1  0.547414  0.074863  0.261482  1
  Np  Np1  1  0.047414  0.425137  0.738518  1
  Np  Np2  1  0.452586  0.925137  0.738518  1
  Np  Np3  1  0.952586  0.574863  0.261482  1
  Ge  Ge4  1  0.899467  0.120307  0.129501  1
  Ge  Ge5  1  0.399467  0.379693  0.870499  1
  Ge  Ge6  1  0.100533  0.879693  0.870499  1
  Ge  Ge7  1  0.600533  0.620307  0.129501  1
  Ge  Ge8  1  0.749435  0.227491  0.574666  1
  Ge  Ge9  1  0.249435  0.272509  0.425334  1
  Ge  Ge10  1  0.250565  0.772509  0.425334  1
  Ge  Ge11  1  0.750565  0.727491  0.574666  1
  Ru  Ru12  1  0.204232  0.120303  0.107104  1
  Ru  Ru13  1  0.704232  0.379697  0.892896  1
  Ru  Ru14  1  0.795768  0.879697  0.892896  1
  Ru  Ru15  1  0.295768  0.620303  0.107104  1
  Ru  Ru16  1  0.000000  0.000000  0.500000  1
  Ru  Ru17  1  0.500000  0.500000  0.500000  1
