# generated using pymatgen
data_FeBi6(AsO5)4
_symmetry_space_group_name_H-M   'P 1'
_cell_length_a   7.13070112
_cell_length_b   7.85568573
_cell_length_c   9.47973409
_cell_angle_alpha   105.29469555
_cell_angle_beta   95.40030510
_cell_angle_gamma   113.09115587
_symmetry_Int_Tables_number   1
_chemical_formula_structural   FeBi6(AsO5)4
_chemical_formula_sum   'Fe1 Bi6 As4 O20'
_cell_volume   459.34804706
_cell_formula_units_Z   1
loop_
 _symmetry_equiv_pos_site_id
 _symmetry_equiv_pos_as_xyz
  1  'x, y, z'
loop_
 _atom_site_type_symbol
 _atom_site_label
 _atom_site_symmetry_multiplicity
 _atom_site_fract_x
 _atom_site_fract_y
 _atom_site_fract_z
 _atom_site_occupancy
  Fe  Fe0  1  0.000000  0.000000  0.000000  1
  Bi  Bi1  1  0.349257  0.135277  0.516242  1
  Bi  Bi2  1  0.650743  0.864723  0.483758  1
  Bi  Bi3  1  0.433773  0.797299  0.082059  1
  Bi  Bi4  1  0.566227  0.202701  0.917941  1
  Bi  Bi5  1  0.808877  0.295167  0.324037  1
  Bi  Bi6  1  0.191123  0.704833  0.675963  1
  As  As7  1  0.056556  0.260628  0.770020  1
  As  As8  1  0.943444  0.739372  0.229980  1
  As  As9  1  0.331343  0.377579  0.243476  1
  As  As10  1  0.668657  0.622421  0.756524  1
  O  O11  1  0.090238  0.214162  0.255713  1
  O  O12  1  0.909762  0.785838  0.744287  1
  O  O13  1  0.158571  0.512777  0.839047  1
  O  O14  1  0.841429  0.487223  0.160953  1
  O  O15  1  0.663719  0.096817  0.105111  1
  O  O16  1  0.336281  0.903183  0.894889  1
  O  O17  1  0.547609  0.029208  0.365029  1
  O  O18  1  0.452391  0.970792  0.634971  1
  O  O19  1  0.345722  0.610070  0.293747  1
  O  O20  1  0.654278  0.389930  0.706253  1
  O  O21  1  0.249510  0.180426  0.754024  1
  O  O22  1  0.750490  0.819574  0.245976  1
  O  O23  1  0.534731  0.382995  0.361986  1
  O  O24  1  0.465269  0.617005  0.638014  1
  O  O25  1  0.075203  0.814812  0.414672  1
  O  O26  1  0.924797  0.185188  0.585328  1
  O  O27  1  0.102135  0.843803  0.119287  1
  O  O28  1  0.897865  0.156197  0.880713  1
  O  O29  1  0.324472  0.273768  0.056770  1
  O  O30  1  0.675528  0.726232  0.943230  1
