# generated using pymatgen
data_Ta3Nb12Co8ReN4
_symmetry_space_group_name_H-M   'P 1'
_cell_length_a   8.22051697
_cell_length_b   8.22051660
_cell_length_c   8.22051605
_cell_angle_alpha   59.53748772
_cell_angle_beta   59.53749416
_cell_angle_gamma   59.53748941
_symmetry_Int_Tables_number   1
_chemical_formula_structural   Ta3Nb12Co8ReN4
_chemical_formula_sum   'Ta3 Nb12 Co8 Re1 N4'
_cell_volume   388.67889854
_cell_formula_units_Z   1
loop_
 _symmetry_equiv_pos_site_id
 _symmetry_equiv_pos_as_xyz
  1  'x, y, z'
loop_
 _atom_site_type_symbol
 _atom_site_label
 _atom_site_symmetry_multiplicity
 _atom_site_fract_x
 _atom_site_fract_y
 _atom_site_fract_z
 _atom_site_occupancy
  Ta  Ta0  1  0.125000  0.625000  0.625000  1
  Ta  Ta1  1  0.625000  0.125000  0.625000  1
  Ta  Ta2  1  0.625000  0.625000  0.125000  1
  Nb  Nb3  1  0.808495  0.808495  0.193704  1
  Nb  Nb4  1  0.185235  0.185235  0.814508  1
  Nb  Nb5  1  0.808495  0.193704  0.808495  1
  Nb  Nb6  1  0.185235  0.814508  0.185235  1
  Nb  Nb7  1  0.193704  0.808495  0.808495  1
  Nb  Nb8  1  0.814508  0.185235  0.185235  1
  Nb  Nb9  1  0.441505  0.441505  0.056296  1
  Nb  Nb10  1  0.064765  0.064765  0.435492  1
  Nb  Nb11  1  0.441505  0.056296  0.441505  1
  Nb  Nb12  1  0.064765  0.435492  0.064765  1
  Nb  Nb13  1  0.056296  0.441505  0.441505  1
  Nb  Nb14  1  0.435492  0.064765  0.064765  1
  Co  Co15  1  0.733635  0.424287  0.424287  1
  Co  Co16  1  0.424287  0.733635  0.424287  1
  Co  Co17  1  0.424287  0.424287  0.733635  1
  Co  Co18  1  0.420617  0.420617  0.420617  1
  Co  Co19  1  0.516365  0.825713  0.825713  1
  Co  Co20  1  0.825713  0.516365  0.825713  1
  Co  Co21  1  0.825713  0.825713  0.516365  1
  Co  Co22  1  0.829383  0.829383  0.829383  1
  Re  Re23  1  0.625000  0.625000  0.625000  1
  N  N24  1  0.625000  0.125000  0.125000  1
  N  N25  1  0.125000  0.625000  0.125000  1
  N  N26  1  0.125000  0.125000  0.625000  1
  N  N27  1  0.125000  0.125000  0.125000  1
