# generated using pymatgen
data_CaPmZn4
_symmetry_space_group_name_H-M   'P 1'
_cell_length_a   4.54332700
_cell_length_b   4.54332760
_cell_length_c   7.43411800
_cell_angle_alpha   90.00000000
_cell_angle_beta   90.00000000
_cell_angle_gamma   120.00000294
_symmetry_Int_Tables_number   1
_chemical_formula_structural   CaPmZn4
_chemical_formula_sum   'Ca1 Pm1 Zn4'
_cell_volume   132.89483968
_cell_formula_units_Z   1
loop_
 _symmetry_equiv_pos_site_id
 _symmetry_equiv_pos_as_xyz
  1  'x, y, z'
loop_
 _atom_site_type_symbol
 _atom_site_label
 _atom_site_symmetry_multiplicity
 _atom_site_fract_x
 _atom_site_fract_y
 _atom_site_fract_z
 _atom_site_occupancy
  Ca  Ca0  1  0.000000  0.000000  0.000000  1
  Pm  Pm1  1  0.000000  0.000000  0.500000  1
  Zn  Zn2  1  0.666667  0.333333  0.269208  1
  Zn  Zn3  1  0.333333  0.666666  0.269208  1
  Zn  Zn4  1  0.666667  0.333333  0.730792  1
  Zn  Zn5  1  0.333333  0.666666  0.730792  1
