# generated using pymatgen
data_DyNbFeB6
_symmetry_space_group_name_H-M   'P 1'
_cell_length_a   3.36904000
_cell_length_b   8.92793300
_cell_length_c   11.24440800
_cell_angle_alpha   90.00000000
_cell_angle_beta   90.00000000
_cell_angle_gamma   90.00000000
_symmetry_Int_Tables_number   1
_chemical_formula_structural   DyNbFeB6
_chemical_formula_sum   'Dy4 Nb4 Fe4 B24'
_cell_volume   338.21563886
_cell_formula_units_Z   4
loop_
 _symmetry_equiv_pos_site_id
 _symmetry_equiv_pos_as_xyz
  1  'x, y, z'
loop_
 _atom_site_type_symbol
 _atom_site_label
 _atom_site_symmetry_multiplicity
 _atom_site_fract_x
 _atom_site_fract_y
 _atom_site_fract_z
 _atom_site_occupancy
  Dy  Dy0  1  0.000000  0.823298  0.086357  1
  Dy  Dy1  1  0.000000  0.176702  0.913643  1
  Dy  Dy2  1  0.000000  0.323298  0.413643  1
  Dy  Dy3  1  0.000000  0.676702  0.586357  1
  Nb  Nb4  1  0.000000  0.444961  0.127956  1
  Nb  Nb5  1  0.000000  0.555039  0.872044  1
  Nb  Nb6  1  0.000000  0.944961  0.372044  1
  Nb  Nb7  1  0.000000  0.055039  0.627956  1
  Fe  Fe8  1  0.000000  0.143898  0.183464  1
  Fe  Fe9  1  0.000000  0.856102  0.816536  1
  Fe  Fe10  1  0.000000  0.643898  0.316536  1
  Fe  Fe11  1  0.000000  0.356102  0.683464  1
  B  B12  1  0.500000  0.054966  0.067957  1
  B  B13  1  0.500000  0.945034  0.932043  1
  B  B14  1  0.500000  0.554966  0.432043  1
  B  B15  1  0.500000  0.445034  0.567957  1
  B  B16  1  0.500000  0.251606  0.083357  1
  B  B17  1  0.500000  0.748394  0.916643  1
  B  B18  1  0.500000  0.751606  0.416643  1
  B  B19  1  0.500000  0.248394  0.583357  1
  B  B20  1  0.500000  0.296507  0.236176  1
  B  B21  1  0.500000  0.703493  0.763824  1
  B  B22  1  0.500000  0.796507  0.263824  1
  B  B23  1  0.500000  0.203493  0.736176  1
  B  B24  1  0.500000  0.130228  0.316443  1
  B  B25  1  0.500000  0.869772  0.683557  1
  B  B26  1  0.500000  0.630228  0.183557  1
  B  B27  1  0.500000  0.369772  0.816443  1
  B  B28  1  0.500000  0.482933  0.286908  1
  B  B29  1  0.500000  0.517067  0.713092  1
  B  B30  1  0.500000  0.982933  0.213092  1
  B  B31  1  0.500000  0.017067  0.786908  1
  B  B32  1  0.500000  0.100144  0.473593  1
  B  B33  1  0.500000  0.899856  0.526407  1
  B  B34  1  0.500000  0.600144  0.026407  1
  B  B35  1  0.500000  0.399856  0.973593  1
