# generated using pymatgen
data_Tb5DyAl24Ru7Rh
_symmetry_space_group_name_H-M   'P 1'
_cell_length_a   8.80727954
_cell_length_b   8.82132755
_cell_length_c   9.59547284
_cell_angle_alpha   89.91132660
_cell_angle_beta   89.95201817
_cell_angle_gamma   119.89969313
_symmetry_Int_Tables_number   1
_chemical_formula_structural   Tb5DyAl24Ru7Rh
_chemical_formula_sum   'Tb5 Dy1 Al24 Ru7 Rh1'
_cell_volume   646.26338852
_cell_formula_units_Z   1
loop_
 _symmetry_equiv_pos_site_id
 _symmetry_equiv_pos_as_xyz
  1  'x, y, z'
loop_
 _atom_site_type_symbol
 _atom_site_label
 _atom_site_symmetry_multiplicity
 _atom_site_fract_x
 _atom_site_fract_y
 _atom_site_fract_z
 _atom_site_occupancy
  Tb  Tb0  1  0.191596  0.806134  0.249271  1
  Tb  Tb1  1  0.193508  0.386330  0.249343  1
  Tb  Tb2  1  0.615149  0.807924  0.248974  1
  Tb  Tb3  1  0.808335  0.193825  0.750722  1
  Tb  Tb4  1  0.806469  0.613595  0.750655  1
  Dy  Dy5  1  0.385340  0.192436  0.751090  1
  Al  Al6  1  0.561315  0.438010  0.250189  1
  Al  Al7  1  0.561727  0.122864  0.249147  1
  Al  Al8  1  0.876403  0.437669  0.250241  1
  Al  Al9  1  0.438597  0.561645  0.749819  1
  Al  Al10  1  0.438209  0.877401  0.750824  1
  Al  Al11  1  0.123633  0.562330  0.749763  1
  Al  Al12  1  0.325672  0.164761  0.422581  1
  Al  Al13  1  0.838706  0.164551  0.423482  1
  Al  Al14  1  0.836773  0.674173  0.422859  1
  Al  Al15  1  0.674312  0.835202  0.577714  1
  Al  Al16  1  0.161401  0.835664  0.576668  1
  Al  Al17  1  0.163286  0.325690  0.577328  1
  Al  Al18  1  0.673794  0.836730  0.922826  1
  Al  Al19  1  0.163331  0.837386  0.923576  1
  Al  Al20  1  0.163598  0.326216  0.923084  1
  Al  Al21  1  0.326188  0.163263  0.076871  1
  Al  Al22  1  0.836753  0.162848  0.076248  1
  Al  Al23  1  0.836482  0.673659  0.076733  1
  Al  Al24  1  0.667459  0.334846  0.516721  1
  Al  Al25  1  0.332350  0.665039  0.483493  1
  Al  Al26  1  0.333376  0.666859  0.016102  1
  Al  Al27  1  0.666436  0.333068  0.983670  1
  Al  Al28  1  0.999839  0.999485  0.249950  1
  Al  Al29  1  0.000572  0.000699  0.750043  1
  Ru  Ru30  1  0.000005  0.000020  0.499996  1
  Ru  Ru31  1  0.999973  0.999992  0.999995  1
  Ru  Ru32  1  0.499912  0.499775  0.500144  1
  Ru  Ru33  1  0.999876  0.499940  0.500061  1
  Ru  Ru34  1  0.499915  0.499789  0.999879  1
  Ru  Ru35  1  0.499926  0.000143  0.999854  1
  Ru  Ru36  1  0.999898  0.499943  0.999954  1
  Rh  Rh37  1  0.499887  0.000097  0.500129  1
