# generated using pymatgen
data_OsO2F
_symmetry_space_group_name_H-M   'P 1'
_cell_length_a   5.18068451
_cell_length_b   5.18068433
_cell_length_c   5.40981638
_cell_angle_alpha   60.85537509
_cell_angle_beta   60.85537644
_cell_angle_gamma   61.56983302
_symmetry_Int_Tables_number   1
_chemical_formula_structural   OsO2F
_chemical_formula_sum   'Os2 O4 F2'
_cell_volume   105.18628927
_cell_formula_units_Z   2
loop_
 _symmetry_equiv_pos_site_id
 _symmetry_equiv_pos_as_xyz
  1  'x, y, z'
loop_
 _atom_site_type_symbol
 _atom_site_label
 _atom_site_symmetry_multiplicity
 _atom_site_fract_x
 _atom_site_fract_y
 _atom_site_fract_z
 _atom_site_occupancy
  Os  Os0  1  0.749227  0.194315  0.849984  1
  Os  Os1  1  0.194315  0.749227  0.349984  1
  O  O2  1  0.904044  0.529181  0.596765  1
  O  O3  1  0.073625  0.947380  0.616798  1
  O  O4  1  0.529181  0.904044  0.096765  1
  O  O5  1  0.947380  0.073625  0.116798  1
  F  F6  1  0.490153  0.354507  0.572805  1
  F  F7  1  0.354507  0.490153  0.072805  1
