# generated using pymatgen
data_Tb2Ta4FeB4Ru9
_symmetry_space_group_name_H-M   'P 1'
_cell_length_a   9.49365513
_cell_length_b   9.49365608
_cell_length_c   3.09460400
_cell_angle_alpha   90.00000000
_cell_angle_beta   90.00000000
_cell_angle_gamma   90.28912539
_symmetry_Int_Tables_number   1
_chemical_formula_structural   Tb2Ta4FeB4Ru9
_chemical_formula_sum   'Tb2 Ta4 Fe1 B4 Ru9'
_cell_volume   278.91154989
_cell_formula_units_Z   1
loop_
 _symmetry_equiv_pos_site_id
 _symmetry_equiv_pos_as_xyz
  1  'x, y, z'
loop_
 _atom_site_type_symbol
 _atom_site_label
 _atom_site_symmetry_multiplicity
 _atom_site_fract_x
 _atom_site_fract_y
 _atom_site_fract_z
 _atom_site_occupancy
  Tb  Tb0  1  0.821511  0.678489  0.000000  1
  Tb  Tb1  1  0.178489  0.321511  0.000000  1
  Ta  Ta2  1  0.330096  0.830096  0.000000  1
  Ta  Ta3  1  0.669904  0.169904  0.000000  1
  Ta  Ta4  1  0.500000  0.500000  0.000000  1
  Ta  Ta5  1  0.000000  0.000000  0.000000  1
  Fe  Fe6  1  0.500000  0.000000  0.500000  1
  B  B7  1  0.610242  0.889758  0.000000  1
  B  B8  1  0.389758  0.110242  0.000000  1
  B  B9  1  0.122247  0.622247  0.000000  1
  B  B10  1  0.877753  0.377753  0.000000  1
  Ru  Ru11  1  0.555133  0.730167  0.500000  1
  Ru  Ru12  1  0.444867  0.269833  0.500000  1
  Ru  Ru13  1  0.081460  0.786580  0.500000  1
  Ru  Ru14  1  0.918540  0.213420  0.500000  1
  Ru  Ru15  1  0.286580  0.581460  0.500000  1
  Ru  Ru16  1  0.713420  0.418540  0.500000  1
  Ru  Ru17  1  0.230167  0.055133  0.500000  1
  Ru  Ru18  1  0.769833  0.944867  0.500000  1
  Ru  Ru19  1  0.000000  0.500000  0.500000  1
