# generated using pymatgen
data_TmLu4(In2Cu)2
_symmetry_space_group_name_H-M   'P 1'
_cell_length_a   3.60507100
_cell_length_b   7.92652300
_cell_length_c   17.68632400
_cell_angle_alpha   90.00000000
_cell_angle_beta   90.00000000
_cell_angle_gamma   90.00000000
_symmetry_Int_Tables_number   1
_chemical_formula_structural   TmLu4(In2Cu)2
_chemical_formula_sum   'Tm2 Lu8 In8 Cu4'
_cell_volume   505.39870313
_cell_formula_units_Z   2
loop_
 _symmetry_equiv_pos_site_id
 _symmetry_equiv_pos_as_xyz
  1  'x, y, z'
loop_
 _atom_site_type_symbol
 _atom_site_label
 _atom_site_symmetry_multiplicity
 _atom_site_fract_x
 _atom_site_fract_y
 _atom_site_fract_z
 _atom_site_occupancy
  Tm  Tm0  1  0.000000  0.500000  0.500000  1
  Tm  Tm1  1  0.000000  0.000000  0.000000  1
  Lu  Lu2  1  0.000000  0.736641  0.279890  1
  Lu  Lu3  1  0.000000  0.263359  0.720110  1
  Lu  Lu4  1  0.000000  0.763359  0.779890  1
  Lu  Lu5  1  0.000000  0.236641  0.220110  1
  Lu  Lu6  1  0.000000  0.614595  0.083627  1
  Lu  Lu7  1  0.000000  0.385405  0.916373  1
  Lu  Lu8  1  0.000000  0.885405  0.583627  1
  Lu  Lu9  1  0.000000  0.114595  0.416373  1
  In  In10  1  0.500000  0.708735  0.931419  1
  In  In11  1  0.500000  0.291265  0.068581  1
  In  In12  1  0.500000  0.791265  0.431419  1
  In  In13  1  0.500000  0.208735  0.568581  1
  In  In14  1  0.500000  0.582942  0.650073  1
  In  In15  1  0.500000  0.417058  0.349927  1
  In  In16  1  0.500000  0.917058  0.150073  1
  In  In17  1  0.500000  0.082942  0.849927  1
  Cu  Cu18  1  0.500000  0.521774  0.197285  1
  Cu  Cu19  1  0.500000  0.478226  0.802715  1
  Cu  Cu20  1  0.500000  0.978226  0.697285  1
  Cu  Cu21  1  0.500000  0.021774  0.302715  1
