# generated using pymatgen
data_Dy19Y(Bi2P)4
_symmetry_space_group_name_H-M   'P 1'
_cell_length_a   7.99728900
_cell_length_b   8.97721600
_cell_length_c   12.18206400
_cell_angle_alpha   90.00001579
_cell_angle_beta   89.99684353
_cell_angle_gamma   90.00000000
_symmetry_Int_Tables_number   1
_chemical_formula_structural   Dy19Y(Bi2P)4
_chemical_formula_sum   'Dy19 Y1 Bi8 P4'
_cell_volume   874.59168044
_cell_formula_units_Z   1
loop_
 _symmetry_equiv_pos_site_id
 _symmetry_equiv_pos_as_xyz
  1  'x, y, z'
loop_
 _atom_site_type_symbol
 _atom_site_label
 _atom_site_symmetry_multiplicity
 _atom_site_fract_x
 _atom_site_fract_y
 _atom_site_fract_z
 _atom_site_occupancy
  Dy  Dy0  1  0.148417  0.250000  0.205466  1
  Dy  Dy1  1  0.351582  0.250000  0.705451  1
  Dy  Dy2  1  0.648407  0.750000  0.294557  1
  Dy  Dy3  1  0.376315  0.750000  0.699483  1
  Dy  Dy4  1  0.623637  0.250000  0.300530  1
  Dy  Dy5  1  0.876373  0.250000  0.800480  1
  Dy  Dy6  1  0.123668  0.750000  0.199513  1
  Dy  Dy7  1  0.958938  0.750000  0.502141  1
  Dy  Dy8  1  0.041025  0.250000  0.497807  1
  Dy  Dy9  1  0.458943  0.250000  0.997764  1
  Dy  Dy10  1  0.541004  0.750000  0.002250  1
  Dy  Dy11  1  0.683242  0.048787  0.564013  1
  Dy  Dy12  1  0.316771  0.951202  0.436007  1
  Dy  Dy13  1  0.183315  0.951189  0.936004  1
  Dy  Dy14  1  0.316771  0.548798  0.436007  1
  Dy  Dy15  1  0.816747  0.048772  0.063997  1
  Dy  Dy16  1  0.683243  0.451213  0.564013  1
  Dy  Dy17  1  0.816747  0.451228  0.063997  1
  Dy  Dy18  1  0.183314  0.548812  0.936004  1
  Y  Y19  1  0.851607  0.750000  0.794463  1
  Bi  Bi20  1  0.577437  0.490843  0.826586  1
  Bi  Bi21  1  0.422426  0.509083  0.173408  1
  Bi  Bi22  1  0.077662  0.509021  0.673359  1
  Bi  Bi23  1  0.422426  0.990917  0.173408  1
  Bi  Bi24  1  0.922420  0.490897  0.326587  1
  Bi  Bi25  1  0.577437  0.009157  0.826586  1
  Bi  Bi26  1  0.922420  0.009103  0.326587  1
  Bi  Bi27  1  0.077662  0.990979  0.673359  1
  P  P28  1  0.572767  0.750000  0.512080  1
  P  P29  1  0.427206  0.250000  0.487893  1
  P  P30  1  0.072780  0.250000  0.987887  1
  P  P31  1  0.927289  0.750000  0.012317  1
