# generated using pymatgen
data_Sr11Al4Tl3
_symmetry_space_group_name_H-M   'P 1'
_cell_length_a   12.43242535
_cell_length_b   12.43242485
_cell_length_c   12.43242500
_cell_angle_alpha   59.99999694
_cell_angle_beta   59.99999828
_cell_angle_gamma   59.99999751
_symmetry_Int_Tables_number   1
_chemical_formula_structural   Sr11Al4Tl3
_chemical_formula_sum   'Sr22 Al8 Tl6'
_cell_volume   1358.79058599
_cell_formula_units_Z   2
loop_
 _symmetry_equiv_pos_site_id
 _symmetry_equiv_pos_as_xyz
  1  'x, y, z'
loop_
 _atom_site_type_symbol
 _atom_site_label
 _atom_site_symmetry_multiplicity
 _atom_site_fract_x
 _atom_site_fract_y
 _atom_site_fract_z
 _atom_site_occupancy
  Sr  Sr0  1  0.163375  0.836625  0.500000  1
  Sr  Sr1  1  0.500000  0.163375  0.500000  1
  Sr  Sr2  1  0.500000  0.500000  0.163375  1
  Sr  Sr3  1  0.163375  0.500000  0.836625  1
  Sr  Sr4  1  0.836625  0.163375  0.500000  1
  Sr  Sr5  1  0.836625  0.500000  0.163375  1
  Sr  Sr6  1  0.500000  0.500000  0.836624  1
  Sr  Sr7  1  0.500000  0.836624  0.500000  1
  Sr  Sr8  1  0.500000  0.163375  0.836625  1
  Sr  Sr9  1  0.163375  0.500000  0.500000  1
  Sr  Sr10  1  0.500000  0.836625  0.163375  1
  Sr  Sr11  1  0.836624  0.500000  0.500000  1
  Sr  Sr12  1  0.500000  0.500000  0.500000  1
  Sr  Sr13  1  0.394573  0.868476  0.868476  1
  Sr  Sr14  1  0.868476  0.394573  0.868476  1
  Sr  Sr15  1  0.868476  0.868476  0.394573  1
  Sr  Sr16  1  0.868476  0.868476  0.868476  1
  Sr  Sr17  1  0.131524  0.605428  0.131524  1
  Sr  Sr18  1  0.605428  0.131524  0.131524  1
  Sr  Sr19  1  0.131524  0.131524  0.605428  1
  Sr  Sr20  1  0.131524  0.131524  0.131524  1
  Sr  Sr21  1  0.000000  0.000000  0.000000  1
  Al  Al22  1  0.915947  0.694684  0.694684  1
  Al  Al23  1  0.694684  0.915947  0.694684  1
  Al  Al24  1  0.694684  0.694684  0.915947  1
  Al  Al25  1  0.694684  0.694684  0.694684  1
  Al  Al26  1  0.305316  0.084054  0.305316  1
  Al  Al27  1  0.084054  0.305316  0.305316  1
  Al  Al28  1  0.305316  0.305316  0.084054  1
  Al  Al29  1  0.305316  0.305316  0.305316  1
  Tl  Tl30  1  0.781734  0.781734  0.218267  1
  Tl  Tl31  1  0.781734  0.218267  0.781734  1
  Tl  Tl32  1  0.218266  0.218266  0.781734  1
  Tl  Tl33  1  0.218266  0.781734  0.218266  1
  Tl  Tl34  1  0.218267  0.781734  0.781734  1
  Tl  Tl35  1  0.781734  0.218266  0.218266  1
