# generated using pymatgen
data_Y8Tm12Sn15Ru
_symmetry_space_group_name_H-M   'P 1'
_cell_length_a   7.83645100
_cell_length_b   8.17603065
_cell_length_c   15.26644900
_cell_angle_alpha   90.00000000
_cell_angle_beta   90.00000000
_cell_angle_gamma   89.88093082
_symmetry_Int_Tables_number   1
_chemical_formula_structural   Y8Tm12Sn15Ru
_chemical_formula_sum   'Y8 Tm12 Sn15 Ru1'
_cell_volume   978.13551271
_cell_formula_units_Z   1
loop_
 _symmetry_equiv_pos_site_id
 _symmetry_equiv_pos_as_xyz
  1  'x, y, z'
loop_
 _atom_site_type_symbol
 _atom_site_label
 _atom_site_symmetry_multiplicity
 _atom_site_fract_x
 _atom_site_fract_y
 _atom_site_fract_z
 _atom_site_occupancy
  Y  Y0  1  0.512698  0.330819  0.902783  1
  Y  Y1  1  0.020102  0.181627  0.597644  1
  Y  Y2  1  0.484795  0.682393  0.404777  1
  Y  Y3  1  0.984600  0.823474  0.095823  1
  Y  Y4  1  0.484795  0.682393  0.095223  1
  Y  Y5  1  0.984600  0.823474  0.404177  1
  Y  Y6  1  0.512698  0.330819  0.597217  1
  Y  Y7  1  0.020102  0.181627  0.902356  1
  Tm  Tm8  1  0.380570  0.814952  0.866386  1
  Tm  Tm9  1  0.820183  0.661204  0.633081  1
  Tm  Tm10  1  0.645826  0.166709  0.376165  1
  Tm  Tm11  1  0.148766  0.333153  0.124214  1
  Tm  Tm12  1  0.645826  0.166709  0.123835  1
  Tm  Tm13  1  0.148766  0.333153  0.375786  1
  Tm  Tm14  1  0.380570  0.814952  0.633614  1
  Tm  Tm15  1  0.820183  0.661204  0.866919  1
  Tm  Tm16  1  0.202725  0.504225  0.750000  1
  Tm  Tm17  1  0.690296  0.000566  0.750000  1
  Tm  Tm18  1  0.815733  0.499432  0.250000  1
  Tm  Tm19  1  0.313505  0.000213  0.250000  1
  Sn  Sn20  1  0.307790  0.035564  0.035593  1
  Sn  Sn21  1  0.811422  0.464768  0.460171  1
  Sn  Sn22  1  0.699049  0.970348  0.541146  1
  Sn  Sn23  1  0.181435  0.543973  0.958840  1
  Sn  Sn24  1  0.699049  0.970348  0.958854  1
  Sn  Sn25  1  0.181435  0.543973  0.541160  1
  Sn  Sn26  1  0.307790  0.035564  0.464407  1
  Sn  Sn27  1  0.811422  0.464768  0.039829  1
  Sn  Sn28  1  0.053983  0.880289  0.750000  1
  Sn  Sn29  1  0.450565  0.381081  0.250000  1
  Sn  Sn30  1  0.949353  0.119022  0.250000  1
  Sn  Sn31  1  0.318562  0.144028  0.750000  1
  Sn  Sn32  1  0.812998  0.355114  0.750000  1
  Sn  Sn33  1  0.677378  0.850868  0.250000  1
  Sn  Sn34  1  0.177183  0.649843  0.250000  1
  Ru  Ru35  1  0.543248  0.597349  0.750000  1
