# generated using pymatgen
data_Eu2Tm2P7Ir8
_symmetry_space_group_name_H-M   'P 1'
_cell_length_a   3.95389100
_cell_length_b   12.77720204
_cell_length_c   13.20343194
_cell_angle_alpha   80.80174147
_cell_angle_beta   90.00000000
_cell_angle_gamma   90.00000000
_symmetry_Int_Tables_number   1
_chemical_formula_structural   Eu2Tm2P7Ir8
_chemical_formula_sum   'Eu4 Tm4 P14 Ir16'
_cell_volume   658.45565349
_cell_formula_units_Z   2
loop_
 _symmetry_equiv_pos_site_id
 _symmetry_equiv_pos_as_xyz
  1  'x, y, z'
loop_
 _atom_site_type_symbol
 _atom_site_label
 _atom_site_symmetry_multiplicity
 _atom_site_fract_x
 _atom_site_fract_y
 _atom_site_fract_z
 _atom_site_occupancy
  Eu  Eu0  1  0.750000  0.719597  0.897138  1
  Eu  Eu1  1  0.250000  0.107289  0.786041  1
  Eu  Eu2  1  0.750000  0.892711  0.213959  1
  Eu  Eu3  1  0.250000  0.280403  0.102862  1
  Tm  Tm4  1  0.750000  0.792719  0.558961  1
  Tm  Tm5  1  0.250000  0.207281  0.441039  1
  Tm  Tm6  1  0.750000  0.480219  0.707577  1
  Tm  Tm7  1  0.250000  0.519781  0.292423  1
  P  P8  1  0.250000  0.907805  0.412019  1
  P  P9  1  0.750000  0.472001  0.130253  1
  P  P10  1  0.250000  0.527999  0.869747  1
  P  P11  1  0.750000  0.092195  0.587981  1
  P  P12  1  0.250000  0.742215  0.081224  1
  P  P13  1  0.750000  0.257785  0.918776  1
  P  P14  1  0.750000  0.160346  0.282702  1
  P  P15  1  0.250000  0.839654  0.717298  1
  P  P16  1  0.250000  0.053452  0.101078  1
  P  P17  1  0.750000  0.946548  0.898922  1
  P  P18  1  0.250000  0.315870  0.685999  1
  P  P19  1  0.750000  0.684130  0.314001  1
  P  P20  1  0.250000  0.609395  0.564652  1
  P  P21  1  0.750000  0.390605  0.435348  1
  Ir  Ir22  1  0.250000  0.986880  0.575374  1
  Ir  Ir23  1  0.750000  0.013120  0.424626  1
  Ir  Ir24  1  0.250000  0.658586  0.724971  1
  Ir  Ir25  1  0.750000  0.341414  0.275029  1
  Ir  Ir26  1  0.250000  0.549080  0.051117  1
  Ir  Ir27  1  0.750000  0.450920  0.948883  1
  Ir  Ir28  1  0.250000  0.065642  0.274171  1
  Ir  Ir29  1  0.750000  0.934358  0.725829  1
  Ir  Ir30  1  0.250000  0.423057  0.521863  1
  Ir  Ir31  1  0.750000  0.576943  0.478137  1
  Ir  Ir32  1  0.250000  0.917428  0.998186  1
  Ir  Ir33  1  0.750000  0.082572  0.001814  1
  Ir  Ir34  1  0.250000  0.728285  0.400447  1
  Ir  Ir35  1  0.750000  0.271715  0.599553  1
  Ir  Ir36  1  0.250000  0.343901  0.855147  1
  Ir  Ir37  1  0.750000  0.656099  0.144853  1
