# generated using pymatgen
data_ErU3(SnRu2)2
_symmetry_space_group_name_H-M   'P 1'
_cell_length_a   7.58930732
_cell_length_b   7.58930732
_cell_length_c   3.53289700
_cell_angle_alpha   90.00000000
_cell_angle_beta   90.00000000
_cell_angle_gamma   86.82368297
_symmetry_Int_Tables_number   1
_chemical_formula_structural   ErU3(SnRu2)2
_chemical_formula_sum   'Er1 U3 Sn2 Ru4'
_cell_volume   203.17373217
_cell_formula_units_Z   1
loop_
 _symmetry_equiv_pos_site_id
 _symmetry_equiv_pos_as_xyz
  1  'x, y, z'
loop_
 _atom_site_type_symbol
 _atom_site_label
 _atom_site_symmetry_multiplicity
 _atom_site_fract_x
 _atom_site_fract_y
 _atom_site_fract_z
 _atom_site_occupancy
  Er  Er0  1  0.330943  0.830943  0.500000  1
  U  U1  1  0.834023  0.673545  0.500000  1
  U  U2  1  0.173545  0.334023  0.500000  1
  U  U3  1  0.668895  0.168895  0.500000  1
  Sn  Sn4  1  0.012111  0.999935  0.000000  1
  Sn  Sn5  1  0.499935  0.512111  0.000000  1
  Ru  Ru6  1  0.368663  0.157341  0.000000  1
  Ru  Ru7  1  0.849045  0.349045  0.000000  1
  Ru  Ru8  1  0.105500  0.605500  0.000000  1
  Ru  Ru9  1  0.657341  0.868663  0.000000  1
