# generated using pymatgen
data_Y6Tm10Cd4OsPt3
_symmetry_space_group_name_H-M   'P 1'
_cell_length_a   9.65317369
_cell_length_b   9.65317522
_cell_length_c   9.65317416
_cell_angle_alpha   59.39137032
_cell_angle_beta   59.39136952
_cell_angle_gamma   59.39136881
_symmetry_Int_Tables_number   1
_chemical_formula_structural   Y6Tm10Cd4OsPt3
_chemical_formula_sum   'Y6 Tm10 Cd4 Os1 Pt3'
_cell_volume   627.24614754
_cell_formula_units_Z   1
loop_
 _symmetry_equiv_pos_site_id
 _symmetry_equiv_pos_as_xyz
  1  'x, y, z'
loop_
 _atom_site_type_symbol
 _atom_site_label
 _atom_site_symmetry_multiplicity
 _atom_site_fract_x
 _atom_site_fract_y
 _atom_site_fract_z
 _atom_site_occupancy
  Y  Y0  1  0.937149  0.563845  0.563845  1
  Y  Y1  1  0.556701  0.939788  0.939788  1
  Y  Y2  1  0.563845  0.937149  0.563845  1
  Y  Y3  1  0.939788  0.556701  0.939788  1
  Y  Y4  1  0.563845  0.563845  0.937149  1
  Y  Y5  1  0.939788  0.939788  0.556701  1
  Tm  Tm6  1  0.351320  0.351320  0.351320  1
  Tm  Tm7  1  0.350082  0.350082  0.948523  1
  Tm  Tm8  1  0.350082  0.948523  0.350082  1
  Tm  Tm9  1  0.948523  0.350082  0.350082  1
  Tm  Tm10  1  0.815440  0.187865  0.187865  1
  Tm  Tm11  1  0.187064  0.810943  0.810943  1
  Tm  Tm12  1  0.187865  0.815440  0.187865  1
  Tm  Tm13  1  0.810943  0.187064  0.810943  1
  Tm  Tm14  1  0.187865  0.187865  0.815440  1
  Tm  Tm15  1  0.810943  0.810943  0.187064  1
  Cd  Cd16  1  0.579761  0.579761  0.579761  1
  Cd  Cd17  1  0.580556  0.580556  0.255476  1
  Cd  Cd18  1  0.580556  0.255476  0.580556  1
  Cd  Cd19  1  0.255476  0.580556  0.580556  1
  Os  Os20  1  0.143391  0.143391  0.143391  1
  Pt  Pt21  1  0.143190  0.143190  0.572641  1
  Pt  Pt22  1  0.143190  0.572641  0.143190  1
  Pt  Pt23  1  0.572641  0.143190  0.143190  1
