# generated using pymatgen
data_Tb7Zr(Ta3Ge4)4
_symmetry_space_group_name_H-M   'P 1'
_cell_length_a   6.99988185
_cell_length_b   7.14458096
_cell_length_c   13.54934892
_cell_angle_alpha   89.86518957
_cell_angle_beta   90.08334918
_cell_angle_gamma   90.00190467
_symmetry_Int_Tables_number   1
_chemical_formula_structural   Tb7Zr(Ta3Ge4)4
_chemical_formula_sum   'Tb7 Zr1 Ta12 Ge16'
_cell_volume   677.61691263
_cell_formula_units_Z   1
loop_
 _symmetry_equiv_pos_site_id
 _symmetry_equiv_pos_as_xyz
  1  'x, y, z'
loop_
 _atom_site_type_symbol
 _atom_site_label
 _atom_site_symmetry_multiplicity
 _atom_site_fract_x
 _atom_site_fract_y
 _atom_site_fract_z
 _atom_site_occupancy
  Tb  Tb0  1  0.995016  0.826413  0.904458  1
  Tb  Tb1  1  0.504515  0.326494  0.094388  1
  Tb  Tb2  1  0.004270  0.173283  0.406693  1
  Tb  Tb3  1  0.505006  0.327477  0.406779  1
  Tb  Tb4  1  0.004672  0.172945  0.094466  1
  Tb  Tb5  1  0.495686  0.673112  0.905909  1
  Tb  Tb6  1  0.994353  0.825897  0.594084  1
  Zr  Zr7  1  0.491726  0.675531  0.596233  1
  Ta  Ta8  1  0.659592  0.169645  0.625296  1
  Ta  Ta9  1  0.161756  0.331878  0.872824  1
  Ta  Ta10  1  0.340287  0.831215  0.126717  1
  Ta  Ta11  1  0.840505  0.669077  0.373796  1
  Ta  Ta12  1  0.342526  0.828311  0.375426  1
  Ta  Ta13  1  0.840527  0.669029  0.126222  1
  Ta  Ta14  1  0.659353  0.169165  0.871716  1
  Ta  Ta15  1  0.162142  0.333225  0.625439  1
  Ta  Ta16  1  0.834126  0.487039  0.748473  1
  Ta  Ta17  1  0.336289  0.012729  0.748183  1
  Ta  Ta18  1  0.165395  0.513345  0.251094  1
  Ta  Ta19  1  0.664669  0.985450  0.250793  1
  Ge  Ge20  1  0.674986  0.957192  0.460158  1
  Ge  Ge21  1  0.175236  0.539952  0.042198  1
  Ge  Ge22  1  0.323694  0.040239  0.957852  1
  Ge  Ge23  1  0.815871  0.464470  0.542163  1
  Ge  Ge24  1  0.326103  0.036921  0.542581  1
  Ge  Ge25  1  0.825285  0.459305  0.957447  1
  Ge  Ge26  1  0.675641  0.960809  0.041786  1
  Ge  Ge27  1  0.178787  0.540249  0.460217  1
  Ge  Ge28  1  0.460207  0.380449  0.748513  1
  Ge  Ge29  1  0.960645  0.122839  0.748955  1
  Ge  Ge30  1  0.540513  0.621123  0.249993  1
  Ge  Ge31  1  0.041113  0.877657  0.250513  1
  Ge  Ge32  1  0.692449  0.857070  0.748058  1
  Ge  Ge33  1  0.195441  0.641412  0.749304  1
  Ge  Ge34  1  0.305778  0.139787  0.251037  1
  Ge  Ge35  1  0.805840  0.359265  0.250234  1
