# generated using pymatgen
data_Hf2Th2NbSi4
_symmetry_space_group_name_H-M   'P 1'
_cell_length_a   7.33356900
_cell_length_b   7.33356900
_cell_length_c   13.55528100
_cell_angle_alpha   90.00000000
_cell_angle_beta   90.00000000
_cell_angle_gamma   90.00000000
_symmetry_Int_Tables_number   1
_chemical_formula_structural   Hf2Th2NbSi4
_chemical_formula_sum   'Hf8 Th8 Nb4 Si16'
_cell_volume   729.01974316
_cell_formula_units_Z   4
loop_
 _symmetry_equiv_pos_site_id
 _symmetry_equiv_pos_as_xyz
  1  'x, y, z'
loop_
 _atom_site_type_symbol
 _atom_site_label
 _atom_site_symmetry_multiplicity
 _atom_site_fract_x
 _atom_site_fract_y
 _atom_site_fract_z
 _atom_site_occupancy
  Hf  Hf0  1  0.155032  0.994547  0.374004  1
  Hf  Hf1  1  0.844968  0.005453  0.874004  1
  Hf  Hf2  1  0.505453  0.655032  0.624004  1
  Hf  Hf3  1  0.344968  0.494547  0.875996  1
  Hf  Hf4  1  0.494547  0.344968  0.124004  1
  Hf  Hf5  1  0.655032  0.505453  0.375996  1
  Hf  Hf6  1  0.994547  0.155032  0.625996  1
  Hf  Hf7  1  0.005453  0.844968  0.125996  1
  Th  Th8  1  0.000270  0.339880  0.216403  1
  Th  Th9  1  0.999730  0.660120  0.716403  1
  Th  Th10  1  0.160120  0.500270  0.466403  1
  Th  Th11  1  0.499730  0.839880  0.033597  1
  Th  Th12  1  0.839880  0.499730  0.966403  1
  Th  Th13  1  0.500270  0.160120  0.533597  1
  Th  Th14  1  0.339880  0.000270  0.783597  1
  Th  Th15  1  0.660120  0.999730  0.283597  1
  Nb  Nb16  1  0.170936  0.170936  0.000000  1
  Nb  Nb17  1  0.829064  0.829064  0.500000  1
  Nb  Nb18  1  0.329064  0.670936  0.250000  1
  Nb  Nb19  1  0.670936  0.329064  0.750000  1
  Si  Si20  1  0.292915  0.043673  0.184723  1
  Si  Si21  1  0.707085  0.956327  0.684723  1
  Si  Si22  1  0.456327  0.792915  0.434723  1
  Si  Si23  1  0.207085  0.543673  0.065277  1
  Si  Si24  1  0.543673  0.207085  0.934723  1
  Si  Si25  1  0.792915  0.456327  0.565277  1
  Si  Si26  1  0.043673  0.292915  0.815277  1
  Si  Si27  1  0.956327  0.707085  0.315277  1
  Si  Si28  1  0.369820  0.298489  0.315681  1
  Si  Si29  1  0.630180  0.701511  0.815681  1
  Si  Si30  1  0.201511  0.869820  0.565681  1
  Si  Si31  1  0.130180  0.798489  0.934319  1
  Si  Si32  1  0.798489  0.130180  0.065681  1
  Si  Si33  1  0.869820  0.201511  0.434319  1
  Si  Si34  1  0.298489  0.369820  0.684319  1
  Si  Si35  1  0.701511  0.630180  0.184319  1
