# generated using pymatgen
data_Lu3Mg2AlSi2Au
_symmetry_space_group_name_H-M   'P 1'
_cell_length_a   6.99316618
_cell_length_b   6.95310116
_cell_length_c   4.27783100
_cell_angle_alpha   90.00000000
_cell_angle_beta   90.00000000
_cell_angle_gamma   119.81066906
_symmetry_Int_Tables_number   1
_chemical_formula_structural   Lu3Mg2AlSi2Au
_chemical_formula_sum   'Lu3 Mg2 Al1 Si2 Au1'
_cell_volume   180.48123406
_cell_formula_units_Z   1
loop_
 _symmetry_equiv_pos_site_id
 _symmetry_equiv_pos_as_xyz
  1  'x, y, z'
loop_
 _atom_site_type_symbol
 _atom_site_label
 _atom_site_symmetry_multiplicity
 _atom_site_fract_x
 _atom_site_fract_y
 _atom_site_fract_z
 _atom_site_occupancy
  Lu  Lu0  1  0.418760  0.419654  0.500000  1
  Lu  Lu1  1  0.581240  0.000894  0.500000  1
  Lu  Lu2  1  0.000000  0.577437  0.500000  1
  Mg  Mg3  1  0.754657  0.755797  0.000000  1
  Mg  Mg4  1  0.245343  0.001140  0.000000  1
  Al  Al5  1  0.000000  0.248489  0.000000  1
  Si  Si6  1  0.674588  0.331138  0.000000  1
  Si  Si7  1  0.325412  0.656552  0.000000  1
  Au  Au8  1  0.000000  0.008899  0.500000  1
