# generated using pymatgen
data_Nb5Pb3WO18
_symmetry_space_group_name_H-M   'P 1'
_cell_length_a   7.36579563
_cell_length_b   7.35797808
_cell_length_c   7.33403353
_cell_angle_alpha   93.95306035
_cell_angle_beta   94.11318184
_cell_angle_gamma   94.24620499
_symmetry_Int_Tables_number   1
_chemical_formula_structural   Nb5Pb3WO18
_chemical_formula_sum   'Nb5 Pb3 W1 O18'
_cell_volume   394.27015222
_cell_formula_units_Z   1
loop_
 _symmetry_equiv_pos_site_id
 _symmetry_equiv_pos_as_xyz
  1  'x, y, z'
loop_
 _atom_site_type_symbol
 _atom_site_label
 _atom_site_symmetry_multiplicity
 _atom_site_fract_x
 _atom_site_fract_y
 _atom_site_fract_z
 _atom_site_occupancy
  Nb  Nb0  1  0.837240  0.194634  0.540854  1
  Nb  Nb1  1  0.202189  0.542076  0.838990  1
  Nb  Nb2  1  0.160198  0.815843  0.506325  1
  Nb  Nb3  1  0.816022  0.507335  0.151693  1
  Nb  Nb4  1  0.510436  0.150746  0.817017  1
  Pb  Pb5  1  0.987632  0.990320  0.989133  1
  Pb  Pb6  1  0.361327  0.359855  0.365709  1
  Pb  Pb7  1  0.732689  0.651844  0.647538  1
  W  W8  1  0.542304  0.830334  0.192723  1
  O  O9  1  0.392869  0.683943  0.975830  1
  O  O10  1  0.669015  0.960894  0.390578  1
  O  O11  1  0.956223  0.400135  0.677462  1
  O  O12  1  0.947636  0.675526  0.399986  1
  O  O13  1  0.675997  0.387288  0.956157  1
  O  O14  1  0.374538  0.963979  0.675957  1
  O  O15  1  0.763526  0.057158  0.766360  1
  O  O16  1  0.052749  0.768600  0.770771  1
  O  O17  1  0.769219  0.768271  0.061847  1
  O  O18  1  0.051778  0.514276  0.050780  1
  O  O19  1  0.505887  0.051310  0.050178  1
  O  O20  1  0.044012  0.052228  0.513229  1
  O  O21  1  0.583235  0.294444  0.581549  1
  O  O22  1  0.287208  0.586415  0.584934  1
  O  O23  1  0.582221  0.580400  0.294720  1
  O  O24  1  0.293948  0.843085  0.298932  1
  O  O25  1  0.837403  0.300298  0.300620  1
  O  O26  1  0.302296  0.308559  0.839925  1
