# generated using pymatgen
data_Lu20SiBi8As3
_symmetry_space_group_name_H-M   'P 1'
_cell_length_a   7.87679629
_cell_length_b   9.01684100
_cell_length_c   11.85851700
_cell_angle_alpha   90.00000000
_cell_angle_beta   90.60855389
_cell_angle_gamma   90.00000000
_symmetry_Int_Tables_number   1
_chemical_formula_structural   Lu20SiBi8As3
_chemical_formula_sum   'Lu20 Si1 Bi8 As3'
_cell_volume   842.18966743
_cell_formula_units_Z   1
loop_
 _symmetry_equiv_pos_site_id
 _symmetry_equiv_pos_as_xyz
  1  'x, y, z'
loop_
 _atom_site_type_symbol
 _atom_site_label
 _atom_site_symmetry_multiplicity
 _atom_site_fract_x
 _atom_site_fract_y
 _atom_site_fract_z
 _atom_site_occupancy
  Lu  Lu0  1  0.349665  0.750000  0.704959  1
  Lu  Lu1  1  0.654970  0.250000  0.290716  1
  Lu  Lu2  1  0.842150  0.250000  0.787338  1
  Lu  Lu3  1  0.162675  0.750000  0.218335  1
  Lu  Lu4  1  0.867198  0.750000  0.794423  1
  Lu  Lu5  1  0.133171  0.250000  0.208505  1
  Lu  Lu6  1  0.365935  0.250000  0.707371  1
  Lu  Lu7  1  0.630148  0.750000  0.291781  1
  Lu  Lu8  1  0.682370  0.560661  0.560644  1
  Lu  Lu9  1  0.318659  0.444507  0.437182  1
  Lu  Lu10  1  0.181127  0.442781  0.936075  1
  Lu  Lu11  1  0.318659  0.055493  0.437182  1
  Lu  Lu12  1  0.815347  0.557236  0.065098  1
  Lu  Lu13  1  0.682370  0.939339  0.560644  1
  Lu  Lu14  1  0.815347  0.942764  0.065098  1
  Lu  Lu15  1  0.181127  0.057219  0.936075  1
  Lu  Lu16  1  0.039276  0.750000  0.501115  1
  Lu  Lu17  1  0.968724  0.250000  0.499161  1
  Lu  Lu18  1  0.534470  0.250000  0.996774  1
  Lu  Lu19  1  0.460955  0.750000  0.000616  1
  Si  Si20  1  0.409922  0.750000  0.473786  1
  Bi  Bi21  1  0.575148  0.511137  0.826621  1
  Bi  Bi22  1  0.424483  0.487569  0.171354  1
  Bi  Bi23  1  0.073912  0.490478  0.674293  1
  Bi  Bi24  1  0.424483  0.012431  0.171354  1
  Bi  Bi25  1  0.924446  0.510109  0.326684  1
  Bi  Bi26  1  0.575148  0.988863  0.826621  1
  Bi  Bi27  1  0.924446  0.989891  0.326684  1
  Bi  Bi28  1  0.073912  0.009522  0.674293  1
  As  As29  1  0.085435  0.750000  0.984930  1
  As  As30  1  0.910914  0.250000  0.020079  1
  As  As31  1  0.593410  0.250000  0.524209  1
