# generated using pymatgen
data_ThGa2Ni3
_symmetry_space_group_name_H-M   'P 1'
_cell_length_a   8.87603100
_cell_length_b   8.87603046
_cell_length_c   4.11729000
_cell_angle_alpha   90.00000000
_cell_angle_beta   90.00000000
_cell_angle_gamma   119.99999827
_symmetry_Int_Tables_number   1
_chemical_formula_structural   ThGa2Ni3
_chemical_formula_sum   'Th3 Ga6 Ni9'
_cell_volume   280.91807982
_cell_formula_units_Z   3
loop_
 _symmetry_equiv_pos_site_id
 _symmetry_equiv_pos_as_xyz
  1  'x, y, z'
loop_
 _atom_site_type_symbol
 _atom_site_label
 _atom_site_symmetry_multiplicity
 _atom_site_fract_x
 _atom_site_fract_y
 _atom_site_fract_z
 _atom_site_occupancy
  Th  Th0  1  0.666667  0.333333  0.500000  1
  Th  Th1  1  0.333333  0.666667  0.500000  1
  Th  Th2  1  0.000000  0.000000  0.000000  1
  Ga  Ga3  1  0.275600  0.275600  0.500000  1
  Ga  Ga4  1  0.724400  0.000000  0.500000  1
  Ga  Ga5  1  0.000000  0.724400  0.500000  1
  Ga  Ga6  1  0.532018  0.532018  0.000000  1
  Ga  Ga7  1  0.467982  0.000000  0.000000  1
  Ga  Ga8  1  0.000000  0.467982  0.000000  1
  Ni  Ni9  1  0.789225  0.167223  0.000000  1
  Ni  Ni10  1  0.832777  0.622000  0.000000  1
  Ni  Ni11  1  0.378000  0.210775  0.000000  1
  Ni  Ni12  1  0.167223  0.789225  0.000000  1
  Ni  Ni13  1  0.622000  0.832777  0.000000  1
  Ni  Ni14  1  0.210775  0.378000  0.000000  1
  Ni  Ni15  1  0.713839  0.713839  0.500000  1
  Ni  Ni16  1  0.286161  0.000000  0.500000  1
  Ni  Ni17  1  0.000000  0.286161  0.500000  1
