# generated using pymatgen
data_Tm8Ga3Fe
_symmetry_space_group_name_H-M   'P 1'
_cell_length_a   9.86217800
_cell_length_b   9.86259100
_cell_length_c   6.87329600
_cell_angle_alpha   90.00000000
_cell_angle_beta   90.00000000
_cell_angle_gamma   119.99862148
_symmetry_Int_Tables_number   1
_chemical_formula_structural   Tm8Ga3Fe
_chemical_formula_sum   'Tm16 Ga6 Fe2'
_cell_volume   578.98267956
_cell_formula_units_Z   2
loop_
 _symmetry_equiv_pos_site_id
 _symmetry_equiv_pos_as_xyz
  1  'x, y, z'
loop_
 _atom_site_type_symbol
 _atom_site_label
 _atom_site_symmetry_multiplicity
 _atom_site_fract_x
 _atom_site_fract_y
 _atom_site_fract_z
 _atom_site_occupancy
  Tm  Tm0  1  0.666656  0.333312  0.170827  1
  Tm  Tm1  1  0.000006  0.000011  0.267440  1
  Tm  Tm2  1  0.463712  0.927423  0.292960  1
  Tm  Tm3  1  0.072593  0.536291  0.292968  1
  Tm  Tm4  1  0.463698  0.536291  0.292968  1
  Tm  Tm5  1  0.347116  0.173543  0.489834  1
  Tm  Tm6  1  0.826429  0.173543  0.489834  1
  Tm  Tm7  1  0.826445  0.652889  0.489855  1
  Tm  Tm8  1  0.333343  0.666688  0.670826  1
  Tm  Tm9  1  0.999994  0.999989  0.767439  1
  Tm  Tm10  1  0.536288  0.072578  0.792961  1
  Tm  Tm11  1  0.536302  0.463709  0.792969  1
  Tm  Tm12  1  0.927408  0.463709  0.792969  1
  Tm  Tm13  1  0.173572  0.826457  0.989833  1
  Tm  Tm14  1  0.652885  0.826457  0.989833  1
  Tm  Tm15  1  0.173555  0.347110  0.989856  1
  Ga  Ga16  1  0.836188  0.672376  0.039939  1
  Ga  Ga17  1  0.327635  0.163813  0.039952  1
  Ga  Ga18  1  0.836178  0.163813  0.039952  1
  Ga  Ga19  1  0.163812  0.327625  0.539940  1
  Ga  Ga20  1  0.163822  0.836187  0.539953  1
  Ga  Ga21  1  0.672365  0.836187  0.539953  1
  Fe  Fe22  1  0.333336  0.666672  0.055471  1
  Fe  Fe23  1  0.666664  0.333327  0.555470  1
