# generated using pymatgen
data_Tm3BeP2Ir3
_symmetry_space_group_name_H-M   'P 1'
_cell_length_a   6.62810700
_cell_length_b   6.62810721
_cell_length_c   3.86577900
_cell_angle_alpha   90.00000000
_cell_angle_beta   90.00000000
_cell_angle_gamma   120.00000392
_symmetry_Int_Tables_number   1
_chemical_formula_structural   Tm3BeP2Ir3
_chemical_formula_sum   'Tm3 Be1 P2 Ir3'
_cell_volume   147.07764681
_cell_formula_units_Z   1
loop_
 _symmetry_equiv_pos_site_id
 _symmetry_equiv_pos_as_xyz
  1  'x, y, z'
loop_
 _atom_site_type_symbol
 _atom_site_label
 _atom_site_symmetry_multiplicity
 _atom_site_fract_x
 _atom_site_fract_y
 _atom_site_fract_z
 _atom_site_occupancy
  Tm  Tm0  1  0.000000  0.408316  0.500000  1
  Tm  Tm1  1  0.591684  0.591684  0.500000  1
  Tm  Tm2  1  0.408316  0.000000  0.500000  1
  Be  Be3  1  0.000000  0.000000  0.500000  1
  P  P4  1  0.666667  0.333333  0.000000  1
  P  P5  1  0.333333  0.666667  0.000000  1
  Ir  Ir6  1  0.000000  0.763293  0.000000  1
  Ir  Ir7  1  0.236707  0.236707  0.000000  1
  Ir  Ir8  1  0.763293  0.000000  0.000000  1
