# generated using pymatgen
data_SrLiHo3Al17Pd6
_symmetry_space_group_name_H-M   'P 1'
_cell_length_a   7.64688754
_cell_length_b   7.65346013
_cell_length_c   9.51765800
_cell_angle_alpha   90.00000000
_cell_angle_beta   90.00000000
_cell_angle_gamma   119.26147146
_symmetry_Int_Tables_number   1
_chemical_formula_structural   SrLiHo3Al17Pd6
_chemical_formula_sum   'Sr1 Li1 Ho3 Al17 Pd6'
_cell_volume   485.94527500
_cell_formula_units_Z   1
loop_
 _symmetry_equiv_pos_site_id
 _symmetry_equiv_pos_as_xyz
  1  'x, y, z'
loop_
 _atom_site_type_symbol
 _atom_site_label
 _atom_site_symmetry_multiplicity
 _atom_site_fract_x
 _atom_site_fract_y
 _atom_site_fract_z
 _atom_site_occupancy
  Sr  Sr0  1  0.008475  0.328873  0.750000  1
  Li  Li1  1  0.128628  0.127575  0.250000  1
  Ho  Ho2  1  0.995398  0.663077  0.250000  1
  Ho  Ho3  1  0.665864  0.996353  0.250000  1
  Ho  Ho4  1  0.326935  0.005962  0.750000  1
  Al  Al5  1  0.866204  0.860532  0.750000  1
  Al  Al6  1  0.001603  0.328720  0.084935  1
  Al  Al7  1  0.999636  0.667041  0.928556  1
  Al  Al8  1  0.999636  0.667041  0.571444  1
  Al  Al9  1  0.328665  0.000066  0.416502  1
  Al  Al10  1  0.001603  0.328720  0.415065  1
  Al  Al11  1  0.662218  0.998146  0.571754  1
  Al  Al12  1  0.662218  0.998146  0.928246  1
  Al  Al13  1  0.328665  0.000066  0.083498  1
  Al  Al14  1  0.337535  0.335274  0.537677  1
  Al  Al15  1  0.673050  0.672921  0.435498  1
  Al  Al16  1  0.673050  0.672921  0.064502  1
  Al  Al17  1  0.337535  0.335274  0.962323  1
  Al  Al18  1  0.341514  0.544824  0.250000  1
  Al  Al19  1  0.649478  0.449630  0.750000  1
  Al  Al20  1  0.541512  0.340569  0.250000  1
  Al  Al21  1  0.458058  0.666635  0.750000  1
  Pd  Pd22  1  0.675112  0.330353  0.002689  1
  Pd  Pd23  1  0.331434  0.676760  0.002045  1
  Pd  Pd24  1  0.331434  0.676760  0.497955  1
  Pd  Pd25  1  0.675112  0.330353  0.497311  1
  Pd  Pd26  1  0.999715  0.998706  0.995974  1
  Pd  Pd27  1  0.999715  0.998706  0.504026  1
