# generated using pymatgen
data_Nd2SmPa7O20
_symmetry_space_group_name_H-M   'P 1'
_cell_length_a   6.71455768
_cell_length_b   7.75628061
_cell_length_c   8.66564871
_cell_angle_alpha   103.06180468
_cell_angle_beta   97.26309883
_cell_angle_gamma   106.80643813
_symmetry_Int_Tables_number   1
_chemical_formula_structural   Nd2SmPa7O20
_chemical_formula_sum   'Nd2 Sm1 Pa7 O20'
_cell_volume   411.85688121
_cell_formula_units_Z   1
loop_
 _symmetry_equiv_pos_site_id
 _symmetry_equiv_pos_as_xyz
  1  'x, y, z'
loop_
 _atom_site_type_symbol
 _atom_site_label
 _atom_site_symmetry_multiplicity
 _atom_site_fract_x
 _atom_site_fract_y
 _atom_site_fract_z
 _atom_site_occupancy
  Nd  Nd0  1  0.396612  0.298154  0.799120  1
  Nd  Nd1  1  0.200452  0.900671  0.399591  1
  Sm  Sm2  1  0.001907  0.000412  0.000675  1
  Pa  Pa3  1  0.800558  0.601459  0.601562  1
  Pa  Pa4  1  0.598002  0.198613  0.198145  1
  Pa  Pa5  1  0.999274  0.500032  0.999827  1
  Pa  Pa6  1  0.799757  0.100204  0.602104  1
  Pa  Pa7  1  0.401523  0.801688  0.800512  1
  Pa  Pa8  1  0.199234  0.398676  0.399413  1
  Pa  Pa9  1  0.603366  0.700812  0.198928  1
  O  O10  1  0.844705  0.326287  0.448873  1
  O  O11  1  0.643974  0.923040  0.051476  1
  O  O12  1  0.940835  0.762944  0.144932  1
  O  O13  1  0.452215  0.532772  0.644449  1
  O  O14  1  0.838456  0.820863  0.452361  1
  O  O15  1  0.654137  0.426414  0.057216  1
  O  O16  1  0.758433  0.380034  0.747211  1
  O  O17  1  0.261794  0.139930  0.252889  1
  O  O18  1  0.946287  0.281796  0.155917  1
  O  O19  1  0.462433  0.018585  0.652792  1
  O  O20  1  0.563975  0.977783  0.347220  1
  O  O21  1  0.051717  0.717870  0.845372  1
  O  O22  1  0.747302  0.870468  0.746182  1
  O  O23  1  0.349818  0.585416  0.954816  1
  O  O24  1  0.255288  0.614904  0.245753  1
  O  O25  1  0.552936  0.476543  0.350984  1
  O  O26  1  0.133992  0.180859  0.545183  1
  O  O27  1  0.035920  0.229912  0.849899  1
  O  O28  1  0.358887  0.067143  0.953086  1
  O  O29  1  0.146209  0.665716  0.553513  1
