# generated using pymatgen
data_Pr3Nd(Al3Ir)6
_symmetry_space_group_name_H-M   'P 1'
_cell_length_a   7.62317158
_cell_length_b   7.62508801
_cell_length_c   9.63886600
_cell_angle_alpha   90.00000000
_cell_angle_beta   90.00000000
_cell_angle_gamma   119.32401597
_symmetry_Int_Tables_number   1
_chemical_formula_structural   Pr3Nd(Al3Ir)6
_chemical_formula_sum   'Pr3 Nd1 Al18 Ir6'
_cell_volume   488.48955010
_cell_formula_units_Z   1
loop_
 _symmetry_equiv_pos_site_id
 _symmetry_equiv_pos_as_xyz
  1  'x, y, z'
loop_
 _atom_site_type_symbol
 _atom_site_label
 _atom_site_symmetry_multiplicity
 _atom_site_fract_x
 _atom_site_fract_y
 _atom_site_fract_z
 _atom_site_occupancy
  Pr  Pr0  1  0.994486  0.670812  0.250000  1
  Pr  Pr1  1  0.005459  0.329114  0.750000  1
  Pr  Pr2  1  0.670835  0.994477  0.250000  1
  Nd  Nd3  1  0.329031  0.005442  0.750000  1
  Al  Al4  1  0.131694  0.131463  0.250000  1
  Al  Al5  1  0.869113  0.868612  0.750000  1
  Al  Al6  1  0.002898  0.335413  0.071876  1
  Al  Al7  1  0.997527  0.664891  0.927638  1
  Al  Al8  1  0.997527  0.664891  0.572362  1
  Al  Al9  1  0.335389  0.002757  0.428643  1
  Al  Al10  1  0.002898  0.335413  0.428124  1
  Al  Al11  1  0.664249  0.997234  0.572400  1
  Al  Al12  1  0.664249  0.997234  0.927600  1
  Al  Al13  1  0.335389  0.002757  0.071357  1
  Al  Al14  1  0.334061  0.333849  0.546312  1
  Al  Al15  1  0.665937  0.665923  0.454681  1
  Al  Al16  1  0.665937  0.665923  0.045319  1
  Al  Al17  1  0.334061  0.333849  0.953688  1
  Al  Al18  1  0.339397  0.546137  0.250000  1
  Al  Al19  1  0.659941  0.453232  0.750000  1
  Al  Al20  1  0.546027  0.339183  0.250000  1
  Al  Al21  1  0.453824  0.661264  0.750000  1
  Ir  Ir22  1  0.670985  0.329208  0.999882  1
  Ir  Ir23  1  0.329107  0.670774  0.999906  1
  Ir  Ir24  1  0.329107  0.670774  0.500094  1
  Ir  Ir25  1  0.670985  0.329208  0.500118  1
  Ir  Ir26  1  0.999943  0.000082  0.999830  1
  Ir  Ir27  1  0.999943  0.000082  0.500170  1
