# generated using pymatgen
data_Cs4PaO5
_symmetry_space_group_name_H-M   'P 1'
_cell_length_a   7.14363387
_cell_length_b   7.30243519
_cell_length_c   10.63764200
_cell_angle_alpha   102.27539915
_cell_angle_beta   109.75208521
_cell_angle_gamma   102.07053816
_symmetry_Int_Tables_number   1
_chemical_formula_structural   Cs4PaO5
_chemical_formula_sum   'Cs8 Pa2 O10'
_cell_volume   485.93132981
_cell_formula_units_Z   2
loop_
 _symmetry_equiv_pos_site_id
 _symmetry_equiv_pos_as_xyz
  1  'x, y, z'
loop_
 _atom_site_type_symbol
 _atom_site_label
 _atom_site_symmetry_multiplicity
 _atom_site_fract_x
 _atom_site_fract_y
 _atom_site_fract_z
 _atom_site_occupancy
  Cs  Cs0  1  0.584974  0.797485  0.097403  1
  Cs  Cs1  1  0.211072  0.604974  0.703439  1
  Cs  Cs2  1  0.599589  0.297481  0.599246  1
  Cs  Cs3  1  0.400411  0.702519  0.400754  1
  Cs  Cs4  1  0.415026  0.202515  0.902597  1
  Cs  Cs5  1  0.000000  0.000000  0.500000  1
  Cs  Cs6  1  0.000000  0.500000  0.000000  1
  Cs  Cs7  1  0.788928  0.395026  0.296561  1
  Pa  Pa8  1  0.182889  0.095995  0.188471  1
  Pa  Pa9  1  0.817111  0.904005  0.811529  1
  O  O10  1  0.338611  0.345369  0.156442  1
  O  O11  1  0.661389  0.654631  0.843558  1
  O  O12  1  0.168476  0.280164  0.372919  1
  O  O13  1  0.831524  0.719836  0.627081  1
  O  O14  1  0.963453  0.150650  0.771142  1
  O  O15  1  0.036547  0.849350  0.228858  1
  O  O16  1  0.863397  0.092171  0.034074  1
  O  O17  1  0.136603  0.907829  0.965926  1
  O  O18  1  0.514057  0.933793  0.703727  1
  O  O19  1  0.485943  0.066207  0.296273  1
