# generated using pymatgen
data_PrNdEr6(CdIr)2
_symmetry_space_group_name_H-M   'P 1'
_cell_length_a   9.64726548
_cell_length_b   9.66886264
_cell_length_c   9.65936388
_cell_angle_alpha   59.88466961
_cell_angle_beta   60.10654431
_cell_angle_gamma   60.00878214
_symmetry_Int_Tables_number   1
_chemical_formula_structural   PrNdEr6(CdIr)2
_chemical_formula_sum   'Pr2 Nd2 Er12 Cd4 Ir4'
_cell_volume   637.10331619
_cell_formula_units_Z   2
loop_
 _symmetry_equiv_pos_site_id
 _symmetry_equiv_pos_as_xyz
  1  'x, y, z'
loop_
 _atom_site_type_symbol
 _atom_site_label
 _atom_site_symmetry_multiplicity
 _atom_site_fract_x
 _atom_site_fract_y
 _atom_site_fract_z
 _atom_site_occupancy
  Pr  Pr0  1  0.564901  0.564901  0.935099  1
  Pr  Pr1  1  0.935099  0.935099  0.564901  1
  Nd  Nd2  1  0.563290  0.936710  0.563290  1
  Nd  Nd3  1  0.936710  0.563290  0.936710  1
  Er  Er4  1  0.353815  0.345309  0.344556  1
  Er  Er5  1  0.345309  0.353815  0.956320  1
  Er  Er6  1  0.344556  0.956320  0.353815  1
  Er  Er7  1  0.956320  0.344556  0.345309  1
  Er  Er8  1  0.815426  0.184574  0.184574  1
  Er  Er9  1  0.184574  0.815426  0.815426  1
  Er  Er10  1  0.189373  0.810627  0.189373  1
  Er  Er11  1  0.810627  0.189373  0.810627  1
  Er  Er12  1  0.189820  0.189820  0.810180  1
  Er  Er13  1  0.810180  0.810180  0.189820  1
  Er  Er14  1  0.949945  0.550055  0.550055  1
  Er  Er15  1  0.550055  0.949945  0.949945  1
  Cd  Cd16  1  0.582396  0.578866  0.578665  1
  Cd  Cd17  1  0.578866  0.582396  0.260072  1
  Cd  Cd18  1  0.578665  0.260072  0.582396  1
  Cd  Cd19  1  0.260072  0.578665  0.578866  1
  Ir  Ir20  1  0.149143  0.138536  0.136739  1
  Ir  Ir21  1  0.138536  0.149143  0.575581  1
  Ir  Ir22  1  0.136739  0.575581  0.149143  1
  Ir  Ir23  1  0.575581  0.136739  0.138536  1
