# generated using pymatgen
data_Dy5Tc5P12(Ir3Rh4)2
_symmetry_space_group_name_H-M   'P 1'
_cell_length_a   12.65145301
_cell_length_b   12.73769308
_cell_length_c   3.94989400
_cell_angle_alpha   90.00000000
_cell_angle_beta   90.00000000
_cell_angle_gamma   120.16630280
_symmetry_Int_Tables_number   1
_chemical_formula_structural   Dy5Tc5P12(Ir3Rh4)2
_chemical_formula_sum   'Dy5 Tc5 P12 Ir6 Rh8'
_cell_volume   550.32220562
_cell_formula_units_Z   1
loop_
 _symmetry_equiv_pos_site_id
 _symmetry_equiv_pos_as_xyz
  1  'x, y, z'
loop_
 _atom_site_type_symbol
 _atom_site_label
 _atom_site_symmetry_multiplicity
 _atom_site_fract_x
 _atom_site_fract_y
 _atom_site_fract_z
 _atom_site_occupancy
  Dy  Dy0  1  0.333047  0.667323  0.500000  1
  Dy  Dy1  1  0.666943  0.333513  0.500000  1
  Dy  Dy2  1  0.999483  0.810818  0.000000  1
  Dy  Dy3  1  0.187404  0.185857  0.000000  1
  Dy  Dy4  1  0.809826  0.998606  0.000000  1
  Tc  Tc5  1  0.996380  0.448836  0.500000  1
  Tc  Tc6  1  0.552983  0.545180  0.500000  1
  Tc  Tc7  1  0.456719  0.011603  0.500000  1
  Tc  Tc8  1  0.618673  0.797698  0.500000  1
  Tc  Tc9  1  0.201728  0.821312  0.500000  1
  P  P10  1  0.006251  0.638474  0.500000  1
  P  P11  1  0.365741  0.367061  0.500000  1
  P  P12  1  0.631922  0.994349  0.500000  1
  P  P13  1  0.519316  0.692273  0.000000  1
  P  P14  1  0.308781  0.830383  0.000000  1
  P  P15  1  0.167519  0.481866  0.000000  1
  P  P16  1  0.483224  0.166687  0.000000  1
  P  P17  1  0.682660  0.516611  0.000000  1
  P  P18  1  0.835505  0.317318  0.000000  1
  P  P19  1  0.999706  0.176928  0.500000  1
  P  P20  1  0.816825  0.821270  0.500000  1
  P  P21  1  0.176886  0.993198  0.500000  1
  Ir  Ir22  1  0.865478  0.508441  0.000000  1
  Ir  Ir23  1  0.646238  0.136877  0.000000  1
  Ir  Ir24  1  0.000182  0.282394  0.000000  1
  Ir  Ir25  1  0.718293  0.713304  0.000000  1
  Ir  Ir26  1  0.285411  0.005113  0.000000  1
  Ir  Ir27  1  0.999705  0.999343  0.500000  1
  Rh  Rh28  1  0.508746  0.876772  0.000000  1
  Rh  Rh29  1  0.125442  0.635105  0.000000  1
  Rh  Rh30  1  0.361694  0.490524  0.000000  1
  Rh  Rh31  1  0.487659  0.356718  0.000000  1
  Rh  Rh32  1  0.180333  0.377579  0.500000  1
  Rh  Rh33  1  0.374522  0.183743  0.500000  1
  Rh  Rh34  1  0.808829  0.624189  0.500000  1
  Rh  Rh35  1  0.819946  0.192730  0.500000  1
