# generated using pymatgen
data_La2NdHo(MoO4)6
_symmetry_space_group_name_H-M   'P 1'
_cell_length_a   7.64877485
_cell_length_b   7.64058367
_cell_length_c   10.95165967
_cell_angle_alpha   89.72248384
_cell_angle_beta   90.15545079
_cell_angle_gamma   89.79512122
_symmetry_Int_Tables_number   1
_chemical_formula_structural   La2NdHo(MoO4)6
_chemical_formula_sum   'La2 Nd1 Ho1 Mo6 O24'
_cell_volume   640.01309852
_cell_formula_units_Z   1
loop_
 _symmetry_equiv_pos_site_id
 _symmetry_equiv_pos_as_xyz
  1  'x, y, z'
loop_
 _atom_site_type_symbol
 _atom_site_label
 _atom_site_symmetry_multiplicity
 _atom_site_fract_x
 _atom_site_fract_y
 _atom_site_fract_z
 _atom_site_occupancy
  La  La0  1  0.189317  0.688890  0.739427  1
  La  La1  1  0.685607  0.814618  0.258662  1
  Nd  Nd2  1  0.809524  0.308559  0.737486  1
  Ho  Ho3  1  0.306660  0.193612  0.265815  1
  Mo  Mo4  1  0.209478  0.706980  0.352221  1
  Mo  Mo5  1  0.793110  0.290107  0.354463  1
  Mo  Mo6  1  0.708788  0.792022  0.646678  1
  Mo  Mo7  1  0.291484  0.209906  0.636892  1
  Mo  Mo8  1  0.007574  0.009302  0.004027  1
  Mo  Mo9  1  0.494994  0.489259  0.003972  1
  O  O10  1  0.002883  0.220924  0.299446  1
  O  O11  1  0.000643  0.766208  0.293419  1
  O  O12  1  0.229303  0.002149  0.696467  1
  O  O13  1  0.502521  0.728372  0.706766  1
  O  O14  1  0.777206  0.998246  0.705528  1
  O  O15  1  0.498520  0.276360  0.695663  1
  O  O16  1  0.278969  0.497058  0.297259  1
  O  O17  1  0.734216  0.499393  0.295347  1
  O  O18  1  0.186127  0.057706  0.104801  1
  O  O19  1  0.815181  0.965747  0.092021  1
  O  O20  1  0.057521  0.821138  0.913021  1
  O  O21  1  0.309658  0.529370  0.907556  1
  O  O22  1  0.966513  0.190803  0.903878  1
  O  O23  1  0.679081  0.438731  0.909248  1
  O  O24  1  0.448737  0.310937  0.105940  1
  O  O25  1  0.540113  0.682449  0.090765  1
  O  O26  1  0.620900  0.136044  0.309020  1
  O  O27  1  0.363441  0.879848  0.306966  1
  O  O28  1  0.125436  0.368780  0.683743  1
  O  O29  1  0.868664  0.625075  0.693381  1
  O  O30  1  0.197403  0.696954  0.514567  1
  O  O31  1  0.802473  0.301665  0.516929  1
  O  O32  1  0.695514  0.804589  0.484495  1
  O  O33  1  0.302440  0.198197  0.474128  1
