# generated using pymatgen
data_La3Y2P12PdRu18
_symmetry_space_group_name_H-M   'P 1'
_cell_length_a   12.69176802
_cell_length_b   12.57630071
_cell_length_c   4.02434500
_cell_angle_alpha   90.00000000
_cell_angle_beta   90.00000000
_cell_angle_gamma   119.69949438
_symmetry_Int_Tables_number   1
_chemical_formula_structural   La3Y2P12PdRu18
_chemical_formula_sum   'La3 Y2 P12 Pd1 Ru18'
_cell_volume   557.96635391
_cell_formula_units_Z   1
loop_
 _symmetry_equiv_pos_site_id
 _symmetry_equiv_pos_as_xyz
  1  'x, y, z'
loop_
 _atom_site_type_symbol
 _atom_site_label
 _atom_site_symmetry_multiplicity
 _atom_site_fract_x
 _atom_site_fract_y
 _atom_site_fract_z
 _atom_site_occupancy
  La  La0  1  0.000000  0.181755  0.500000  1
  La  La1  1  0.817007  0.815669  0.500000  1
  La  La2  1  0.182993  0.998662  0.500000  1
  Y  Y3  1  0.661350  0.330198  0.000000  1
  Y  Y4  1  0.338650  0.668849  0.000000  1
  P  P5  1  0.000000  0.806035  0.000000  1
  P  P6  1  0.188959  0.189975  0.000000  1
  P  P7  1  0.811041  0.001016  0.000000  1
  P  P8  1  0.694870  0.176011  0.500000  1
  P  P9  1  0.816346  0.518271  0.500000  1
  P  P10  1  0.475730  0.303943  0.500000  1
  P  P11  1  0.183654  0.701926  0.500000  1
  P  P12  1  0.524270  0.828213  0.500000  1
  P  P13  1  0.305130  0.481140  0.500000  1
  P  P14  1  0.000000  0.367856  0.000000  1
  P  P15  1  0.623741  0.624304  0.000000  1
  P  P16  1  0.376259  0.000563  0.000000  1
  Pd  Pd17  1  0.000000  0.552040  0.000000  1
  Ru  Ru18  1  0.444661  0.446654  0.000000  1
  Ru  Ru19  1  0.555339  0.001993  0.000000  1
  Ru  Ru20  1  0.000000  0.706168  0.500000  1
  Ru  Ru21  1  0.286893  0.288995  0.500000  1
  Ru  Ru22  1  0.713107  0.002102  0.500000  1
  Ru  Ru23  1  0.803388  0.187246  0.000000  1
  Ru  Ru24  1  0.812935  0.615904  0.000000  1
  Ru  Ru25  1  0.379337  0.195009  0.000000  1
  Ru  Ru26  1  0.187065  0.802968  0.000000  1
  Ru  Ru27  1  0.620663  0.815672  0.000000  1
  Ru  Ru28  1  0.196612  0.383857  0.000000  1
  Ru  Ru29  1  0.874056  0.369670  0.500000  1
  Ru  Ru30  1  0.627966  0.505955  0.500000  1
  Ru  Ru31  1  0.494097  0.127181  0.500000  1
  Ru  Ru32  1  0.372034  0.877990  0.500000  1
  Ru  Ru33  1  0.505903  0.633084  0.500000  1
  Ru  Ru34  1  0.125944  0.495615  0.500000  1
  Ru  Ru35  1  0.000000  0.997509  0.000000  1
