# generated using pymatgen
data_Tm2Lu2CdPt
_symmetry_space_group_name_H-M   'P 1'
_cell_length_a   9.51718151
_cell_length_b   9.51718092
_cell_length_c   9.52139000
_cell_angle_alpha   59.98536902
_cell_angle_beta   59.98537110
_cell_angle_gamma   60.02926709
_symmetry_Int_Tables_number   1
_chemical_formula_structural   Tm2Lu2CdPt
_chemical_formula_sum   'Tm8 Lu8 Cd4 Pt4'
_cell_volume   609.82031442
_cell_formula_units_Z   4
loop_
 _symmetry_equiv_pos_site_id
 _symmetry_equiv_pos_as_xyz
  1  'x, y, z'
loop_
 _atom_site_type_symbol
 _atom_site_label
 _atom_site_symmetry_multiplicity
 _atom_site_fract_x
 _atom_site_fract_y
 _atom_site_fract_z
 _atom_site_occupancy
  Tm  Tm0  1  0.188943  0.188943  0.811057  1
  Tm  Tm1  1  0.811057  0.811057  0.188943  1
  Tm  Tm2  1  0.935077  0.564923  0.564923  1
  Tm  Tm3  1  0.564923  0.935077  0.935077  1
  Tm  Tm4  1  0.564923  0.935077  0.564923  1
  Tm  Tm5  1  0.935077  0.564923  0.935077  1
  Tm  Tm6  1  0.564900  0.564900  0.935100  1
  Tm  Tm7  1  0.935100  0.935100  0.564900  1
  Lu  Lu8  1  0.352903  0.352903  0.352637  1
  Lu  Lu9  1  0.352903  0.352903  0.941559  1
  Lu  Lu10  1  0.352637  0.941559  0.352903  1
  Lu  Lu11  1  0.941559  0.352637  0.352903  1
  Lu  Lu12  1  0.810962  0.189038  0.189038  1
  Lu  Lu13  1  0.189038  0.810962  0.810962  1
  Lu  Lu14  1  0.189038  0.810962  0.189038  1
  Lu  Lu15  1  0.810962  0.189038  0.810962  1
  Cd  Cd16  1  0.582300  0.582300  0.582376  1
  Cd  Cd17  1  0.582300  0.582300  0.253024  1
  Cd  Cd18  1  0.582376  0.253024  0.582300  1
  Cd  Cd19  1  0.253024  0.582376  0.582300  1
  Pt  Pt20  1  0.143384  0.143384  0.144005  1
  Pt  Pt21  1  0.143384  0.143384  0.569227  1
  Pt  Pt22  1  0.144005  0.569227  0.143384  1
  Pt  Pt23  1  0.569227  0.144005  0.143384  1
