# generated using pymatgen
data_Nb2AsRu5
_symmetry_space_group_name_H-M   'P 1'
_cell_length_a   4.06796700
_cell_length_b   5.47304900
_cell_length_c   10.77690200
_cell_angle_alpha   90.00000000
_cell_angle_beta   90.00000000
_cell_angle_gamma   90.00000000
_symmetry_Int_Tables_number   1
_chemical_formula_structural   Nb2AsRu5
_chemical_formula_sum   'Nb4 As2 Ru10'
_cell_volume   239.93891530
_cell_formula_units_Z   2
loop_
 _symmetry_equiv_pos_site_id
 _symmetry_equiv_pos_as_xyz
  1  'x, y, z'
loop_
 _atom_site_type_symbol
 _atom_site_label
 _atom_site_symmetry_multiplicity
 _atom_site_fract_x
 _atom_site_fract_y
 _atom_site_fract_z
 _atom_site_occupancy
  Nb  Nb0  1  0.500000  0.834937  0.356683  1
  Nb  Nb1  1  0.500000  0.165063  0.643317  1
  Nb  Nb2  1  0.500000  0.334937  0.143317  1
  Nb  Nb3  1  0.500000  0.665063  0.856683  1
  As  As4  1  0.000000  0.500000  0.500000  1
  As  As5  1  0.000000  0.000000  0.000000  1
  Ru  Ru6  1  0.000000  0.500000  0.000000  1
  Ru  Ru7  1  0.000000  0.000000  0.500000  1
  Ru  Ru8  1  0.000000  0.578255  0.247251  1
  Ru  Ru9  1  0.000000  0.421745  0.752749  1
  Ru  Ru10  1  0.000000  0.078255  0.252749  1
  Ru  Ru11  1  0.000000  0.921745  0.747251  1
  Ru  Ru12  1  0.500000  0.821344  0.106017  1
  Ru  Ru13  1  0.500000  0.178656  0.893983  1
  Ru  Ru14  1  0.500000  0.321344  0.393983  1
  Ru  Ru15  1  0.500000  0.678656  0.606017  1
