# generated using pymatgen
data_Er2Si4Ge(AsRh6)2
_symmetry_space_group_name_H-M   'P 1'
_cell_length_a   9.85612132
_cell_length_b   9.85903625
_cell_length_c   3.87249704
_cell_angle_alpha   89.97017414
_cell_angle_beta   90.02100323
_cell_angle_gamma   120.22263371
_symmetry_Int_Tables_number   1
_chemical_formula_structural   Er2Si4Ge(AsRh6)2
_chemical_formula_sum   'Er2 Si4 Ge1 As2 Rh12'
_cell_volume   325.14980016
_cell_formula_units_Z   1
loop_
 _symmetry_equiv_pos_site_id
 _symmetry_equiv_pos_as_xyz
  1  'x, y, z'
loop_
 _atom_site_type_symbol
 _atom_site_label
 _atom_site_symmetry_multiplicity
 _atom_site_fract_x
 _atom_site_fract_y
 _atom_site_fract_z
 _atom_site_occupancy
  Er  Er0  1  0.667003  0.326148  0.750645  1
  Er  Er1  1  0.334248  0.669186  0.251527  1
  Si  Si2  1  0.290074  0.886924  0.751652  1
  Si  Si3  1  0.111403  0.401489  0.751340  1
  Si  Si4  1  0.598262  0.714402  0.750201  1
  Si  Si5  1  0.709434  0.109182  0.250594  1
  Ge  Ge6  1  0.999990  0.000728  0.579883  1
  As  As7  1  0.883437  0.593248  0.250539  1
  As  As8  1  0.406185  0.290959  0.250419  1
  Rh  Rh9  1  0.072525  0.620994  0.752775  1
  Rh  Rh10  1  0.376866  0.453023  0.751621  1
  Rh  Rh11  1  0.554284  0.934097  0.751773  1
  Rh  Rh12  1  0.938626  0.380574  0.250395  1
  Rh  Rh13  1  0.613865  0.560220  0.249423  1
  Rh  Rh14  1  0.445926  0.058871  0.250927  1
  Rh  Rh15  1  0.272823  0.120570  0.750921  1
  Rh  Rh16  1  0.875689  0.149955  0.749502  1
  Rh  Rh17  1  0.847782  0.728876  0.749595  1
  Rh  Rh18  1  0.739174  0.881831  0.252198  1
  Rh  Rh19  1  0.120394  0.855955  0.253969  1
  Rh  Rh20  1  0.142006  0.262772  0.253723  1
