# generated using pymatgen
data_K4SiAu8
_symmetry_space_group_name_H-M   'P 1'
_cell_length_a   10.81240277
_cell_length_b   10.81240308
_cell_length_c   10.31768552
_cell_angle_alpha   77.23884823
_cell_angle_beta   77.23884625
_cell_angle_gamma   35.85363580
_symmetry_Int_Tables_number   1
_chemical_formula_structural   K4SiAu8
_chemical_formula_sum   'K8 Si2 Au16'
_cell_volume   687.20039115
_cell_formula_units_Z   2
loop_
 _symmetry_equiv_pos_site_id
 _symmetry_equiv_pos_as_xyz
  1  'x, y, z'
loop_
 _atom_site_type_symbol
 _atom_site_label
 _atom_site_symmetry_multiplicity
 _atom_site_fract_x
 _atom_site_fract_y
 _atom_site_fract_z
 _atom_site_occupancy
  K  K0  1  0.479658  0.479658  0.841185  1
  K  K1  1  0.520342  0.520342  0.158815  1
  K  K2  1  0.283592  0.283592  0.916120  1
  K  K3  1  0.716408  0.716408  0.083880  1
  K  K4  1  0.220725  0.220725  0.600638  1
  K  K5  1  0.779275  0.779275  0.399362  1
  K  K6  1  0.040922  0.040922  0.646843  1
  K  K7  1  0.959078  0.959078  0.353157  1
  Si  Si8  1  0.663438  0.663438  0.773141  1
  Si  Si9  1  0.336562  0.336562  0.226859  1
  Au  Au10  1  0.782363  0.782363  0.733816  1
  Au  Au11  1  0.217637  0.217637  0.266184  1
  Au  Au12  1  0.621675  0.621675  0.577698  1
  Au  Au13  1  0.378325  0.378325  0.422302  1
  Au  Au14  1  0.500000  0.500000  0.500000  1
  Au  Au15  1  0.000000  0.000000  0.000000  1
  Au  Au16  1  0.110703  0.110703  0.141416  1
  Au  Au17  1  0.889297  0.889297  0.858584  1
  Au  Au18  1  0.846188  0.373940  0.359027  1
  Au  Au19  1  0.626060  0.153812  0.640973  1
  Au  Au20  1  0.153812  0.626060  0.640973  1
  Au  Au21  1  0.373940  0.846188  0.359027  1
  Au  Au22  1  0.091825  0.666619  0.098150  1
  Au  Au23  1  0.333381  0.908175  0.901850  1
  Au  Au24  1  0.908175  0.333381  0.901850  1
  Au  Au25  1  0.666619  0.091825  0.098150  1
