# generated using pymatgen
data_LiSn3OF11
_symmetry_space_group_name_H-M   'P 1'
_cell_length_a   6.38323626
_cell_length_b   8.20493437
_cell_length_c   11.08477938
_cell_angle_alpha   70.50924900
_cell_angle_beta   102.58107255
_cell_angle_gamma   115.15138278
_symmetry_Int_Tables_number   1
_chemical_formula_structural   LiSn3OF11
_chemical_formula_sum   'Li2 Sn6 O2 F22'
_cell_volume   493.42737879
_cell_formula_units_Z   2
loop_
 _symmetry_equiv_pos_site_id
 _symmetry_equiv_pos_as_xyz
  1  'x, y, z'
loop_
 _atom_site_type_symbol
 _atom_site_label
 _atom_site_symmetry_multiplicity
 _atom_site_fract_x
 _atom_site_fract_y
 _atom_site_fract_z
 _atom_site_occupancy
  Li  Li0  1  0.416896  0.520086  0.812160  1
  Li  Li1  1  0.416700  0.020192  0.312183  1
  Sn  Sn2  1  0.813335  0.011109  0.624133  1
  Sn  Sn3  1  0.375664  0.277069  0.560874  1
  Sn  Sn4  1  0.069111  0.048275  0.999194  1
  Sn  Sn5  1  0.813027  0.511195  0.124237  1
  Sn  Sn6  1  0.375283  0.777044  0.060850  1
  Sn  Sn7  1  0.069411  0.548271  0.499255  1
  O  O8  1  0.036294  0.775918  0.049200  1
  O  O9  1  0.036632  0.275916  0.549193  1
  F  F10  1  0.935909  0.535745  0.311489  1
  F  F11  1  0.935907  0.035639  0.811409  1
  F  F12  1  0.381254  0.556411  0.465756  1
  F  F13  1  0.380913  0.056359  0.965699  1
  F  F14  1  0.660075  0.247145  0.209642  1
  F  F15  1  0.660398  0.747084  0.709547  1
  F  F16  1  0.158689  0.316726  0.923920  1
  F  F17  1  0.158926  0.816735  0.424041  1
  F  F18  1  0.574112  0.604412  0.145323  1
  F  F19  1  0.574381  0.104392  0.645177  1
  F  F20  1  0.125368  0.488506  0.126912  1
  F  F21  1  0.125719  0.988506  0.626859  1
  F  F22  1  0.662418  0.478906  0.955048  1
  F  F23  1  0.662673  0.978919  0.454915  1
  F  F24  1  0.446369  0.333125  0.725955  1
  F  F25  1  0.446083  0.833224  0.225888  1
  F  F26  1  0.363076  0.729582  0.899421  1
  F  F27  1  0.363379  0.229756  0.399368  1
  F  F28  1  0.732478  0.471588  0.528002  1
  F  F29  1  0.732133  0.971587  0.027857  1
  F  F30  1  0.175092  0.572553  0.674459  1
  F  F31  1  0.174730  0.072575  0.174411  1
