# generated using pymatgen
data_Ho(ErPt2)9
_symmetry_space_group_name_H-M   'P 1'
_cell_length_a   9.72340705
_cell_length_b   9.72002405
_cell_length_c   5.75247400
_cell_angle_alpha   90.00000000
_cell_angle_beta   90.00000000
_cell_angle_gamma   90.01195220
_symmetry_Int_Tables_number   1
_chemical_formula_structural   Ho(ErPt2)9
_chemical_formula_sum   'Ho1 Er9 Pt18'
_cell_volume   543.67637521
_cell_formula_units_Z   1
loop_
 _symmetry_equiv_pos_site_id
 _symmetry_equiv_pos_as_xyz
  1  'x, y, z'
loop_
 _atom_site_type_symbol
 _atom_site_label
 _atom_site_symmetry_multiplicity
 _atom_site_fract_x
 _atom_site_fract_y
 _atom_site_fract_z
 _atom_site_occupancy
  Ho  Ho0  1  0.452562  0.809027  0.000000  1
  Er  Er1  1  0.547456  0.191066  0.000000  1
  Er  Er2  1  0.190971  0.547383  0.000000  1
  Er  Er3  1  0.809000  0.452540  0.000000  1
  Er  Er4  1  0.500002  0.499958  0.500000  1
  Er  Er5  1  0.308975  0.047481  0.500000  1
  Er  Er6  1  0.691044  0.952599  0.500000  1
  Er  Er7  1  0.952572  0.691024  0.500000  1
  Er  Er8  1  0.047421  0.308988  0.500000  1
  Er  Er9  1  0.999978  0.000008  0.000000  1
  Pt  Pt10  1  0.191577  0.808207  0.250640  1
  Pt  Pt11  1  0.808206  0.191799  0.749527  1
  Pt  Pt12  1  0.808206  0.191799  0.250473  1
  Pt  Pt13  1  0.191577  0.808207  0.749360  1
  Pt  Pt14  1  0.441038  0.782052  0.500000  1
  Pt  Pt15  1  0.558959  0.217921  0.500000  1
  Pt  Pt16  1  0.217930  0.558927  0.500000  1
  Pt  Pt17  1  0.782075  0.441036  0.500000  1
  Pt  Pt18  1  0.308212  0.308222  0.249531  1
  Pt  Pt19  1  0.691969  0.691723  0.750340  1
  Pt  Pt20  1  0.691969  0.691723  0.249660  1
  Pt  Pt21  1  0.308212  0.308222  0.750469  1
  Pt  Pt22  1  0.281947  0.059113  0.000000  1
  Pt  Pt23  1  0.718133  0.941130  0.000000  1
  Pt  Pt24  1  0.941062  0.717914  0.000000  1
  Pt  Pt25  1  0.058943  0.282089  0.000000  1
  Pt  Pt26  1  0.999976  0.000004  0.500000  1
  Pt  Pt27  1  0.500028  0.499837  0.000000  1
