# generated using pymatgen
data_TbDy15Cd2(Ni2Ag)2
_symmetry_space_group_name_H-M   'P 1'
_cell_length_a   9.48323934
_cell_length_b   9.48323865
_cell_length_c   9.47509318
_cell_angle_alpha   60.15136371
_cell_angle_beta   60.15136935
_cell_angle_gamma   60.11034513
_symmetry_Int_Tables_number   1
_chemical_formula_structural   TbDy15Cd2(Ni2Ag)2
_chemical_formula_sum   'Tb1 Dy15 Cd2 Ni4 Ag2'
_cell_volume   604.41362039
_cell_formula_units_Z   1
loop_
 _symmetry_equiv_pos_site_id
 _symmetry_equiv_pos_as_xyz
  1  'x, y, z'
loop_
 _atom_site_type_symbol
 _atom_site_label
 _atom_site_symmetry_multiplicity
 _atom_site_fract_x
 _atom_site_fract_y
 _atom_site_fract_z
 _atom_site_occupancy
  Tb  Tb0  1  0.597443  0.597443  0.598046  1
  Dy  Dy1  1  0.599933  0.599933  0.202089  1
  Dy  Dy2  1  0.601128  0.199397  0.600204  1
  Dy  Dy3  1  0.199397  0.601128  0.600204  1
  Dy  Dy4  1  0.061952  0.439433  0.439666  1
  Dy  Dy5  1  0.437947  0.061431  0.061200  1
  Dy  Dy6  1  0.439433  0.061952  0.439666  1
  Dy  Dy7  1  0.061431  0.437947  0.061200  1
  Dy  Dy8  1  0.439620  0.439620  0.060968  1
  Dy  Dy9  1  0.061591  0.061591  0.437515  1
  Dy  Dy10  1  0.182965  0.814066  0.814861  1
  Dy  Dy11  1  0.813207  0.183082  0.188838  1
  Dy  Dy12  1  0.814066  0.182965  0.814861  1
  Dy  Dy13  1  0.183082  0.813207  0.188838  1
  Dy  Dy14  1  0.813317  0.813317  0.187288  1
  Dy  Dy15  1  0.185785  0.185785  0.813948  1
  Cd  Cd16  1  0.831795  0.509207  0.829320  1
  Cd  Cd17  1  0.509207  0.831795  0.829320  1
  Ni  Ni18  1  0.393455  0.393455  0.394003  1
  Ni  Ni19  1  0.392182  0.392182  0.822190  1
  Ni  Ni20  1  0.391435  0.822425  0.392246  1
  Ni  Ni21  1  0.822425  0.391435  0.392246  1
  Ag  Ag22  1  0.832899  0.832899  0.831723  1
  Ag  Ag23  1  0.834305  0.834305  0.499563  1
