# generated using pymatgen
data_Ce7Nd(Si3Ir)4
_symmetry_space_group_name_H-M   'P 1'
_cell_length_a   8.22967900
_cell_length_b   8.22968091
_cell_length_c   8.30854400
_cell_angle_alpha   90.00000000
_cell_angle_beta   90.00000000
_cell_angle_gamma   119.99999633
_symmetry_Int_Tables_number   1
_chemical_formula_structural   Ce7Nd(Si3Ir)4
_chemical_formula_sum   'Ce7 Nd1 Si12 Ir4'
_cell_volume   487.32811166
_cell_formula_units_Z   1
loop_
 _symmetry_equiv_pos_site_id
 _symmetry_equiv_pos_as_xyz
  1  'x, y, z'
loop_
 _atom_site_type_symbol
 _atom_site_label
 _atom_site_symmetry_multiplicity
 _atom_site_fract_x
 _atom_site_fract_y
 _atom_site_fract_z
 _atom_site_occupancy
  Ce  Ce0  1  0.499903  0.500097  0.750000  1
  Ce  Ce1  1  0.500131  0.499869  0.250000  1
  Ce  Ce2  1  0.000194  0.500097  0.750000  1
  Ce  Ce3  1  0.999738  0.499869  0.250000  1
  Ce  Ce4  1  0.499903  0.999806  0.750000  1
  Ce  Ce5  1  0.500131  0.000262  0.250000  1
  Ce  Ce6  1  0.000000  0.000000  0.750000  1
  Nd  Nd7  1  0.000000  0.000000  0.250000  1
  Si  Si8  1  0.834037  0.165963  0.996839  1
  Si  Si9  1  0.165986  0.834014  0.996726  1
  Si  Si10  1  0.331925  0.165963  0.996839  1
  Si  Si11  1  0.165986  0.834014  0.503274  1
  Si  Si12  1  0.668030  0.834014  0.996726  1
  Si  Si13  1  0.834037  0.165963  0.503161  1
  Si  Si14  1  0.834037  0.668075  0.996839  1
  Si  Si15  1  0.668030  0.834014  0.503274  1
  Si  Si16  1  0.165986  0.331970  0.996726  1
  Si  Si17  1  0.331925  0.165963  0.503161  1
  Si  Si18  1  0.165986  0.331970  0.503274  1
  Si  Si19  1  0.834037  0.668075  0.503161  1
  Ir  Ir20  1  0.666667  0.333333  0.002533  1
  Ir  Ir21  1  0.333333  0.666667  0.003940  1
  Ir  Ir22  1  0.333333  0.666667  0.496060  1
  Ir  Ir23  1  0.666667  0.333333  0.497467  1
