# generated using pymatgen
data_CsSb2Cl7
_symmetry_space_group_name_H-M   'P 1'
_cell_length_a   7.60533011
_cell_length_b   9.43657693
_cell_length_c   10.33160475
_cell_angle_alpha   77.40562238
_cell_angle_beta   83.30659378
_cell_angle_gamma   75.17364378
_symmetry_Int_Tables_number   1
_chemical_formula_structural   CsSb2Cl7
_chemical_formula_sum   'Cs2 Sb4 Cl14'
_cell_volume   698.09483541
_cell_formula_units_Z   2
loop_
 _symmetry_equiv_pos_site_id
 _symmetry_equiv_pos_as_xyz
  1  'x, y, z'
loop_
 _atom_site_type_symbol
 _atom_site_label
 _atom_site_symmetry_multiplicity
 _atom_site_fract_x
 _atom_site_fract_y
 _atom_site_fract_z
 _atom_site_occupancy
  Cs  Cs0  1  0.386252  0.856086  0.323776  1
  Cs  Cs1  1  0.613748  0.143914  0.676224  1
  Sb  Sb2  1  0.871459  0.643716  0.628029  1
  Sb  Sb3  1  0.128541  0.356284  0.371971  1
  Sb  Sb4  1  0.308038  0.708463  0.937887  1
  Sb  Sb5  1  0.691962  0.291537  0.062113  1
  Cl  Cl6  1  0.872586  0.849457  0.441588  1
  Cl  Cl7  1  0.127414  0.150543  0.558412  1
  Cl  Cl8  1  0.961530  0.792248  0.778290  1
  Cl  Cl9  1  0.038470  0.207752  0.221710  1
  Cl  Cl10  1  0.524727  0.767755  0.670595  1
  Cl  Cl11  1  0.475273  0.232245  0.329405  1
  Cl  Cl12  1  0.774997  0.483128  0.453007  1
  Cl  Cl13  1  0.225003  0.516872  0.546993  1
  Cl  Cl14  1  0.877130  0.334501  0.851478  1
  Cl  Cl15  1  0.122870  0.665499  0.148522  1
  Cl  Cl16  1  0.271494  0.967753  0.946169  1
  Cl  Cl17  1  0.728506  0.032247  0.053831  1
  Cl  Cl18  1  0.593384  0.638314  0.055776  1
  Cl  Cl19  1  0.406616  0.361686  0.944224  1
