# generated using pymatgen
data_Lu10Si5Pb
_symmetry_space_group_name_H-M   'P 1'
_cell_length_a   8.33206400
_cell_length_b   8.35568029
_cell_length_c   6.22426400
_cell_angle_alpha   90.00000000
_cell_angle_beta   90.00000000
_cell_angle_gamma   119.90654821
_symmetry_Int_Tables_number   1
_chemical_formula_structural   Lu10Si5Pb
_chemical_formula_sum   'Lu10 Si5 Pb1'
_cell_volume   375.63084374
_cell_formula_units_Z   1
loop_
 _symmetry_equiv_pos_site_id
 _symmetry_equiv_pos_as_xyz
  1  'x, y, z'
loop_
 _atom_site_type_symbol
 _atom_site_label
 _atom_site_symmetry_multiplicity
 _atom_site_fract_x
 _atom_site_fract_y
 _atom_site_fract_z
 _atom_site_occupancy
  Lu  Lu0  1  0.987414  0.747858  0.750000  1
  Lu  Lu1  1  0.998452  0.241943  0.250000  1
  Lu  Lu2  1  0.756509  0.758057  0.250000  1
  Lu  Lu3  1  0.767562  0.000000  0.750000  1
  Lu  Lu4  1  0.239556  0.252142  0.750000  1
  Lu  Lu5  1  0.239795  0.000000  0.250000  1
  Lu  Lu6  1  0.675072  0.343800  0.003926  1
  Lu  Lu7  1  0.331271  0.656200  0.496074  1
  Lu  Lu8  1  0.331271  0.656200  0.003926  1
  Lu  Lu9  1  0.675072  0.343800  0.496074  1
  Si  Si10  1  0.393729  0.392190  0.250000  1
  Si  Si11  1  0.001540  0.607810  0.250000  1
  Si  Si12  1  0.998406  0.394509  0.750000  1
  Si  Si13  1  0.603897  0.605491  0.750000  1
  Si  Si14  1  0.605864  0.000000  0.250000  1
  Pb  Pb15  1  0.394590  0.000000  0.750000  1
