# generated using pymatgen
data_Sc6Mn3Al14Fe3Si10
_symmetry_space_group_name_H-M   'P 1'
_cell_length_a   8.31053862
_cell_length_b   8.27921240
_cell_length_c   8.89815460
_cell_angle_alpha   89.83585071
_cell_angle_beta   90.16997383
_cell_angle_gamma   120.02026356
_symmetry_Int_Tables_number   1
_chemical_formula_structural   Sc6Mn3Al14Fe3Si10
_chemical_formula_sum   'Sc6 Mn3 Al14 Fe3 Si10'
_cell_volume   530.09974767
_cell_formula_units_Z   1
loop_
 _symmetry_equiv_pos_site_id
 _symmetry_equiv_pos_as_xyz
  1  'x, y, z'
loop_
 _atom_site_type_symbol
 _atom_site_label
 _atom_site_symmetry_multiplicity
 _atom_site_fract_x
 _atom_site_fract_y
 _atom_site_fract_z
 _atom_site_occupancy
  Sc  Sc0  1  0.197726  0.798354  0.250414  1
  Sc  Sc1  1  0.199418  0.400754  0.250473  1
  Sc  Sc2  1  0.601932  0.799957  0.250579  1
  Sc  Sc3  1  0.802274  0.201646  0.749586  1
  Sc  Sc4  1  0.800582  0.599246  0.749527  1
  Sc  Sc5  1  0.398068  0.200043  0.749421  1
  Mn  Mn6  1  0.500000  0.500000  0.500000  1
  Mn  Mn7  1  0.000000  0.500000  0.500000  1
  Mn  Mn8  1  0.000000  0.500000  0.000000  1
  Al  Al9  1  0.162895  0.838559  0.921641  1
  Al  Al10  1  0.162625  0.324459  0.921882  1
  Al  Al11  1  0.675911  0.838328  0.921711  1
  Al  Al12  1  0.837105  0.161441  0.078359  1
  Al  Al13  1  0.837375  0.675541  0.078118  1
  Al  Al14  1  0.324089  0.161672  0.078289  1
  Al  Al15  1  0.837072  0.161432  0.421548  1
  Al  Al16  1  0.837460  0.675344  0.421390  1
  Al  Al17  1  0.324164  0.161572  0.421376  1
  Al  Al18  1  0.162928  0.838568  0.578452  1
  Al  Al19  1  0.162540  0.324656  0.578610  1
  Al  Al20  1  0.675836  0.838428  0.578624  1
  Al  Al21  1  0.000696  0.000755  0.250091  1
  Al  Al22  1  0.999304  0.999245  0.749909  1
  Fe  Fe23  1  0.500000  0.000000  0.500000  1
  Fe  Fe24  1  0.500000  0.500000  0.000000  1
  Fe  Fe25  1  0.500000  0.000000  0.000000  1
  Si  Si26  1  0.560620  0.439385  0.250129  1
  Si  Si27  1  0.560466  0.120977  0.249746  1
  Si  Si28  1  0.878702  0.439324  0.249791  1
  Si  Si29  1  0.439380  0.560615  0.749871  1
  Si  Si30  1  0.439534  0.879023  0.750254  1
  Si  Si31  1  0.121298  0.560676  0.750209  1
  Si  Si32  1  0.333433  0.666575  0.461262  1
  Si  Si33  1  0.666567  0.333425  0.538738  1
  Si  Si34  1  0.666775  0.333058  0.960100  1
  Si  Si35  1  0.333225  0.666942  0.039900  1
