# generated using pymatgen
data_Tm4AlReOs6
_symmetry_space_group_name_H-M   'P 1'
_cell_length_a   5.39135062
_cell_length_b   5.24054967
_cell_length_c   8.84264800
_cell_angle_alpha   90.00000000
_cell_angle_beta   90.00000000
_cell_angle_gamma   120.93430749
_symmetry_Int_Tables_number   1
_chemical_formula_structural   Tm4AlReOs6
_chemical_formula_sum   'Tm4 Al1 Re1 Os6'
_cell_volume   214.29949910
_cell_formula_units_Z   1
loop_
 _symmetry_equiv_pos_site_id
 _symmetry_equiv_pos_as_xyz
  1  'x, y, z'
loop_
 _atom_site_type_symbol
 _atom_site_label
 _atom_site_symmetry_multiplicity
 _atom_site_fract_x
 _atom_site_fract_y
 _atom_site_fract_z
 _atom_site_occupancy
  Tm  Tm0  1  0.669000  0.338427  0.565493  1
  Tm  Tm1  1  0.333998  0.667399  0.437460  1
  Tm  Tm2  1  0.333998  0.667399  0.062540  1
  Tm  Tm3  1  0.669000  0.338427  0.934507  1
  Al  Al4  1  0.831247  0.661478  0.250000  1
  Re  Re5  1  0.159265  0.319109  0.750000  1
  Os  Os6  1  0.010815  0.020698  0.498292  1
  Os  Os7  1  0.010815  0.020698  0.001708  1
  Os  Os8  1  0.169401  0.817508  0.750000  1
  Os  Os9  1  0.645447  0.816996  0.750000  1
  Os  Os10  1  0.823651  0.166104  0.250000  1
  Os  Os11  1  0.343363  0.165754  0.250000  1
