# generated using pymatgen
data_ReTc4Pt2W
_symmetry_space_group_name_H-M   'P 1'
_cell_length_a   5.60517000
_cell_length_b   5.59591335
_cell_length_c   4.42614500
_cell_angle_alpha   90.00000000
_cell_angle_beta   90.00000000
_cell_angle_gamma   120.05473498
_symmetry_Int_Tables_number   1
_chemical_formula_structural   ReTc4Pt2W
_chemical_formula_sum   'Re1 Tc4 Pt2 W1'
_cell_volume   120.16451581
_cell_formula_units_Z   1
loop_
 _symmetry_equiv_pos_site_id
 _symmetry_equiv_pos_as_xyz
  1  'x, y, z'
loop_
 _atom_site_type_symbol
 _atom_site_label
 _atom_site_symmetry_multiplicity
 _atom_site_fract_x
 _atom_site_fract_y
 _atom_site_fract_z
 _atom_site_occupancy
  Re  Re0  1  0.842554  0.685108  0.750000  1
  Tc  Tc1  1  0.684621  0.841852  0.250000  1
  Tc  Tc2  1  0.157230  0.841852  0.250000  1
  Tc  Tc3  1  0.314560  0.153738  0.750000  1
  Tc  Tc4  1  0.839177  0.153738  0.750000  1
  Pt  Pt5  1  0.334322  0.668646  0.750000  1
  Pt  Pt6  1  0.667559  0.335115  0.250000  1
  W  W7  1  0.159976  0.319954  0.250000  1
