# generated using pymatgen
data_TmLu3(Al8Pt3)3
_symmetry_space_group_name_H-M   'P 1'
_cell_length_a   7.49835325
_cell_length_b   7.52195018
_cell_length_c   13.12175901
_cell_angle_alpha   84.61269390
_cell_angle_beta   79.13539731
_cell_angle_gamma   59.98589376
_symmetry_Int_Tables_number   1
_chemical_formula_structural   TmLu3(Al8Pt3)3
_chemical_formula_sum   'Tm1 Lu3 Al24 Pt9'
_cell_volume   629.36422278
_cell_formula_units_Z   1
loop_
 _symmetry_equiv_pos_site_id
 _symmetry_equiv_pos_as_xyz
  1  'x, y, z'
loop_
 _atom_site_type_symbol
 _atom_site_label
 _atom_site_symmetry_multiplicity
 _atom_site_fract_x
 _atom_site_fract_y
 _atom_site_fract_z
 _atom_site_occupancy
  Tm  Tm0  1  0.393742  0.168957  0.807418  1
  Lu  Lu1  1  0.606267  0.830919  0.192827  1
  Lu  Lu2  1  0.734519  0.498743  0.807019  1
  Lu  Lu3  1  0.265408  0.501306  0.193015  1
  Al  Al4  1  0.684091  0.833668  0.943931  1
  Al  Al5  1  0.316061  0.166113  0.056294  1
  Al  Al6  1  0.146437  0.832457  0.561511  1
  Al  Al7  1  0.853585  0.167545  0.438482  1
  Al  Al8  1  0.479198  0.166630  0.558648  1
  Al  Al9  1  0.520799  0.833349  0.441308  1
  Al  Al10  1  0.218122  0.165333  0.328116  1
  Al  Al11  1  0.782076  0.834498  0.671780  1
  Al  Al12  1  0.437469  0.506178  0.671848  1
  Al  Al13  1  0.562572  0.494019  0.328035  1
  Al  Al14  1  0.109020  0.160293  0.670700  1
  Al  Al15  1  0.890839  0.839705  0.329158  1
  Al  Al16  1  0.353998  0.499117  0.944029  1
  Al  Al17  1  0.645992  0.501105  0.056074  1
  Al  Al18  1  0.015972  0.168230  0.951509  1
  Al  Al19  1  0.983756  0.831801  0.048611  1
  Al  Al20  1  0.186852  0.499419  0.441237  1
  Al  Al21  1  0.813136  0.500592  0.558756  1
  Al  Al22  1  0.733206  0.163918  0.183153  1
  Al  Al23  1  0.266763  0.835841  0.816841  1
  Al  Al24  1  0.061494  0.630878  0.815707  1
  Al  Al25  1  0.938296  0.369358  0.184279  1
  Al  Al26  1  0.854985  0.042277  0.816188  1
  Al  Al27  1  0.145258  0.957684  0.183809  1
  Pt  Pt28  1  0.119446  0.491078  0.639662  1
  Pt  Pt29  1  0.880426  0.509151  0.360198  1
  Pt  Pt30  1  0.656806  0.171595  0.999770  1
  Pt  Pt31  1  0.343201  0.828427  0.000283  1
  Pt  Pt32  1  0.537314  0.166806  0.360331  1
  Pt  Pt33  1  0.462689  0.833014  0.639568  1
  Pt  Pt34  1  0.777787  0.175724  0.637954  1
  Pt  Pt35  1  0.222421  0.824264  0.361923  1
  Pt  Pt36  1  0.999996  0.500009  0.000029  1
