# generated using pymatgen
data_Y3AlAg3Ge2
_symmetry_space_group_name_H-M   'P 1'
_cell_length_a   7.22517500
_cell_length_b   7.22517503
_cell_length_c   4.20083300
_cell_angle_alpha   90.00000000
_cell_angle_beta   90.00000000
_cell_angle_gamma   119.99998612
_symmetry_Int_Tables_number   1
_chemical_formula_structural   Y3AlAg3Ge2
_chemical_formula_sum   'Y3 Al1 Ag3 Ge2'
_cell_volume   189.91656752
_cell_formula_units_Z   1
loop_
 _symmetry_equiv_pos_site_id
 _symmetry_equiv_pos_as_xyz
  1  'x, y, z'
loop_
 _atom_site_type_symbol
 _atom_site_label
 _atom_site_symmetry_multiplicity
 _atom_site_fract_x
 _atom_site_fract_y
 _atom_site_fract_z
 _atom_site_occupancy
  Y  Y0  1  0.572238  0.000000  0.000000  1
  Y  Y1  1  0.000000  0.572238  0.000000  1
  Y  Y2  1  0.427762  0.427762  0.000000  1
  Al  Al3  1  0.000000  0.000000  0.000000  1
  Ag  Ag4  1  0.243100  0.000000  0.500000  1
  Ag  Ag5  1  0.000000  0.243100  0.500000  1
  Ag  Ag6  1  0.756900  0.756900  0.500000  1
  Ge  Ge7  1  0.333333  0.666667  0.500000  1
  Ge  Ge8  1  0.666667  0.333333  0.500000  1
