# generated using pymatgen
data_SrTc(Sb4Rh)3
_symmetry_space_group_name_H-M   'P 1'
_cell_length_a   8.17779379
_cell_length_b   8.17779300
_cell_length_c   8.17779300
_cell_angle_alpha   109.41492371
_cell_angle_beta   109.41493661
_cell_angle_gamma   109.41492829
_symmetry_Int_Tables_number   1
_chemical_formula_structural   SrTc(Sb4Rh)3
_chemical_formula_sum   'Sr1 Tc1 Sb12 Rh3'
_cell_volume   421.87940423
_cell_formula_units_Z   1
loop_
 _symmetry_equiv_pos_site_id
 _symmetry_equiv_pos_as_xyz
  1  'x, y, z'
loop_
 _atom_site_type_symbol
 _atom_site_label
 _atom_site_symmetry_multiplicity
 _atom_site_fract_x
 _atom_site_fract_y
 _atom_site_fract_z
 _atom_site_occupancy
  Sr  Sr0  1  0.000000  0.000000  0.000000  1
  Tc  Tc1  1  0.500000  0.500000  0.500000  1
  Sb  Sb2  1  0.159278  0.498429  0.342226  1
  Sb  Sb3  1  0.501571  0.657774  0.840722  1
  Sb  Sb4  1  0.342282  0.843077  0.185571  1
  Sb  Sb5  1  0.814429  0.657718  0.156923  1
  Sb  Sb6  1  0.657774  0.840722  0.501571  1
  Sb  Sb7  1  0.185571  0.342282  0.843077  1
  Sb  Sb8  1  0.657718  0.156923  0.814429  1
  Sb  Sb9  1  0.342226  0.159278  0.498429  1
  Sb  Sb10  1  0.498429  0.342226  0.159278  1
  Sb  Sb11  1  0.840722  0.501571  0.657774  1
  Sb  Sb12  1  0.843077  0.185571  0.342282  1
  Sb  Sb13  1  0.156923  0.814429  0.657718  1
  Rh  Rh14  1  0.500000  0.000000  0.000000  1
  Rh  Rh15  1  0.000000  0.500000  0.000000  1
  Rh  Rh16  1  0.000000  0.000000  0.500000  1
