# generated using pymatgen
data_Hf9GaReMo3
_symmetry_space_group_name_H-M   'P 1'
_cell_length_a   8.67095800
_cell_length_b   8.67095845
_cell_length_c   8.71357300
_cell_angle_alpha   90.00000000
_cell_angle_beta   90.00000000
_cell_angle_gamma   119.99999065
_symmetry_Int_Tables_number   1
_chemical_formula_structural   Hf9GaReMo3
_chemical_formula_sum   'Hf18 Ga2 Re2 Mo6'
_cell_volume   567.36316199
_cell_formula_units_Z   2
loop_
 _symmetry_equiv_pos_site_id
 _symmetry_equiv_pos_as_xyz
  1  'x, y, z'
loop_
 _atom_site_type_symbol
 _atom_site_label
 _atom_site_symmetry_multiplicity
 _atom_site_fract_x
 _atom_site_fract_y
 _atom_site_fract_z
 _atom_site_occupancy
  Hf  Hf0  1  0.538579  0.077158  0.250000  1
  Hf  Hf1  1  0.461421  0.922842  0.750000  1
  Hf  Hf2  1  0.922842  0.461421  0.250000  1
  Hf  Hf3  1  0.077158  0.538579  0.750000  1
  Hf  Hf4  1  0.538579  0.461421  0.250000  1
  Hf  Hf5  1  0.461421  0.538579  0.750000  1
  Hf  Hf6  1  0.195171  0.390342  0.045875  1
  Hf  Hf7  1  0.804829  0.609658  0.954125  1
  Hf  Hf8  1  0.609658  0.804829  0.045875  1
  Hf  Hf9  1  0.804829  0.609658  0.545875  1
  Hf  Hf10  1  0.390342  0.195171  0.954125  1
  Hf  Hf11  1  0.195171  0.390342  0.454125  1
  Hf  Hf12  1  0.195171  0.804829  0.045875  1
  Hf  Hf13  1  0.390342  0.195171  0.545875  1
  Hf  Hf14  1  0.804829  0.195171  0.954125  1
  Hf  Hf15  1  0.609658  0.804829  0.454125  1
  Hf  Hf16  1  0.804829  0.195171  0.545875  1
  Hf  Hf17  1  0.195171  0.804829  0.454125  1
  Ga  Ga18  1  0.333333  0.666667  0.250000  1
  Ga  Ga19  1  0.666667  0.333333  0.750000  1
  Re  Re20  1  0.000000  0.000000  0.000000  1
  Re  Re21  1  0.000000  0.000000  0.500000  1
  Mo  Mo22  1  0.890024  0.780048  0.250000  1
  Mo  Mo23  1  0.109976  0.219952  0.750000  1
  Mo  Mo24  1  0.219952  0.109976  0.250000  1
  Mo  Mo25  1  0.780048  0.890024  0.750000  1
  Mo  Mo26  1  0.890024  0.109976  0.250000  1
  Mo  Mo27  1  0.109976  0.890024  0.750000  1
