# generated using pymatgen
data_TbDy5Ti2(MnC6)2
_symmetry_space_group_name_H-M   'P 1'
_cell_length_a   8.22942617
_cell_length_b   8.22847768
_cell_length_c   5.03211400
_cell_angle_alpha   90.00000000
_cell_angle_beta   90.00000000
_cell_angle_gamma   120.02693129
_symmetry_Int_Tables_number   1
_chemical_formula_structural   TbDy5Ti2(MnC6)2
_chemical_formula_sum   'Tb1 Dy5 Ti2 Mn2 C12'
_cell_volume   295.02052397
_cell_formula_units_Z   1
loop_
 _symmetry_equiv_pos_site_id
 _symmetry_equiv_pos_as_xyz
  1  'x, y, z'
loop_
 _atom_site_type_symbol
 _atom_site_label
 _atom_site_symmetry_multiplicity
 _atom_site_fract_x
 _atom_site_fract_y
 _atom_site_fract_z
 _atom_site_occupancy
  Tb  Tb0  1  0.380822  0.322617  0.250000  1
  Dy  Dy1  1  0.620807  0.678310  0.750000  1
  Dy  Dy2  1  0.942420  0.620372  0.250000  1
  Dy  Dy3  1  0.678141  0.057566  0.250000  1
  Dy  Dy4  1  0.321889  0.942187  0.750000  1
  Dy  Dy5  1  0.057601  0.379448  0.750000  1
  Ti  Ti6  1  0.999981  0.999982  0.499962  1
  Ti  Ti7  1  0.999981  0.999982  0.000038  1
  Mn  Mn8  1  0.666673  0.333029  0.750000  1
  Mn  Mn9  1  0.333093  0.666976  0.250000  1
  C  C10  1  0.964460  0.761497  0.750000  1
  C  C11  1  0.202139  0.963760  0.250000  1
  C  C12  1  0.761257  0.796838  0.250000  1
  C  C13  1  0.238813  0.202915  0.750000  1
  C  C14  1  0.797064  0.035478  0.750000  1
  C  C15  1  0.035293  0.238687  0.250000  1
  C  C16  1  0.863202  0.569452  0.750000  1
  C  C17  1  0.293481  0.863329  0.250000  1
  C  C18  1  0.569264  0.706946  0.250000  1
  C  C19  1  0.430698  0.293125  0.750000  1
  C  C20  1  0.136492  0.430713  0.250000  1
  C  C21  1  0.706430  0.136792  0.750000  1
