# generated using pymatgen
data_Ce8Al3V(SiRh2)4
_symmetry_space_group_name_H-M   'P 1'
_cell_length_a   4.15347800
_cell_length_b   6.99441918
_cell_length_c   15.84112117
_cell_angle_alpha   89.22415156
_cell_angle_beta   90.00000000
_cell_angle_gamma   90.00000000
_symmetry_Int_Tables_number   1
_chemical_formula_structural   Ce8Al3V(SiRh2)4
_chemical_formula_sum   'Ce8 Al3 V1 Si4 Rh8'
_cell_volume   460.16085234
_cell_formula_units_Z   1
loop_
 _symmetry_equiv_pos_site_id
 _symmetry_equiv_pos_as_xyz
  1  'x, y, z'
loop_
 _atom_site_type_symbol
 _atom_site_label
 _atom_site_symmetry_multiplicity
 _atom_site_fract_x
 _atom_site_fract_y
 _atom_site_fract_z
 _atom_site_occupancy
  Ce  Ce0  1  0.250000  0.143664  0.559574  1
  Ce  Ce1  1  0.750000  0.857009  0.441518  1
  Ce  Ce2  1  0.250000  0.639694  0.938234  1
  Ce  Ce3  1  0.750000  0.358447  0.058613  1
  Ce  Ce4  1  0.250000  0.018295  0.774689  1
  Ce  Ce5  1  0.750000  0.984167  0.230888  1
  Ce  Ce6  1  0.250000  0.519153  0.723558  1
  Ce  Ce7  1  0.750000  0.481415  0.275952  1
  Al  Al8  1  0.750000  0.990087  0.936362  1
  Al  Al9  1  0.250000  0.509368  0.438689  1
  Al  Al10  1  0.750000  0.492125  0.561898  1
  V  V11  1  0.250000  0.996256  0.059113  1
  Si  Si12  1  0.250000  0.149894  0.353243  1
  Si  Si13  1  0.750000  0.853877  0.649179  1
  Si  Si14  1  0.250000  0.654488  0.149760  1
  Si  Si15  1  0.750000  0.349042  0.850016  1
  Rh  Rh16  1  0.750000  0.280230  0.420949  1
  Rh  Rh17  1  0.250000  0.722614  0.579424  1
  Rh  Rh18  1  0.750000  0.797906  0.078828  1
  Rh  Rh19  1  0.250000  0.213770  0.925244  1
  Rh  Rh20  1  0.750000  0.728416  0.815174  1
  Rh  Rh21  1  0.250000  0.259136  0.177883  1
  Rh  Rh22  1  0.750000  0.230635  0.683257  1
  Rh  Rh23  1  0.250000  0.770310  0.317953  1
