# generated using pymatgen
data_YEr9(In2Rh)4
_symmetry_space_group_name_H-M   'P 1'
_cell_length_a   3.60145300
_cell_length_b   7.98348967
_cell_length_c   18.23192530
_cell_angle_alpha   89.96625780
_cell_angle_beta   90.00000000
_cell_angle_gamma   90.00000000
_symmetry_Int_Tables_number   1
_chemical_formula_structural   YEr9(In2Rh)4
_chemical_formula_sum   'Y1 Er9 In8 Rh4'
_cell_volume   524.20719358
_cell_formula_units_Z   1
loop_
 _symmetry_equiv_pos_site_id
 _symmetry_equiv_pos_as_xyz
  1  'x, y, z'
loop_
 _atom_site_type_symbol
 _atom_site_label
 _atom_site_symmetry_multiplicity
 _atom_site_fract_x
 _atom_site_fract_y
 _atom_site_fract_z
 _atom_site_occupancy
  Y  Y0  1  0.000000  0.500000  0.500000  1
  Er  Er1  1  0.000000  0.000000  0.000000  1
  Er  Er2  1  0.000000  0.745419  0.278096  1
  Er  Er3  1  0.000000  0.254581  0.721904  1
  Er  Er4  1  0.000000  0.754686  0.778729  1
  Er  Er5  1  0.000000  0.245314  0.221271  1
  Er  Er6  1  0.000000  0.615716  0.088780  1
  Er  Er7  1  0.000000  0.384284  0.911220  1
  Er  Er8  1  0.000000  0.884322  0.589305  1
  Er  Er9  1  0.000000  0.115678  0.410695  1
  In  In10  1  0.500000  0.707628  0.932238  1
  In  In11  1  0.500000  0.292372  0.067762  1
  In  In12  1  0.500000  0.793272  0.431917  1
  In  In13  1  0.500000  0.206728  0.568083  1
  In  In14  1  0.500000  0.572837  0.650606  1
  In  In15  1  0.500000  0.427163  0.349394  1
  In  In16  1  0.500000  0.927255  0.149754  1
  In  In17  1  0.500000  0.072745  0.850246  1
  Rh  Rh18  1  0.500000  0.522129  0.195185  1
  Rh  Rh19  1  0.500000  0.477871  0.804815  1
  Rh  Rh20  1  0.500000  0.978677  0.695649  1
  Rh  Rh21  1  0.500000  0.021323  0.304351  1
