# generated using pymatgen
data_Th3Al2Co2NiAu
_symmetry_space_group_name_H-M   'P 1'
_cell_length_a   7.13127904
_cell_length_b   7.30103767
_cell_length_c   3.91517100
_cell_angle_alpha   90.00000000
_cell_angle_beta   90.00000000
_cell_angle_gamma   120.79063350
_symmetry_Int_Tables_number   1
_chemical_formula_structural   Th3Al2Co2NiAu
_chemical_formula_sum   'Th3 Al2 Co2 Ni1 Au1'
_cell_volume   175.11282641
_cell_formula_units_Z   1
loop_
 _symmetry_equiv_pos_site_id
 _symmetry_equiv_pos_as_xyz
  1  'x, y, z'
loop_
 _atom_site_type_symbol
 _atom_site_label
 _atom_site_symmetry_multiplicity
 _atom_site_fract_x
 _atom_site_fract_y
 _atom_site_fract_z
 _atom_site_occupancy
  Th  Th0  1  0.000000  0.420942  0.500000  1
  Th  Th1  1  0.583141  0.580603  0.500000  1
  Th  Th2  1  0.416859  0.997461  0.500000  1
  Al  Al3  1  0.232924  0.232363  0.000000  1
  Al  Al4  1  0.767076  0.999439  0.000000  1
  Co  Co5  1  0.355504  0.660755  0.000000  1
  Co  Co6  1  0.644496  0.305250  0.000000  1
  Ni  Ni7  1  0.000000  0.036527  0.500000  1
  Au  Au8  1  0.000000  0.766659  0.000000  1
