# generated using pymatgen
data_Nd3Sn2PdRh2Pb
_symmetry_space_group_name_H-M   'P 1'
_cell_length_a   7.75625200
_cell_length_b   7.74981817
_cell_length_c   4.00838000
_cell_angle_alpha   90.00000000
_cell_angle_beta   90.00000000
_cell_angle_gamma   119.73081149
_symmetry_Int_Tables_number   1
_chemical_formula_structural   Nd3Sn2PdRh2Pb
_chemical_formula_sum   'Nd3 Sn2 Pd1 Rh2 Pb1'
_cell_volume   209.22549131
_cell_formula_units_Z   1
loop_
 _symmetry_equiv_pos_site_id
 _symmetry_equiv_pos_as_xyz
  1  'x, y, z'
loop_
 _atom_site_type_symbol
 _atom_site_label
 _atom_site_symmetry_multiplicity
 _atom_site_fract_x
 _atom_site_fract_y
 _atom_site_fract_z
 _atom_site_occupancy
  Nd  Nd0  1  0.011126  0.596469  0.000000  1
  Nd  Nd1  1  0.401382  0.410849  0.000000  1
  Nd  Nd2  1  0.586656  0.993015  0.000000  1
  Sn  Sn3  1  0.000658  0.255643  0.500000  1
  Sn  Sn4  1  0.255083  0.000194  0.500000  1
  Pd  Pd5  1  0.664680  0.323495  0.500000  1
  Rh  Rh6  1  0.011941  0.012093  0.000000  1
  Rh  Rh7  1  0.323785  0.664449  0.500000  1
  Pb  Pb8  1  0.744688  0.743793  0.500000  1
