# generated using pymatgen
data_Pr16Ho4Si15Ru
_symmetry_space_group_name_H-M   'P 1'
_cell_length_a   7.81628755
_cell_length_b   7.81554000
_cell_length_c   15.28101300
_cell_angle_alpha   89.86652423
_cell_angle_beta   89.80439773
_cell_angle_gamma   90.12517516
_symmetry_Int_Tables_number   1
_chemical_formula_structural   Pr16Ho4Si15Ru
_chemical_formula_sum   'Pr16 Ho4 Si15 Ru1'
_cell_volume   933.48406726
_cell_formula_units_Z   1
loop_
 _symmetry_equiv_pos_site_id
 _symmetry_equiv_pos_as_xyz
  1  'x, y, z'
loop_
 _atom_site_type_symbol
 _atom_site_label
 _atom_site_symmetry_multiplicity
 _atom_site_fract_x
 _atom_site_fract_y
 _atom_site_fract_z
 _atom_site_occupancy
  Pr  Pr0  1  0.375198  0.012126  0.447311  1
  Pr  Pr1  1  0.484395  0.879858  0.696502  1
  Pr  Pr2  1  0.513382  0.121517  0.196108  1
  Pr  Pr3  1  0.877069  0.485794  0.302914  1
  Pr  Pr4  1  0.125505  0.506162  0.799678  1
  Pr  Pr5  1  0.624756  0.987445  0.946117  1
  Pr  Pr6  1  0.008273  0.378711  0.555018  1
  Pr  Pr7  1  0.986936  0.623733  0.053425  1
  Pr  Pr8  1  0.132173  0.982656  0.873492  1
  Pr  Pr9  1  0.522341  0.628081  0.127428  1
  Pr  Pr10  1  0.468614  0.361888  0.631268  1
  Pr  Pr11  1  0.626955  0.520660  0.872542  1
  Pr  Pr12  1  0.373990  0.477184  0.372440  1
  Pr  Pr13  1  0.874424  0.023847  0.378438  1
  Pr  Pr14  1  0.978141  0.125669  0.122450  1
  Pr  Pr15  1  0.029761  0.884983  0.624528  1
  Ho  Ho16  1  0.308436  0.308236  0.999170  1
  Ho  Ho17  1  0.190030  0.807917  0.250233  1
  Ho  Ho18  1  0.821137  0.190212  0.749411  1
  Ho  Ho19  1  0.692640  0.688515  0.501685  1
  Si  Si20  1  0.329501  0.689215  0.955738  1
  Si  Si21  1  0.668577  0.310879  0.458511  1
  Si  Si22  1  0.690165  0.329946  0.044182  1
  Si  Si23  1  0.310630  0.670691  0.542994  1
  Si  Si24  1  0.812871  0.828288  0.208637  1
  Si  Si25  1  0.172207  0.188343  0.292175  1
  Si  Si26  1  0.829230  0.809205  0.793123  1
  Si  Si27  1  0.286498  0.921660  0.061914  1
  Si  Si28  1  0.579453  0.783910  0.313844  1
  Si  Si29  1  0.425431  0.211588  0.816029  1
  Si  Si30  1  0.776843  0.584396  0.686192  1
  Si  Si31  1  0.213342  0.421870  0.186412  1
  Si  Si32  1  0.707052  0.072872  0.561903  1
  Si  Si33  1  0.920998  0.286260  0.937730  1
  Si  Si34  1  0.080275  0.717475  0.437307  1
  Ru  Ru35  1  0.182774  0.178211  0.703154  1
