# generated using pymatgen
data_La6Yb4Sn5Sb3
_symmetry_space_group_name_H-M   'P 1'
_cell_length_a   8.46591700
_cell_length_b   8.50878279
_cell_length_c   16.11097100
_cell_angle_alpha   89.80398770
_cell_angle_beta   90.00000000
_cell_angle_gamma   90.00000000
_symmetry_Int_Tables_number   1
_chemical_formula_structural   La6Yb4Sn5Sb3
_chemical_formula_sum   'La12 Yb8 Sn10 Sb6'
_cell_volume   1160.54134789
_cell_formula_units_Z   2
loop_
 _symmetry_equiv_pos_site_id
 _symmetry_equiv_pos_as_xyz
  1  'x, y, z'
loop_
 _atom_site_type_symbol
 _atom_site_label
 _atom_site_symmetry_multiplicity
 _atom_site_fract_x
 _atom_site_fract_y
 _atom_site_fract_z
 _atom_site_occupancy
  La  La0  1  0.463321  0.818816  0.900154  1
  La  La1  1  0.963321  0.681184  0.599846  1
  La  La2  1  0.536537  0.176365  0.398656  1
  La  La3  1  0.036537  0.323635  0.101344  1
  La  La4  1  0.537581  0.178349  0.103856  1
  La  La5  1  0.037581  0.321651  0.396144  1
  La  La6  1  0.459720  0.826835  0.603746  1
  La  La7  1  0.959720  0.673165  0.896254  1
  La  La8  1  0.614270  0.335565  0.882303  1
  La  La9  1  0.114270  0.164435  0.617697  1
  La  La10  1  0.386912  0.665898  0.383730  1
  La  La11  1  0.886912  0.834102  0.116270  1
  Yb  Yb12  1  0.382807  0.659004  0.118010  1
  Yb  Yb13  1  0.882807  0.840996  0.381990  1
  Yb  Yb14  1  0.618373  0.340387  0.617313  1
  Yb  Yb15  1  0.118373  0.159613  0.882687  1
  Yb  Yb16  1  0.285125  0.495650  0.751201  1
  Yb  Yb17  1  0.785125  0.004350  0.748799  1
  Yb  Yb18  1  0.714234  0.504667  0.250135  1
  Yb  Yb19  1  0.214234  0.995333  0.249865  1
  Sn  Sn20  1  0.219587  0.973161  0.454704  1
  Sn  Sn21  1  0.719587  0.526839  0.045296  1
  Sn  Sn22  1  0.664226  0.636377  0.748626  1
  Sn  Sn23  1  0.164226  0.863623  0.751374  1
  Sn  Sn24  1  0.334500  0.363513  0.249880  1
  Sn  Sn25  1  0.834500  0.136487  0.250120  1
  Sn  Sn26  1  0.413793  0.112903  0.750735  1
  Sn  Sn27  1  0.913793  0.387097  0.749265  1
  Sn  Sn28  1  0.587431  0.886811  0.249084  1
  Sn  Sn29  1  0.087431  0.613189  0.250916  1
  Sb  Sb30  1  0.228807  0.974364  0.045207  1
  Sb  Sb31  1  0.728807  0.525636  0.454793  1
  Sb  Sb32  1  0.773416  0.026785  0.545348  1
  Sb  Sb33  1  0.273416  0.473215  0.954652  1
  Sb  Sb34  1  0.779364  0.025104  0.952699  1
  Sb  Sb35  1  0.279364  0.474896  0.547301  1
