# generated using pymatgen
data_Cs12Na8Pa(TiSb4)3
_symmetry_space_group_name_H-M   'P 1'
_cell_length_a   11.77465387
_cell_length_b   11.77465456
_cell_length_c   17.56527034
_cell_angle_alpha   89.97322888
_cell_angle_beta   89.97322207
_cell_angle_gamma   142.79136369
_symmetry_Int_Tables_number   1
_chemical_formula_structural   Cs12Na8Pa(TiSb4)3
_chemical_formula_sum   'Cs12 Na8 Pa1 Ti3 Sb12'
_cell_volume   1472.66658642
_cell_formula_units_Z   1
loop_
 _symmetry_equiv_pos_site_id
 _symmetry_equiv_pos_as_xyz
  1  'x, y, z'
loop_
 _atom_site_type_symbol
 _atom_site_label
 _atom_site_symmetry_multiplicity
 _atom_site_fract_x
 _atom_site_fract_y
 _atom_site_fract_z
 _atom_site_occupancy
  Cs  Cs0  1  0.944275  0.606672  0.831260  1
  Cs  Cs1  1  0.555399  0.892972  0.325563  1
  Cs  Cs2  1  0.393328  0.055725  0.168740  1
  Cs  Cs3  1  0.055255  0.391745  0.170466  1
  Cs  Cs4  1  0.897053  0.556370  0.322628  1
  Cs  Cs5  1  0.443630  0.102947  0.677372  1
  Cs  Cs6  1  0.608255  0.944745  0.829534  1
  Cs  Cs7  1  0.283683  0.285933  0.315604  1
  Cs  Cs8  1  0.780645  0.781220  0.178519  1
  Cs  Cs9  1  0.218780  0.219355  0.821481  1
  Cs  Cs10  1  0.714067  0.716317  0.684396  1
  Cs  Cs11  1  0.107028  0.444601  0.674437  1
  Na  Na12  1  0.920384  0.079616  0.000000  1
  Na  Na13  1  0.579683  0.420317  0.500000  1
  Na  Na14  1  0.079486  0.920514  0.000000  1
  Na  Na15  1  0.418264  0.581736  0.500000  1
  Na  Na16  1  0.754053  0.245947  0.000000  1
  Na  Na17  1  0.747719  0.252281  0.500000  1
  Na  Na18  1  0.246257  0.753743  0.000000  1
  Na  Na19  1  0.256316  0.743684  0.500000  1
  Pa  Pa20  1  0.083211  0.916789  0.500000  1
  Ti  Ti21  1  0.584366  0.415634  0.000000  1
  Ti  Ti22  1  0.913775  0.086225  0.500000  1
  Ti  Ti23  1  0.415423  0.584577  0.000000  1
  Sb  Sb24  1  0.865030  0.556167  0.089528  1
  Sb  Sb25  1  0.443833  0.134970  0.910472  1
  Sb  Sb26  1  0.636213  0.944525  0.591181  1
  Sb  Sb27  1  0.930847  0.609318  0.598963  1
  Sb  Sb28  1  0.134715  0.443796  0.910532  1
  Sb  Sb29  1  0.556204  0.865285  0.089468  1
  Sb  Sb30  1  0.390682  0.069153  0.401037  1
  Sb  Sb31  1  0.202283  0.215411  0.591055  1
  Sb  Sb32  1  0.692539  0.692743  0.917850  1
  Sb  Sb33  1  0.307257  0.307461  0.082150  1
  Sb  Sb34  1  0.055475  0.363787  0.408819  1
  Sb  Sb35  1  0.784589  0.797717  0.408945  1
