# generated using pymatgen
data_NdMnFe(Sb6Os)2
_symmetry_space_group_name_H-M   'P 1'
_cell_length_a   8.10508560
_cell_length_b   8.09481931
_cell_length_c   8.09144184
_cell_angle_alpha   109.29307798
_cell_angle_beta   109.39435175
_cell_angle_gamma   109.43253489
_symmetry_Int_Tables_number   1
_chemical_formula_structural   NdMnFe(Sb6Os)2
_chemical_formula_sum   'Nd1 Mn1 Fe1 Sb12 Os2'
_cell_volume   410.14035181
_cell_formula_units_Z   1
loop_
 _symmetry_equiv_pos_site_id
 _symmetry_equiv_pos_as_xyz
  1  'x, y, z'
loop_
 _atom_site_type_symbol
 _atom_site_label
 _atom_site_symmetry_multiplicity
 _atom_site_fract_x
 _atom_site_fract_y
 _atom_site_fract_z
 _atom_site_occupancy
  Nd  Nd0  1  0.000000  0.000000  0.000000  1
  Mn  Mn1  1  0.500000  0.000000  0.000000  1
  Fe  Fe2  1  0.500000  0.500000  0.500000  1
  Sb  Sb3  1  0.157630  0.817865  0.662367  1
  Sb  Sb4  1  0.842370  0.182135  0.337633  1
  Sb  Sb5  1  0.834216  0.505028  0.658832  1
  Sb  Sb6  1  0.165784  0.494972  0.341168  1
  Sb  Sb7  1  0.816932  0.660639  0.156749  1
  Sb  Sb8  1  0.183068  0.339361  0.843251  1
  Sb  Sb9  1  0.505525  0.658821  0.834302  1
  Sb  Sb10  1  0.494475  0.341179  0.165698  1
  Sb  Sb11  1  0.660949  0.156083  0.818262  1
  Sb  Sb12  1  0.339051  0.843917  0.181738  1
  Sb  Sb13  1  0.658891  0.834314  0.504978  1
  Sb  Sb14  1  0.341109  0.165686  0.495022  1
  Os  Os15  1  0.000000  0.000000  0.500000  1
  Os  Os16  1  0.000000  0.500000  0.000000  1
