# generated using pymatgen
data_Sm2GaCu(Ni3B)2
_symmetry_space_group_name_H-M   'P 1'
_cell_length_a   5.14681649
_cell_length_b   5.14885789
_cell_length_c   6.85319700
_cell_angle_alpha   90.00000000
_cell_angle_beta   90.00000000
_cell_angle_gamma   119.91269429
_symmetry_Int_Tables_number   1
_chemical_formula_structural   Sm2GaCu(Ni3B)2
_chemical_formula_sum   'Sm2 Ga1 Cu1 Ni6 B2'
_cell_volume   157.41816131
_cell_formula_units_Z   1
loop_
 _symmetry_equiv_pos_site_id
 _symmetry_equiv_pos_as_xyz
  1  'x, y, z'
loop_
 _atom_site_type_symbol
 _atom_site_label
 _atom_site_symmetry_multiplicity
 _atom_site_fract_x
 _atom_site_fract_y
 _atom_site_fract_z
 _atom_site_occupancy
  Sm  Sm0  1  0.999890  0.999935  0.000000  1
  Sm  Sm1  1  0.000004  0.999992  0.500000  1
  Ga  Ga2  1  0.333459  0.666617  0.000000  1
  Cu  Cu3  1  0.666650  0.333418  0.000000  1
  Ni  Ni4  1  0.500056  0.000163  0.297153  1
  Ni  Ni5  1  0.500045  0.499922  0.297068  1
  Ni  Ni6  1  0.999817  0.499914  0.297259  1
  Ni  Ni7  1  0.500056  0.000163  0.702847  1
  Ni  Ni8  1  0.500045  0.499922  0.702932  1
  Ni  Ni9  1  0.999817  0.499914  0.702741  1
  B  B10  1  0.333302  0.666644  0.500000  1
  B  B11  1  0.666655  0.333395  0.500000  1
