# generated using pymatgen
data_Ho6TiNb3Al12Ru7
_symmetry_space_group_name_H-M   'P 1'
_cell_length_a   9.01654945
_cell_length_b   9.01654964
_cell_length_c   9.01654877
_cell_angle_alpha   60.02941595
_cell_angle_beta   60.02941526
_cell_angle_gamma   60.02941291
_symmetry_Int_Tables_number   1
_chemical_formula_structural   Ho6TiNb3Al12Ru7
_chemical_formula_sum   'Ho6 Ti1 Nb3 Al12 Ru7'
_cell_volume   518.67530138
_cell_formula_units_Z   1
loop_
 _symmetry_equiv_pos_site_id
 _symmetry_equiv_pos_as_xyz
  1  'x, y, z'
loop_
 _atom_site_type_symbol
 _atom_site_label
 _atom_site_symmetry_multiplicity
 _atom_site_fract_x
 _atom_site_fract_y
 _atom_site_fract_z
 _atom_site_occupancy
  Ho  Ho0  1  0.707621  0.707621  0.289773  1
  Ho  Ho1  1  0.293428  0.706507  0.293428  1
  Ho  Ho2  1  0.706507  0.293428  0.293428  1
  Ho  Ho3  1  0.293428  0.293428  0.706507  1
  Ho  Ho4  1  0.707621  0.289773  0.707621  1
  Ho  Ho5  1  0.289773  0.707621  0.707621  1
  Ti  Ti6  1  0.881362  0.881362  0.881362  1
  Nb  Nb7  1  0.879090  0.879090  0.360157  1
  Nb  Nb8  1  0.879090  0.360157  0.879090  1
  Nb  Nb9  1  0.360157  0.879090  0.879090  1
  Al  Al10  1  0.119426  0.119426  0.639864  1
  Al  Al11  1  0.119426  0.639864  0.119426  1
  Al  Al12  1  0.639864  0.119426  0.119426  1
  Al  Al13  1  0.120119  0.120119  0.120119  1
  Al  Al14  1  0.670149  0.670149  0.993907  1
  Al  Al15  1  0.670149  0.993907  0.670149  1
  Al  Al16  1  0.993907  0.670149  0.670149  1
  Al  Al17  1  0.667238  0.667238  0.667238  1
  Al  Al18  1  0.330947  0.330947  0.008138  1
  Al  Al19  1  0.330947  0.008138  0.330947  1
  Al  Al20  1  0.008138  0.330947  0.330947  1
  Al  Al21  1  0.331097  0.331097  0.331097  1
  Ru  Ru22  1  0.000289  0.000289  0.000289  1
  Ru  Ru23  1  0.997790  0.997790  0.501160  1
  Ru  Ru24  1  0.503645  0.996193  0.503645  1
  Ru  Ru25  1  0.996193  0.503645  0.503645  1
  Ru  Ru26  1  0.503645  0.503645  0.996193  1
  Ru  Ru27  1  0.997790  0.501160  0.997790  1
  Ru  Ru28  1  0.501160  0.997790  0.997790  1
