# generated using pymatgen
data_Tb3Pr16TmSi16
_symmetry_space_group_name_H-M   'P 1'
_cell_length_a   7.84667701
_cell_length_b   7.84667705
_cell_length_c   15.37551500
_cell_angle_alpha   89.99760497
_cell_angle_beta   90.00239503
_cell_angle_gamma   90.00601688
_symmetry_Int_Tables_number   1
_chemical_formula_structural   Tb3Pr16TmSi16
_chemical_formula_sum   'Tb3 Pr16 Tm1 Si16'
_cell_volume   946.67568534
_cell_formula_units_Z   1
loop_
 _symmetry_equiv_pos_site_id
 _symmetry_equiv_pos_as_xyz
  1  'x, y, z'
loop_
 _atom_site_type_symbol
 _atom_site_label
 _atom_site_symmetry_multiplicity
 _atom_site_fract_x
 _atom_site_fract_y
 _atom_site_fract_z
 _atom_site_occupancy
  Tb  Tb0  1  0.309146  0.309146  0.000000  1
  Tb  Tb1  1  0.190557  0.809098  0.250059  1
  Tb  Tb2  1  0.809098  0.190557  0.749941  1
  Pr  Pr3  1  0.378861  0.013230  0.445115  1
  Pr  Pr4  1  0.486999  0.878871  0.694849  1
  Pr  Pr5  1  0.513176  0.121187  0.195070  1
  Pr  Pr6  1  0.878871  0.486999  0.305151  1
  Pr  Pr7  1  0.121187  0.513176  0.804930  1
  Pr  Pr8  1  0.621130  0.986722  0.945064  1
  Pr  Pr9  1  0.013230  0.378861  0.554885  1
  Pr  Pr10  1  0.986722  0.621130  0.054936  1
  Pr  Pr11  1  0.124886  0.975954  0.878747  1
  Pr  Pr12  1  0.524191  0.624776  0.128850  1
  Pr  Pr13  1  0.476156  0.375086  0.628659  1
  Pr  Pr14  1  0.624776  0.524191  0.871150  1
  Pr  Pr15  1  0.375086  0.476156  0.371341  1
  Pr  Pr16  1  0.875050  0.024009  0.378877  1
  Pr  Pr17  1  0.975954  0.124886  0.121253  1
  Pr  Pr18  1  0.024009  0.875050  0.621123  1
  Tm  Tm19  1  0.690016  0.690016  0.500000  1
  Si  Si20  1  0.187682  0.172088  0.708909  1
  Si  Si21  1  0.328077  0.687670  0.958867  1
  Si  Si22  1  0.672187  0.313240  0.458985  1
  Si  Si23  1  0.687670  0.328077  0.041133  1
  Si  Si24  1  0.313240  0.672187  0.541015  1
  Si  Si25  1  0.812323  0.827965  0.209056  1
  Si  Si26  1  0.172088  0.187682  0.291091  1
  Si  Si27  1  0.827965  0.812323  0.790944  1
  Si  Si28  1  0.286843  0.920838  0.063367  1
  Si  Si29  1  0.579576  0.786527  0.314044  1
  Si  Si30  1  0.420892  0.213250  0.813288  1
  Si  Si31  1  0.786527  0.579576  0.685956  1
  Si  Si32  1  0.213250  0.420892  0.186712  1
  Si  Si33  1  0.713106  0.078632  0.563233  1
  Si  Si34  1  0.920838  0.286843  0.936633  1
  Si  Si35  1  0.078632  0.713106  0.436767  1
