# generated using pymatgen
data_Ho3Fe8CoP6
_symmetry_space_group_name_H-M   'P 1'
_cell_length_a   3.70309800
_cell_length_b   10.46753100
_cell_length_c   12.17457400
_cell_angle_alpha   90.00000000
_cell_angle_beta   90.00000000
_cell_angle_gamma   90.00000000
_symmetry_Int_Tables_number   1
_chemical_formula_structural   Ho3Fe8CoP6
_chemical_formula_sum   'Ho6 Fe16 Co2 P12'
_cell_volume   471.91440589
_cell_formula_units_Z   2
loop_
 _symmetry_equiv_pos_site_id
 _symmetry_equiv_pos_as_xyz
  1  'x, y, z'
loop_
 _atom_site_type_symbol
 _atom_site_label
 _atom_site_symmetry_multiplicity
 _atom_site_fract_x
 _atom_site_fract_y
 _atom_site_fract_z
 _atom_site_occupancy
  Ho  Ho0  1  0.750000  0.250000  0.474503  1
  Ho  Ho1  1  0.250000  0.750000  0.525497  1
  Ho  Ho2  1  0.250000  0.930177  0.793072  1
  Ho  Ho3  1  0.250000  0.569823  0.793072  1
  Ho  Ho4  1  0.750000  0.069823  0.206928  1
  Ho  Ho5  1  0.750000  0.430177  0.206928  1
  Fe  Fe6  1  0.250000  0.250000  0.847173  1
  Fe  Fe7  1  0.750000  0.750000  0.152827  1
  Fe  Fe8  1  0.750000  0.250000  0.010857  1
  Fe  Fe9  1  0.250000  0.750000  0.989143  1
  Fe  Fe10  1  0.250000  0.422445  0.003457  1
  Fe  Fe11  1  0.250000  0.077555  0.003457  1
  Fe  Fe12  1  0.750000  0.577555  0.996543  1
  Fe  Fe13  1  0.750000  0.922445  0.996543  1
  Fe  Fe14  1  0.250000  0.450795  0.570058  1
  Fe  Fe15  1  0.250000  0.049205  0.570058  1
  Fe  Fe16  1  0.750000  0.549205  0.429942  1
  Fe  Fe17  1  0.750000  0.950795  0.429942  1
  Fe  Fe18  1  0.250000  0.867613  0.291327  1
  Fe  Fe19  1  0.250000  0.632387  0.291327  1
  Fe  Fe20  1  0.750000  0.132387  0.708673  1
  Fe  Fe21  1  0.750000  0.367613  0.708673  1
  Co  Co22  1  0.250000  0.250000  0.299829  1
  Co  Co23  1  0.750000  0.750000  0.700171  1
  P  P24  1  0.250000  0.250000  0.115767  1
  P  P25  1  0.750000  0.750000  0.884233  1
  P  P26  1  0.250000  0.250000  0.659005  1
  P  P27  1  0.750000  0.750000  0.340995  1
  P  P28  1  0.250000  0.443573  0.385689  1
  P  P29  1  0.250000  0.056427  0.385689  1
  P  P30  1  0.750000  0.556427  0.614311  1
  P  P31  1  0.750000  0.943573  0.614311  1
  P  P32  1  0.250000  0.898916  0.111899  1
  P  P33  1  0.250000  0.601084  0.111899  1
  P  P34  1  0.750000  0.101084  0.888101  1
  P  P35  1  0.750000  0.398916  0.888101  1
