# generated using pymatgen
data_Ce2MnAl2Fe
_symmetry_space_group_name_H-M   'P 1'
_cell_length_a   6.09003816
_cell_length_b   6.09003808
_cell_length_c   4.58964854
_cell_angle_alpha   73.02524074
_cell_angle_beta   73.02524575
_cell_angle_gamma   43.69338103
_symmetry_Int_Tables_number   1
_chemical_formula_structural   Ce2MnAl2Fe
_chemical_formula_sum   'Ce2 Mn1 Al2 Fe1'
_cell_volume   111.62181775
_cell_formula_units_Z   1
loop_
 _symmetry_equiv_pos_site_id
 _symmetry_equiv_pos_as_xyz
  1  'x, y, z'
loop_
 _atom_site_type_symbol
 _atom_site_label
 _atom_site_symmetry_multiplicity
 _atom_site_fract_x
 _atom_site_fract_y
 _atom_site_fract_z
 _atom_site_occupancy
  Ce  Ce0  1  0.868691  0.868691  0.347992  1
  Ce  Ce1  1  0.131448  0.131448  0.654510  1
  Mn  Mn2  1  0.809141  0.809141  0.846730  1
  Al  Al3  1  0.583886  0.583886  0.182227  1
  Al  Al4  1  0.416395  0.416395  0.815226  1
  Fe  Fe5  1  0.190440  0.190440  0.153314  1
