# generated using pymatgen
data_Dy13Er2Tm5(CoBi2)4
_symmetry_space_group_name_H-M   'P 1'
_cell_length_a   7.95307268
_cell_length_b   8.87899409
_cell_length_c   12.40796158
_cell_angle_alpha   89.98825936
_cell_angle_beta   90.00672780
_cell_angle_gamma   90.04189807
_symmetry_Int_Tables_number   1
_chemical_formula_structural   Dy13Er2Tm5(CoBi2)4
_chemical_formula_sum   'Dy13 Er2 Tm5 Co4 Bi8'
_cell_volume   876.19148887
_cell_formula_units_Z   1
loop_
 _symmetry_equiv_pos_site_id
 _symmetry_equiv_pos_as_xyz
  1  'x, y, z'
loop_
 _atom_site_type_symbol
 _atom_site_label
 _atom_site_symmetry_multiplicity
 _atom_site_fract_x
 _atom_site_fract_y
 _atom_site_fract_z
 _atom_site_occupancy
  Dy  Dy0  1  0.847779  0.750294  0.801294  1
  Dy  Dy1  1  0.151937  0.249851  0.198810  1
  Dy  Dy2  1  0.348028  0.250119  0.698563  1
  Dy  Dy3  1  0.651971  0.749835  0.301263  1
  Dy  Dy4  1  0.379650  0.749481  0.687374  1
  Dy  Dy5  1  0.620326  0.250372  0.312478  1
  Dy  Dy6  1  0.879023  0.249464  0.812301  1
  Dy  Dy7  1  0.119565  0.750724  0.187688  1
  Dy  Dy8  1  0.949545  0.749829  0.502670  1
  Dy  Dy9  1  0.050397  0.250216  0.497275  1
  Dy  Dy10  1  0.451264  0.249396  0.997419  1
  Dy  Dy11  1  0.551513  0.750372  0.002697  1
  Dy  Dy12  1  0.175685  0.535009  0.936916  1
  Er  Er13  1  0.673992  0.035313  0.563272  1
  Er  Er14  1  0.325885  0.964722  0.436613  1
  Tm  Tm15  1  0.172718  0.964652  0.937138  1
  Tm  Tm16  1  0.327132  0.535491  0.436922  1
  Tm  Tm17  1  0.827163  0.035862  0.063336  1
  Tm  Tm18  1  0.672810  0.464666  0.562965  1
  Tm  Tm19  1  0.826913  0.464554  0.063245  1
  Co  Co20  1  0.560176  0.749575  0.507115  1
  Co  Co21  1  0.439799  0.250467  0.492753  1
  Co  Co22  1  0.059146  0.249348  0.992949  1
  Co  Co23  1  0.937997  0.750874  0.007640  1
  Bi  Bi24  1  0.569487  0.492279  0.825872  1
  Bi  Bi25  1  0.431285  0.507453  0.173563  1
  Bi  Bi26  1  0.067819  0.507284  0.673490  1
  Bi  Bi27  1  0.431695  0.992546  0.173723  1
  Bi  Bi28  1  0.931766  0.492532  0.326265  1
  Bi  Bi29  1  0.567843  0.007292  0.826134  1
  Bi  Bi30  1  0.931191  0.007581  0.326399  1
  Bi  Bi31  1  0.068498  0.992547  0.673861  1
