# generated using pymatgen
data_Ac20Si15Pt
_symmetry_space_group_name_H-M   'P 1'
_cell_length_a   8.28752326
_cell_length_b   8.30371945
_cell_length_c   16.35858825
_cell_angle_alpha   90.02568826
_cell_angle_beta   89.67446969
_cell_angle_gamma   90.13499758
_symmetry_Int_Tables_number   1
_chemical_formula_structural   Ac20Si15Pt
_chemical_formula_sum   'Ac20 Si15 Pt1'
_cell_volume   1125.73195186
_cell_formula_units_Z   1
loop_
 _symmetry_equiv_pos_site_id
 _symmetry_equiv_pos_as_xyz
  1  'x, y, z'
loop_
 _atom_site_type_symbol
 _atom_site_label
 _atom_site_symmetry_multiplicity
 _atom_site_fract_x
 _atom_site_fract_y
 _atom_site_fract_z
 _atom_site_occupancy
  Ac  Ac0  1  0.310079  0.307364  0.998333  1
  Ac  Ac1  1  0.191066  0.809254  0.250618  1
  Ac  Ac2  1  0.815738  0.185731  0.753218  1
  Ac  Ac3  1  0.694184  0.684859  0.499933  1
  Ac  Ac4  1  0.378028  0.013752  0.445866  1
  Ac  Ac5  1  0.486455  0.876800  0.696047  1
  Ac  Ac6  1  0.512898  0.117997  0.194179  1
  Ac  Ac7  1  0.880461  0.483847  0.301696  1
  Ac  Ac8  1  0.120571  0.514452  0.802366  1
  Ac  Ac9  1  0.623742  0.983147  0.946106  1
  Ac  Ac10  1  0.006263  0.382227  0.556795  1
  Ac  Ac11  1  0.987974  0.624670  0.053975  1
  Ac  Ac12  1  0.131144  0.979163  0.876960  1
  Ac  Ac13  1  0.525303  0.625717  0.127149  1
  Ac  Ac14  1  0.468968  0.369998  0.630003  1
  Ac  Ac15  1  0.626200  0.523869  0.872230  1
  Ac  Ac16  1  0.375078  0.475770  0.371141  1
  Ac  Ac17  1  0.873872  0.026262  0.378142  1
  Ac  Ac18  1  0.974431  0.123705  0.122814  1
  Ac  Ac19  1  0.026658  0.881489  0.621810  1
  Si  Si20  1  0.333463  0.696389  0.957458  1
  Si  Si21  1  0.665269  0.302612  0.460817  1
  Si  Si22  1  0.698549  0.332066  0.041297  1
  Si  Si23  1  0.304388  0.671009  0.540060  1
  Si  Si24  1  0.805013  0.828371  0.211522  1
  Si  Si25  1  0.171706  0.195729  0.289603  1
  Si  Si26  1  0.832059  0.802790  0.790670  1
  Si  Si27  1  0.289573  0.916435  0.059145  1
  Si  Si28  1  0.582506  0.790786  0.310763  1
  Si  Si29  1  0.422485  0.206422  0.811458  1
  Si  Si30  1  0.784613  0.586079  0.690119  1
  Si  Si31  1  0.209150  0.417822  0.189012  1
  Si  Si32  1  0.703690  0.080185  0.559515  1
  Si  Si33  1  0.919306  0.291305  0.941854  1
  Si  Si34  1  0.083637  0.712883  0.441113  1
  Pt  Pt35  1  0.185477  0.179043  0.706216  1
