# generated using pymatgen
data_Tm5Be4VIr10
_symmetry_space_group_name_H-M   'P 1'
_cell_length_a   9.76364100
_cell_length_b   9.76364100
_cell_length_c   3.29858200
_cell_angle_alpha   90.00000000
_cell_angle_beta   90.00000000
_cell_angle_gamma   90.00000000
_symmetry_Int_Tables_number   1
_chemical_formula_structural   Tm5Be4VIr10
_chemical_formula_sum   'Tm5 Be4 V1 Ir10'
_cell_volume   314.44948633
_cell_formula_units_Z   1
loop_
 _symmetry_equiv_pos_site_id
 _symmetry_equiv_pos_as_xyz
  1  'x, y, z'
loop_
 _atom_site_type_symbol
 _atom_site_label
 _atom_site_symmetry_multiplicity
 _atom_site_fract_x
 _atom_site_fract_y
 _atom_site_fract_z
 _atom_site_occupancy
  Tm  Tm0  1  0.175960  0.676452  0.000000  1
  Tm  Tm1  1  0.323548  0.175960  0.000000  1
  Tm  Tm2  1  0.824040  0.323548  0.000000  1
  Tm  Tm3  1  0.500000  0.500000  0.000000  1
  Tm  Tm4  1  0.676452  0.824040  0.000000  1
  Be  Be5  1  0.377430  0.881168  0.000000  1
  Be  Be6  1  0.118832  0.377430  0.000000  1
  Be  Be7  1  0.881168  0.622570  0.000000  1
  Be  Be8  1  0.622570  0.118832  0.000000  1
  V  V9  1  0.000000  0.000000  0.000000  1
  Ir  Ir10  1  0.206717  0.938386  0.500000  1
  Ir  Ir11  1  0.938386  0.793283  0.500000  1
  Ir  Ir12  1  0.424259  0.724363  0.500000  1
  Ir  Ir13  1  0.575741  0.275637  0.500000  1
  Ir  Ir14  1  0.724363  0.575741  0.500000  1
  Ir  Ir15  1  0.275637  0.424259  0.500000  1
  Ir  Ir16  1  0.061614  0.206717  0.500000  1
  Ir  Ir17  1  0.000000  0.500000  0.500000  1
  Ir  Ir18  1  0.500000  0.000000  0.500000  1
  Ir  Ir19  1  0.793283  0.061614  0.500000  1
