# generated using pymatgen
data_DySc(TiP)2
_symmetry_space_group_name_H-M   'P 1'
_cell_length_a   3.83293600
_cell_length_b   3.83293600
_cell_length_c   7.29477500
_cell_angle_alpha   90.00000000
_cell_angle_beta   90.00000000
_cell_angle_gamma   90.00000000
_symmetry_Int_Tables_number   1
_chemical_formula_structural   DySc(TiP)2
_chemical_formula_sum   'Dy1 Sc1 Ti2 P2'
_cell_volume   107.17044562
_cell_formula_units_Z   1
loop_
 _symmetry_equiv_pos_site_id
 _symmetry_equiv_pos_as_xyz
  1  'x, y, z'
loop_
 _atom_site_type_symbol
 _atom_site_label
 _atom_site_symmetry_multiplicity
 _atom_site_fract_x
 _atom_site_fract_y
 _atom_site_fract_z
 _atom_site_occupancy
  Dy  Dy0  1  0.500000  0.000000  0.640298  1
  Sc  Sc1  1  0.000000  0.500000  0.347776  1
  Ti  Ti2  1  0.500000  0.500000  0.004230  1
  Ti  Ti3  1  0.000000  0.000000  0.004230  1
  P  P4  1  0.500000  0.000000  0.246482  1
  P  P5  1  0.000000  0.500000  0.756985  1
