# generated using pymatgen
data_Lu3Tc2
_symmetry_space_group_name_H-M   'P 1'
_cell_length_a   8.46982721
_cell_length_b   8.46982649
_cell_length_c   5.98014092
_cell_angle_alpha   135.08564397
_cell_angle_beta   44.91437406
_cell_angle_gamma   119.99999918
_symmetry_Int_Tables_number   1
_chemical_formula_structural   Lu3Tc2
_chemical_formula_sum   'Lu6 Tc4'
_cell_volume   213.85942211
_cell_formula_units_Z   2
loop_
 _symmetry_equiv_pos_site_id
 _symmetry_equiv_pos_as_xyz
  1  'x, y, z'
loop_
 _atom_site_type_symbol
 _atom_site_label
 _atom_site_symmetry_multiplicity
 _atom_site_fract_x
 _atom_site_fract_y
 _atom_site_fract_z
 _atom_site_occupancy
  Lu  Lu0  1  0.578392  0.750001  0.250001  1
  Lu  Lu1  1  0.921608  0.421609  0.250001  1
  Lu  Lu2  1  0.250000  0.078392  0.250001  1
  Lu  Lu3  1  0.750000  0.921609  0.750000  1
  Lu  Lu4  1  0.078392  0.578392  0.750000  1
  Lu  Lu5  1  0.421608  0.250000  0.750000  1
  Tc  Tc6  1  0.622563  0.377438  0.132315  1
  Tc  Tc7  1  0.877437  0.122563  0.367687  1
  Tc  Tc8  1  0.122562  0.877437  0.632314  1
  Tc  Tc9  1  0.377438  0.622563  0.867685  1
