# generated using pymatgen
data_TbHo4(CoO6)2
_symmetry_space_group_name_H-M   'P 1'
_cell_length_a   6.74163006
_cell_length_b   6.74163054
_cell_length_c   7.16384301
_cell_angle_alpha   74.59471615
_cell_angle_beta   74.59471379
_cell_angle_gamma   50.18891641
_symmetry_Int_Tables_number   1
_chemical_formula_structural   TbHo4(CoO6)2
_chemical_formula_sum   'Tb1 Ho4 Co2 O12'
_cell_volume   239.10576674
_cell_formula_units_Z   1
loop_
 _symmetry_equiv_pos_site_id
 _symmetry_equiv_pos_as_xyz
  1  'x, y, z'
loop_
 _atom_site_type_symbol
 _atom_site_label
 _atom_site_symmetry_multiplicity
 _atom_site_fract_x
 _atom_site_fract_y
 _atom_site_fract_z
 _atom_site_occupancy
  Tb  Tb0  1  0.000000  0.000000  0.500000  1
  Ho  Ho1  1  0.305626  0.305626  0.355690  1
  Ho  Ho2  1  0.694374  0.694374  0.644310  1
  Ho  Ho3  1  0.307417  0.307417  0.835956  1
  Ho  Ho4  1  0.692583  0.692583  0.164044  1
  Co  Co5  1  0.755667  0.244333  0.000000  1
  Co  Co6  1  0.244333  0.755667  0.000000  1
  O  O7  1  0.900124  0.418271  0.921368  1
  O  O8  1  0.418271  0.900124  0.921368  1
  O  O9  1  0.099876  0.581729  0.078632  1
  O  O10  1  0.581729  0.099876  0.078632  1
  O  O11  1  0.096955  0.595613  0.577217  1
  O  O12  1  0.595613  0.096955  0.577217  1
  O  O13  1  0.903045  0.404387  0.422783  1
  O  O14  1  0.404387  0.903045  0.422783  1
  O  O15  1  0.000718  0.000718  0.828753  1
  O  O16  1  0.999282  0.999282  0.171247  1
  O  O17  1  0.500057  0.500057  0.823739  1
  O  O18  1  0.499943  0.499943  0.176261  1
