# generated using pymatgen
data_Zr4AgHgN2
_symmetry_space_group_name_H-M   'P 1'
_cell_length_a   9.09224034
_cell_length_b   9.09223930
_cell_length_c   4.66683600
_cell_angle_alpha   90.00000000
_cell_angle_beta   90.00000000
_cell_angle_gamma   159.44853957
_symmetry_Int_Tables_number   1
_chemical_formula_structural   Zr4AgHgN2
_chemical_formula_sum   'Zr4 Ag1 Hg1 N2'
_cell_volume   135.43516622
_cell_formula_units_Z   1
loop_
 _symmetry_equiv_pos_site_id
 _symmetry_equiv_pos_as_xyz
  1  'x, y, z'
loop_
 _atom_site_type_symbol
 _atom_site_label
 _atom_site_symmetry_multiplicity
 _atom_site_fract_x
 _atom_site_fract_y
 _atom_site_fract_z
 _atom_site_occupancy
  Zr  Zr0  1  0.386911  0.613091  0.250000  1
  Zr  Zr1  1  0.212000  0.788002  0.250000  1
  Zr  Zr2  1  0.788275  0.211727  0.750000  1
  Zr  Zr3  1  0.613236  0.386766  0.750000  1
  Ag  Ag4  1  0.954913  0.045089  0.750000  1
  Hg  Hg5  1  0.043741  0.956261  0.250000  1
  N  N6  1  0.800820  0.199182  0.250000  1
  N  N7  1  0.200113  0.799889  0.750000  1
