# generated using pymatgen
data_TbTa4Nb(B2Ru5)2
_symmetry_space_group_name_H-M   'P 1'
_cell_length_a   9.52456708
_cell_length_b   9.52456632
_cell_length_c   3.05443600
_cell_angle_alpha   90.00000000
_cell_angle_beta   90.00000000
_cell_angle_gamma   90.48789770
_symmetry_Int_Tables_number   1
_chemical_formula_structural   TbTa4Nb(B2Ru5)2
_chemical_formula_sum   'Tb1 Ta4 Nb1 B4 Ru10'
_cell_volume   277.08035722
_cell_formula_units_Z   1
loop_
 _symmetry_equiv_pos_site_id
 _symmetry_equiv_pos_as_xyz
  1  'x, y, z'
loop_
 _atom_site_type_symbol
 _atom_site_label
 _atom_site_symmetry_multiplicity
 _atom_site_fract_x
 _atom_site_fract_y
 _atom_site_fract_z
 _atom_site_occupancy
  Tb  Tb0  1  0.824680  0.675320  0.000000  1
  Ta  Ta1  1  0.324626  0.823838  0.000000  1
  Ta  Ta2  1  0.676162  0.175374  0.000000  1
  Ta  Ta3  1  0.500928  0.500576  0.000000  1
  Ta  Ta4  1  0.999424  0.999072  0.000000  1
  Nb  Nb5  1  0.178457  0.321543  0.000000  1
  B  B6  1  0.617922  0.882078  0.000000  1
  B  B7  1  0.376800  0.123200  0.000000  1
  B  B8  1  0.123764  0.619393  0.000000  1
  B  B9  1  0.880607  0.376236  0.000000  1
  Ru  Ru10  1  0.557722  0.724981  0.500000  1
  Ru  Ru11  1  0.428007  0.282915  0.500000  1
  Ru  Ru12  1  0.082936  0.782985  0.500000  1
  Ru  Ru13  1  0.929711  0.215645  0.500000  1
  Ru  Ru14  1  0.284355  0.570289  0.500000  1
  Ru  Ru15  1  0.717015  0.417064  0.500000  1
  Ru  Ru16  1  0.217085  0.071993  0.500000  1
  Ru  Ru17  1  0.775019  0.942278  0.500000  1
  Ru  Ru18  1  0.495838  0.004162  0.500000  1
  Ru  Ru19  1  0.008943  0.491057  0.500000  1
