# generated using pymatgen
data_Dy3Fe2Ni7P6
_symmetry_space_group_name_H-M   'P 1'
_cell_length_a   3.74842000
_cell_length_b   10.49813900
_cell_length_c   12.29452700
_cell_angle_alpha   90.00000000
_cell_angle_beta   90.00000000
_cell_angle_gamma   90.00000000
_symmetry_Int_Tables_number   1
_chemical_formula_structural   Dy3Fe2Ni7P6
_chemical_formula_sum   'Dy6 Fe4 Ni14 P12'
_cell_volume   483.80727014
_cell_formula_units_Z   2
loop_
 _symmetry_equiv_pos_site_id
 _symmetry_equiv_pos_as_xyz
  1  'x, y, z'
loop_
 _atom_site_type_symbol
 _atom_site_label
 _atom_site_symmetry_multiplicity
 _atom_site_fract_x
 _atom_site_fract_y
 _atom_site_fract_z
 _atom_site_occupancy
  Dy  Dy0  1  0.750000  0.250000  0.478797  1
  Dy  Dy1  1  0.250000  0.750000  0.521203  1
  Dy  Dy2  1  0.250000  0.933012  0.793791  1
  Dy  Dy3  1  0.250000  0.566988  0.793791  1
  Dy  Dy4  1  0.750000  0.066988  0.206209  1
  Dy  Dy5  1  0.750000  0.433012  0.206209  1
  Fe  Fe6  1  0.250000  0.250000  0.846142  1
  Fe  Fe7  1  0.750000  0.750000  0.153858  1
  Fe  Fe8  1  0.750000  0.250000  0.013860  1
  Fe  Fe9  1  0.250000  0.750000  0.986140  1
  Ni  Ni10  1  0.250000  0.250000  0.298035  1
  Ni  Ni11  1  0.750000  0.750000  0.701965  1
  Ni  Ni12  1  0.250000  0.419384  0.007832  1
  Ni  Ni13  1  0.250000  0.080616  0.007832  1
  Ni  Ni14  1  0.750000  0.580616  0.992168  1
  Ni  Ni15  1  0.750000  0.919384  0.992168  1
  Ni  Ni16  1  0.250000  0.448962  0.571057  1
  Ni  Ni17  1  0.250000  0.051038  0.571057  1
  Ni  Ni18  1  0.750000  0.551038  0.428943  1
  Ni  Ni19  1  0.750000  0.948962  0.428943  1
  Ni  Ni20  1  0.250000  0.869797  0.289494  1
  Ni  Ni21  1  0.250000  0.630203  0.289494  1
  Ni  Ni22  1  0.750000  0.130203  0.710506  1
  Ni  Ni23  1  0.750000  0.369797  0.710506  1
  P  P24  1  0.250000  0.250000  0.119212  1
  P  P25  1  0.750000  0.750000  0.880788  1
  P  P26  1  0.250000  0.250000  0.657130  1
  P  P27  1  0.750000  0.750000  0.342870  1
  P  P28  1  0.250000  0.436247  0.385238  1
  P  P29  1  0.250000  0.063753  0.385238  1
  P  P30  1  0.750000  0.563753  0.614762  1
  P  P31  1  0.750000  0.936247  0.614762  1
  P  P32  1  0.250000  0.898418  0.108396  1
  P  P33  1  0.250000  0.601582  0.108396  1
  P  P34  1  0.750000  0.101582  0.891604  1
  P  P35  1  0.750000  0.398418  0.891604  1
