# generated using pymatgen
data_Pr8YHo11Sn16
_symmetry_space_group_name_H-M   'P 1'
_cell_length_a   8.08610800
_cell_length_b   8.32144393
_cell_length_c   15.69850600
_cell_angle_alpha   90.00000000
_cell_angle_beta   90.00000000
_cell_angle_gamma   90.19847655
_symmetry_Int_Tables_number   1
_chemical_formula_structural   Pr8YHo11Sn16
_chemical_formula_sum   'Pr8 Y1 Ho11 Sn16'
_cell_volume   1056.31621452
_cell_formula_units_Z   1
loop_
 _symmetry_equiv_pos_site_id
 _symmetry_equiv_pos_as_xyz
  1  'x, y, z'
loop_
 _atom_site_type_symbol
 _atom_site_label
 _atom_site_symmetry_multiplicity
 _atom_site_fract_x
 _atom_site_fract_y
 _atom_site_fract_z
 _atom_site_occupancy
  Pr  Pr0  1  0.509365  0.323007  0.903279  1
  Pr  Pr1  1  0.008584  0.177444  0.596977  1
  Pr  Pr2  1  0.491481  0.678503  0.403696  1
  Pr  Pr3  1  0.992378  0.822383  0.095717  1
  Pr  Pr4  1  0.491481  0.678503  0.096304  1
  Pr  Pr5  1  0.992378  0.822383  0.404283  1
  Pr  Pr6  1  0.509365  0.323007  0.596721  1
  Pr  Pr7  1  0.008584  0.177444  0.903023  1
  Y  Y8  1  0.314592  0.000299  0.250000  1
  Ho  Ho9  1  0.351779  0.833967  0.875207  1
  Ho  Ho10  1  0.851746  0.665282  0.623900  1
  Ho  Ho11  1  0.647650  0.166043  0.376219  1
  Ho  Ho12  1  0.147748  0.333796  0.123308  1
  Ho  Ho13  1  0.647650  0.166043  0.123781  1
  Ho  Ho14  1  0.147748  0.333796  0.376692  1
  Ho  Ho15  1  0.351779  0.833967  0.624793  1
  Ho  Ho16  1  0.851746  0.665282  0.876100  1
  Ho  Ho17  1  0.184712  0.501291  0.750000  1
  Ho  Ho18  1  0.684819  0.998536  0.750000  1
  Ho  Ho19  1  0.814668  0.498016  0.250000  1
  Sn  Sn20  1  0.311981  0.041936  0.039965  1
  Sn  Sn21  1  0.810985  0.459870  0.458053  1
  Sn  Sn22  1  0.688194  0.958813  0.541636  1
  Sn  Sn23  1  0.188838  0.540558  0.958071  1
  Sn  Sn24  1  0.688194  0.958813  0.958364  1
  Sn  Sn25  1  0.188838  0.540558  0.541929  1
  Sn  Sn26  1  0.311981  0.041936  0.460035  1
  Sn  Sn27  1  0.810985  0.459870  0.041947  1
  Sn  Sn28  1  0.550806  0.623798  0.750000  1
  Sn  Sn29  1  0.049720  0.875854  0.750000  1
  Sn  Sn30  1  0.448676  0.376518  0.250000  1
  Sn  Sn31  1  0.948599  0.124374  0.250000  1
  Sn  Sn32  1  0.316624  0.142794  0.750000  1
  Sn  Sn33  1  0.816858  0.357540  0.750000  1
  Sn  Sn34  1  0.686183  0.857750  0.250000  1
  Sn  Sn35  1  0.182286  0.640031  0.250000  1
