# generated using pymatgen
data_Y2Er2Ga4Pd3Ru
_symmetry_space_group_name_H-M   'P 1'
_cell_length_a   4.42390300
_cell_length_b   6.90378728
_cell_length_c   7.68992104
_cell_angle_alpha   89.58923110
_cell_angle_beta   90.00000000
_cell_angle_gamma   90.00000000
_symmetry_Int_Tables_number   1
_chemical_formula_structural   Y2Er2Ga4Pd3Ru
_chemical_formula_sum   'Y2 Er2 Ga4 Pd3 Ru1'
_cell_volume   234.85711224
_cell_formula_units_Z   1
loop_
 _symmetry_equiv_pos_site_id
 _symmetry_equiv_pos_as_xyz
  1  'x, y, z'
loop_
 _atom_site_type_symbol
 _atom_site_label
 _atom_site_symmetry_multiplicity
 _atom_site_fract_x
 _atom_site_fract_y
 _atom_site_fract_z
 _atom_site_occupancy
  Y  Y0  1  0.750000  0.524126  0.812647  1
  Y  Y1  1  0.750000  0.021939  0.690458  1
  Er  Er2  1  0.250000  0.487030  0.194104  1
  Er  Er3  1  0.250000  0.977490  0.300394  1
  Ga  Ga4  1  0.250000  0.829134  0.930164  1
  Ga  Ga5  1  0.750000  0.158694  0.072596  1
  Ga  Ga6  1  0.250000  0.332840  0.571191  1
  Ga  Ga7  1  0.750000  0.670560  0.426076  1
  Pd  Pd8  1  0.250000  0.221699  0.899418  1
  Pd  Pd9  1  0.750000  0.281799  0.393579  1
  Pd  Pd10  1  0.250000  0.723075  0.602815  1
  Ru  Ru11  1  0.750000  0.771616  0.106559  1
