# generated using pymatgen
data_TlBi3Pt4
_symmetry_space_group_name_H-M   'P 1'
_cell_length_a   4.39839400
_cell_length_b   4.39839542
_cell_length_c   11.14209800
_cell_angle_alpha   90.00000000
_cell_angle_beta   90.00000000
_cell_angle_gamma   120.00000438
_symmetry_Int_Tables_number   1
_chemical_formula_structural   TlBi3Pt4
_chemical_formula_sum   'Tl1 Bi3 Pt4'
_cell_volume   186.67492549
_cell_formula_units_Z   1
loop_
 _symmetry_equiv_pos_site_id
 _symmetry_equiv_pos_as_xyz
  1  'x, y, z'
loop_
 _atom_site_type_symbol
 _atom_site_label
 _atom_site_symmetry_multiplicity
 _atom_site_fract_x
 _atom_site_fract_y
 _atom_site_fract_z
 _atom_site_occupancy
  Tl  Tl0  1  0.000000  0.000000  0.000000  1
  Bi  Bi1  1  0.000000  0.000000  0.500000  1
  Bi  Bi2  1  0.666667  0.333333  0.247337  1
  Bi  Bi3  1  0.666667  0.333333  0.752663  1
  Pt  Pt4  1  0.333333  0.666667  0.124284  1
  Pt  Pt5  1  0.333333  0.666667  0.624366  1
  Pt  Pt6  1  0.333333  0.666667  0.375634  1
  Pt  Pt7  1  0.333333  0.666667  0.875716  1
