# generated using pymatgen
data_SmDyNi2Ag
_symmetry_space_group_name_H-M   'P 1'
_cell_length_a   7.26954100
_cell_length_b   7.26953920
_cell_length_c   3.67425300
_cell_angle_alpha   90.00000000
_cell_angle_beta   90.00000000
_cell_angle_gamma   149.48641545
_symmetry_Int_Tables_number   1
_chemical_formula_structural   SmDyNi2Ag
_chemical_formula_sum   'Sm1 Dy1 Ni2 Ag1'
_cell_volume   98.58856932
_cell_formula_units_Z   1
loop_
 _symmetry_equiv_pos_site_id
 _symmetry_equiv_pos_as_xyz
  1  'x, y, z'
loop_
 _atom_site_type_symbol
 _atom_site_label
 _atom_site_symmetry_multiplicity
 _atom_site_fract_x
 _atom_site_fract_y
 _atom_site_fract_z
 _atom_site_occupancy
  Sm  Sm0  1  0.632592  0.367408  0.500000  1
  Dy  Dy1  1  0.365369  0.634631  0.500000  1
  Ni  Ni2  1  0.802899  0.197101  0.000000  1
  Ni  Ni3  1  0.200547  0.799453  0.000000  1
  Ag  Ag4  1  0.998594  0.001406  0.000000  1
