# generated using pymatgen
data_Nd9Th(Bi3C)2
_symmetry_space_group_name_H-M   'P 1'
_cell_length_a   9.47569867
_cell_length_b   9.47569895
_cell_length_c   6.67386900
_cell_angle_alpha   90.00000000
_cell_angle_beta   90.00000000
_cell_angle_gamma   120.26145708
_symmetry_Int_Tables_number   1
_chemical_formula_structural   Nd9Th(Bi3C)2
_chemical_formula_sum   'Nd9 Th1 Bi6 C2'
_cell_volume   517.58367119
_cell_formula_units_Z   1
loop_
 _symmetry_equiv_pos_site_id
 _symmetry_equiv_pos_as_xyz
  1  'x, y, z'
loop_
 _atom_site_type_symbol
 _atom_site_label
 _atom_site_symmetry_multiplicity
 _atom_site_fract_x
 _atom_site_fract_y
 _atom_site_fract_z
 _atom_site_occupancy
  Nd  Nd0  1  0.666614  0.334652  0.999787  1
  Nd  Nd1  1  0.334652  0.666614  0.999787  1
  Nd  Nd2  1  0.334652  0.666614  0.500213  1
  Nd  Nd3  1  0.666614  0.334652  0.500213  1
  Nd  Nd4  1  0.218687  0.002411  0.750000  1
  Nd  Nd5  1  0.002411  0.218687  0.750000  1
  Nd  Nd6  1  0.214735  0.214735  0.250000  1
  Nd  Nd7  1  0.785485  0.999861  0.250000  1
  Nd  Nd8  1  0.999861  0.785485  0.250000  1
  Th  Th9  1  0.795927  0.795927  0.750000  1
  Bi  Bi10  1  0.401411  0.401411  0.750000  1
  Bi  Bi11  1  0.598601  0.001587  0.750000  1
  Bi  Bi12  1  0.001587  0.598601  0.750000  1
  Bi  Bi13  1  0.597074  0.597074  0.250000  1
  Bi  Bi14  1  0.400270  0.999805  0.250000  1
  Bi  Bi15  1  0.999805  0.400270  0.250000  1
  C  C16  1  0.990808  0.990808  0.994215  1
  C  C17  1  0.990808  0.990808  0.505785  1
