# generated using pymatgen
data_NaNd5DyIrBr12
_symmetry_space_group_name_H-M   'P 1'
_cell_length_a   9.50539824
_cell_length_b   9.57168479
_cell_length_c   9.48100813
_cell_angle_alpha   107.40979596
_cell_angle_beta   107.18414999
_cell_angle_gamma   106.57310262
_symmetry_Int_Tables_number   1
_chemical_formula_structural   NaNd5DyIrBr12
_chemical_formula_sum   'Na1 Nd5 Dy1 Ir1 Br12'
_cell_volume   717.26215803
_cell_formula_units_Z   1
loop_
 _symmetry_equiv_pos_site_id
 _symmetry_equiv_pos_as_xyz
  1  'x, y, z'
loop_
 _atom_site_type_symbol
 _atom_site_label
 _atom_site_symmetry_multiplicity
 _atom_site_fract_x
 _atom_site_fract_y
 _atom_site_fract_z
 _atom_site_occupancy
  Na  Na0  1  0.500249  0.499588  0.500744  1
  Nd  Nd1  1  0.114019  0.329247  0.031268  1
  Nd  Nd2  1  0.315727  0.029338  0.109190  1
  Nd  Nd3  1  0.030186  0.108006  0.317396  1
  Nd  Nd4  1  0.968175  0.886944  0.680348  1
  Nd  Nd5  1  0.684125  0.972006  0.890441  1
  Dy  Dy6  1  0.888061  0.679559  0.968602  1
  Ir  Ir7  1  0.999252  0.999486  0.998525  1
  Br  Br8  1  0.208318  0.683482  0.070788  1
  Br  Br9  1  0.452813  0.371155  0.153590  1
  Br  Br10  1  0.684422  0.074130  0.220334  1
  Br  Br11  1  0.924205  0.774410  0.306602  1
  Br  Br12  1  0.153808  0.452600  0.373599  1
  Br  Br13  1  0.372207  0.153314  0.454338  1
  Br  Br14  1  0.627257  0.845199  0.544898  1
  Br  Br15  1  0.847277  0.546234  0.637666  1
  Br  Br16  1  0.072703  0.216831  0.682096  1
  Br  Br17  1  0.315225  0.924509  0.778805  1
  Br  Br18  1  0.558209  0.629219  0.852503  1
  Br  Br19  1  0.783764  0.324745  0.928272  1
