# generated using pymatgen
data_Tm6Zn20Ag3S
_symmetry_space_group_name_H-M   'P 1'
_cell_length_a   9.08631906
_cell_length_b   9.08635270
_cell_length_c   9.09417400
_cell_angle_alpha   59.97146344
_cell_angle_beta   59.97123158
_cell_angle_gamma   59.95828159
_symmetry_Int_Tables_number   1
_chemical_formula_structural   Tm6Zn20Ag3S
_chemical_formula_sum   'Tm6 Zn20 Ag3 S1'
_cell_volume   530.51860327
_cell_formula_units_Z   1
loop_
 _symmetry_equiv_pos_site_id
 _symmetry_equiv_pos_as_xyz
  1  'x, y, z'
loop_
 _atom_site_type_symbol
 _atom_site_label
 _atom_site_symmetry_multiplicity
 _atom_site_fract_x
 _atom_site_fract_y
 _atom_site_fract_z
 _atom_site_occupancy
  Tm  Tm0  1  0.709802  0.289860  0.289775  1
  Tm  Tm1  1  0.709801  0.289861  0.710563  1
  Tm  Tm2  1  0.708425  0.708427  0.291574  1
  Tm  Tm3  1  0.289860  0.709802  0.710564  1
  Tm  Tm4  1  0.289860  0.709802  0.289775  1
  Tm  Tm5  1  0.288434  0.288434  0.711566  1
  Zn  Zn6  1  0.125305  0.125306  0.622791  1
  Zn  Zn7  1  0.125307  0.125306  0.126595  1
  Zn  Zn8  1  0.375718  0.872131  0.876075  1
  Zn  Zn9  1  0.872130  0.375716  0.876077  1
  Zn  Zn10  1  0.875409  0.875409  0.370676  1
  Zn  Zn11  1  0.875409  0.875409  0.878506  1
  Zn  Zn12  1  0.497659  0.998713  0.999296  1
  Zn  Zn13  1  0.497661  0.998712  0.504330  1
  Zn  Zn14  1  0.500987  0.500988  0.999014  1
  Zn  Zn15  1  0.998712  0.497659  0.504331  1
  Zn  Zn16  1  0.998712  0.497658  0.999298  1
  Zn  Zn17  1  0.999140  0.999138  0.500860  1
  Zn  Zn18  1  0.005708  0.331008  0.331642  1
  Zn  Zn19  1  0.331010  0.005708  0.331641  1
  Zn  Zn20  1  0.331197  0.331199  0.004819  1
  Zn  Zn21  1  0.331198  0.331197  0.332785  1
  Zn  Zn22  1  0.992271  0.668723  0.669503  1
  Zn  Zn23  1  0.668725  0.992271  0.669501  1
  Zn  Zn24  1  0.668820  0.668819  0.994119  1
  Zn  Zn25  1  0.668819  0.668819  0.668242  1
  Ag  Ag26  1  0.632345  0.121513  0.123070  1
  Ag  Ag27  1  0.121509  0.632345  0.123075  1
  Ag  Ag28  1  0.010983  0.010981  0.989016  1
  S  S29  1  0.499082  0.499083  0.500918  1
