# generated using pymatgen
data_La3Ho2Hg3Cl
_symmetry_space_group_name_H-M   'P 1'
_cell_length_a   9.38142500
_cell_length_b   9.38142429
_cell_length_c   6.67731400
_cell_angle_alpha   90.00000000
_cell_angle_beta   90.00000000
_cell_angle_gamma   119.99998486
_symmetry_Int_Tables_number   1
_chemical_formula_structural   La3Ho2Hg3Cl
_chemical_formula_sum   'La6 Ho4 Hg6 Cl2'
_cell_volume   508.94410271
_cell_formula_units_Z   2
loop_
 _symmetry_equiv_pos_site_id
 _symmetry_equiv_pos_as_xyz
  1  'x, y, z'
loop_
 _atom_site_type_symbol
 _atom_site_label
 _atom_site_symmetry_multiplicity
 _atom_site_fract_x
 _atom_site_fract_y
 _atom_site_fract_z
 _atom_site_occupancy
  La  La0  1  0.732479  0.000000  0.750000  1
  La  La1  1  0.732479  0.732479  0.250000  1
  La  La2  1  0.000000  0.267521  0.250000  1
  La  La3  1  0.000000  0.732479  0.750000  1
  La  La4  1  0.267521  0.267521  0.750000  1
  La  La5  1  0.267521  0.000000  0.250000  1
  Ho  Ho6  1  0.666667  0.333333  0.000000  1
  Ho  Ho7  1  0.333333  0.666667  0.500000  1
  Ho  Ho8  1  0.666667  0.333333  0.500000  1
  Ho  Ho9  1  0.333333  0.666667  0.000000  1
  Hg  Hg10  1  0.605307  0.605307  0.750000  1
  Hg  Hg11  1  0.000000  0.605307  0.250000  1
  Hg  Hg12  1  0.605307  0.000000  0.250000  1
  Hg  Hg13  1  0.394693  0.000000  0.750000  1
  Hg  Hg14  1  0.000000  0.394693  0.750000  1
  Hg  Hg15  1  0.394693  0.394693  0.250000  1
  Cl  Cl16  1  0.000000  0.000000  0.500000  1
  Cl  Cl17  1  0.000000  0.000000  0.000000  1
