# generated using pymatgen
data_TbGaPRu2
_symmetry_space_group_name_H-M   'P 1'
_cell_length_a   5.68854316
_cell_length_b   5.68854240
_cell_length_c   5.68854302
_cell_angle_alpha   136.82880131
_cell_angle_beta   136.82878920
_cell_angle_gamma   62.70157958
_symmetry_Int_Tables_number   1
_chemical_formula_structural   TbGaPRu2
_chemical_formula_sum   'Tb1 Ga1 P1 Ru2'
_cell_volume   85.10557805
_cell_formula_units_Z   1
loop_
 _symmetry_equiv_pos_site_id
 _symmetry_equiv_pos_as_xyz
  1  'x, y, z'
loop_
 _atom_site_type_symbol
 _atom_site_label
 _atom_site_symmetry_multiplicity
 _atom_site_fract_x
 _atom_site_fract_y
 _atom_site_fract_z
 _atom_site_occupancy
  Tb  Tb0  1  0.000432  0.000432  0.000000  1
  Ga  Ga1  1  0.379943  0.379943  0.000000  1
  P  P2  1  0.638580  0.638580  0.000000  1
  Ru  Ru3  1  0.240522  0.740522  0.500000  1
  Ru  Ru4  1  0.740522  0.240522  0.500000  1
