# generated using pymatgen
data_Pr3Nd3Y4(In2Pd)4
_symmetry_space_group_name_H-M   'P 1'
_cell_length_a   3.73113600
_cell_length_b   8.32404167
_cell_length_c   18.53297650
_cell_angle_alpha   89.95385672
_cell_angle_beta   90.00000000
_cell_angle_gamma   90.00000000
_symmetry_Int_Tables_number   1
_chemical_formula_structural   Pr3Nd3Y4(In2Pd)4
_chemical_formula_sum   'Pr3 Nd3 Y4 In8 Pd4'
_cell_volume   575.59943572
_cell_formula_units_Z   1
loop_
 _symmetry_equiv_pos_site_id
 _symmetry_equiv_pos_as_xyz
  1  'x, y, z'
loop_
 _atom_site_type_symbol
 _atom_site_label
 _atom_site_symmetry_multiplicity
 _atom_site_fract_x
 _atom_site_fract_y
 _atom_site_fract_z
 _atom_site_occupancy
  Pr  Pr0  1  0.500000  0.237488  0.785490  1
  Pr  Pr1  1  0.500000  0.999989  0.000014  1
  Pr  Pr2  1  0.500000  0.499988  0.499966  1
  Nd  Nd3  1  0.500000  0.762330  0.214611  1
  Nd  Nd4  1  0.500000  0.262354  0.285388  1
  Nd  Nd5  1  0.500000  0.737616  0.714593  1
  Y  Y6  1  0.500000  0.121083  0.584908  1
  Y  Y7  1  0.500000  0.878919  0.414954  1
  Y  Y8  1  0.500000  0.378942  0.085057  1
  Y  Y9  1  0.500000  0.621208  0.915063  1
  In  In10  1  0.000000  0.087560  0.152930  1
  In  In11  1  0.000000  0.911949  0.847139  1
  In  In12  1  0.000000  0.412839  0.652715  1
  In  In13  1  0.000000  0.587496  0.347034  1
  In  In14  1  0.000000  0.193830  0.436922  1
  In  In15  1  0.000000  0.806090  0.563061  1
  In  In16  1  0.000000  0.306286  0.937233  1
  In  In17  1  0.000000  0.693777  0.063072  1
  Pd  Pd18  1  0.000000  0.023860  0.694173  1
  Pd  Pd19  1  0.000000  0.975421  0.305575  1
  Pd  Pd20  1  0.000000  0.475439  0.194447  1
  Pd  Pd21  1  0.000000  0.525535  0.805655  1
