# generated using pymatgen
data_U4Si2Ru5Pt
_symmetry_space_group_name_H-M   'P 1'
_cell_length_a   5.55208504
_cell_length_b   5.48512406
_cell_length_c   7.69131600
_cell_angle_alpha   90.00000000
_cell_angle_beta   90.00000000
_cell_angle_gamma   59.59592467
_symmetry_Int_Tables_number   1
_chemical_formula_structural   U4Si2Ru5Pt
_chemical_formula_sum   'U4 Si2 Ru5 Pt1'
_cell_volume   202.01847175
_cell_formula_units_Z   1
loop_
 _symmetry_equiv_pos_site_id
 _symmetry_equiv_pos_as_xyz
  1  'x, y, z'
loop_
 _atom_site_type_symbol
 _atom_site_label
 _atom_site_symmetry_multiplicity
 _atom_site_fract_x
 _atom_site_fract_y
 _atom_site_fract_z
 _atom_site_occupancy
  U  U0  1  0.333824  0.332614  0.570860  1
  U  U1  1  0.662774  0.674187  0.422530  1
  U  U2  1  0.662774  0.674187  0.077470  1
  U  U3  1  0.333824  0.332614  0.929140  1
  Si  Si4  1  0.002984  0.994049  0.497393  1
  Si  Si5  1  0.002984  0.994049  0.002607  1
  Ru  Ru6  1  0.337060  0.831905  0.750000  1
  Ru  Ru7  1  0.831366  0.831931  0.750000  1
  Ru  Ru8  1  0.169465  0.660624  0.250000  1
  Ru  Ru9  1  0.664588  0.168349  0.250000  1
  Ru  Ru10  1  0.166706  0.168388  0.250000  1
  Pt  Pt11  1  0.831651  0.337101  0.750000  1
