# generated using pymatgen
data_HoEr4Sc3(Co4P3)4
_symmetry_space_group_name_H-M   'P 1'
_cell_length_a   12.21907200
_cell_length_b   12.21907097
_cell_length_c   3.71171900
_cell_angle_alpha   90.00000000
_cell_angle_beta   90.00000000
_cell_angle_gamma   120.00000819
_symmetry_Int_Tables_number   1
_chemical_formula_structural   HoEr4Sc3(Co4P3)4
_chemical_formula_sum   'Ho1 Er4 Sc3 Co16 P12'
_cell_volume   479.93464020
_cell_formula_units_Z   1
loop_
 _symmetry_equiv_pos_site_id
 _symmetry_equiv_pos_as_xyz
  1  'x, y, z'
loop_
 _atom_site_type_symbol
 _atom_site_label
 _atom_site_symmetry_multiplicity
 _atom_site_fract_x
 _atom_site_fract_y
 _atom_site_fract_z
 _atom_site_occupancy
  Ho  Ho0  1  0.333333  0.666667  0.000000  1
  Er  Er1  1  0.666667  0.333333  0.000000  1
  Er  Er2  1  0.816197  0.816223  0.500000  1
  Er  Er3  1  0.183777  0.999974  0.500000  1
  Er  Er4  1  0.000026  0.183803  0.500000  1
  Sc  Sc5  1  0.440091  0.440032  0.000000  1
  Sc  Sc6  1  0.559968  0.000059  0.000000  1
  Sc  Sc7  1  0.999941  0.559909  0.000000  1
  Co  Co8  1  0.875314  0.355129  0.500000  1
  Co  Co9  1  0.644871  0.520185  0.500000  1
  Co  Co10  1  0.479815  0.124686  0.500000  1
  Co  Co11  1  0.355142  0.875542  0.500000  1
  Co  Co12  1  0.520400  0.644858  0.500000  1
  Co  Co13  1  0.124458  0.479600  0.500000  1
  Co  Co14  1  0.805169  0.179089  0.000000  1
  Co  Co15  1  0.820911  0.626080  0.000000  1
  Co  Co16  1  0.373920  0.194831  0.000000  1
  Co  Co17  1  0.178998  0.805210  0.000000  1
  Co  Co18  1  0.626212  0.821002  0.000000  1
  Co  Co19  1  0.194790  0.373788  0.000000  1
  Co  Co20  1  0.278031  0.277998  0.500000  1
  Co  Co21  1  0.722002  0.000033  0.500000  1
  Co  Co22  1  0.999967  0.721969  0.500000  1
  Co  Co23  1  0.000000  0.000000  0.000000  1
  P  P24  1  0.692276  0.171349  0.500000  1
  P  P25  1  0.828651  0.520928  0.500000  1
  P  P26  1  0.479072  0.307724  0.500000  1
  P  P27  1  0.171106  0.692351  0.500000  1
  P  P28  1  0.521245  0.828894  0.500000  1
  P  P29  1  0.307649  0.478755  0.500000  1
  P  P30  1  0.178672  0.178668  0.000000  1
  P  P31  1  0.821332  0.000004  0.000000  1
  P  P32  1  0.999996  0.821328  0.000000  1
  P  P33  1  0.645680  0.645695  0.000000  1
  P  P34  1  0.354305  0.999985  0.000000  1
  P  P35  1  0.000015  0.354320  0.000000  1
