# generated using pymatgen
data_AcErZn4Ru
_symmetry_space_group_name_H-M   'P 1'
_cell_length_a   7.15657800
_cell_length_b   7.15657800
_cell_length_c   5.44042600
_cell_angle_alpha   90.00000000
_cell_angle_beta   90.00000000
_cell_angle_gamma   90.00000000
_symmetry_Int_Tables_number   1
_chemical_formula_structural   AcErZn4Ru
_chemical_formula_sum   'Ac2 Er2 Zn8 Ru2'
_cell_volume   278.64016944
_cell_formula_units_Z   2
loop_
 _symmetry_equiv_pos_site_id
 _symmetry_equiv_pos_as_xyz
  1  'x, y, z'
loop_
 _atom_site_type_symbol
 _atom_site_label
 _atom_site_symmetry_multiplicity
 _atom_site_fract_x
 _atom_site_fract_y
 _atom_site_fract_z
 _atom_site_occupancy
  Ac  Ac0  1  0.000000  0.500000  0.779368  1
  Ac  Ac1  1  0.500000  0.000000  0.220632  1
  Er  Er2  1  0.000000  0.000000  0.000000  1
  Er  Er3  1  0.500000  0.500000  0.000000  1
  Zn  Zn4  1  0.186890  0.686890  0.294283  1
  Zn  Zn5  1  0.813110  0.686890  0.294283  1
  Zn  Zn6  1  0.813110  0.313110  0.294283  1
  Zn  Zn7  1  0.313110  0.186890  0.705717  1
  Zn  Zn8  1  0.186890  0.313110  0.294283  1
  Zn  Zn9  1  0.686890  0.186890  0.705717  1
  Zn  Zn10  1  0.686890  0.813110  0.705717  1
  Zn  Zn11  1  0.313110  0.813110  0.705717  1
  Ru  Ru12  1  0.500000  0.500000  0.500000  1
  Ru  Ru13  1  0.000000  0.000000  0.500000  1
