# generated using pymatgen
data_ReTc2Se4Br
_symmetry_space_group_name_H-M   'P 1'
_cell_length_a   11.96807700
_cell_length_b   6.68436872
_cell_length_c   11.38960841
_cell_angle_alpha   67.15558133
_cell_angle_beta   90.00000000
_cell_angle_gamma   90.00000000
_symmetry_Int_Tables_number   1
_chemical_formula_structural   ReTc2Se4Br
_chemical_formula_sum   'Re4 Tc8 Se16 Br4'
_cell_volume   839.68875527
_cell_formula_units_Z   4
loop_
 _symmetry_equiv_pos_site_id
 _symmetry_equiv_pos_as_xyz
  1  'x, y, z'
loop_
 _atom_site_type_symbol
 _atom_site_label
 _atom_site_symmetry_multiplicity
 _atom_site_fract_x
 _atom_site_fract_y
 _atom_site_fract_z
 _atom_site_occupancy
  Re  Re0  1  0.561720  0.032618  0.343024  1
  Re  Re1  1  0.938280  0.032618  0.843024  1
  Re  Re2  1  0.438280  0.967382  0.656976  1
  Re  Re3  1  0.061720  0.967382  0.156976  1
  Tc  Tc4  1  0.356210  0.964868  0.443013  1
  Tc  Tc5  1  0.143790  0.964868  0.943013  1
  Tc  Tc6  1  0.643790  0.035132  0.556987  1
  Tc  Tc7  1  0.856210  0.035132  0.056987  1
  Tc  Tc8  1  0.522142  0.700738  0.558323  1
  Tc  Tc9  1  0.977858  0.700738  0.058323  1
  Tc  Tc10  1  0.477858  0.299262  0.441677  1
  Tc  Tc11  1  0.022142  0.299262  0.941677  1
  Se  Se12  1  0.438376  0.724543  0.339242  1
  Se  Se13  1  0.061624  0.724543  0.839242  1
  Se  Se14  1  0.561624  0.275457  0.660758  1
  Se  Se15  1  0.938376  0.275457  0.160758  1
  Se  Se16  1  0.329102  0.649652  0.653949  1
  Se  Se17  1  0.170898  0.649652  0.153949  1
  Se  Se18  1  0.670898  0.350348  0.346051  1
  Se  Se19  1  0.829102  0.350348  0.846051  1
  Se  Se20  1  0.401124  0.284157  0.239524  1
  Se  Se21  1  0.098876  0.284157  0.739524  1
  Se  Se22  1  0.598876  0.715843  0.760476  1
  Se  Se23  1  0.901124  0.715843  0.260476  1
  Se  Se24  1  0.714885  0.777265  0.462396  1
  Se  Se25  1  0.785115  0.777265  0.962396  1
  Se  Se26  1  0.285115  0.222735  0.537604  1
  Se  Se27  1  0.214885  0.222735  0.037604  1
  Br  Br28  1  0.143555  0.906795  0.384361  1
  Br  Br29  1  0.356445  0.906795  0.884361  1
  Br  Br30  1  0.856445  0.093205  0.615639  1
  Br  Br31  1  0.643555  0.093205  0.115639  1
