# generated using pymatgen
data_LiTb2DyCd3Ga2
_symmetry_space_group_name_H-M   'P 1'
_cell_length_a   7.40161547
_cell_length_b   7.39820505
_cell_length_c   4.26350900
_cell_angle_alpha   90.00000000
_cell_angle_beta   90.00000000
_cell_angle_gamma   119.98476625
_symmetry_Int_Tables_number   1
_chemical_formula_structural   LiTb2DyCd3Ga2
_chemical_formula_sum   'Li1 Tb2 Dy1 Cd3 Ga2'
_cell_volume   202.21685170
_cell_formula_units_Z   1
loop_
 _symmetry_equiv_pos_site_id
 _symmetry_equiv_pos_as_xyz
  1  'x, y, z'
loop_
 _atom_site_type_symbol
 _atom_site_label
 _atom_site_symmetry_multiplicity
 _atom_site_fract_x
 _atom_site_fract_y
 _atom_site_fract_z
 _atom_site_occupancy
  Li  Li0  1  0.000000  0.000677  0.500000  1
  Tb  Tb1  1  0.423679  0.423530  0.500000  1
  Tb  Tb2  1  0.576321  0.999851  0.500000  1
  Dy  Dy3  1  0.000000  0.576340  0.500000  1
  Cd  Cd4  1  0.755645  0.755639  0.000000  1
  Cd  Cd5  1  0.244355  0.999994  0.000000  1
  Cd  Cd6  1  0.000000  0.244365  0.000000  1
  Ga  Ga7  1  0.666460  0.333031  0.000000  1
  Ga  Ga8  1  0.333540  0.666572  0.000000  1
