# generated using pymatgen
data_Tb2HoIn4Hg
_symmetry_space_group_name_H-M   'P 1'
_cell_length_a   6.38578441
_cell_length_b   6.38578492
_cell_length_c   10.48256500
_cell_angle_alpha   90.00000000
_cell_angle_beta   90.00000000
_cell_angle_gamma   103.55860620
_symmetry_Int_Tables_number   1
_chemical_formula_structural   Tb2HoIn4Hg
_chemical_formula_sum   'Tb4 Ho2 In8 Hg2'
_cell_volume   415.54755288
_cell_formula_units_Z   2
loop_
 _symmetry_equiv_pos_site_id
 _symmetry_equiv_pos_as_xyz
  1  'x, y, z'
loop_
 _atom_site_type_symbol
 _atom_site_label
 _atom_site_symmetry_multiplicity
 _atom_site_fract_x
 _atom_site_fract_y
 _atom_site_fract_z
 _atom_site_occupancy
  Tb  Tb0  1  0.203449  0.796551  0.500000  1
  Tb  Tb1  1  0.203449  0.796551  0.000000  1
  Tb  Tb2  1  0.796551  0.203449  0.500000  1
  Tb  Tb3  1  0.796551  0.203449  0.000000  1
  Ho  Ho4  1  0.623802  0.623802  0.250000  1
  Ho  Ho5  1  0.376198  0.376198  0.750000  1
  In  In6  1  0.311831  0.311831  0.044773  1
  In  In7  1  0.688169  0.688169  0.955227  1
  In  In8  1  0.311831  0.311831  0.455227  1
  In  In9  1  0.688169  0.688169  0.544773  1
  In  In10  1  0.507577  0.071970  0.250000  1
  In  In11  1  0.928030  0.492423  0.750000  1
  In  In12  1  0.492423  0.928030  0.750000  1
  In  In13  1  0.071970  0.507577  0.250000  1
  Hg  Hg14  1  0.004368  0.004368  0.250000  1
  Hg  Hg15  1  0.995632  0.995632  0.750000  1
