# generated using pymatgen
data_Tb4Th2Fe3(Co5P4)3
_symmetry_space_group_name_H-M   'P 1'
_cell_length_a   3.74339400
_cell_length_b   10.60882300
_cell_length_c   12.24621800
_cell_angle_alpha   90.00000000
_cell_angle_beta   90.00000000
_cell_angle_gamma   90.00000000
_symmetry_Int_Tables_number   1
_chemical_formula_structural   Tb4Th2Fe3(Co5P4)3
_chemical_formula_sum   'Tb4 Th2 Fe3 Co15 P12'
_cell_volume   486.33410889
_cell_formula_units_Z   1
loop_
 _symmetry_equiv_pos_site_id
 _symmetry_equiv_pos_as_xyz
  1  'x, y, z'
loop_
 _atom_site_type_symbol
 _atom_site_label
 _atom_site_symmetry_multiplicity
 _atom_site_fract_x
 _atom_site_fract_y
 _atom_site_fract_z
 _atom_site_occupancy
  Tb  Tb0  1  0.500000  0.816122  0.203669  1
  Tb  Tb1  1  0.500000  0.183878  0.203669  1
  Tb  Tb2  1  0.000000  0.682789  0.797124  1
  Tb  Tb3  1  0.000000  0.317211  0.797124  1
  Th  Th4  1  0.000000  0.500000  0.523566  1
  Th  Th5  1  0.500000  0.000000  0.475587  1
  Fe  Fe6  1  0.500000  0.500000  0.152194  1
  Fe  Fe7  1  0.000000  0.000000  0.845821  1
  Fe  Fe8  1  0.000000  0.500000  0.988255  1
  Co  Co9  1  0.500000  0.500000  0.701859  1
  Co  Co10  1  0.000000  0.000000  0.298237  1
  Co  Co11  1  0.500000  0.000000  0.014778  1
  Co  Co12  1  0.500000  0.331460  0.994629  1
  Co  Co13  1  0.500000  0.668540  0.994629  1
  Co  Co14  1  0.000000  0.165835  0.004880  1
  Co  Co15  1  0.000000  0.834165  0.004880  1
  Co  Co16  1  0.500000  0.298706  0.429980  1
  Co  Co17  1  0.500000  0.701294  0.429980  1
  Co  Co18  1  0.000000  0.201831  0.570159  1
  Co  Co19  1  0.000000  0.798169  0.570159  1
  Co  Co20  1  0.500000  0.880162  0.712354  1
  Co  Co21  1  0.500000  0.119838  0.712354  1
  Co  Co22  1  0.000000  0.619936  0.287204  1
  Co  Co23  1  0.000000  0.380064  0.287204  1
  P  P24  1  0.500000  0.500000  0.885011  1
  P  P25  1  0.000000  0.000000  0.117532  1
  P  P26  1  0.500000  0.500000  0.335672  1
  P  P27  1  0.000000  0.000000  0.662950  1
  P  P28  1  0.500000  0.305032  0.618180  1
  P  P29  1  0.500000  0.694968  0.618180  1
  P  P30  1  0.000000  0.195010  0.382043  1
  P  P31  1  0.000000  0.804990  0.382043  1
  P  P32  1  0.500000  0.847817  0.894799  1
  P  P33  1  0.500000  0.152183  0.894799  1
  P  P34  1  0.000000  0.653335  0.104249  1
  P  P35  1  0.000000  0.346665  0.104249  1
