# generated using pymatgen
data_TbPr2Nd(Sn5Rh3)2
_symmetry_space_group_name_H-M   'P 1'
_cell_length_a   13.59360813
_cell_length_b   13.59360883
_cell_length_c   7.26104513
_cell_angle_alpha   89.91394253
_cell_angle_beta   90.08605631
_cell_angle_gamma   160.77433877
_symmetry_Int_Tables_number   1
_chemical_formula_structural   TbPr2Nd(Sn5Rh3)2
_chemical_formula_sum   'Tb1 Pr2 Nd1 Sn10 Rh6'
_cell_volume   441.82076893
_cell_formula_units_Z   1
loop_
 _symmetry_equiv_pos_site_id
 _symmetry_equiv_pos_as_xyz
  1  'x, y, z'
loop_
 _atom_site_type_symbol
 _atom_site_label
 _atom_site_symmetry_multiplicity
 _atom_site_fract_x
 _atom_site_fract_y
 _atom_site_fract_z
 _atom_site_occupancy
  Tb  Tb0  1  0.524107  0.475893  0.238906  1
  Pr  Pr1  1  0.171902  0.828098  0.752500  1
  Pr  Pr2  1  0.828012  0.171988  0.252606  1
  Nd  Nd3  1  0.476474  0.523526  0.738625  1
  Sn  Sn4  1  0.879586  0.120414  0.732722  1
  Sn  Sn5  1  0.119878  0.880122  0.233003  1
  Sn  Sn6  1  0.703869  0.296131  0.049189  1
  Sn  Sn7  1  0.295850  0.704150  0.549233  1
  Sn  Sn8  1  0.595680  0.404320  0.611343  1
  Sn  Sn9  1  0.404755  0.595245  0.112864  1
  Sn  Sn10  1  0.952911  0.047089  0.399661  1
  Sn  Sn11  1  0.047861  0.952139  0.903324  1
  Sn  Sn12  1  0.289742  0.710258  0.973932  1
  Sn  Sn13  1  0.710199  0.289801  0.473794  1
  Rh  Rh14  1  0.050676  0.949324  0.516788  1
  Rh  Rh15  1  0.949487  0.050513  0.021022  1
  Rh  Rh16  1  0.777490  0.222510  0.762975  1
  Rh  Rh17  1  0.222285  0.777715  0.262995  1
  Rh  Rh18  1  0.395191  0.604809  0.483859  1
  Rh  Rh19  1  0.604044  0.395956  0.986654  1
