# generated using pymatgen
data_ErB4Ir3
_symmetry_space_group_name_H-M   'P 1'
_cell_length_a   7.71333500
_cell_length_b   7.71333433
_cell_length_c   3.53425600
_cell_angle_alpha   90.00000000
_cell_angle_beta   90.00000000
_cell_angle_gamma   120.00000715
_symmetry_Int_Tables_number   1
_chemical_formula_structural   ErB4Ir3
_chemical_formula_sum   'Er2 B8 Ir6'
_cell_volume   182.10126149
_cell_formula_units_Z   2
loop_
 _symmetry_equiv_pos_site_id
 _symmetry_equiv_pos_as_xyz
  1  'x, y, z'
loop_
 _atom_site_type_symbol
 _atom_site_label
 _atom_site_symmetry_multiplicity
 _atom_site_fract_x
 _atom_site_fract_y
 _atom_site_fract_z
 _atom_site_occupancy
  Er  Er0  1  0.333333  0.666667  0.250000  1
  Er  Er1  1  0.666667  0.333333  0.750000  1
  B  B2  1  0.396435  0.948821  0.750000  1
  B  B3  1  0.051179  0.447614  0.750000  1
  B  B4  1  0.552386  0.603565  0.750000  1
  B  B5  1  0.603565  0.051179  0.250000  1
  B  B6  1  0.948821  0.552386  0.250000  1
  B  B7  1  0.447614  0.396435  0.250000  1
  B  B8  1  0.000000  0.000000  0.500000  1
  B  B9  1  0.000000  0.000000  0.000000  1
  Ir  Ir10  1  0.071471  0.744998  0.750000  1
  Ir  Ir11  1  0.255002  0.326472  0.750000  1
  Ir  Ir12  1  0.673528  0.928529  0.750000  1
  Ir  Ir13  1  0.928529  0.255002  0.250000  1
  Ir  Ir14  1  0.744998  0.673528  0.250000  1
  Ir  Ir15  1  0.326472  0.071471  0.250000  1
