# generated using pymatgen
data_Y4Tm4Sc12Si15Hg
_symmetry_space_group_name_H-M   'P 1'
_cell_length_a   7.11012540
_cell_length_b   7.37791965
_cell_length_c   14.04882340
_cell_angle_alpha   89.94119437
_cell_angle_beta   89.58288176
_cell_angle_gamma   90.21525359
_symmetry_Int_Tables_number   1
_chemical_formula_structural   Y4Tm4Sc12Si15Hg
_chemical_formula_sum   'Y4 Tm4 Sc12 Si15 Hg1'
_cell_volume   736.94710920
_cell_formula_units_Z   1
loop_
 _symmetry_equiv_pos_site_id
 _symmetry_equiv_pos_as_xyz
  1  'x, y, z'
loop_
 _atom_site_type_symbol
 _atom_site_label
 _atom_site_symmetry_multiplicity
 _atom_site_fract_x
 _atom_site_fract_y
 _atom_site_fract_z
 _atom_site_occupancy
  Y  Y0  1  0.011836  0.175941  0.097070  1
  Y  Y1  1  0.987785  0.824993  0.904683  1
  Y  Y2  1  0.487901  0.676467  0.904681  1
  Y  Y3  1  0.988744  0.831024  0.597438  1
  Tm  Tm4  1  0.511922  0.322967  0.097025  1
  Tm  Tm5  1  0.007859  0.172327  0.397906  1
  Tm  Tm6  1  0.511292  0.321721  0.399170  1
  Tm  Tm7  1  0.496369  0.681961  0.599844  1
  Sc  Sc8  1  0.162426  0.501233  0.754008  1
  Sc  Sc9  1  0.836850  0.497944  0.250338  1
  Sc  Sc10  1  0.337876  0.001897  0.249059  1
  Sc  Sc11  1  0.664164  0.996471  0.751325  1
  Sc  Sc12  1  0.341986  0.168417  0.628770  1
  Sc  Sc13  1  0.664559  0.824546  0.372714  1
  Sc  Sc14  1  0.167182  0.677675  0.370436  1
  Sc  Sc15  1  0.669541  0.823589  0.124998  1
  Sc  Sc16  1  0.825522  0.324888  0.625993  1
  Sc  Sc17  1  0.329401  0.175499  0.876001  1
  Sc  Sc18  1  0.829790  0.322917  0.876085  1
  Sc  Sc19  1  0.169394  0.676370  0.125441  1
  Si  Si20  1  0.035089  0.120079  0.751414  1
  Si  Si21  1  0.965136  0.885117  0.248425  1
  Si  Si22  1  0.466840  0.613306  0.248078  1
  Si  Si23  1  0.533405  0.386908  0.751579  1
  Si  Si24  1  0.285246  0.871385  0.751005  1
  Si  Si25  1  0.712200  0.129714  0.248523  1
  Si  Si26  1  0.214342  0.370064  0.248667  1
  Si  Si27  1  0.787497  0.628076  0.752000  1
  Si  Si28  1  0.831148  0.536685  0.458627  1
  Si  Si29  1  0.338564  0.963598  0.459475  1
  Si  Si30  1  0.841951  0.534832  0.039302  1
  Si  Si31  1  0.659135  0.037375  0.537158  1
  Si  Si32  1  0.156659  0.463607  0.962503  1
  Si  Si33  1  0.655870  0.036263  0.961311  1
  Si  Si34  1  0.343778  0.965949  0.040278  1
  Hg  Hg35  1  0.170743  0.458193  0.538672  1
