# generated using pymatgen
data_LaEr3(MoO4)6
_symmetry_space_group_name_H-M   'P 1'
_cell_length_a   7.49352193
_cell_length_b   7.49352114
_cell_length_c   10.75292658
_cell_angle_alpha   90.24671162
_cell_angle_beta   89.75328750
_cell_angle_gamma   90.32479271
_symmetry_Int_Tables_number   1
_chemical_formula_structural   LaEr3(MoO4)6
_chemical_formula_sum   'La1 Er3 Mo6 O24'
_cell_volume   603.78680089
_cell_formula_units_Z   1
loop_
 _symmetry_equiv_pos_site_id
 _symmetry_equiv_pos_as_xyz
  1  'x, y, z'
loop_
 _atom_site_type_symbol
 _atom_site_label
 _atom_site_symmetry_multiplicity
 _atom_site_fract_x
 _atom_site_fract_y
 _atom_site_fract_z
 _atom_site_occupancy
  La  La0  1  0.316028  0.183972  0.257450  1
  Er  Er1  1  0.186563  0.687259  0.737469  1
  Er  Er2  1  0.812741  0.313437  0.737469  1
  Er  Er3  1  0.692385  0.807615  0.264589  1
  Mo  Mo4  1  0.205612  0.709629  0.359838  1
  Mo  Mo5  1  0.790371  0.294388  0.359838  1
  Mo  Mo6  1  0.707740  0.792260  0.643025  1
  Mo  Mo7  1  0.293067  0.206933  0.652721  1
  Mo  Mo8  1  0.991300  0.993559  0.993809  1
  Mo  Mo9  1  0.506441  0.508700  0.993809  1
  O  O10  1  0.000619  0.234037  0.297231  1
  O  O11  1  0.995850  0.783139  0.300262  1
  O  O12  1  0.226046  0.993151  0.709405  1
  O  O13  1  0.493251  0.726490  0.700379  1
  O  O14  1  0.773510  0.006749  0.700379  1
  O  O15  1  0.506849  0.273954  0.709405  1
  O  O16  1  0.265963  0.499381  0.297231  1
  O  O17  1  0.716861  0.504150  0.300262  1
  O  O18  1  0.186670  0.037030  0.084338  1
  O  O19  1  0.810882  0.946967  0.098916  1
  O  O20  1  0.034001  0.804628  0.895847  1
  O  O21  1  0.315273  0.557861  0.900275  1
  O  O22  1  0.942139  0.184727  0.900275  1
  O  O23  1  0.695372  0.465999  0.895847  1
  O  O24  1  0.462970  0.313330  0.084338  1
  O  O25  1  0.553033  0.689118  0.098916  1
  O  O26  1  0.636364  0.117108  0.311577  1
  O  O27  1  0.382892  0.863636  0.311577  1
  O  O28  1  0.125581  0.374419  0.698633  1
  O  O29  1  0.873765  0.626235  0.689456  1
  O  O30  1  0.193487  0.695910  0.525336  1
  O  O31  1  0.804090  0.306513  0.525336  1
  O  O32  1  0.698216  0.801784  0.477217  1
  O  O33  1  0.304066  0.195934  0.487553  1
