# generated using pymatgen
data_CaLa4YSi4
_symmetry_space_group_name_H-M   'P 1'
_cell_length_a   7.75999500
_cell_length_b   7.75999500
_cell_length_c   4.52264900
_cell_angle_alpha   90.00000000
_cell_angle_beta   90.00000000
_cell_angle_gamma   90.00000000
_symmetry_Int_Tables_number   1
_chemical_formula_structural   CaLa4YSi4
_chemical_formula_sum   'Ca1 La4 Y1 Si4'
_cell_volume   272.34271746
_cell_formula_units_Z   1
loop_
 _symmetry_equiv_pos_site_id
 _symmetry_equiv_pos_as_xyz
  1  'x, y, z'
loop_
 _atom_site_type_symbol
 _atom_site_label
 _atom_site_symmetry_multiplicity
 _atom_site_fract_x
 _atom_site_fract_y
 _atom_site_fract_z
 _atom_site_occupancy
  Ca  Ca0  1  0.500000  0.500000  0.000000  1
  La  La1  1  0.675984  0.178764  0.500000  1
  La  La2  1  0.821236  0.675984  0.500000  1
  La  La3  1  0.178764  0.324016  0.500000  1
  La  La4  1  0.324016  0.821236  0.500000  1
  Y  Y5  1  0.000000  0.000000  0.000000  1
  Si  Si6  1  0.617598  0.894935  0.000000  1
  Si  Si7  1  0.894935  0.382402  0.000000  1
  Si  Si8  1  0.105065  0.617598  0.000000  1
  Si  Si9  1  0.382402  0.105065  0.000000  1
