# generated using pymatgen
data_Tb2Y2Hf5ZrSi8
_symmetry_space_group_name_H-M   'P 1'
_cell_length_a   7.30006801
_cell_length_b   7.29984364
_cell_length_c   13.41795100
_cell_angle_alpha   89.99789709
_cell_angle_beta   89.99786512
_cell_angle_gamma   89.96460917
_symmetry_Int_Tables_number   1
_chemical_formula_structural   Tb2Y2Hf5ZrSi8
_chemical_formula_sum   'Tb4 Y4 Hf10 Zr2 Si16'
_cell_volume   715.03381799
_cell_formula_units_Z   2
loop_
 _symmetry_equiv_pos_site_id
 _symmetry_equiv_pos_as_xyz
  1  'x, y, z'
loop_
 _atom_site_type_symbol
 _atom_site_label
 _atom_site_symmetry_multiplicity
 _atom_site_fract_x
 _atom_site_fract_y
 _atom_site_fract_z
 _atom_site_occupancy
  Tb  Tb0  1  0.843766  0.503523  0.965040  1
  Tb  Tb1  1  0.496463  0.156259  0.534948  1
  Tb  Tb2  1  0.343726  0.996410  0.784904  1
  Tb  Tb3  1  0.656270  0.003568  0.284888  1
  Y  Y4  1  0.996458  0.343752  0.215123  1
  Y  Y5  1  0.003565  0.656254  0.715110  1
  Y  Y6  1  0.156229  0.496503  0.465047  1
  Y  Y7  1  0.503513  0.843743  0.034943  1
  Hf  Hf8  1  0.325445  0.674547  0.250007  1
  Hf  Hf9  1  0.674550  0.325459  0.750010  1
  Hf  Hf10  1  0.149475  0.995248  0.374419  1
  Hf  Hf11  1  0.850568  0.004714  0.874417  1
  Hf  Hf12  1  0.504413  0.649781  0.624353  1
  Hf  Hf13  1  0.350200  0.495601  0.875679  1
  Hf  Hf14  1  0.495576  0.350264  0.124349  1
  Hf  Hf15  1  0.649757  0.504406  0.375680  1
  Hf  Hf16  1  0.995321  0.149408  0.625589  1
  Hf  Hf17  1  0.004716  0.850542  0.125587  1
  Zr  Zr18  1  0.174280  0.174302  0.999965  1
  Zr  Zr19  1  0.825713  0.825710  0.499990  1
  Si  Si20  1  0.363535  0.295104  0.317003  1
  Si  Si21  1  0.636478  0.704935  0.816983  1
  Si  Si22  1  0.205950  0.863526  0.567111  1
  Si  Si23  1  0.136470  0.794006  0.932900  1
  Si  Si24  1  0.794028  0.136458  0.067121  1
  Si  Si25  1  0.863546  0.206009  0.432891  1
  Si  Si26  1  0.295063  0.363554  0.683006  1
  Si  Si27  1  0.704894  0.636436  0.182984  1
  Si  Si28  1  0.295490  0.048116  0.186281  1
  Si  Si29  1  0.704512  0.951870  0.686291  1
  Si  Si30  1  0.450450  0.794847  0.435466  1
  Si  Si31  1  0.205142  0.549529  0.064525  1
  Si  Si32  1  0.549527  0.205122  0.935491  1
  Si  Si33  1  0.794896  0.450494  0.564501  1
  Si  Si34  1  0.048111  0.295525  0.813694  1
  Si  Si35  1  0.951905  0.704476  0.313706  1
