# generated using pymatgen
data_Zr6GaSnBi
_symmetry_space_group_name_H-M   'P 1'
_cell_length_a   7.78597800
_cell_length_b   7.78597772
_cell_length_c   3.90454900
_cell_angle_alpha   90.00000000
_cell_angle_beta   90.00000000
_cell_angle_gamma   119.99999268
_symmetry_Int_Tables_number   1
_chemical_formula_structural   Zr6GaSnBi
_chemical_formula_sum   'Zr6 Ga1 Sn1 Bi1'
_cell_volume   204.98773191
_cell_formula_units_Z   1
loop_
 _symmetry_equiv_pos_site_id
 _symmetry_equiv_pos_as_xyz
  1  'x, y, z'
loop_
 _atom_site_type_symbol
 _atom_site_label
 _atom_site_symmetry_multiplicity
 _atom_site_fract_x
 _atom_site_fract_y
 _atom_site_fract_z
 _atom_site_occupancy
  Zr  Zr0  1  0.397349  0.004564  0.000000  1
  Zr  Zr1  1  0.995436  0.392784  0.000000  1
  Zr  Zr2  1  0.607216  0.602651  0.000000  1
  Zr  Zr3  1  0.758028  0.003703  0.499999  1
  Zr  Zr4  1  0.245675  0.241972  0.499999  1
  Zr  Zr5  1  0.996297  0.754325  0.499999  1
  Ga  Ga6  1  0.000000  0.000000  0.000000  1
  Sn  Sn7  1  0.666666  0.333333  0.499999  1
  Bi  Bi8  1  0.333334  0.666667  0.499999  1
