# generated using pymatgen
data_Dy4Si4TcOs
_symmetry_space_group_name_H-M   'P 1'
_cell_length_a   5.77544193
_cell_length_b   5.77544174
_cell_length_c   10.05319329
_cell_angle_alpha   116.67146707
_cell_angle_beta   116.67146721
_cell_angle_gamma   42.82460933
_symmetry_Int_Tables_number   1
_chemical_formula_structural   Dy4Si4TcOs
_chemical_formula_sum   'Dy4 Si4 Tc1 Os1'
_cell_volume   199.69852996
_cell_formula_units_Z   1
loop_
 _symmetry_equiv_pos_site_id
 _symmetry_equiv_pos_as_xyz
  1  'x, y, z'
loop_
 _atom_site_type_symbol
 _atom_site_label
 _atom_site_symmetry_multiplicity
 _atom_site_fract_x
 _atom_site_fract_y
 _atom_site_fract_z
 _atom_site_occupancy
  Dy  Dy0  1  0.184740  0.184740  0.109140  1
  Dy  Dy1  1  0.993986  0.993986  0.321664  1
  Dy  Dy2  1  0.008413  0.008413  0.679222  1
  Dy  Dy3  1  0.813472  0.813472  0.887851  1
  Si  Si4  1  0.497820  0.497820  0.122092  1
  Si  Si5  1  0.356826  0.356826  0.441723  1
  Si  Si6  1  0.645451  0.645451  0.562409  1
  Si  Si7  1  0.500288  0.500288  0.874727  1
  Tc  Tc8  1  0.728046  0.728046  0.372732  1
  Os  Os9  1  0.270958  0.270958  0.628440  1
