# generated using pymatgen
data_TbNp3F15
_symmetry_space_group_name_H-M   'P 1'
_cell_length_a   8.60523719
_cell_length_b   8.60523595
_cell_length_c   8.62042796
_cell_angle_alpha   79.48218533
_cell_angle_beta   79.48217919
_cell_angle_gamma   100.22476538
_symmetry_Int_Tables_number   1
_chemical_formula_structural   TbNp3F15
_chemical_formula_sum   'Tb2 Np6 F30'
_cell_volume   602.21808445
_cell_formula_units_Z   2
loop_
 _symmetry_equiv_pos_site_id
 _symmetry_equiv_pos_as_xyz
  1  'x, y, z'
loop_
 _atom_site_type_symbol
 _atom_site_label
 _atom_site_symmetry_multiplicity
 _atom_site_fract_x
 _atom_site_fract_y
 _atom_site_fract_z
 _atom_site_occupancy
  Tb  Tb0  1  0.177388  0.822612  0.250000  1
  Tb  Tb1  1  0.822612  0.177388  0.750000  1
  Np  Np2  1  0.748774  0.251226  0.250000  1
  Np  Np3  1  0.251226  0.748774  0.750000  1
  Np  Np4  1  0.756147  0.677387  0.675666  1
  Np  Np5  1  0.322613  0.243853  0.824334  1
  Np  Np6  1  0.243853  0.322613  0.324334  1
  Np  Np7  1  0.677387  0.756147  0.175666  1
  F  F8  1  0.323440  0.346293  0.050569  1
  F  F9  1  0.943132  0.814049  0.158372  1
  F  F10  1  0.843269  0.449817  0.680652  1
  F  F11  1  0.449817  0.843269  0.180652  1
  F  F12  1  0.814049  0.943132  0.658372  1
  F  F13  1  0.346293  0.323440  0.550568  1
  F  F14  1  0.676560  0.653707  0.949431  1
  F  F15  1  0.056868  0.185951  0.841628  1
  F  F16  1  0.156731  0.550183  0.319348  1
  F  F17  1  0.550183  0.156731  0.819348  1
  F  F18  1  0.185951  0.056868  0.341628  1
  F  F19  1  0.653707  0.676560  0.449431  1
  F  F20  1  0.777860  0.278351  0.990842  1
  F  F21  1  0.012399  0.279576  0.214505  1
  F  F22  1  0.780837  0.510929  0.221161  1
  F  F23  1  0.510929  0.780837  0.721161  1
  F  F24  1  0.279576  0.012399  0.714505  1
  F  F25  1  0.278351  0.777860  0.490842  1
  F  F26  1  0.222140  0.721649  0.009158  1
  F  F27  1  0.987601  0.720424  0.785495  1
  F  F28  1  0.219163  0.489071  0.778839  1
  F  F29  1  0.489071  0.219163  0.278839  1
  F  F30  1  0.720424  0.987601  0.285495  1
  F  F31  1  0.721649  0.222140  0.509158  1
  F  F32  1  0.467146  0.532854  0.250000  1
  F  F33  1  0.751751  0.965090  0.967401  1
  F  F34  1  0.034910  0.248249  0.532599  1
  F  F35  1  0.248249  0.034910  0.032599  1
  F  F36  1  0.965090  0.751751  0.467401  1
  F  F37  1  0.532854  0.467146  0.750000  1
