# generated using pymatgen
data_GaBF4
_symmetry_space_group_name_H-M   'P 1'
_cell_length_a   5.68097400
_cell_length_b   7.18152200
_cell_length_c   8.60513600
_cell_angle_alpha   90.00000000
_cell_angle_beta   90.00000000
_cell_angle_gamma   90.00000000
_symmetry_Int_Tables_number   1
_chemical_formula_structural   GaBF4
_chemical_formula_sum   'Ga4 B4 F16'
_cell_volume   351.07268069
_cell_formula_units_Z   4
loop_
 _symmetry_equiv_pos_site_id
 _symmetry_equiv_pos_as_xyz
  1  'x, y, z'
loop_
 _atom_site_type_symbol
 _atom_site_label
 _atom_site_symmetry_multiplicity
 _atom_site_fract_x
 _atom_site_fract_y
 _atom_site_fract_z
 _atom_site_occupancy
  Ga  Ga0  1  0.250000  0.169957  0.181886  1
  Ga  Ga1  1  0.750000  0.830043  0.818114  1
  Ga  Ga2  1  0.750000  0.669957  0.318114  1
  Ga  Ga3  1  0.250000  0.330043  0.681886  1
  B  B4  1  0.750000  0.182934  0.437958  1
  B  B5  1  0.250000  0.817066  0.562042  1
  B  B6  1  0.250000  0.682934  0.062042  1
  B  B7  1  0.750000  0.317066  0.937958  1
  F  F8  1  0.750000  0.408702  0.082421  1
  F  F9  1  0.250000  0.591298  0.917579  1
  F  F10  1  0.250000  0.908702  0.417579  1
  F  F11  1  0.750000  0.091298  0.582421  1
  F  F12  1  0.750000  0.446315  0.813671  1
  F  F13  1  0.250000  0.553685  0.186329  1
  F  F14  1  0.250000  0.946315  0.686329  1
  F  F15  1  0.750000  0.053685  0.313671  1
  F  F16  1  0.545701  0.201295  0.925967  1
  F  F17  1  0.045701  0.798705  0.074033  1
  F  F18  1  0.454299  0.701295  0.574033  1
  F  F19  1  0.954299  0.298705  0.425967  1
  F  F20  1  0.454299  0.798705  0.074033  1
  F  F21  1  0.954299  0.201295  0.925967  1
  F  F22  1  0.545701  0.298705  0.425967  1
  F  F23  1  0.045701  0.701295  0.574033  1
