# generated using pymatgen
data_Ti2Mn(TcSn4)3
_symmetry_space_group_name_H-M   'P 1'
_cell_length_a   5.51087019
_cell_length_b   5.56354895
_cell_length_c   14.21350400
_cell_angle_alpha   90.00000000
_cell_angle_beta   90.00000000
_cell_angle_gamma   120.31670530
_symmetry_Int_Tables_number   1
_chemical_formula_structural   Ti2Mn(TcSn4)3
_chemical_formula_sum   'Ti2 Mn1 Tc3 Sn12'
_cell_volume   376.19155266
_cell_formula_units_Z   1
loop_
 _symmetry_equiv_pos_site_id
 _symmetry_equiv_pos_as_xyz
  1  'x, y, z'
loop_
 _atom_site_type_symbol
 _atom_site_label
 _atom_site_symmetry_multiplicity
 _atom_site_fract_x
 _atom_site_fract_y
 _atom_site_fract_z
 _atom_site_occupancy
  Ti  Ti0  1  0.500000  0.000000  0.497999  1
  Ti  Ti1  1  0.500000  0.500000  0.835334  1
  Mn  Mn2  1  0.000000  0.500000  0.166667  1
  Tc  Tc3  1  0.000000  0.000000  0.498985  1
  Tc  Tc4  1  0.000000  0.000000  0.166667  1
  Tc  Tc5  1  0.000000  0.000000  0.834348  1
  Sn  Sn6  1  0.167159  0.331982  0.004321  1
  Sn  Sn7  1  0.664799  0.832399  0.666667  1
  Sn  Sn8  1  0.832841  0.668018  0.004321  1
  Sn  Sn9  1  0.335201  0.167601  0.666667  1
  Sn  Sn10  1  0.167159  0.835177  0.329012  1
  Sn  Sn11  1  0.832841  0.164823  0.329012  1
  Sn  Sn12  1  0.500000  0.000000  0.894209  1
  Sn  Sn13  1  0.000000  0.500000  0.558904  1
  Sn  Sn14  1  0.000000  0.500000  0.774429  1
  Sn  Sn15  1  0.500000  0.500000  0.225435  1
  Sn  Sn16  1  0.500000  0.000000  0.107899  1
  Sn  Sn17  1  0.500000  0.500000  0.439124  1
