# generated using pymatgen
data_Pr3DyGa18(RuPt2)2
_symmetry_space_group_name_H-M   'P 1'
_cell_length_a   7.70021859
_cell_length_b   7.69823734
_cell_length_c   9.64363707
_cell_angle_alpha   90.01381896
_cell_angle_beta   90.03858642
_cell_angle_gamma   119.78887727
_symmetry_Int_Tables_number   1
_chemical_formula_structural   Pr3DyGa18(RuPt2)2
_chemical_formula_sum   'Pr3 Dy1 Ga18 Ru2 Pt4'
_cell_volume   496.11875309
_cell_formula_units_Z   1
loop_
 _symmetry_equiv_pos_site_id
 _symmetry_equiv_pos_as_xyz
  1  'x, y, z'
loop_
 _atom_site_type_symbol
 _atom_site_label
 _atom_site_symmetry_multiplicity
 _atom_site_fract_x
 _atom_site_fract_y
 _atom_site_fract_z
 _atom_site_occupancy
  Pr  Pr0  1  0.328286  0.003778  0.750218  1
  Pr  Pr1  1  0.672036  0.996522  0.250299  1
  Pr  Pr2  1  0.003851  0.328398  0.749676  1
  Dy  Dy3  1  0.996123  0.672570  0.249609  1
  Ga  Ga4  1  0.863060  0.862085  0.749997  1
  Ga  Ga5  1  0.136984  0.135661  0.250139  1
  Ga  Ga6  1  0.661902  0.664713  0.433780  1
  Ga  Ga7  1  0.340741  0.335276  0.938176  1
  Ga  Ga8  1  0.667582  0.660004  0.066508  1
  Ga  Ga9  1  0.335071  0.340534  0.561702  1
  Ga  Ga10  1  0.454379  0.660926  0.745886  1
  Ga  Ga11  1  0.548906  0.341288  0.246403  1
  Ga  Ga12  1  0.661794  0.454937  0.754122  1
  Ga  Ga13  1  0.337325  0.546120  0.253633  1
  Ga  Ga14  1  0.995841  0.338150  0.081104  1
  Ga  Ga15  1  0.004277  0.665171  0.574846  1
  Ga  Ga16  1  0.331523  0.992285  0.418854  1
  Ga  Ga17  1  0.665252  0.004047  0.922499  1
  Ga  Ga18  1  0.992917  0.659206  0.925225  1
  Ga  Ga19  1  0.006587  0.343881  0.419192  1
  Ga  Ga20  1  0.658892  0.992092  0.577289  1
  Ga  Ga21  1  0.338231  0.004402  0.080658  1
  Ru  Ru22  1  0.329120  0.670461  0.498578  1
  Ru  Ru23  1  0.670722  0.329365  0.001387  1
  Pt  Pt24  1  0.999912  0.999103  0.498686  1
  Pt  Pt25  1  0.999213  0.999839  0.001380  1
  Pt  Pt26  1  0.670280  0.328523  0.499176  1
  Pt  Pt27  1  0.329194  0.670663  0.000978  1
