# generated using pymatgen
data_Ce2Er4FeI10
_symmetry_space_group_name_H-M   'P 1'
_cell_length_a   7.79205718
_cell_length_b   9.83387082
_cell_length_c   9.73563300
_cell_angle_alpha   106.41496311
_cell_angle_beta   95.53602371
_cell_angle_gamma   105.28590369
_symmetry_Int_Tables_number   1
_chemical_formula_structural   Ce2Er4FeI10
_chemical_formula_sum   'Ce2 Er4 Fe1 I10'
_cell_volume   678.39432360
_cell_formula_units_Z   1
loop_
 _symmetry_equiv_pos_site_id
 _symmetry_equiv_pos_as_xyz
  1  'x, y, z'
loop_
 _atom_site_type_symbol
 _atom_site_label
 _atom_site_symmetry_multiplicity
 _atom_site_fract_x
 _atom_site_fract_y
 _atom_site_fract_z
 _atom_site_occupancy
  Ce  Ce0  1  0.893434  0.959373  0.212678  1
  Ce  Ce1  1  0.106566  0.040627  0.787322  1
  Er  Er2  1  0.030422  0.716180  0.914606  1
  Er  Er3  1  0.969578  0.283820  0.085394  1
  Er  Er4  1  0.653705  0.875777  0.836778  1
  Er  Er5  1  0.346295  0.124223  0.163222  1
  Fe  Fe6  1  0.000000  0.000000  0.000000  1
  I  I7  1  0.655962  0.556081  0.733547  1
  I  I8  1  0.344038  0.443919  0.266453  1
  I  I9  1  0.739149  0.914577  0.549763  1
  I  I10  1  0.260851  0.085423  0.450237  1
  I  I11  1  0.082465  0.376184  0.824598  1
  I  I12  1  0.917535  0.623816  0.175402  1
  I  I13  1  0.450961  0.818552  0.090586  1
  I  I14  1  0.549039  0.181448  0.909414  1
  I  I15  1  0.228246  0.742272  0.663062  1
  I  I16  1  0.771754  0.257728  0.336938  1
