# generated using pymatgen
data_Li3Tb4Si6Pd
_symmetry_space_group_name_H-M   'P 1'
_cell_length_a   9.25883085
_cell_length_b   9.25883137
_cell_length_c   6.73207623
_cell_angle_alpha   90.29324650
_cell_angle_beta   89.70675217
_cell_angle_gamma   153.41229470
_symmetry_Int_Tables_number   1
_chemical_formula_structural   Li3Tb4Si6Pd
_chemical_formula_sum   'Li3 Tb4 Si6 Pd1'
_cell_volume   258.29357446
_cell_formula_units_Z   1
loop_
 _symmetry_equiv_pos_site_id
 _symmetry_equiv_pos_as_xyz
  1  'x, y, z'
loop_
 _atom_site_type_symbol
 _atom_site_label
 _atom_site_symmetry_multiplicity
 _atom_site_fract_x
 _atom_site_fract_y
 _atom_site_fract_z
 _atom_site_occupancy
  Li  Li0  1  0.189936  0.810064  0.439859  1
  Li  Li1  1  0.189667  0.810333  0.060430  1
  Li  Li2  1  0.812683  0.187317  0.938222  1
  Tb  Tb3  1  0.550350  0.449650  0.252374  1
  Tb  Tb4  1  0.447235  0.552765  0.749921  1
  Tb  Tb5  1  0.343331  0.656669  0.249386  1
  Tb  Tb6  1  0.656705  0.343295  0.746457  1
  Si  Si7  1  0.941269  0.058731  0.075035  1
  Si  Si8  1  0.059522  0.940478  0.928072  1
  Si  Si9  1  0.058334  0.941666  0.573895  1
  Si  Si10  1  0.938058  0.061942  0.430284  1
  Si  Si11  1  0.721209  0.278791  0.255027  1
  Si  Si12  1  0.280918  0.719082  0.740994  1
  Pd  Pd13  1  0.810782  0.189218  0.560043  1
