# generated using pymatgen
data_Yb4AlInPt4
_symmetry_space_group_name_H-M   'P 1'
_cell_length_a   5.72047580
_cell_length_b   5.72047534
_cell_length_c   7.97678389
_cell_angle_alpha   77.83887976
_cell_angle_beta   77.83888373
_cell_angle_gamma   59.24447631
_symmetry_Int_Tables_number   1
_chemical_formula_structural   Yb4AlInPt4
_chemical_formula_sum   'Yb4 Al1 In1 Pt4'
_cell_volume   217.63257037
_cell_formula_units_Z   1
loop_
 _symmetry_equiv_pos_site_id
 _symmetry_equiv_pos_as_xyz
  1  'x, y, z'
loop_
 _atom_site_type_symbol
 _atom_site_label
 _atom_site_symmetry_multiplicity
 _atom_site_fract_x
 _atom_site_fract_y
 _atom_site_fract_z
 _atom_site_occupancy
  Yb  Yb0  1  0.791805  0.506282  0.851016  1
  Yb  Yb1  1  0.493718  0.208195  0.648984  1
  Yb  Yb2  1  0.207733  0.493906  0.148788  1
  Yb  Yb3  1  0.506094  0.792267  0.351212  1
  Al  Al4  1  0.875825  0.124175  0.250000  1
  In  In5  1  0.158558  0.841442  0.750000  1
  Pt  Pt6  1  0.988307  0.736152  0.491467  1
  Pt  Pt7  1  0.263848  0.011693  0.008533  1
  Pt  Pt8  1  0.984389  0.270275  0.483334  1
  Pt  Pt9  1  0.729725  0.015611  0.016666  1
