# generated using pymatgen
data_Nd8Np3ScO24
_symmetry_space_group_name_H-M   'P 1'
_cell_length_a   5.58214336
_cell_length_b   9.50989312
_cell_length_c   10.67533647
_cell_angle_alpha   89.89517961
_cell_angle_beta   90.78927714
_cell_angle_gamma   89.15279727
_symmetry_Int_Tables_number   1
_chemical_formula_structural   Nd8Np3ScO24
_chemical_formula_sum   'Nd8 Np3 Sc1 O24'
_cell_volume   566.58961407
_cell_formula_units_Z   1
loop_
 _symmetry_equiv_pos_site_id
 _symmetry_equiv_pos_as_xyz
  1  'x, y, z'
loop_
 _atom_site_type_symbol
 _atom_site_label
 _atom_site_symmetry_multiplicity
 _atom_site_fract_x
 _atom_site_fract_y
 _atom_site_fract_z
 _atom_site_occupancy
  Nd  Nd0  1  0.469602  0.628537  0.544096  1
  Nd  Nd1  1  0.990409  0.914498  0.472259  1
  Nd  Nd2  1  0.508035  0.089705  0.945220  1
  Nd  Nd3  1  0.026443  0.391608  0.041281  1
  Nd  Nd4  1  0.994327  0.799974  0.831069  1
  Nd  Nd5  1  0.448328  0.715524  0.129933  1
  Nd  Nd6  1  0.054757  0.261451  0.637178  1
  Nd  Nd7  1  0.540013  0.213455  0.388908  1
  Np  Np8  1  0.955015  0.505187  0.353132  1
  Np  Np9  1  0.537469  0.494602  0.855381  1
  Np  Np10  1  0.023722  0.005912  0.147915  1
  Sc  Sc11  1  0.484509  0.992813  0.645727  1
  O  O12  1  0.264236  0.099552  0.507534  1
  O  O13  1  0.748059  0.424438  0.494224  1
  O  O14  1  0.730587  0.572982  0.003423  1
  O  O15  1  0.234577  0.907176  0.006978  1
  O  O16  1  0.754380  0.121039  0.558532  1
  O  O17  1  0.227136  0.391921  0.434910  1
  O  O18  1  0.264425  0.611623  0.936079  1
  O  O19  1  0.751013  0.889899  0.081910  1
  O  O20  1  0.626944  0.839489  0.528022  1
  O  O21  1  0.082760  0.661497  0.454834  1
  O  O22  1  0.407532  0.339615  0.965643  1
  O  O23  1  0.890344  0.157147  0.032464  1
  O  O24  1  0.178436  0.861893  0.259813  1
  O  O25  1  0.686322  0.640208  0.746712  1
  O  O26  1  0.828313  0.355298  0.244099  1
  O  O27  1  0.289377  0.127990  0.767980  1
  O  O28  1  0.822165  0.052586  0.297496  1
  O  O29  1  0.330933  0.460299  0.704831  1
  O  O30  1  0.162659  0.547201  0.198633  1
  O  O31  1  0.702387  0.958401  0.802763  1
  O  O32  1  0.291233  0.138549  0.179362  1
  O  O33  1  0.823103  0.365027  0.828915  1
  O  O34  1  0.664889  0.629848  0.313277  1
  O  O35  1  0.205560  0.833056  0.659464  1
