# generated using pymatgen
data_Yb11Pr8YPb16
_symmetry_space_group_name_H-M   'P 1'
_cell_length_a   8.07573956
_cell_length_b   8.63277166
_cell_length_c   16.25271079
_cell_angle_alpha   90.05484843
_cell_angle_beta   90.07942890
_cell_angle_gamma   89.95481258
_symmetry_Int_Tables_number   1
_chemical_formula_structural   Yb11Pr8YPb16
_chemical_formula_sum   'Yb11 Pr8 Y1 Pb16'
_cell_volume   1133.07227895
_cell_formula_units_Z   1
loop_
 _symmetry_equiv_pos_site_id
 _symmetry_equiv_pos_as_xyz
  1  'x, y, z'
loop_
 _atom_site_type_symbol
 _atom_site_label
 _atom_site_symmetry_multiplicity
 _atom_site_fract_x
 _atom_site_fract_y
 _atom_site_fract_z
 _atom_site_occupancy
  Yb  Yb0  1  0.166184  0.333838  0.877279  1
  Yb  Yb1  1  0.334023  0.833702  0.122906  1
  Yb  Yb2  1  0.834585  0.665967  0.377278  1
  Yb  Yb3  1  0.333372  0.833454  0.377003  1
  Yb  Yb4  1  0.834137  0.666249  0.122885  1
  Yb  Yb5  1  0.665627  0.166140  0.877193  1
  Yb  Yb6  1  0.165919  0.333529  0.622338  1
  Yb  Yb7  1  0.835788  0.495754  0.750354  1
  Yb  Yb8  1  0.334310  0.003934  0.750543  1
  Yb  Yb9  1  0.164719  0.504893  0.249933  1
  Yb  Yb10  1  0.664683  0.995426  0.250089  1
  Pr  Pr11  1  0.501294  0.684408  0.595270  1
  Pr  Pr12  1  0.002261  0.813793  0.905476  1
  Pr  Pr13  1  0.498565  0.313811  0.095568  1
  Pr  Pr14  1  0.998970  0.186380  0.404197  1
  Pr  Pr15  1  0.497653  0.314436  0.404125  1
  Pr  Pr16  1  0.998751  0.186221  0.095363  1
  Pr  Pr17  1  0.501419  0.685178  0.904663  1
  Pr  Pr18  1  0.001652  0.813491  0.594337  1
  Y  Y19  1  0.665380  0.167790  0.623317  1
  Pb  Pb20  1  0.679194  0.962410  0.460476  1
  Pb  Pb21  1  0.178148  0.538475  0.040812  1
  Pb  Pb22  1  0.322774  0.038087  0.959019  1
  Pb  Pb23  1  0.819032  0.460159  0.541323  1
  Pb  Pb24  1  0.325048  0.039304  0.541976  1
  Pb  Pb25  1  0.821989  0.461467  0.958913  1
  Pb  Pb26  1  0.677559  0.961613  0.040897  1
  Pb  Pb27  1  0.179198  0.538828  0.459160  1
  Pb  Pb28  1  0.469011  0.388938  0.750197  1
  Pb  Pb29  1  0.966014  0.110710  0.748142  1
  Pb  Pb30  1  0.531629  0.609161  0.250071  1
  Pb  Pb31  1  0.031795  0.891347  0.249864  1
  Pb  Pb32  1  0.703994  0.854507  0.748850  1
  Pb  Pb33  1  0.203935  0.646599  0.749443  1
  Pb  Pb34  1  0.295407  0.146616  0.250355  1
  Pb  Pb35  1  0.795983  0.353385  0.250386  1
