# generated using pymatgen
data_Ba5Sr(TbBi3)2
_symmetry_space_group_name_H-M   'P 1'
_cell_length_a   8.72833809
_cell_length_b   9.99509366
_cell_length_c   8.85120500
_cell_angle_alpha   113.91250237
_cell_angle_beta   103.80906011
_cell_angle_gamma   113.25495212
_symmetry_Int_Tables_number   1
_chemical_formula_structural   Ba5Sr(TbBi3)2
_chemical_formula_sum   'Ba5 Sr1 Tb2 Bi6'
_cell_volume   570.81257467
_cell_formula_units_Z   1
loop_
 _symmetry_equiv_pos_site_id
 _symmetry_equiv_pos_as_xyz
  1  'x, y, z'
loop_
 _atom_site_type_symbol
 _atom_site_label
 _atom_site_symmetry_multiplicity
 _atom_site_fract_x
 _atom_site_fract_y
 _atom_site_fract_z
 _atom_site_occupancy
  Ba  Ba0  1  0.323861  0.325811  0.321671  1
  Ba  Ba1  1  0.002005  0.125519  0.584387  1
  Ba  Ba2  1  0.823024  0.824238  0.824095  1
  Ba  Ba3  1  0.078286  0.625784  0.499681  1
  Ba  Ba4  1  0.554863  0.017681  0.146905  1
  Sr  Sr5  1  0.639539  0.514733  0.037875  1
  Tb  Tb6  1  0.514465  0.066747  0.630706  1
  Tb  Tb7  1  0.130497  0.568359  0.015053  1
  Bi  Bi8  1  0.880361  0.248586  0.024673  1
  Bi  Bi9  1  0.116478  0.888699  0.258812  1
  Bi  Bi10  1  0.361036  0.574739  0.784044  1
  Bi  Bi11  1  0.290744  0.081944  0.866335  1
  Bi  Bi12  1  0.757030  0.392652  0.628358  1
  Bi  Bi13  1  0.527812  0.744507  0.377409  1
