# generated using pymatgen
data_Ba8P5Cl
_symmetry_space_group_name_H-M   'P 1'
_cell_length_a   8.56003842
_cell_length_b   8.56003912
_cell_length_c   8.56003888
_cell_angle_alpha   109.43398106
_cell_angle_beta   109.43398494
_cell_angle_gamma   109.54572639
_symmetry_Int_Tables_number   1
_chemical_formula_structural   Ba8P5Cl
_chemical_formula_sum   'Ba8 P5 Cl1'
_cell_volume   482.84165887
_cell_formula_units_Z   1
loop_
 _symmetry_equiv_pos_site_id
 _symmetry_equiv_pos_as_xyz
  1  'x, y, z'
loop_
 _atom_site_type_symbol
 _atom_site_label
 _atom_site_symmetry_multiplicity
 _atom_site_fract_x
 _atom_site_fract_y
 _atom_site_fract_z
 _atom_site_occupancy
  Ba  Ba0  1  0.737905  0.367823  0.245195  1
  Ba  Ba1  1  0.987692  0.738806  0.101452  1
  Ba  Ba2  1  0.637355  0.886240  0.898548  1
  Ba  Ba3  1  0.122628  0.492710  0.754805  1
  Ba  Ba4  1  0.632177  0.877372  0.370083  1
  Ba  Ba5  1  0.507290  0.262095  0.629917  1
  Ba  Ba6  1  0.261194  0.362645  0.248885  1
  Ba  Ba7  1  0.113760  0.012308  0.751115  1
  P  P8  1  0.746842  0.631528  0.626115  1
  P  P9  1  0.368472  0.994587  0.115314  1
  P  P10  1  0.005413  0.120727  0.373885  1
  P  P11  1  0.500000  0.500000  0.000000  1
  P  P12  1  0.879273  0.253158  0.884686  1
  Cl  Cl13  1  0.250000  0.750000  0.500000  1
