# generated using pymatgen
data_Tb3Dy3Bi2(AuO5)4
_symmetry_space_group_name_H-M   'P 1'
_cell_length_a   8.55427185
_cell_length_b   8.55422291
_cell_length_c   5.73441703
_cell_angle_alpha   88.77166564
_cell_angle_beta   91.23995066
_cell_angle_gamma   89.94174951
_symmetry_Int_Tables_number   1
_chemical_formula_structural   Tb3Dy3Bi2(AuO5)4
_chemical_formula_sum   'Tb3 Dy3 Bi2 Au4 O20'
_cell_volume   419.42169432
_cell_formula_units_Z   1
loop_
 _symmetry_equiv_pos_site_id
 _symmetry_equiv_pos_as_xyz
  1  'x, y, z'
loop_
 _atom_site_type_symbol
 _atom_site_label
 _atom_site_symmetry_multiplicity
 _atom_site_fract_x
 _atom_site_fract_y
 _atom_site_fract_z
 _atom_site_occupancy
  Tb  Tb0  1  0.651613  0.651615  0.749990  1
  Tb  Tb1  1  0.848231  0.848403  0.250029  1
  Tb  Tb2  1  0.146814  0.844855  0.752883  1
  Dy  Dy3  1  0.353828  0.655150  0.246986  1
  Dy  Dy4  1  0.844619  0.146421  0.746951  1
  Dy  Dy5  1  0.655306  0.353690  0.253059  1
  Bi  Bi6  1  0.358201  0.358215  0.749958  1
  Bi  Bi7  1  0.141742  0.142014  0.249958  1
  Au  Au8  1  0.495658  0.999736  0.407206  1
  Au  Au9  1  0.500488  0.004542  0.907321  1
  Au  Au10  1  0.999523  0.495357  0.092820  1
  Au  Au11  1  0.004413  0.500214  0.592667  1
  O  O12  1  0.107425  0.289856  0.599945  1
  O  O13  1  0.910127  0.278866  0.111949  1
  O  O14  1  0.909293  0.716573  0.609061  1
  O  O15  1  0.716964  0.910010  0.890445  1
  O  O16  1  0.221506  0.589059  0.611719  1
  O  O17  1  0.406299  0.788743  0.896181  1
  O  O18  1  0.392532  0.210110  0.400087  1
  O  O19  1  0.783050  0.589994  0.109497  1
  O  O20  1  0.279021  0.910305  0.386845  1
  O  O21  1  0.589848  0.221166  0.887999  1
  O  O22  1  0.491954  0.498615  0.999019  1
  O  O23  1  0.498684  0.491980  0.500965  1
  O  O24  1  0.789059  0.405272  0.604357  1
  O  O25  1  0.094584  0.710594  0.105819  1
  O  O26  1  0.289985  0.107714  0.900199  1
  O  O27  1  0.589980  0.783092  0.390484  1
  O  O28  1  0.210101  0.392557  0.099919  1
  O  O29  1  0.007427  0.001936  0.001929  1
  O  O30  1  0.000843  0.008651  0.498063  1
  O  O31  1  0.710883  0.094695  0.395692  1
