# generated using pymatgen
data_Cs4CrTe4
_symmetry_space_group_name_H-M   'P 1'
_cell_length_a   15.37211600
_cell_length_b   15.37211600
_cell_length_c   15.37211600
_cell_angle_alpha   90.00000000
_cell_angle_beta   90.00000000
_cell_angle_gamma   90.00000000
_symmetry_Int_Tables_number   1
_chemical_formula_structural   Cs4CrTe4
_chemical_formula_sum   'Cs32 Cr8 Te32'
_cell_volume   3632.46099131
_cell_formula_units_Z   8
loop_
 _symmetry_equiv_pos_site_id
 _symmetry_equiv_pos_as_xyz
  1  'x, y, z'
loop_
 _atom_site_type_symbol
 _atom_site_label
 _atom_site_symmetry_multiplicity
 _atom_site_fract_x
 _atom_site_fract_y
 _atom_site_fract_z
 _atom_site_occupancy
  Cs  Cs0  1  0.133362  0.912615  0.350101  1
  Cs  Cs1  1  0.412615  0.633362  0.850101  1
  Cs  Cs2  1  0.866638  0.912615  0.649899  1
  Cs  Cs3  1  0.587385  0.633362  0.149899  1
  Cs  Cs4  1  0.587385  0.366638  0.850101  1
  Cs  Cs5  1  0.350101  0.866638  0.087385  1
  Cs  Cs6  1  0.087385  0.350101  0.866638  1
  Cs  Cs7  1  0.650419  0.650419  0.650419  1
  Cs  Cs8  1  0.366638  0.850101  0.587385  1
  Cs  Cs9  1  0.849581  0.849581  0.150419  1
  Cs  Cs10  1  0.633362  0.149899  0.587385  1
  Cs  Cs11  1  0.866638  0.087385  0.350101  1
  Cs  Cs12  1  0.133362  0.087385  0.649899  1
  Cs  Cs13  1  0.850101  0.587385  0.366638  1
  Cs  Cs14  1  0.150419  0.849581  0.849581  1
  Cs  Cs15  1  0.912615  0.649899  0.866638  1
  Cs  Cs16  1  0.649899  0.133362  0.087385  1
  Cs  Cs17  1  0.412615  0.366638  0.149899  1
  Cs  Cs18  1  0.912615  0.350101  0.133362  1
  Cs  Cs19  1  0.350101  0.133362  0.912615  1
  Cs  Cs20  1  0.366638  0.149899  0.412615  1
  Cs  Cs21  1  0.349581  0.650419  0.349581  1
  Cs  Cs22  1  0.850101  0.412615  0.633362  1
  Cs  Cs23  1  0.150419  0.150419  0.150419  1
  Cs  Cs24  1  0.149899  0.587385  0.633362  1
  Cs  Cs25  1  0.149899  0.412615  0.366638  1
  Cs  Cs26  1  0.087385  0.649899  0.133362  1
  Cs  Cs27  1  0.849581  0.150419  0.849581  1
  Cs  Cs28  1  0.633362  0.850101  0.412615  1
  Cs  Cs29  1  0.649899  0.866638  0.912615  1
  Cs  Cs30  1  0.650419  0.349581  0.349581  1
  Cs  Cs31  1  0.349581  0.349581  0.650419  1
  Cr  Cr32  1  0.000000  0.750000  0.500000  1
  Cr  Cr33  1  0.500000  0.000000  0.250000  1
  Cr  Cr34  1  0.750000  0.500000  0.000000  1
  Cr  Cr35  1  0.500000  0.500000  0.500000  1
  Cr  Cr36  1  0.250000  0.500000  0.000000  1
  Cr  Cr37  1  0.000000  0.250000  0.500000  1
  Cr  Cr38  1  0.500000  0.000000  0.750000  1
  Cr  Cr39  1  0.000000  0.000000  0.000000  1
  Te  Te40  1  0.604581  0.907713  0.659285  1
  Te  Te41  1  0.840715  0.592287  0.104581  1
  Te  Te42  1  0.340715  0.395419  0.907713  1
  Te  Te43  1  0.659285  0.395419  0.092287  1
  Te  Te44  1  0.840715  0.407713  0.895419  1
  Te  Te45  1  0.104581  0.840715  0.592287  1
  Te  Te46  1  0.604581  0.092287  0.340715  1
  Te  Te47  1  0.592287  0.895419  0.159285  1
  Te  Te48  1  0.404228  0.404228  0.404228  1
  Te  Te49  1  0.159285  0.592287  0.895419  1
  Te  Te50  1  0.895419  0.840715  0.407713  1
  Te  Te51  1  0.092287  0.340715  0.604581  1
  Te  Te52  1  0.159285  0.407713  0.104581  1
  Te  Te53  1  0.395419  0.092287  0.659285  1
  Te  Te54  1  0.407713  0.895419  0.840715  1
  Te  Te55  1  0.592287  0.104581  0.840715  1
  Te  Te56  1  0.095772  0.095772  0.904228  1
  Te  Te57  1  0.595772  0.404228  0.595772  1
  Te  Te58  1  0.340715  0.604581  0.092287  1
  Te  Te59  1  0.404228  0.595772  0.595772  1
  Te  Te60  1  0.092287  0.659285  0.395419  1
  Te  Te61  1  0.907713  0.340715  0.395419  1
  Te  Te62  1  0.895419  0.159285  0.592287  1
  Te  Te63  1  0.595772  0.595772  0.404228  1
  Te  Te64  1  0.104581  0.159285  0.407713  1
  Te  Te65  1  0.904228  0.904228  0.904228  1
  Te  Te66  1  0.095772  0.904228  0.095772  1
  Te  Te67  1  0.407713  0.104581  0.159285  1
  Te  Te68  1  0.904228  0.095772  0.095772  1
  Te  Te69  1  0.659285  0.604581  0.907713  1
  Te  Te70  1  0.395419  0.907713  0.340715  1
  Te  Te71  1  0.907713  0.659285  0.604581  1
