# generated using pymatgen
data_Y4MnCoC8
_symmetry_space_group_name_H-M   'P 1'
_cell_length_a   6.62144163
_cell_length_b   6.62144192
_cell_length_c   6.62144148
_cell_angle_alpha   135.02557883
_cell_angle_beta   111.01467347
_cell_angle_gamma   86.21404509
_symmetry_Int_Tables_number   1
_chemical_formula_structural   Y4MnCoC8
_chemical_formula_sum   'Y4 Mn1 Co1 C8'
_cell_volume   183.62841591
_cell_formula_units_Z   1
loop_
 _symmetry_equiv_pos_site_id
 _symmetry_equiv_pos_as_xyz
  1  'x, y, z'
loop_
 _atom_site_type_symbol
 _atom_site_label
 _atom_site_symmetry_multiplicity
 _atom_site_fract_x
 _atom_site_fract_y
 _atom_site_fract_z
 _atom_site_occupancy
  Y  Y0  1  0.512113  0.356854  0.158249  1
  Y  Y1  1  0.487887  0.646136  0.844741  1
  Y  Y2  1  0.198605  0.853864  0.341751  1
  Y  Y3  1  0.801395  0.143146  0.655259  1
  Mn  Mn4  1  0.000000  0.750000  0.750000  1
  Co  Co5  1  0.000000  0.250000  0.250000  1
  C  C6  1  0.245817  0.063397  0.151381  1
  C  C7  1  0.754183  0.905563  0.817579  1
  C  C8  1  0.912016  0.594437  0.348619  1
  C  C9  1  0.087984  0.436603  0.682421  1
  C  C10  1  0.465628  0.133696  0.342747  1
  C  C11  1  0.534372  0.877120  0.668069  1
  C  C12  1  0.790949  0.622880  0.157253  1
  C  C13  1  0.209051  0.366304  0.831931  1
