# generated using pymatgen
data_Er4Hg2RhAu3
_symmetry_space_group_name_H-M   'P 1'
_cell_length_a   7.80819811
_cell_length_b   7.80819812
_cell_length_c   3.70199800
_cell_angle_alpha   90.00000000
_cell_angle_beta   90.00000000
_cell_angle_gamma   90.17708702
_symmetry_Int_Tables_number   1
_chemical_formula_structural   Er4Hg2RhAu3
_chemical_formula_sum   'Er4 Hg2 Rh1 Au3'
_cell_volume   225.70217977
_cell_formula_units_Z   1
loop_
 _symmetry_equiv_pos_site_id
 _symmetry_equiv_pos_as_xyz
  1  'x, y, z'
loop_
 _atom_site_type_symbol
 _atom_site_label
 _atom_site_symmetry_multiplicity
 _atom_site_fract_x
 _atom_site_fract_y
 _atom_site_fract_z
 _atom_site_occupancy
  Er  Er0  1  0.150768  0.321234  0.500000  1
  Er  Er1  1  0.685771  0.185771  0.500000  1
  Er  Er2  1  0.821234  0.650768  0.500000  1
  Er  Er3  1  0.330656  0.830656  0.500000  1
  Hg  Hg4  1  0.998825  0.004802  0.000000  1
  Hg  Hg5  1  0.504802  0.498825  0.000000  1
  Rh  Rh6  1  0.872586  0.372586  0.000000  1
  Au  Au7  1  0.127293  0.627293  0.000000  1
  Au  Au8  1  0.632636  0.875429  0.000000  1
  Au  Au9  1  0.375429  0.132636  0.000000  1
