# generated using pymatgen
data_TbHo9In8Pd3Au
_symmetry_space_group_name_H-M   'P 1'
_cell_length_a   3.62103100
_cell_length_b   8.16358617
_cell_length_c   18.29594991
_cell_angle_alpha   89.99151728
_cell_angle_beta   90.00000000
_cell_angle_gamma   90.00000000
_symmetry_Int_Tables_number   1
_chemical_formula_structural   TbHo9In8Pd3Au
_chemical_formula_sum   'Tb1 Ho9 In8 Pd3 Au1'
_cell_volume   540.83922491
_cell_formula_units_Z   1
loop_
 _symmetry_equiv_pos_site_id
 _symmetry_equiv_pos_as_xyz
  1  'x, y, z'
loop_
 _atom_site_type_symbol
 _atom_site_label
 _atom_site_symmetry_multiplicity
 _atom_site_fract_x
 _atom_site_fract_y
 _atom_site_fract_z
 _atom_site_occupancy
  Tb  Tb0  1  0.000000  0.499120  0.500969  1
  Ho  Ho1  1  0.000000  0.999149  0.999504  1
  Ho  Ho2  1  0.000000  0.746333  0.284158  1
  Ho  Ho3  1  0.000000  0.258916  0.718779  1
  Ho  Ho4  1  0.000000  0.758570  0.780041  1
  Ho  Ho5  1  0.000000  0.232824  0.219355  1
  Ho  Ho6  1  0.000000  0.621593  0.079763  1
  Ho  Ho7  1  0.000000  0.383295  0.915399  1
  Ho  Ho8  1  0.000000  0.883136  0.584145  1
  Ho  Ho9  1  0.000000  0.115760  0.417561  1
  In  In10  1  0.500000  0.709251  0.931007  1
  In  In11  1  0.500000  0.291460  0.065500  1
  In  In12  1  0.500000  0.792497  0.434230  1
  In  In13  1  0.500000  0.207291  0.568007  1
  In  In14  1  0.500000  0.579479  0.649845  1
  In  In15  1  0.500000  0.416104  0.352040  1
  In  In16  1  0.500000  0.921755  0.148799  1
  In  In17  1  0.500000  0.078976  0.849864  1
  Pd  Pd18  1  0.500000  0.475076  0.803251  1
  Pd  Pd19  1  0.500000  0.975951  0.696248  1
  Pd  Pd20  1  0.500000  0.025568  0.304145  1
  Au  Au21  1  0.500000  0.527897  0.197392  1
