# generated using pymatgen
data_Ac(S8Cl)3
_symmetry_space_group_name_H-M   'P 1'
_cell_length_a   15.43637083
_cell_length_b   15.43637047
_cell_length_c   15.43637075
_cell_angle_alpha   119.12471770
_cell_angle_beta   119.12472128
_cell_angle_gamma   119.12471278
_symmetry_Int_Tables_number   1
_chemical_formula_structural   Ac(S8Cl)3
_chemical_formula_sum   'Ac1 S24 Cl3'
_cell_volume   891.46189607
_cell_formula_units_Z   1
loop_
 _symmetry_equiv_pos_site_id
 _symmetry_equiv_pos_as_xyz
  1  'x, y, z'
loop_
 _atom_site_type_symbol
 _atom_site_label
 _atom_site_symmetry_multiplicity
 _atom_site_fract_x
 _atom_site_fract_y
 _atom_site_fract_z
 _atom_site_occupancy
  Ac  Ac0  1  0.433646  0.433646  0.433646  1
  S  S1  1  0.014047  0.600513  0.600513  1
  S  S2  1  0.600513  0.600513  0.014047  1
  S  S3  1  0.600513  0.014047  0.600513  1
  S  S4  1  0.259818  0.859755  0.733904  1
  S  S5  1  0.859755  0.733904  0.259818  1
  S  S6  1  0.733904  0.259818  0.859755  1
  S  S7  1  0.859755  0.259818  0.733904  1
  S  S8  1  0.259818  0.733904  0.859755  1
  S  S9  1  0.733904  0.859755  0.259818  1
  S  S10  1  0.091555  0.609955  0.433000  1
  S  S11  1  0.609955  0.433000  0.091555  1
  S  S12  1  0.433000  0.091555  0.609955  1
  S  S13  1  0.609955  0.091555  0.433000  1
  S  S14  1  0.091555  0.433000  0.609955  1
  S  S15  1  0.433000  0.609955  0.091555  1
  S  S16  1  0.376839  0.758366  0.631121  1
  S  S17  1  0.758366  0.631121  0.376839  1
  S  S18  1  0.631121  0.376839  0.758366  1
  S  S19  1  0.758366  0.376839  0.631121  1
  S  S20  1  0.376839  0.631121  0.758366  1
  S  S21  1  0.631121  0.758366  0.376839  1
  S  S22  1  0.180603  0.454602  0.454602  1
  S  S23  1  0.454602  0.454602  0.180603  1
  S  S24  1  0.454602  0.180603  0.454602  1
  Cl  Cl25  1  0.020598  0.889674  0.889674  1
  Cl  Cl26  1  0.889674  0.889674  0.020598  1
  Cl  Cl27  1  0.889674  0.020598  0.889674  1
