# generated using pymatgen
data_TbErGa6(NiAu)2
_symmetry_space_group_name_H-M   'P 1'
_cell_length_a   4.07061459
_cell_length_b   6.59330000
_cell_length_c   7.96937877
_cell_angle_alpha   90.00000000
_cell_angle_beta   104.79676776
_cell_angle_gamma   90.00000000
_symmetry_Int_Tables_number   1
_chemical_formula_structural   TbErGa6(NiAu)2
_chemical_formula_sum   'Tb1 Er1 Ga6 Ni2 Au2'
_cell_volume   206.79541777
_cell_formula_units_Z   1
loop_
 _symmetry_equiv_pos_site_id
 _symmetry_equiv_pos_as_xyz
  1  'x, y, z'
loop_
 _atom_site_type_symbol
 _atom_site_label
 _atom_site_symmetry_multiplicity
 _atom_site_fract_x
 _atom_site_fract_y
 _atom_site_fract_z
 _atom_site_occupancy
  Tb  Tb0  1  0.125588  0.250000  0.251175  1
  Er  Er1  1  0.874409  0.750000  0.748819  1
  Ga  Ga2  1  0.069386  0.750000  0.138771  1
  Ga  Ga3  1  0.930498  0.250000  0.860997  1
  Ga  Ga4  1  0.685648  0.551792  0.371296  1
  Ga  Ga5  1  0.315126  0.449022  0.630253  1
  Ga  Ga6  1  0.685648  0.948208  0.371296  1
  Ga  Ga7  1  0.315126  0.050978  0.630253  1
  Ni  Ni8  1  0.224504  0.750000  0.449010  1
  Ni  Ni9  1  0.776198  0.250000  0.552396  1
  Au  Au10  1  0.498934  0.501830  0.997867  1
  Au  Au11  1  0.498934  0.998170  0.997867  1
