# generated using pymatgen
data_CoSi4Pt3
_symmetry_space_group_name_H-M   'P 1'
_cell_length_a   3.56912300
_cell_length_b   5.41838662
_cell_length_c   5.96088486
_cell_angle_alpha   89.62927623
_cell_angle_beta   90.00000000
_cell_angle_gamma   90.00000000
_symmetry_Int_Tables_number   1
_chemical_formula_structural   CoSi4Pt3
_chemical_formula_sum   'Co1 Si4 Pt3'
_cell_volume   115.27447356
_cell_formula_units_Z   1
loop_
 _symmetry_equiv_pos_site_id
 _symmetry_equiv_pos_as_xyz
  1  'x, y, z'
loop_
 _atom_site_type_symbol
 _atom_site_label
 _atom_site_symmetry_multiplicity
 _atom_site_fract_x
 _atom_site_fract_y
 _atom_site_fract_z
 _atom_site_occupancy
  Co  Co0  1  0.000000  0.501474  0.701045  1
  Si  Si1  1  0.000000  0.665332  0.067563  1
  Si  Si2  1  0.000000  0.189811  0.424930  1
  Si  Si3  1  0.500000  0.334220  0.901205  1
  Si  Si4  1  0.500000  0.800499  0.597898  1
  Pt  Pt5  1  0.000000  0.003134  0.799292  1
  Pt  Pt6  1  0.500000  0.500878  0.314364  1
  Pt  Pt7  1  0.500000  0.004652  0.193704  1
