# generated using pymatgen
data_Sr2MgZn3Ga4
_symmetry_space_group_name_H-M   'P 1'
_cell_length_a   4.35404400
_cell_length_b   4.35404400
_cell_length_c   11.35676700
_cell_angle_alpha   90.00000000
_cell_angle_beta   90.00000000
_cell_angle_gamma   90.00000000
_symmetry_Int_Tables_number   1
_chemical_formula_structural   Sr2MgZn3Ga4
_chemical_formula_sum   'Sr2 Mg1 Zn3 Ga4'
_cell_volume   215.29817215
_cell_formula_units_Z   1
loop_
 _symmetry_equiv_pos_site_id
 _symmetry_equiv_pos_as_xyz
  1  'x, y, z'
loop_
 _atom_site_type_symbol
 _atom_site_label
 _atom_site_symmetry_multiplicity
 _atom_site_fract_x
 _atom_site_fract_y
 _atom_site_fract_z
 _atom_site_occupancy
  Sr  Sr0  1  0.500000  0.000000  0.740885  1
  Sr  Sr1  1  0.000000  0.500000  0.259115  1
  Mg  Mg2  1  0.500000  0.500000  0.000000  1
  Zn  Zn3  1  0.000000  0.000000  0.500000  1
  Zn  Zn4  1  0.000000  0.000000  0.000000  1
  Zn  Zn5  1  0.500000  0.500000  0.500000  1
  Ga  Ga6  1  0.000000  0.500000  0.856264  1
  Ga  Ga7  1  0.500000  0.000000  0.372064  1
  Ga  Ga8  1  0.500000  0.000000  0.143736  1
  Ga  Ga9  1  0.000000  0.500000  0.627936  1
