# generated using pymatgen
data_Th4ReOsC4
_symmetry_space_group_name_H-M   'P 1'
_cell_length_a   5.35799600
_cell_length_b   6.67799000
_cell_length_c   10.11381100
_cell_angle_alpha   90.00000000
_cell_angle_beta   90.00000000
_cell_angle_gamma   90.00000000
_symmetry_Int_Tables_number   1
_chemical_formula_structural   Th4ReOsC4
_chemical_formula_sum   'Th8 Re2 Os2 C8'
_cell_volume   361.87866792
_cell_formula_units_Z   2
loop_
 _symmetry_equiv_pos_site_id
 _symmetry_equiv_pos_as_xyz
  1  'x, y, z'
loop_
 _atom_site_type_symbol
 _atom_site_label
 _atom_site_symmetry_multiplicity
 _atom_site_fract_x
 _atom_site_fract_y
 _atom_site_fract_z
 _atom_site_occupancy
  Th  Th0  1  0.250000  0.477885  0.776424  1
  Th  Th1  1  0.750000  0.022115  0.276424  1
  Th  Th2  1  0.250000  0.978567  0.725071  1
  Th  Th3  1  0.750000  0.521433  0.225071  1
  Th  Th4  1  0.250000  0.810099  0.047646  1
  Th  Th5  1  0.750000  0.689901  0.547646  1
  Th  Th6  1  0.250000  0.305840  0.452263  1
  Th  Th7  1  0.750000  0.194160  0.952263  1
  Re  Re8  1  0.250000  0.770026  0.360188  1
  Re  Re9  1  0.750000  0.729974  0.860188  1
  Os  Os10  1  0.250000  0.270126  0.138589  1
  Os  Os11  1  0.750000  0.229874  0.638589  1
  C  C12  1  0.250000  0.165408  0.945054  1
  C  C13  1  0.750000  0.831712  0.052972  1
  C  C14  1  0.250000  0.668288  0.552972  1
  C  C15  1  0.750000  0.334592  0.445054  1
  C  C16  1  0.250000  0.030217  0.258084  1
  C  C17  1  0.750000  0.469783  0.758084  1
  C  C18  1  0.250000  0.528665  0.243709  1
  C  C19  1  0.750000  0.971335  0.743709  1
