# generated using pymatgen
data_SmZrB6Os
_symmetry_space_group_name_H-M   'P 1'
_cell_length_a   3.59983100
_cell_length_b   9.10702400
_cell_length_c   11.48302500
_cell_angle_alpha   90.00000000
_cell_angle_beta   90.00000000
_cell_angle_gamma   90.00000000
_symmetry_Int_Tables_number   1
_chemical_formula_structural   SmZrB6Os
_chemical_formula_sum   'Sm4 Zr4 B24 Os4'
_cell_volume   376.45658999
_cell_formula_units_Z   4
loop_
 _symmetry_equiv_pos_site_id
 _symmetry_equiv_pos_as_xyz
  1  'x, y, z'
loop_
 _atom_site_type_symbol
 _atom_site_label
 _atom_site_symmetry_multiplicity
 _atom_site_fract_x
 _atom_site_fract_y
 _atom_site_fract_z
 _atom_site_occupancy
  Sm  Sm0  1  0.000000  0.322255  0.413407  1
  Sm  Sm1  1  0.000000  0.677745  0.586593  1
  Sm  Sm2  1  0.000000  0.822255  0.086593  1
  Sm  Sm3  1  0.000000  0.177745  0.913407  1
  Zr  Zr4  1  0.000000  0.945272  0.374611  1
  Zr  Zr5  1  0.000000  0.054728  0.625389  1
  Zr  Zr6  1  0.000000  0.445272  0.125389  1
  Zr  Zr7  1  0.000000  0.554728  0.874611  1
  B  B8  1  0.500000  0.554944  0.431820  1
  B  B9  1  0.500000  0.445056  0.568180  1
  B  B10  1  0.500000  0.054944  0.068180  1
  B  B11  1  0.500000  0.945056  0.931820  1
  B  B12  1  0.500000  0.752241  0.417614  1
  B  B13  1  0.500000  0.247759  0.582386  1
  B  B14  1  0.500000  0.252241  0.082386  1
  B  B15  1  0.500000  0.747759  0.917614  1
  B  B16  1  0.500000  0.794437  0.265192  1
  B  B17  1  0.500000  0.205563  0.734808  1
  B  B18  1  0.500000  0.294437  0.234808  1
  B  B19  1  0.500000  0.705563  0.765192  1
  B  B20  1  0.500000  0.629814  0.183523  1
  B  B21  1  0.500000  0.370186  0.816477  1
  B  B22  1  0.500000  0.129814  0.316477  1
  B  B23  1  0.500000  0.870186  0.683523  1
  B  B24  1  0.500000  0.983031  0.213616  1
  B  B25  1  0.500000  0.016969  0.786384  1
  B  B26  1  0.500000  0.483031  0.286384  1
  B  B27  1  0.500000  0.516969  0.713616  1
  B  B28  1  0.500000  0.601045  0.027189  1
  B  B29  1  0.500000  0.398955  0.972811  1
  B  B30  1  0.500000  0.101045  0.472811  1
  B  B31  1  0.500000  0.898955  0.527189  1
  Os  Os32  1  0.000000  0.641973  0.318064  1
  Os  Os33  1  0.000000  0.358027  0.681936  1
  Os  Os34  1  0.000000  0.141973  0.181936  1
  Os  Os35  1  0.000000  0.858027  0.818064  1
