# generated using pymatgen
data_Dy6Er5Tm5(CdPt)4
_symmetry_space_group_name_H-M   'P 1'
_cell_length_a   9.62351795
_cell_length_b   9.61510498
_cell_length_c   9.61510423
_cell_angle_alpha   59.97755929
_cell_angle_beta   59.97105132
_cell_angle_gamma   59.97104677
_symmetry_Int_Tables_number   1
_chemical_formula_structural   Dy6Er5Tm5(CdPt)4
_chemical_formula_sum   'Dy6 Er5 Tm5 Cd4 Pt4'
_cell_volume   628.72837725
_cell_formula_units_Z   1
loop_
 _symmetry_equiv_pos_site_id
 _symmetry_equiv_pos_as_xyz
  1  'x, y, z'
loop_
 _atom_site_type_symbol
 _atom_site_label
 _atom_site_symmetry_multiplicity
 _atom_site_fract_x
 _atom_site_fract_y
 _atom_site_fract_z
 _atom_site_occupancy
  Dy  Dy0  1  0.935382  0.564618  0.564618  1
  Dy  Dy1  1  0.563598  0.936402  0.936402  1
  Dy  Dy2  1  0.564131  0.935887  0.564144  1
  Dy  Dy3  1  0.935838  0.564143  0.935887  1
  Dy  Dy4  1  0.564131  0.564144  0.935887  1
  Dy  Dy5  1  0.935838  0.935887  0.564143  1
  Er  Er6  1  0.350952  0.352194  0.352194  1
  Er  Er7  1  0.352113  0.353218  0.942558  1
  Er  Er8  1  0.352113  0.942558  0.353218  1
  Er  Er9  1  0.944662  0.352194  0.352194  1
  Er  Er10  1  0.810696  0.189304  0.189304  1
  Tm  Tm11  1  0.188511  0.811489  0.811489  1
  Tm  Tm12  1  0.189266  0.811124  0.188575  1
  Tm  Tm13  1  0.811035  0.188575  0.811124  1
  Tm  Tm14  1  0.189266  0.188575  0.811124  1
  Tm  Tm15  1  0.811035  0.811124  0.188575  1
  Cd  Cd16  1  0.581693  0.581378  0.581378  1
  Cd  Cd17  1  0.581750  0.581494  0.255005  1
  Cd  Cd18  1  0.581750  0.255005  0.581494  1
  Cd  Cd19  1  0.255550  0.581378  0.581378  1
  Pt  Pt20  1  0.144068  0.142681  0.142681  1
  Pt  Pt21  1  0.143027  0.142298  0.571650  1
  Pt  Pt22  1  0.143027  0.571650  0.142298  1
  Pt  Pt23  1  0.570572  0.142681  0.142681  1
