# generated using pymatgen
data_Th4(PdPt3)3
_symmetry_space_group_name_H-M   'P 1'
_cell_length_a   5.96050745
_cell_length_b   5.95735785
_cell_length_c   9.91936900
_cell_angle_alpha   90.00000000
_cell_angle_beta   90.00000000
_cell_angle_gamma   119.98252269
_symmetry_Int_Tables_number   1
_chemical_formula_structural   Th4(PdPt3)3
_chemical_formula_sum   'Th4 Pd3 Pt9'
_cell_volume   305.09006089
_cell_formula_units_Z   1
loop_
 _symmetry_equiv_pos_site_id
 _symmetry_equiv_pos_as_xyz
  1  'x, y, z'
loop_
 _atom_site_type_symbol
 _atom_site_label
 _atom_site_symmetry_multiplicity
 _atom_site_fract_x
 _atom_site_fract_y
 _atom_site_fract_z
 _atom_site_occupancy
  Th  Th0  1  0.000887  0.000443  0.499697  1
  Th  Th1  1  0.000887  0.000443  0.000303  1
  Th  Th2  1  0.335942  0.667972  0.250000  1
  Th  Th3  1  0.662609  0.331304  0.750000  1
  Pd  Pd4  1  0.000272  0.500136  0.501000  1
  Pd  Pd5  1  0.000272  0.500136  0.999000  1
  Pd  Pd6  1  0.647021  0.823511  0.750000  1
  Pt  Pt7  1  0.500722  0.500623  0.500598  1
  Pt  Pt8  1  0.500722  0.000099  0.500598  1
  Pt  Pt9  1  0.500722  0.500623  0.999402  1
  Pt  Pt10  1  0.500722  0.000099  0.999402  1
  Pt  Pt11  1  0.828650  0.175871  0.250000  1
  Pt  Pt12  1  0.828650  0.652778  0.250000  1
  Pt  Pt13  1  0.351419  0.175709  0.250000  1
  Pt  Pt14  1  0.170252  0.823862  0.750000  1
  Pt  Pt15  1  0.170252  0.346389  0.750000  1
