# generated using pymatgen
data_DyU7(B6Mo)4
_symmetry_space_group_name_H-M   'P 1'
_cell_length_a   9.27912406
_cell_length_b   11.37314107
_cell_length_c   3.69608000
_cell_angle_alpha   90.00000000
_cell_angle_beta   90.00000000
_cell_angle_gamma   90.01271652
_symmetry_Int_Tables_number   1
_chemical_formula_structural   DyU7(B6Mo)4
_chemical_formula_sum   'Dy1 U7 B24 Mo4'
_cell_volume   390.05761343
_cell_formula_units_Z   1
loop_
 _symmetry_equiv_pos_site_id
 _symmetry_equiv_pos_as_xyz
  1  'x, y, z'
loop_
 _atom_site_type_symbol
 _atom_site_label
 _atom_site_symmetry_multiplicity
 _atom_site_fract_x
 _atom_site_fract_y
 _atom_site_fract_z
 _atom_site_occupancy
  Dy  Dy0  1  0.835385  0.092013  0.000000  1
  U  U1  1  0.456508  0.105386  0.000000  1
  U  U2  1  0.956216  0.394618  0.000000  1
  U  U3  1  0.334781  0.407450  0.000000  1
  U  U4  1  0.665142  0.592406  0.000000  1
  U  U5  1  0.043557  0.604885  0.000000  1
  U  U6  1  0.544438  0.895120  0.000000  1
  U  U7  1  0.164250  0.907785  0.000000  1
  B  B8  1  0.638138  0.038507  0.500000  1
  B  B9  1  0.052798  0.066631  0.500000  1
  B  B10  1  0.243236  0.075365  0.500000  1
  B  B11  1  0.643022  0.188313  0.500000  1
  B  B12  1  0.987742  0.219823  0.500000  1
  B  B13  1  0.304025  0.227264  0.500000  1
  B  B14  1  0.802933  0.274822  0.500000  1
  B  B15  1  0.485796  0.281996  0.500000  1
  B  B16  1  0.144550  0.312458  0.500000  1
  B  B17  1  0.743596  0.424200  0.500000  1
  B  B18  1  0.549520  0.433530  0.500000  1
  B  B19  1  0.142519  0.460601  0.500000  1
  B  B20  1  0.858038  0.539132  0.500000  1
  B  B21  1  0.449869  0.567150  0.500000  1
  B  B22  1  0.256625  0.575821  0.500000  1
  B  B23  1  0.855120  0.687223  0.500000  1
  B  B24  1  0.514134  0.718579  0.500000  1
  B  B25  1  0.196132  0.727515  0.500000  1
  B  B26  1  0.696190  0.772401  0.500000  1
  B  B27  1  0.014927  0.781687  0.500000  1
  B  B28  1  0.355132  0.812407  0.500000  1
  B  B29  1  0.755572  0.923016  0.500000  1
  B  B30  1  0.951060  0.931059  0.500000  1
  B  B31  1  0.357687  0.960264  0.500000  1
  Mo  Mo32  1  0.148311  0.180893  0.000000  1
  Mo  Mo33  1  0.643188  0.322596  0.000000  1
  Mo  Mo34  1  0.354906  0.679718  0.000000  1
  Mo  Mo35  1  0.854956  0.817368  0.000000  1
