# generated using pymatgen
data_Rb3Ba4U2TlSe12
_symmetry_space_group_name_H-M   'P 1'
_cell_length_a   9.10092061
_cell_length_b   9.16985700
_cell_length_c   9.10092192
_cell_angle_alpha   87.93282059
_cell_angle_beta   88.45839720
_cell_angle_gamma   87.93282520
_symmetry_Int_Tables_number   1
_chemical_formula_structural   Rb3Ba4U2TlSe12
_chemical_formula_sum   'Rb3 Ba4 U2 Tl1 Se12'
_cell_volume   758.27212005
_cell_formula_units_Z   1
loop_
 _symmetry_equiv_pos_site_id
 _symmetry_equiv_pos_as_xyz
  1  'x, y, z'
loop_
 _atom_site_type_symbol
 _atom_site_label
 _atom_site_symmetry_multiplicity
 _atom_site_fract_x
 _atom_site_fract_y
 _atom_site_fract_z
 _atom_site_occupancy
  Rb  Rb0  1  0.885900  0.614382  0.250566  1
  Rb  Rb1  1  0.249434  0.885618  0.614100  1
  Rb  Rb2  1  0.750532  0.750000  0.749468  1
  Ba  Ba3  1  0.616947  0.250000  0.883053  1
  Ba  Ba4  1  0.750189  0.121618  0.375903  1
  Ba  Ba5  1  0.378475  0.750000  0.121525  1
  Ba  Ba6  1  0.124097  0.378382  0.749811  1
  U  U7  1  0.504554  0.500921  0.502246  1
  U  U8  1  0.997754  0.999079  0.995446  1
  Tl  Tl9  1  0.244850  0.250000  0.255150  1
  Se  Se10  1  0.222999  0.558676  0.430474  1
  Se  Se11  1  0.436224  0.218206  0.566992  1
  Se  Se12  1  0.559953  0.421794  0.217930  1
  Se  Se13  1  0.921914  0.073377  0.714400  1
  Se  Se14  1  0.709869  0.938781  0.064846  1
  Se  Se15  1  0.070595  0.720125  0.929641  1
  Se  Se16  1  0.785600  0.426623  0.578086  1
  Se  Se17  1  0.570359  0.779875  0.429405  1
  Se  Se18  1  0.435154  0.561219  0.790131  1
  Se  Se19  1  0.069526  0.941324  0.277001  1
  Se  Se20  1  0.282070  0.078206  0.940047  1
  Se  Se21  1  0.933008  0.281794  0.063776  1
