# generated using pymatgen
data_Hf8Co2PdPt
_symmetry_space_group_name_H-M   'P 1'
_cell_length_a   8.63801515
_cell_length_b   8.63801483
_cell_length_c   8.62483800
_cell_angle_alpha   60.05044091
_cell_angle_beta   60.05044212
_cell_angle_gamma   60.17902831
_symmetry_Int_Tables_number   1
_chemical_formula_structural   Hf8Co2PdPt
_chemical_formula_sum   'Hf16 Co4 Pd2 Pt2'
_cell_volume   456.01550424
_cell_formula_units_Z   2
loop_
 _symmetry_equiv_pos_site_id
 _symmetry_equiv_pos_as_xyz
  1  'x, y, z'
loop_
 _atom_site_type_symbol
 _atom_site_label
 _atom_site_symmetry_multiplicity
 _atom_site_fract_x
 _atom_site_fract_y
 _atom_site_fract_z
 _atom_site_occupancy
  Hf  Hf0  1  0.069152  0.643114  0.643867  1
  Hf  Hf1  1  0.643114  0.069152  0.643867  1
  Hf  Hf2  1  0.643358  0.643358  0.069209  1
  Hf  Hf3  1  0.643358  0.643358  0.644075  1
  Hf  Hf4  1  0.810779  0.810779  0.189221  1
  Hf  Hf5  1  0.191046  0.191046  0.808954  1
  Hf  Hf6  1  0.810366  0.189838  0.809570  1
  Hf  Hf7  1  0.189838  0.810366  0.190226  1
  Hf  Hf8  1  0.189838  0.810366  0.809570  1
  Hf  Hf9  1  0.810366  0.189838  0.190226  1
  Hf  Hf10  1  0.438585  0.438585  0.061415  1
  Hf  Hf11  1  0.062776  0.062776  0.437224  1
  Hf  Hf12  1  0.438087  0.062466  0.437663  1
  Hf  Hf13  1  0.062466  0.438087  0.061783  1
  Hf  Hf14  1  0.062466  0.438087  0.437663  1
  Hf  Hf15  1  0.438087  0.062466  0.061783  1
  Co  Co16  1  0.433018  0.856112  0.855435  1
  Co  Co17  1  0.856112  0.433018  0.855435  1
  Co  Co18  1  0.856044  0.856044  0.432329  1
  Co  Co19  1  0.856044  0.856044  0.855584  1
  Pd  Pd20  1  0.765030  0.412730  0.411120  1
  Pd  Pd21  1  0.412730  0.765030  0.411120  1
  Pt  Pt22  1  0.408669  0.408669  0.775829  1
  Pt  Pt23  1  0.408669  0.408669  0.406832  1
