# generated using pymatgen
data_Ho5Co19GeP11
_symmetry_space_group_name_H-M   'P 1'
_cell_length_a   12.01191500
_cell_length_b   12.03577473
_cell_length_c   3.68463500
_cell_angle_alpha   90.00000000
_cell_angle_beta   90.00000000
_cell_angle_gamma   119.93444708
_symmetry_Int_Tables_number   1
_chemical_formula_structural   Ho5Co19GeP11
_chemical_formula_sum   'Ho5 Co19 Ge1 P11'
_cell_volume   461.63412172
_cell_formula_units_Z   1
loop_
 _symmetry_equiv_pos_site_id
 _symmetry_equiv_pos_as_xyz
  1  'x, y, z'
loop_
 _atom_site_type_symbol
 _atom_site_label
 _atom_site_symmetry_multiplicity
 _atom_site_fract_x
 _atom_site_fract_y
 _atom_site_fract_z
 _atom_site_occupancy
  Ho  Ho0  1  0.334346  0.666937  0.000000  1
  Ho  Ho1  1  0.667411  0.333063  0.000000  1
  Ho  Ho2  1  0.181193  0.000000  0.500000  1
  Ho  Ho3  1  0.000383  0.188209  0.500000  1
  Ho  Ho4  1  0.812174  0.811791  0.500000  1
  Co  Co5  1  0.198901  0.378585  0.000000  1
  Co  Co6  1  0.624635  0.821912  0.000000  1
  Co  Co7  1  0.170132  0.790900  0.000000  1
  Co  Co8  1  0.820317  0.621415  0.000000  1
  Co  Co9  1  0.802723  0.178088  0.000000  1
  Co  Co10  1  0.379232  0.209100  0.000000  1
  Co  Co11  1  0.561396  0.000000  0.000000  1
  Co  Co12  1  0.994994  0.549082  0.000000  1
  Co  Co13  1  0.445913  0.450918  0.000000  1
  Co  Co14  1  0.124138  0.482897  0.500000  1
  Co  Co15  1  0.516570  0.642205  0.500000  1
  Co  Co16  1  0.357740  0.867410  0.500000  1
  Co  Co17  1  0.641241  0.517103  0.500000  1
  Co  Co18  1  0.874366  0.357795  0.500000  1
  Co  Co19  1  0.490330  0.132590  0.500000  1
  Co  Co20  1  0.717882  0.000000  0.500000  1
  Co  Co21  1  0.997067  0.712490  0.500000  1
  Co  Co22  1  0.284577  0.287510  0.500000  1
  Co  Co23  1  0.001671  0.000000  0.000000  1
  Ge  Ge24  1  0.366729  0.000000  0.000000  1
  P  P25  1  0.999955  0.367991  0.000000  1
  P  P26  1  0.631964  0.632009  0.000000  1
  P  P27  1  0.313744  0.481409  0.500000  1
  P  P28  1  0.522115  0.834434  0.500000  1
  P  P29  1  0.164877  0.684064  0.500000  1
  P  P30  1  0.832336  0.518591  0.500000  1
  P  P31  1  0.687681  0.165566  0.500000  1
  P  P32  1  0.480814  0.315936  0.500000  1
  P  P33  1  0.821261  0.000000  0.000000  1
  P  P34  1  0.998219  0.817244  0.000000  1
  P  P35  1  0.180975  0.182756  0.000000  1
