# generated using pymatgen
data_Dy3Er(Tl2Cl5)4
_symmetry_space_group_name_H-M   'P 1'
_cell_length_a   8.27338782
_cell_length_b   8.55677600
_cell_length_c   13.09495100
_cell_angle_alpha   90.00000000
_cell_angle_beta   89.96203545
_cell_angle_gamma   90.00000000
_symmetry_Int_Tables_number   1
_chemical_formula_structural   Dy3Er(Tl2Cl5)4
_chemical_formula_sum   'Dy3 Er1 Tl8 Cl20'
_cell_volume   927.03755457
_cell_formula_units_Z   1
loop_
 _symmetry_equiv_pos_site_id
 _symmetry_equiv_pos_as_xyz
  1  'x, y, z'
loop_
 _atom_site_type_symbol
 _atom_site_label
 _atom_site_symmetry_multiplicity
 _atom_site_fract_x
 _atom_site_fract_y
 _atom_site_fract_z
 _atom_site_occupancy
  Dy  Dy0  1  0.927897  0.750000  0.503704  1
  Dy  Dy1  1  0.072128  0.250000  0.496275  1
  Dy  Dy2  1  0.428086  0.250000  0.996327  1
  Er  Er3  1  0.571751  0.750000  0.003502  1
  Tl  Tl4  1  0.947404  0.004136  0.827542  1
  Tl  Tl5  1  0.052417  0.995653  0.172480  1
  Tl  Tl6  1  0.447516  0.995750  0.672643  1
  Tl  Tl7  1  0.052417  0.504347  0.172480  1
  Tl  Tl8  1  0.552527  0.004174  0.327338  1
  Tl  Tl9  1  0.947404  0.495864  0.827542  1
  Tl  Tl10  1  0.552527  0.495826  0.327338  1
  Tl  Tl11  1  0.447516  0.504250  0.672643  1
  Cl  Cl12  1  0.106095  0.750000  0.675544  1
  Cl  Cl13  1  0.893883  0.250000  0.324447  1
  Cl  Cl14  1  0.606109  0.250000  0.824408  1
  Cl  Cl15  1  0.395328  0.750000  0.174282  1
  Cl  Cl16  1  0.840719  0.044548  0.570056  1
  Cl  Cl17  1  0.159302  0.955446  0.429936  1
  Cl  Cl18  1  0.341736  0.954455  0.930385  1
  Cl  Cl19  1  0.159302  0.544554  0.429936  1
  Cl  Cl20  1  0.658797  0.043170  0.069644  1
  Cl  Cl21  1  0.840719  0.455452  0.570056  1
  Cl  Cl22  1  0.658797  0.456830  0.069644  1
  Cl  Cl23  1  0.341736  0.545545  0.930385  1
  Cl  Cl24  1  0.597379  0.750000  0.510989  1
  Cl  Cl25  1  0.402620  0.250000  0.489074  1
  Cl  Cl26  1  0.097621  0.250000  0.989008  1
  Cl  Cl27  1  0.900676  0.750000  0.010990  1
  Cl  Cl28  1  0.654199  0.750000  0.806316  1
  Cl  Cl29  1  0.345314  0.250000  0.195047  1
  Cl  Cl30  1  0.154775  0.250000  0.695019  1
  Cl  Cl31  1  0.845304  0.750000  0.305020  1
