# generated using pymatgen
data_NdMgIn3Rh
_symmetry_space_group_name_H-M   'P 1'
_cell_length_a   4.36358000
_cell_length_b   7.55886900
_cell_length_c   8.32094700
_cell_angle_alpha   90.00000000
_cell_angle_beta   90.00000000
_cell_angle_gamma   90.00000000
_symmetry_Int_Tables_number   1
_chemical_formula_structural   NdMgIn3Rh
_chemical_formula_sum   'Nd2 Mg2 In6 Rh2'
_cell_volume   274.45586579
_cell_formula_units_Z   2
loop_
 _symmetry_equiv_pos_site_id
 _symmetry_equiv_pos_as_xyz
  1  'x, y, z'
loop_
 _atom_site_type_symbol
 _atom_site_label
 _atom_site_symmetry_multiplicity
 _atom_site_fract_x
 _atom_site_fract_y
 _atom_site_fract_z
 _atom_site_occupancy
  Nd  Nd0  1  0.000000  0.397057  0.250000  1
  Nd  Nd1  1  0.000000  0.602943  0.750000  1
  Mg  Mg2  1  0.000000  0.000000  0.000000  1
  Mg  Mg3  1  0.000000  0.000000  0.500000  1
  In  In4  1  0.500000  0.055139  0.250000  1
  In  In5  1  0.500000  0.944861  0.750000  1
  In  In6  1  0.500000  0.692366  0.055883  1
  In  In7  1  0.500000  0.307634  0.944117  1
  In  In8  1  0.500000  0.692366  0.444117  1
  In  In9  1  0.500000  0.307634  0.555883  1
  Rh  Rh10  1  0.000000  0.792970  0.250000  1
  Rh  Rh11  1  0.000000  0.207030  0.750000  1
