# generated using pymatgen
data_Sm2CuNi7B2
_symmetry_space_group_name_H-M   'P 1'
_cell_length_a   5.05484604
_cell_length_b   5.06000916
_cell_length_c   6.97381200
_cell_angle_alpha   90.00000000
_cell_angle_beta   90.00000000
_cell_angle_gamma   119.95183153
_symmetry_Int_Tables_number   1
_chemical_formula_structural   Sm2CuNi7B2
_chemical_formula_sum   'Sm2 Cu1 Ni7 B2'
_cell_volume   154.55059971
_cell_formula_units_Z   1
loop_
 _symmetry_equiv_pos_site_id
 _symmetry_equiv_pos_as_xyz
  1  'x, y, z'
loop_
 _atom_site_type_symbol
 _atom_site_label
 _atom_site_symmetry_multiplicity
 _atom_site_fract_x
 _atom_site_fract_y
 _atom_site_fract_z
 _atom_site_occupancy
  Sm  Sm0  1  0.999996  0.000016  0.000000  1
  Sm  Sm1  1  0.999983  0.999939  0.500000  1
  Cu  Cu2  1  0.333204  0.666618  0.000000  1
  Ni  Ni3  1  0.666699  0.333462  0.000000  1
  Ni  Ni4  1  0.500803  0.001754  0.295208  1
  Ni  Ni5  1  0.501040  0.499088  0.295186  1
  Ni  Ni6  1  0.998125  0.499160  0.295293  1
  Ni  Ni7  1  0.500803  0.001754  0.704792  1
  Ni  Ni8  1  0.501040  0.499088  0.704814  1
  Ni  Ni9  1  0.998125  0.499160  0.704707  1
  B  B10  1  0.333310  0.666654  0.500000  1
  B  B11  1  0.666668  0.333307  0.500000  1
