# generated using pymatgen
data_DyY15(InRh)4
_symmetry_space_group_name_H-M   'P 1'
_cell_length_a   9.71817118
_cell_length_b   9.69688295
_cell_length_c   9.69688400
_cell_angle_alpha   60.00000325
_cell_angle_beta   60.07243992
_cell_angle_gamma   60.07243970
_symmetry_Int_Tables_number   1
_chemical_formula_structural   DyY15(InRh)4
_chemical_formula_sum   'Dy1 Y15 In4 Rh4'
_cell_volume   646.85742166
_cell_formula_units_Z   1
loop_
 _symmetry_equiv_pos_site_id
 _symmetry_equiv_pos_as_xyz
  1  'x, y, z'
loop_
 _atom_site_type_symbol
 _atom_site_label
 _atom_site_symmetry_multiplicity
 _atom_site_fract_x
 _atom_site_fract_y
 _atom_site_fract_z
 _atom_site_occupancy
  Dy  Dy0  1  0.551265  0.149578  0.149578  1
  Y  Y1  1  0.688141  0.311744  0.311744  1
  Y  Y2  1  0.688141  0.688371  0.311744  1
  Y  Y3  1  0.311015  0.688288  0.312407  1
  Y  Y4  1  0.935673  0.937879  0.563224  1
  Y  Y5  1  0.149628  0.150267  0.549837  1
  Y  Y6  1  0.561086  0.938618  0.561678  1
  Y  Y7  1  0.149628  0.150267  0.150267  1
  Y  Y8  1  0.311015  0.312407  0.688288  1
  Y  Y9  1  0.935673  0.563224  0.563224  1
  Y  Y10  1  0.561086  0.561678  0.938618  1
  Y  Y11  1  0.561086  0.938618  0.938618  1
  Y  Y12  1  0.935673  0.563224  0.937879  1
  Y  Y13  1  0.149628  0.549837  0.150267  1
  Y  Y14  1  0.311015  0.688288  0.688288  1
  Y  Y15  1  0.688141  0.311744  0.688371  1
  In  In16  1  0.918008  0.916181  0.249631  1
  In  In17  1  0.250026  0.916658  0.916658  1
  In  In18  1  0.918008  0.249631  0.916181  1
  In  In19  1  0.918008  0.916181  0.916181  1
  Rh  Rh20  1  0.360153  0.355354  0.355354  1
  Rh  Rh21  1  0.927592  0.357470  0.357470  1
  Rh  Rh22  1  0.360153  0.355354  0.929140  1
  Rh  Rh23  1  0.360153  0.929140  0.355354  1
