# generated using pymatgen
data_Tb3Dy(LuSi2)2
_symmetry_space_group_name_H-M   'P 1'
_cell_length_a   7.39399144
_cell_length_b   7.39399144
_cell_length_c   4.24547500
_cell_angle_alpha   90.00000000
_cell_angle_beta   90.00000000
_cell_angle_gamma   90.07142996
_symmetry_Int_Tables_number   1
_chemical_formula_structural   Tb3Dy(LuSi2)2
_chemical_formula_sum   'Tb3 Dy1 Lu2 Si4'
_cell_volume   232.10464765
_cell_formula_units_Z   1
loop_
 _symmetry_equiv_pos_site_id
 _symmetry_equiv_pos_as_xyz
  1  'x, y, z'
loop_
 _atom_site_type_symbol
 _atom_site_label
 _atom_site_symmetry_multiplicity
 _atom_site_fract_x
 _atom_site_fract_y
 _atom_site_fract_z
 _atom_site_occupancy
  Tb  Tb0  1  0.675505  0.175505  0.500000  1
  Tb  Tb1  1  0.175734  0.324400  0.500000  1
  Tb  Tb2  1  0.824400  0.675734  0.500000  1
  Dy  Dy3  1  0.324450  0.824450  0.500000  1
  Lu  Lu4  1  0.000120  0.999866  0.000000  1
  Lu  Lu5  1  0.499866  0.500120  0.000000  1
  Si  Si6  1  0.617126  0.882436  0.000000  1
  Si  Si7  1  0.382436  0.117126  0.000000  1
  Si  Si8  1  0.882427  0.382427  0.000000  1
  Si  Si9  1  0.117937  0.617937  0.000000  1
