# generated using pymatgen
data_TbPa(Al5Fe)4
_symmetry_space_group_name_H-M   'P 1'
_cell_length_a   6.77196161
_cell_length_b   6.77196138
_cell_length_c   8.97999300
_cell_angle_alpha   90.00000000
_cell_angle_beta   90.00000000
_cell_angle_gamma   97.75878101
_symmetry_Int_Tables_number   1
_chemical_formula_structural   TbPa(Al5Fe)4
_chemical_formula_sum   'Tb1 Pa1 Al20 Fe4'
_cell_volume   408.04755181
_cell_formula_units_Z   1
loop_
 _symmetry_equiv_pos_site_id
 _symmetry_equiv_pos_as_xyz
  1  'x, y, z'
loop_
 _atom_site_type_symbol
 _atom_site_label
 _atom_site_symmetry_multiplicity
 _atom_site_fract_x
 _atom_site_fract_y
 _atom_site_fract_z
 _atom_site_occupancy
  Tb  Tb0  1  0.127525  0.872475  0.250000  1
  Pa  Pa1  1  0.874043  0.125957  0.750000  1
  Al  Al2  1  0.412543  0.136896  0.750000  1
  Al  Al3  1  0.136931  0.415918  0.250000  1
  Al  Al4  1  0.584082  0.863069  0.250000  1
  Al  Al5  1  0.863104  0.587457  0.750000  1
  Al  Al6  1  0.519995  0.780094  0.750000  1
  Al  Al7  1  0.780205  0.520863  0.250000  1
  Al  Al8  1  0.479137  0.219795  0.250000  1
  Al  Al9  1  0.219906  0.480005  0.750000  1
  Al  Al10  1  0.842306  0.157694  0.401099  1
  Al  Al11  1  0.156639  0.843361  0.598075  1
  Al  Al12  1  0.842306  0.157694  0.098901  1
  Al  Al13  1  0.156639  0.843361  0.901925  1
  Al  Al14  1  0.624901  0.375099  0.952015  1
  Al  Al15  1  0.373650  0.626350  0.046923  1
  Al  Al16  1  0.624901  0.375099  0.547985  1
  Al  Al17  1  0.373650  0.626350  0.453077  1
  Al  Al18  1  0.772702  0.771723  0.000335  1
  Al  Al19  1  0.772702  0.771723  0.499665  1
  Al  Al20  1  0.228276  0.227298  0.000335  1
  Al  Al21  1  0.228276  0.227298  0.499665  1
  Fe  Fe22  1  0.504521  0.001730  0.997284  1
  Fe  Fe23  1  0.998270  0.495479  0.997284  1
  Fe  Fe24  1  0.504521  0.001730  0.502716  1
  Fe  Fe25  1  0.998270  0.495479  0.502716  1
