# generated using pymatgen
data_Tm4Al18ZnIr5
_symmetry_space_group_name_H-M   'P 1'
_cell_length_a   7.57746158
_cell_length_b   7.57746159
_cell_length_c   9.41190021
_cell_angle_alpha   89.98812734
_cell_angle_beta   89.98812751
_cell_angle_gamma   119.72895526
_symmetry_Int_Tables_number   1
_chemical_formula_structural   Tm4Al18ZnIr5
_chemical_formula_sum   'Tm4 Al18 Zn1 Ir5'
_cell_volume   469.28328342
_cell_formula_units_Z   1
loop_
 _symmetry_equiv_pos_site_id
 _symmetry_equiv_pos_as_xyz
  1  'x, y, z'
loop_
 _atom_site_type_symbol
 _atom_site_label
 _atom_site_symmetry_multiplicity
 _atom_site_fract_x
 _atom_site_fract_y
 _atom_site_fract_z
 _atom_site_occupancy
  Tm  Tm0  1  0.992526  0.668073  0.250576  1
  Tm  Tm1  1  0.001969  0.328901  0.749623  1
  Tm  Tm2  1  0.671099  0.998031  0.250377  1
  Tm  Tm3  1  0.331927  0.007474  0.749424  1
  Al  Al4  1  0.127215  0.125189  0.251563  1
  Al  Al5  1  0.874811  0.872785  0.748437  1
  Al  Al6  1  0.009981  0.335485  0.079275  1
  Al  Al7  1  0.007517  0.674038  0.921192  1
  Al  Al8  1  0.001817  0.664908  0.572805  1
  Al  Al9  1  0.335092  0.998183  0.427195  1
  Al  Al10  1  0.999731  0.334523  0.425433  1
  Al  Al11  1  0.665477  0.000269  0.574567  1
  Al  Al12  1  0.664515  0.990019  0.920725  1
  Al  Al13  1  0.325962  0.992483  0.078808  1
  Al  Al14  1  0.331276  0.331403  0.551219  1
  Al  Al15  1  0.668597  0.668724  0.448781  1
  Al  Al16  1  0.666181  0.672421  0.061017  1
  Al  Al17  1  0.327579  0.333819  0.938983  1
  Al  Al18  1  0.340848  0.551015  0.251799  1
  Al  Al19  1  0.660284  0.455874  0.742924  1
  Al  Al20  1  0.544126  0.339716  0.257076  1
  Al  Al21  1  0.448985  0.659152  0.748201  1
  Zn  Zn22  1  0.673642  0.326358  0.000000  1
  Ir  Ir23  1  0.328462  0.671538  0.000000  1
  Ir  Ir24  1  0.328287  0.671713  0.500000  1
  Ir  Ir25  1  0.672534  0.327466  0.500000  1
  Ir  Ir26  1  0.999280  0.000720  0.000000  1
  Ir  Ir27  1  0.000278  0.999722  0.500000  1
