# generated using pymatgen
data_Tb2Al20IrRu3
_symmetry_space_group_name_H-M   'P 1'
_cell_length_a   6.86355717
_cell_length_b   6.86762975
_cell_length_c   9.17334604
_cell_angle_alpha   90.06866555
_cell_angle_beta   90.02525638
_cell_angle_gamma   96.68424698
_symmetry_Int_Tables_number   1
_chemical_formula_structural   Tb2Al20IrRu3
_chemical_formula_sum   'Tb2 Al20 Ir1 Ru3'
_cell_volume   429.45870161
_cell_formula_units_Z   1
loop_
 _symmetry_equiv_pos_site_id
 _symmetry_equiv_pos_as_xyz
  1  'x, y, z'
loop_
 _atom_site_type_symbol
 _atom_site_label
 _atom_site_symmetry_multiplicity
 _atom_site_fract_x
 _atom_site_fract_y
 _atom_site_fract_z
 _atom_site_occupancy
  Tb  Tb0  1  0.871549  0.127020  0.750256  1
  Tb  Tb1  1  0.128451  0.872980  0.249744  1
  Al  Al2  1  0.620777  0.375957  0.551024  1
  Al  Al3  1  0.379223  0.624043  0.448976  1
  Al  Al4  1  0.377075  0.623415  0.050228  1
  Al  Al5  1  0.622925  0.376585  0.949772  1
  Al  Al6  1  0.227198  0.224384  0.498890  1
  Al  Al7  1  0.772802  0.775616  0.501110  1
  Al  Al8  1  0.773791  0.774312  0.000472  1
  Al  Al9  1  0.226209  0.225688  0.999528  1
  Al  Al10  1  0.843569  0.157119  0.100243  1
  Al  Al11  1  0.156431  0.842881  0.899757  1
  Al  Al12  1  0.158034  0.844796  0.601679  1
  Al  Al13  1  0.841966  0.155204  0.398321  1
  Al  Al14  1  0.857913  0.587469  0.751470  1
  Al  Al15  1  0.142087  0.412531  0.248530  1
  Al  Al16  1  0.413562  0.141340  0.750342  1
  Al  Al17  1  0.586438  0.858660  0.249658  1
  Al  Al18  1  0.221972  0.481186  0.752160  1
  Al  Al19  1  0.778028  0.518814  0.247840  1
  Al  Al20  1  0.518659  0.779040  0.749725  1
  Al  Al21  1  0.481341  0.220960  0.250275  1
  Ir  Ir22  1  0.000000  0.500000  0.500000  1
  Ru  Ru23  1  0.000000  0.500000  0.000000  1
  Ru  Ru24  1  0.500000  0.000000  0.000000  1
  Ru  Ru25  1  0.500000  0.000000  0.500000  1
