# generated using pymatgen
data_Tm2Al16RuPt8
_symmetry_space_group_name_H-M   'P 1'
_cell_length_a   11.12047294
_cell_length_b   11.12047262
_cell_length_c   11.12047253
_cell_angle_alpha   158.47795505
_cell_angle_beta   116.43523082
_cell_angle_gamma   67.94710716
_symmetry_Int_Tables_number   1
_chemical_formula_structural   Tm2Al16RuPt8
_chemical_formula_sum   'Tm2 Al16 Ru1 Pt8'
_cell_volume   448.61366039
_cell_formula_units_Z   1
loop_
 _symmetry_equiv_pos_site_id
 _symmetry_equiv_pos_as_xyz
  1  'x, y, z'
loop_
 _atom_site_type_symbol
 _atom_site_label
 _atom_site_symmetry_multiplicity
 _atom_site_fract_x
 _atom_site_fract_y
 _atom_site_fract_z
 _atom_site_occupancy
  Tm  Tm0  1  0.229229  0.229386  0.999843  1
  Tm  Tm1  1  0.770457  0.770614  0.999843  1
  Al  Al2  1  0.272529  0.390298  0.882231  1
  Al  Al3  1  0.089110  0.922794  0.166316  1
  Al  Al4  1  0.508272  0.202797  0.305477  1
  Al  Al5  1  0.243521  0.077206  0.166316  1
  Al  Al6  1  0.909832  0.415417  0.494415  1
  Al  Al7  1  0.725911  0.601808  0.124104  1
  Al  Al8  1  0.899621  0.207623  0.691998  1
  Al  Al9  1  0.484377  0.792377  0.691998  1
  Al  Al10  1  0.388709  0.000000  0.388709  1
  Al  Al11  1  0.625903  0.000000  0.625903  1
  Al  Al12  1  0.491934  0.609702  0.882231  1
  Al  Al13  1  0.102680  0.797203  0.305477  1
  Al  Al14  1  0.905244  0.083626  0.821618  1
  Al  Al15  1  0.737992  0.916374  0.821618  1
  Al  Al16  1  0.522296  0.398192  0.124104  1
  Al  Al17  1  0.078998  0.584583  0.494415  1
  Ru  Ru18  1  0.776028  0.500000  0.276028  1
  Pt  Pt19  1  0.021554  0.341753  0.679802  1
  Pt  Pt20  1  0.630017  0.127925  0.502092  1
  Pt  Pt21  1  0.255111  0.500000  0.755111  1
  Pt  Pt22  1  0.374167  0.872075  0.502092  1
  Pt  Pt23  1  0.987310  0.000000  0.987310  1
  Pt  Pt24  1  0.652193  0.336620  0.315573  1
  Pt  Pt25  1  0.338049  0.658247  0.679802  1
  Pt  Pt26  1  0.978954  0.663380  0.315573  1
