# generated using pymatgen
data_Ca3TmLu4(B6Os)4
_symmetry_space_group_name_H-M   'P 1'
_cell_length_a   3.60869900
_cell_length_b   9.09791259
_cell_length_c   11.49477900
_cell_angle_alpha   89.95015148
_cell_angle_beta   90.00000000
_cell_angle_gamma   90.00000000
_symmetry_Int_Tables_number   1
_chemical_formula_structural   Ca3TmLu4(B6Os)4
_chemical_formula_sum   'Ca3 Tm1 Lu4 B24 Os4'
_cell_volume   377.39216597
_cell_formula_units_Z   1
loop_
 _symmetry_equiv_pos_site_id
 _symmetry_equiv_pos_as_xyz
  1  'x, y, z'
loop_
 _atom_site_type_symbol
 _atom_site_label
 _atom_site_symmetry_multiplicity
 _atom_site_fract_x
 _atom_site_fract_y
 _atom_site_fract_z
 _atom_site_occupancy
  Ca  Ca0  1  0.000000  0.323510  0.414714  1
  Ca  Ca1  1  0.000000  0.676323  0.585141  1
  Ca  Ca2  1  0.000000  0.822215  0.085767  1
  Tm  Tm3  1  0.000000  0.176261  0.914842  1
  Lu  Lu4  1  0.000000  0.942199  0.367848  1
  Lu  Lu5  1  0.000000  0.057290  0.630651  1
  Lu  Lu6  1  0.000000  0.443482  0.131060  1
  Lu  Lu7  1  0.000000  0.557700  0.869337  1
  B  B8  1  0.500000  0.553560  0.432715  1
  B  B9  1  0.500000  0.445391  0.568590  1
  B  B10  1  0.500000  0.054846  0.066045  1
  B  B11  1  0.500000  0.946743  0.933035  1
  B  B12  1  0.500000  0.750202  0.417007  1
  B  B13  1  0.500000  0.249625  0.583507  1
  B  B14  1  0.500000  0.250379  0.080943  1
  B  B15  1  0.500000  0.750470  0.917593  1
  B  B16  1  0.500000  0.792055  0.264179  1
  B  B17  1  0.500000  0.207170  0.736879  1
  B  B18  1  0.500000  0.292295  0.233891  1
  B  B19  1  0.500000  0.709027  0.765536  1
  B  B20  1  0.500000  0.630417  0.185285  1
  B  B21  1  0.500000  0.368526  0.816468  1
  B  B22  1  0.500000  0.130691  0.313469  1
  B  B23  1  0.500000  0.870133  0.685236  1
  B  B24  1  0.500000  0.982888  0.211025  1
  B  B25  1  0.500000  0.018168  0.788278  1
  B  B26  1  0.500000  0.483073  0.287687  1
  B  B27  1  0.500000  0.516129  0.713296  1
  B  B28  1  0.500000  0.597704  0.026845  1
  B  B29  1  0.500000  0.400502  0.972799  1
  B  B30  1  0.500000  0.096093  0.473235  1
  B  B31  1  0.500000  0.904077  0.525981  1
  Os  Os32  1  0.000000  0.639575  0.319638  1
  Os  Os33  1  0.000000  0.358396  0.682800  1
  Os  Os34  1  0.000000  0.139705  0.178751  1
  Os  Os35  1  0.000000  0.863180  0.819932  1
