# generated using pymatgen
data_Ho17Hf2SnIr12
_symmetry_space_group_name_H-M   'P 1'
_cell_length_a   10.82367900
_cell_length_b   10.82367900
_cell_length_c   6.25306700
_cell_angle_alpha   90.00000000
_cell_angle_beta   90.00000000
_cell_angle_gamma   90.00000000
_symmetry_Int_Tables_number   1
_chemical_formula_structural   Ho17Hf2SnIr12
_chemical_formula_sum   'Ho17 Hf2 Sn1 Ir12'
_cell_volume   732.55947461
_cell_formula_units_Z   1
loop_
 _symmetry_equiv_pos_site_id
 _symmetry_equiv_pos_as_xyz
  1  'x, y, z'
loop_
 _atom_site_type_symbol
 _atom_site_label
 _atom_site_symmetry_multiplicity
 _atom_site_fract_x
 _atom_site_fract_y
 _atom_site_fract_z
 _atom_site_occupancy
  Ho  Ho0  1  0.286614  0.084178  0.378467  1
  Ho  Ho1  1  0.292393  0.911821  0.878809  1
  Ho  Ho2  1  0.707607  0.088179  0.878809  1
  Ho  Ho3  1  0.713386  0.915822  0.378467  1
  Ho  Ho4  1  0.587385  0.788650  0.878060  1
  Ho  Ho5  1  0.586377  0.210842  0.375057  1
  Ho  Ho6  1  0.413623  0.789158  0.375057  1
  Ho  Ho7  1  0.412615  0.211350  0.878060  1
  Ho  Ho8  1  0.210842  0.413623  0.624943  1
  Ho  Ho9  1  0.211350  0.587385  0.121940  1
  Ho  Ho10  1  0.788650  0.412615  0.121940  1
  Ho  Ho11  1  0.789158  0.586377  0.624943  1
  Ho  Ho12  1  0.911821  0.707607  0.121191  1
  Ho  Ho13  1  0.915822  0.286614  0.621533  1
  Ho  Ho14  1  0.084178  0.713386  0.621533  1
  Ho  Ho15  1  0.088179  0.292393  0.121191  1
  Ho  Ho16  1  0.000000  0.000000  0.000000  1
  Hf  Hf17  1  0.500000  0.500000  0.000000  1
  Hf  Hf18  1  0.500000  0.500000  0.500000  1
  Sn  Sn19  1  0.000000  0.000000  0.500000  1
  Ir  Ir20  1  0.845674  0.156810  0.247106  1
  Ir  Ir21  1  0.843190  0.845674  0.752894  1
  Ir  Ir22  1  0.156810  0.154326  0.752894  1
  Ir  Ir23  1  0.154326  0.843190  0.247106  1
  Ir  Ir24  1  0.642840  0.358381  0.747101  1
  Ir  Ir25  1  0.641619  0.642840  0.252899  1
  Ir  Ir26  1  0.358381  0.357160  0.252899  1
  Ir  Ir27  1  0.357160  0.641619  0.747101  1
  Ir  Ir28  1  0.500000  0.000000  0.125160  1
  Ir  Ir29  1  0.500000  0.000000  0.621572  1
  Ir  Ir30  1  0.000000  0.500000  0.874840  1
  Ir  Ir31  1  0.000000  0.500000  0.378428  1
