# generated using pymatgen
data_Pr20Ru5Rh7
_symmetry_space_group_name_H-M   'P 1'
_cell_length_a   11.30629153
_cell_length_b   11.30629153
_cell_length_c   6.62648995
_cell_angle_alpha   89.91175145
_cell_angle_beta   89.91175145
_cell_angle_gamma   89.97864172
_symmetry_Int_Tables_number   1
_chemical_formula_structural   Pr20Ru5Rh7
_chemical_formula_sum   'Pr20 Ru5 Rh7'
_cell_volume   847.07690760
_cell_formula_units_Z   1
loop_
 _symmetry_equiv_pos_site_id
 _symmetry_equiv_pos_as_xyz
  1  'x, y, z'
loop_
 _atom_site_type_symbol
 _atom_site_label
 _atom_site_symmetry_multiplicity
 _atom_site_fract_x
 _atom_site_fract_y
 _atom_site_fract_z
 _atom_site_occupancy
  Pr  Pr0  1  0.294613  0.088910  0.382300  1
  Pr  Pr1  1  0.293123  0.911473  0.882786  1
  Pr  Pr2  1  0.707783  0.089557  0.885496  1
  Pr  Pr3  1  0.706671  0.913521  0.382204  1
  Pr  Pr4  1  0.588607  0.794354  0.882494  1
  Pr  Pr5  1  0.590548  0.206177  0.383186  1
  Pr  Pr6  1  0.411803  0.793970  0.383017  1
  Pr  Pr7  1  0.411922  0.205529  0.882362  1
  Pr  Pr8  1  0.205646  0.411393  0.617506  1
  Pr  Pr9  1  0.206030  0.588197  0.116983  1
  Pr  Pr10  1  0.793823  0.409452  0.116814  1
  Pr  Pr11  1  0.794471  0.588078  0.617638  1
  Pr  Pr12  1  0.911090  0.705387  0.117700  1
  Pr  Pr13  1  0.910443  0.292217  0.614504  1
  Pr  Pr14  1  0.088527  0.706877  0.617214  1
  Pr  Pr15  1  0.086479  0.293329  0.117796  1
  Pr  Pr16  1  0.999349  0.001272  0.500323  1
  Pr  Pr17  1  0.998728  0.000651  0.999677  1
  Pr  Pr18  1  0.499893  0.499666  0.000450  1
  Pr  Pr19  1  0.500334  0.500107  0.499550  1
  Ru  Ru20  1  0.849273  0.150727  0.250000  1
  Ru  Ru21  1  0.499373  0.999542  0.120219  1
  Ru  Ru22  1  0.499310  0.999779  0.620875  1
  Ru  Ru23  1  0.000221  0.500690  0.879125  1
  Ru  Ru24  1  0.000458  0.500627  0.379781  1
  Rh  Rh25  1  0.846570  0.846172  0.750177  1
  Rh  Rh26  1  0.153828  0.153430  0.749823  1
  Rh  Rh27  1  0.152231  0.847769  0.250000  1
  Rh  Rh28  1  0.650966  0.349034  0.750000  1
  Rh  Rh29  1  0.652195  0.652348  0.249869  1
  Rh  Rh30  1  0.347652  0.347805  0.250131  1
  Rh  Rh31  1  0.348041  0.651959  0.750000  1
