# generated using pymatgen
data_Er16Mg3CdPd4
_symmetry_space_group_name_H-M   'P 1'
_cell_length_a   9.64362689
_cell_length_b   9.67634875
_cell_length_c   9.67635000
_cell_angle_alpha   60.00000257
_cell_angle_beta   59.88769589
_cell_angle_gamma   59.88769706
_symmetry_Int_Tables_number   1
_chemical_formula_structural   Er16Mg3CdPd4
_chemical_formula_sum   'Er16 Mg3 Cd1 Pd4'
_cell_volume   637.39580567
_cell_formula_units_Z   1
loop_
 _symmetry_equiv_pos_site_id
 _symmetry_equiv_pos_as_xyz
  1  'x, y, z'
loop_
 _atom_site_type_symbol
 _atom_site_label
 _atom_site_symmetry_multiplicity
 _atom_site_fract_x
 _atom_site_fract_y
 _atom_site_fract_z
 _atom_site_occupancy
  Er  Er0  1  0.351974  0.353133  0.353133  1
  Er  Er1  1  0.351974  0.353133  0.941759  1
  Er  Er2  1  0.351974  0.941759  0.353133  1
  Er  Er3  1  0.943968  0.352010  0.352010  1
  Er  Er4  1  0.812511  0.187657  0.187657  1
  Er  Er5  1  0.188532  0.811543  0.811543  1
  Er  Er6  1  0.188532  0.811543  0.188381  1
  Er  Er7  1  0.812511  0.187657  0.812176  1
  Er  Er8  1  0.188532  0.188381  0.811543  1
  Er  Er9  1  0.812511  0.812176  0.187657  1
  Er  Er10  1  0.934911  0.566904  0.566904  1
  Er  Er11  1  0.567225  0.932646  0.932646  1
  Er  Er12  1  0.567225  0.932646  0.567483  1
  Er  Er13  1  0.934911  0.566904  0.931282  1
  Er  Er14  1  0.567225  0.567483  0.932646  1
  Er  Er15  1  0.934911  0.931282  0.566904  1
  Mg  Mg16  1  0.579205  0.580921  0.580921  1
  Mg  Mg17  1  0.579205  0.580921  0.258953  1
  Mg  Mg18  1  0.579205  0.258953  0.580921  1
  Cd  Cd19  1  0.253026  0.582324  0.582324  1
  Pd  Pd20  1  0.144369  0.144266  0.144266  1
  Pd  Pd21  1  0.144369  0.144266  0.567098  1
  Pd  Pd22  1  0.144369  0.567098  0.144266  1
  Pd  Pd23  1  0.566823  0.144392  0.144392  1
