# generated using pymatgen
data_K2Eu3(InI4)3
_symmetry_space_group_name_H-M   'P 1'
_cell_length_a   14.58167700
_cell_length_b   14.58167837
_cell_length_c   4.71554700
_cell_angle_alpha   90.00000000
_cell_angle_beta   90.00000000
_cell_angle_gamma   119.99999917
_symmetry_Int_Tables_number   1
_chemical_formula_structural   K2Eu3(InI4)3
_chemical_formula_sum   'K2 Eu3 In3 I12'
_cell_volume   868.31579616
_cell_formula_units_Z   1
loop_
 _symmetry_equiv_pos_site_id
 _symmetry_equiv_pos_as_xyz
  1  'x, y, z'
loop_
 _atom_site_type_symbol
 _atom_site_label
 _atom_site_symmetry_multiplicity
 _atom_site_fract_x
 _atom_site_fract_y
 _atom_site_fract_z
 _atom_site_occupancy
  K  K0  1  0.666667  0.333333  0.500000  1
  K  K1  1  0.333333  0.666667  0.500000  1
  Eu  Eu2  1  0.323917  0.000000  0.000000  1
  Eu  Eu3  1  0.000000  0.323917  0.000000  1
  Eu  Eu4  1  0.676083  0.676083  0.000000  1
  In  In5  1  0.712869  0.000000  0.500000  1
  In  In6  1  0.287131  0.287131  0.500000  1
  In  In7  1  0.000000  0.712869  0.500000  1
  I  I8  1  0.173397  0.000000  0.500000  1
  I  I9  1  0.251231  0.447799  0.000000  1
  I  I10  1  0.552201  0.803433  0.000000  1
  I  I11  1  0.000000  0.173397  0.500000  1
  I  I12  1  0.826603  0.826603  0.500000  1
  I  I13  1  0.000000  0.471507  0.500000  1
  I  I14  1  0.471507  0.000000  0.500000  1
  I  I15  1  0.528493  0.528493  0.500000  1
  I  I16  1  0.748769  0.196567  0.000000  1
  I  I17  1  0.447799  0.251231  0.000000  1
  I  I18  1  0.803433  0.552201  0.000000  1
  I  I19  1  0.196567  0.748769  0.000000  1
