# generated using pymatgen
data_Ce4CuHg2Rh3
_symmetry_space_group_name_H-M   'P 1'
_cell_length_a   7.69647542
_cell_length_b   7.69647500
_cell_length_c   3.72466400
_cell_angle_alpha   90.00000000
_cell_angle_beta   90.00000000
_cell_angle_gamma   89.38207277
_symmetry_Int_Tables_number   1
_chemical_formula_structural   Ce4CuHg2Rh3
_chemical_formula_sum   'Ce4 Cu1 Hg2 Rh3'
_cell_volume   220.62036224
_cell_formula_units_Z   1
loop_
 _symmetry_equiv_pos_site_id
 _symmetry_equiv_pos_as_xyz
  1  'x, y, z'
loop_
 _atom_site_type_symbol
 _atom_site_label
 _atom_site_symmetry_multiplicity
 _atom_site_fract_x
 _atom_site_fract_y
 _atom_site_fract_z
 _atom_site_occupancy
  Ce  Ce0  1  0.675060  0.175060  0.500000  1
  Ce  Ce1  1  0.338752  0.838752  0.500000  1
  Ce  Ce2  1  0.168587  0.317513  0.500000  1
  Ce  Ce3  1  0.817513  0.668587  0.500000  1
  Cu  Cu4  1  0.126840  0.626840  0.000000  1
  Hg  Hg5  1  0.001850  0.991780  0.000000  1
  Hg  Hg6  1  0.491780  0.501850  0.000000  1
  Rh  Rh7  1  0.877537  0.377537  0.000000  1
  Rh  Rh8  1  0.636057  0.866025  0.000000  1
  Rh  Rh9  1  0.366025  0.136057  0.000000  1
