# generated using pymatgen
data_KCrNi(Sb6Os)2
_symmetry_space_group_name_H-M   'P 1'
_cell_length_a   8.13728394
_cell_length_b   8.20071964
_cell_length_c   8.22774061
_cell_angle_alpha   109.74414825
_cell_angle_beta   109.57531356
_cell_angle_gamma   109.33329171
_symmetry_Int_Tables_number   1
_chemical_formula_structural   KCrNi(Sb6Os)2
_chemical_formula_sum   'K1 Cr1 Ni1 Sb12 Os2'
_cell_volume   421.40315545
_cell_formula_units_Z   1
loop_
 _symmetry_equiv_pos_site_id
 _symmetry_equiv_pos_as_xyz
  1  'x, y, z'
loop_
 _atom_site_type_symbol
 _atom_site_label
 _atom_site_symmetry_multiplicity
 _atom_site_fract_x
 _atom_site_fract_y
 _atom_site_fract_z
 _atom_site_occupancy
  K  K0  1  0.000000  0.000000  0.000000  1
  Cr  Cr1  1  0.500000  0.000000  0.000000  1
  Ni  Ni2  1  0.000000  0.000000  0.500000  1
  Sb  Sb3  1  0.844387  0.660446  0.501949  1
  Sb  Sb4  1  0.155613  0.339554  0.498051  1
  Sb  Sb5  1  0.153406  0.653389  0.814672  1
  Sb  Sb6  1  0.846594  0.346611  0.185328  1
  Sb  Sb7  1  0.659593  0.503361  0.842024  1
  Sb  Sb8  1  0.340407  0.496639  0.157976  1
  Sb  Sb9  1  0.662914  0.812608  0.162592  1
  Sb  Sb10  1  0.337086  0.187392  0.837408  1
  Sb  Sb11  1  0.500413  0.840330  0.654063  1
  Sb  Sb12  1  0.499587  0.159670  0.345937  1
  Sb  Sb13  1  0.184224  0.844405  0.342050  1
  Sb  Sb14  1  0.815776  0.155595  0.657950  1
  Os  Os15  1  0.500000  0.500000  0.500000  1
  Os  Os16  1  0.000000  0.500000  0.000000  1
