# generated using pymatgen
data_BeNb8FeTe8
_symmetry_space_group_name_H-M   'P 1'
_cell_length_a   4.85631800
_cell_length_b   10.90460600
_cell_length_c   18.90318600
_cell_angle_alpha   90.00000000
_cell_angle_beta   90.00000000
_cell_angle_gamma   90.00000000
_symmetry_Int_Tables_number   1
_chemical_formula_structural   BeNb8FeTe8
_chemical_formula_sum   'Be2 Nb16 Fe2 Te16'
_cell_volume   1001.04154874
_cell_formula_units_Z   2
loop_
 _symmetry_equiv_pos_site_id
 _symmetry_equiv_pos_as_xyz
  1  'x, y, z'
loop_
 _atom_site_type_symbol
 _atom_site_label
 _atom_site_symmetry_multiplicity
 _atom_site_fract_x
 _atom_site_fract_y
 _atom_site_fract_z
 _atom_site_occupancy
  Be  Be0  1  0.249770  0.500000  0.500000  1
  Be  Be1  1  0.750230  0.000000  0.000000  1
  Nb  Nb2  1  0.496020  0.563637  0.383991  1
  Nb  Nb3  1  0.496020  0.436363  0.616009  1
  Nb  Nb4  1  0.503980  0.063637  0.116009  1
  Nb  Nb5  1  0.503980  0.936363  0.883991  1
  Nb  Nb6  1  0.490992  0.702870  0.536332  1
  Nb  Nb7  1  0.490992  0.297130  0.463668  1
  Nb  Nb8  1  0.509008  0.202870  0.963668  1
  Nb  Nb9  1  0.509008  0.797130  0.036332  1
  Nb  Nb10  1  0.007597  0.688390  0.443291  1
  Nb  Nb11  1  0.007597  0.311610  0.556709  1
  Nb  Nb12  1  0.992403  0.188390  0.056709  1
  Nb  Nb13  1  0.992403  0.811610  0.943291  1
  Nb  Nb14  1  0.005061  0.401558  0.392302  1
  Nb  Nb15  1  0.005061  0.598442  0.607698  1
  Nb  Nb16  1  0.994939  0.901558  0.107698  1
  Nb  Nb17  1  0.994939  0.098442  0.892302  1
  Fe  Fe18  1  0.749865  0.500000  0.500000  1
  Fe  Fe19  1  0.250135  0.000000  0.000000  1
  Te  Te20  1  0.990319  0.847729  0.562934  1
  Te  Te21  1  0.990319  0.152271  0.437066  1
  Te  Te22  1  0.009681  0.347729  0.937066  1
  Te  Te23  1  0.009681  0.652271  0.062934  1
  Te  Te24  1  0.507473  0.332496  0.314692  1
  Te  Te25  1  0.507473  0.667504  0.685308  1
  Te  Te26  1  0.492527  0.832496  0.185308  1
  Te  Te27  1  0.492527  0.167504  0.814692  1
  Te  Te28  1  0.508802  0.822987  0.402398  1
  Te  Te29  1  0.508802  0.177013  0.597602  1
  Te  Te30  1  0.491198  0.322987  0.097602  1
  Te  Te31  1  0.491198  0.677013  0.902398  1
  Te  Te32  1  0.993665  0.607642  0.300195  1
  Te  Te33  1  0.993665  0.392358  0.699805  1
  Te  Te34  1  0.006335  0.107642  0.199805  1
  Te  Te35  1  0.006335  0.892358  0.800195  1
