# generated using pymatgen
data_Er6Al25Ru7
_symmetry_space_group_name_H-M   'P 1'
_cell_length_a   8.83188328
_cell_length_b   8.83188354
_cell_length_c   9.53138225
_cell_angle_alpha   90.16224367
_cell_angle_beta   89.83775589
_cell_angle_gamma   120.00110774
_symmetry_Int_Tables_number   1
_chemical_formula_structural   Er6Al25Ru7
_chemical_formula_sum   'Er6 Al25 Ru7'
_cell_volume   643.85193294
_cell_formula_units_Z   1
loop_
 _symmetry_equiv_pos_site_id
 _symmetry_equiv_pos_as_xyz
  1  'x, y, z'
loop_
 _atom_site_type_symbol
 _atom_site_label
 _atom_site_symmetry_multiplicity
 _atom_site_fract_x
 _atom_site_fract_y
 _atom_site_fract_z
 _atom_site_occupancy
  Er  Er0  1  0.805561  0.194439  0.744864  1
  Er  Er1  1  0.194439  0.805561  0.255136  1
  Er  Er2  1  0.386501  0.194095  0.754201  1
  Er  Er3  1  0.613499  0.805905  0.245799  1
  Er  Er4  1  0.805905  0.613499  0.754201  1
  Er  Er5  1  0.194095  0.386501  0.245799  1
  Al  Al6  1  0.673274  0.326726  0.977548  1
  Al  Al7  1  0.326726  0.673274  0.022452  1
  Al  Al8  1  0.333815  0.666185  0.481476  1
  Al  Al9  1  0.666185  0.333815  0.518524  1
  Al  Al10  1  0.837631  0.162369  0.421019  1
  Al  Al11  1  0.162369  0.837631  0.578981  1
  Al  Al12  1  0.324149  0.161585  0.425279  1
  Al  Al13  1  0.162410  0.837590  0.920599  1
  Al  Al14  1  0.675851  0.838415  0.574721  1
  Al  Al15  1  0.837590  0.162410  0.079401  1
  Al  Al16  1  0.838415  0.675851  0.425279  1
  Al  Al17  1  0.679142  0.852862  0.916914  1
  Al  Al18  1  0.161585  0.324149  0.574721  1
  Al  Al19  1  0.320858  0.147138  0.083086  1
  Al  Al20  1  0.147138  0.320858  0.916914  1
  Al  Al21  1  0.852862  0.679142  0.083086  1
  Al  Al22  1  0.434762  0.565238  0.741306  1
  Al  Al23  1  0.565238  0.434762  0.258694  1
  Al  Al24  1  0.120439  0.561509  0.750920  1
  Al  Al25  1  0.879561  0.438491  0.249080  1
  Al  Al26  1  0.438491  0.879561  0.750920  1
  Al  Al27  1  0.561509  0.120439  0.249080  1
  Al  Al28  1  0.000862  0.999138  0.749344  1
  Al  Al29  1  0.999138  0.000862  0.250656  1
  Al  Al30  1  0.500000  0.500000  0.000000  1
  Ru  Ru31  1  0.000000  0.500000  0.000000  1
  Ru  Ru32  1  0.500000  0.500000  0.500000  1
  Ru  Ru33  1  0.500000  0.000000  0.000000  1
  Ru  Ru34  1  0.000000  0.500000  0.500000  1
  Ru  Ru35  1  0.500000  0.000000  0.500000  1
  Ru  Ru36  1  0.000000  0.000000  0.000000  1
  Ru  Ru37  1  0.000000  0.000000  0.500000  1
