# generated using pymatgen
data_Tb3Ho5Sc11Si16Tc
_symmetry_space_group_name_H-M   'P 1'
_cell_length_a   7.02749421
_cell_length_b   7.35695769
_cell_length_c   13.90132041
_cell_angle_alpha   90.02206540
_cell_angle_beta   89.98331099
_cell_angle_gamma   90.12112795
_symmetry_Int_Tables_number   1
_chemical_formula_structural   Tb3Ho5Sc11Si16Tc
_chemical_formula_sum   'Tb3 Ho5 Sc11 Si16 Tc1'
_cell_volume   718.71016482
_cell_formula_units_Z   1
loop_
 _symmetry_equiv_pos_site_id
 _symmetry_equiv_pos_as_xyz
  1  'x, y, z'
loop_
 _atom_site_type_symbol
 _atom_site_label
 _atom_site_symmetry_multiplicity
 _atom_site_fract_x
 _atom_site_fract_y
 _atom_site_fract_z
 _atom_site_occupancy
  Tb  Tb0  1  0.012174  0.176910  0.406470  1
  Tb  Tb1  1  0.511837  0.324108  0.404420  1
  Tb  Tb2  1  0.487286  0.672077  0.598404  1
  Ho  Ho3  1  0.012413  0.177509  0.093394  1
  Ho  Ho4  1  0.992350  0.818384  0.900744  1
  Ho  Ho5  1  0.486885  0.672456  0.901728  1
  Ho  Ho6  1  0.992632  0.818419  0.600169  1
  Ho  Ho7  1  0.512069  0.323445  0.095391  1
  Sc  Sc8  1  0.841684  0.496747  0.249670  1
  Sc  Sc9  1  0.342142  0.003585  0.249633  1
  Sc  Sc10  1  0.657118  0.996042  0.750215  1
  Sc  Sc11  1  0.325745  0.177942  0.627648  1
  Sc  Sc12  1  0.672554  0.824304  0.374473  1
  Sc  Sc13  1  0.172195  0.674605  0.376609  1
  Sc  Sc14  1  0.672239  0.824080  0.124880  1
  Sc  Sc15  1  0.828014  0.330732  0.628671  1
  Sc  Sc16  1  0.325921  0.178296  0.872766  1
  Sc  Sc17  1  0.827897  0.330542  0.871896  1
  Sc  Sc18  1  0.172274  0.674501  0.122746  1
  Si  Si19  1  0.029176  0.119829  0.750386  1
  Si  Si20  1  0.972764  0.884754  0.249435  1
  Si  Si21  1  0.468953  0.617307  0.249484  1
  Si  Si22  1  0.519193  0.393216  0.750537  1
  Si  Si23  1  0.284224  0.863738  0.750578  1
  Si  Si24  1  0.717185  0.128936  0.248978  1
  Si  Si25  1  0.214832  0.371894  0.248996  1
  Si  Si26  1  0.794080  0.628769  0.750580  1
  Si  Si27  1  0.154537  0.466220  0.547916  1
  Si  Si28  1  0.843766  0.537055  0.463622  1
  Si  Si29  1  0.346427  0.964376  0.463240  1
  Si  Si30  1  0.842541  0.535560  0.036740  1
  Si  Si31  1  0.657924  0.034298  0.540295  1
  Si  Si32  1  0.155653  0.466269  0.952107  1
  Si  Si33  1  0.657621  0.034108  0.959773  1
  Si  Si34  1  0.345703  0.965094  0.036928  1
  Tc  Tc35  1  0.149994  0.493891  0.750478  1
