# generated using pymatgen
data_Ho3P6Rh8W
_symmetry_space_group_name_H-M   'P 1'
_cell_length_a   3.93631900
_cell_length_b   11.11737900
_cell_length_c   12.80246800
_cell_angle_alpha   90.00000000
_cell_angle_beta   90.00000000
_cell_angle_gamma   90.00000000
_symmetry_Int_Tables_number   1
_chemical_formula_structural   Ho3P6Rh8W
_chemical_formula_sum   'Ho6 P12 Rh16 W2'
_cell_volume   560.25584591
_cell_formula_units_Z   2
loop_
 _symmetry_equiv_pos_site_id
 _symmetry_equiv_pos_as_xyz
  1  'x, y, z'
loop_
 _atom_site_type_symbol
 _atom_site_label
 _atom_site_symmetry_multiplicity
 _atom_site_fract_x
 _atom_site_fract_y
 _atom_site_fract_z
 _atom_site_occupancy
  Ho  Ho0  1  0.000000  0.500000  0.522083  1
  Ho  Ho1  1  0.500000  0.000000  0.477917  1
  Ho  Ho2  1  0.500000  0.817069  0.202671  1
  Ho  Ho3  1  0.500000  0.182931  0.202671  1
  Ho  Ho4  1  0.000000  0.682931  0.797329  1
  Ho  Ho5  1  0.000000  0.317069  0.797329  1
  P  P6  1  0.500000  0.315154  0.617718  1
  P  P7  1  0.500000  0.684846  0.617718  1
  P  P8  1  0.000000  0.184846  0.382282  1
  P  P9  1  0.000000  0.815154  0.382282  1
  P  P10  1  0.500000  0.500000  0.874323  1
  P  P11  1  0.000000  0.000000  0.125677  1
  P  P12  1  0.500000  0.847112  0.886898  1
  P  P13  1  0.500000  0.152888  0.886898  1
  P  P14  1  0.000000  0.652888  0.113102  1
  P  P15  1  0.000000  0.347112  0.113102  1
  P  P16  1  0.500000  0.500000  0.346925  1
  P  P17  1  0.000000  0.000000  0.653075  1
  Rh  Rh18  1  0.000000  0.500000  0.989541  1
  Rh  Rh19  1  0.500000  0.000000  0.010459  1
  Rh  Rh20  1  0.500000  0.295552  0.432154  1
  Rh  Rh21  1  0.500000  0.704448  0.432154  1
  Rh  Rh22  1  0.000000  0.204448  0.567846  1
  Rh  Rh23  1  0.000000  0.795552  0.567846  1
  Rh  Rh24  1  0.500000  0.874688  0.708475  1
  Rh  Rh25  1  0.500000  0.125312  0.708475  1
  Rh  Rh26  1  0.000000  0.625312  0.291525  1
  Rh  Rh27  1  0.000000  0.374688  0.291525  1
  Rh  Rh28  1  0.500000  0.331895  0.984189  1
  Rh  Rh29  1  0.500000  0.668105  0.984189  1
  Rh  Rh30  1  0.000000  0.168105  0.015811  1
  Rh  Rh31  1  0.000000  0.831895  0.015811  1
  Rh  Rh32  1  0.500000  0.500000  0.698153  1
  Rh  Rh33  1  0.000000  0.000000  0.301847  1
  W  W34  1  0.500000  0.500000  0.157955  1
  W  W35  1  0.000000  0.000000  0.842045  1
