# generated using pymatgen
data_SrZnNiH4
_symmetry_space_group_name_H-M   'P 1'
_cell_length_a   6.73878500
_cell_length_b   6.73878500
_cell_length_c   6.73878500
_cell_angle_alpha   90.00000000
_cell_angle_beta   90.00000000
_cell_angle_gamma   90.00000000
_symmetry_Int_Tables_number   1
_chemical_formula_structural   SrZnNiH4
_chemical_formula_sum   'Sr4 Zn4 Ni4 H16'
_cell_volume   306.01647025
_cell_formula_units_Z   4
loop_
 _symmetry_equiv_pos_site_id
 _symmetry_equiv_pos_as_xyz
  1  'x, y, z'
loop_
 _atom_site_type_symbol
 _atom_site_label
 _atom_site_symmetry_multiplicity
 _atom_site_fract_x
 _atom_site_fract_y
 _atom_site_fract_z
 _atom_site_occupancy
  Sr  Sr0  1  0.159969  0.659969  0.840031  1
  Sr  Sr1  1  0.659969  0.840031  0.159969  1
  Sr  Sr2  1  0.840031  0.159969  0.659969  1
  Sr  Sr3  1  0.340031  0.340031  0.340031  1
  Zn  Zn4  1  0.851223  0.351223  0.148777  1
  Zn  Zn5  1  0.351223  0.148777  0.851223  1
  Zn  Zn6  1  0.148777  0.851223  0.351223  1
  Zn  Zn7  1  0.648777  0.648777  0.648777  1
  Ni  Ni8  1  0.430286  0.930286  0.569714  1
  Ni  Ni9  1  0.930286  0.569714  0.430286  1
  Ni  Ni10  1  0.569714  0.430286  0.930286  1
  Ni  Ni11  1  0.069714  0.069714  0.069714  1
  H  H12  1  0.570540  0.070540  0.429460  1
  H  H13  1  0.070540  0.429460  0.570540  1
  H  H14  1  0.429460  0.570540  0.070540  1
  H  H15  1  0.929460  0.929460  0.929460  1
  H  H16  1  0.273112  0.955870  0.093211  1
  H  H17  1  0.906789  0.773112  0.544130  1
  H  H18  1  0.455870  0.406789  0.726888  1
  H  H19  1  0.773112  0.544130  0.906789  1
  H  H20  1  0.406789  0.726888  0.455870  1
  H  H21  1  0.955870  0.093211  0.273112  1
  H  H22  1  0.726888  0.455870  0.406789  1
  H  H23  1  0.093211  0.273112  0.955870  1
  H  H24  1  0.544130  0.906789  0.773112  1
  H  H25  1  0.226888  0.044130  0.593211  1
  H  H26  1  0.593211  0.226888  0.044130  1
  H  H27  1  0.044130  0.593211  0.226888  1
