# generated using pymatgen
data_Zr3Ti3Sn3Sb2
_symmetry_space_group_name_H-M   'P 1'
_cell_length_a   9.60181253
_cell_length_b   9.56343348
_cell_length_c   5.77181900
_cell_angle_alpha   90.00000000
_cell_angle_beta   90.00000000
_cell_angle_gamma   119.86786555
_symmetry_Int_Tables_number   1
_chemical_formula_structural   Zr3Ti3Sn3Sb2
_chemical_formula_sum   'Zr6 Ti6 Sn6 Sb4'
_cell_volume   459.60750580
_cell_formula_units_Z   2
loop_
 _symmetry_equiv_pos_site_id
 _symmetry_equiv_pos_as_xyz
  1  'x, y, z'
loop_
 _atom_site_type_symbol
 _atom_site_label
 _atom_site_symmetry_multiplicity
 _atom_site_fract_x
 _atom_site_fract_y
 _atom_site_fract_z
 _atom_site_occupancy
  Zr  Zr0  1  0.842193  0.689786  0.750000  1
  Zr  Zr1  1  0.157807  0.847594  0.250000  1
  Zr  Zr2  1  0.690891  0.846945  0.250000  1
  Zr  Zr3  1  0.309109  0.156053  0.750000  1
  Zr  Zr4  1  0.847801  0.150571  0.750000  1
  Zr  Zr5  1  0.152199  0.302769  0.250000  1
  Ti  Ti6  1  0.501820  0.002358  0.499722  1
  Ti  Ti7  1  0.498180  0.500539  0.999722  1
  Ti  Ti8  1  0.000000  0.498190  0.000000  1
  Ti  Ti9  1  0.000000  0.498190  0.500000  1
  Ti  Ti10  1  0.501820  0.002358  0.000278  1
  Ti  Ti11  1  0.498180  0.500539  0.500278  1
  Sn  Sn12  1  0.207767  0.792797  0.750000  1
  Sn  Sn13  1  0.792233  0.585031  0.250000  1
  Sn  Sn14  1  0.669072  0.335494  0.750000  1
  Sn  Sn15  1  0.330928  0.666422  0.250000  1
  Sn  Sn16  1  0.000000  0.995399  0.500000  1
  Sn  Sn17  1  0.000000  0.995399  0.000000  1
  Sb  Sb18  1  0.207142  0.417693  0.750000  1
  Sb  Sb19  1  0.792858  0.210551  0.250000  1
  Sb  Sb20  1  0.418568  0.211947  0.250000  1
  Sb  Sb21  1  0.581432  0.793379  0.750000  1
