# generated using pymatgen
data_Yb2Ho2Ga15(SiIr2)3
_symmetry_space_group_name_H-M   'P 1'
_cell_length_a   7.56373217
_cell_length_b   7.47656503
_cell_length_c   9.49508762
_cell_angle_alpha   90.02264750
_cell_angle_beta   89.99137754
_cell_angle_gamma   119.79160708
_symmetry_Int_Tables_number   1
_chemical_formula_structural   Yb2Ho2Ga15(SiIr2)3
_chemical_formula_sum   'Yb2 Ho2 Ga15 Si3 Ir6'
_cell_volume   465.98934194
_cell_formula_units_Z   1
loop_
 _symmetry_equiv_pos_site_id
 _symmetry_equiv_pos_as_xyz
  1  'x, y, z'
loop_
 _atom_site_type_symbol
 _atom_site_label
 _atom_site_symmetry_multiplicity
 _atom_site_fract_x
 _atom_site_fract_y
 _atom_site_fract_z
 _atom_site_occupancy
  Yb  Yb0  1  0.672517  0.001996  0.248353  1
  Yb  Yb1  1  0.324532  0.993814  0.749669  1
  Ho  Ho2  1  0.996544  0.664965  0.247678  1
  Ho  Ho3  1  0.004028  0.340904  0.750807  1
  Ga  Ga4  1  0.130082  0.126783  0.250687  1
  Ga  Ga5  1  0.871177  0.870473  0.751058  1
  Ga  Ga6  1  0.342957  0.004641  0.420644  1
  Ga  Ga7  1  0.998473  0.325476  0.419389  1
  Ga  Ga8  1  0.665067  0.002169  0.579386  1
  Ga  Ga9  1  0.660714  0.998731  0.918580  1
  Ga  Ga10  1  0.341094  0.003699  0.080296  1
  Ga  Ga11  1  0.332255  0.327552  0.570093  1
  Ga  Ga12  1  0.660806  0.670226  0.431741  1
  Ga  Ga13  1  0.660055  0.670424  0.070779  1
  Ga  Ga14  1  0.337226  0.328324  0.928655  1
  Ga  Ga15  1  0.337065  0.547020  0.251066  1
  Ga  Ga16  1  0.661489  0.455392  0.751845  1
  Ga  Ga17  1  0.549682  0.340344  0.250829  1
  Ga  Ga18  1  0.452477  0.662660  0.750829  1
  Si  Si19  1  0.000432  0.328661  0.073240  1
  Si  Si20  1  0.998606  0.671303  0.928527  1
  Si  Si21  1  0.000948  0.666208  0.567763  1
  Ir  Ir22  1  0.697229  0.344956  0.002339  1
  Ir  Ir23  1  0.301797  0.654856  0.998484  1
  Ir  Ir24  1  0.314068  0.666621  0.503284  1
  Ir  Ir25  1  0.687397  0.345216  0.502140  1
  Ir  Ir26  1  0.999964  0.000333  0.000568  1
  Ir  Ir27  1  0.001320  0.986251  0.501271  1
