# generated using pymatgen
data_U2V6SiP5Rh4
_symmetry_space_group_name_H-M   'P 1'
_cell_length_a   3.90851800
_cell_length_b   6.78125975
_cell_length_c   9.98096267
_cell_angle_alpha   80.47746382
_cell_angle_beta   90.00000000
_cell_angle_gamma   90.00000000
_symmetry_Int_Tables_number   1
_chemical_formula_structural   U2V6SiP5Rh4
_chemical_formula_sum   'U2 V6 Si1 P5 Rh4'
_cell_volume   260.89694894
_cell_formula_units_Z   1
loop_
 _symmetry_equiv_pos_site_id
 _symmetry_equiv_pos_as_xyz
  1  'x, y, z'
loop_
 _atom_site_type_symbol
 _atom_site_label
 _atom_site_symmetry_multiplicity
 _atom_site_fract_x
 _atom_site_fract_y
 _atom_site_fract_z
 _atom_site_occupancy
  U  U0  1  0.250000  0.804310  0.787527  1
  U  U1  1  0.750000  0.194895  0.215098  1
  V  V2  1  0.250000  0.620162  0.513490  1
  V  V3  1  0.750000  0.380851  0.485927  1
  V  V4  1  0.250000  0.125619  0.503722  1
  V  V5  1  0.750000  0.873957  0.495397  1
  V  V6  1  0.250000  0.318353  0.720063  1
  V  V7  1  0.750000  0.683177  0.272181  1
  Si  Si8  1  0.250000  0.256874  0.972903  1
  P  P9  1  0.750000  0.742463  0.028321  1
  P  P10  1  0.250000  0.428065  0.332790  1
  P  P11  1  0.750000  0.573059  0.667107  1
  P  P12  1  0.250000  0.903885  0.337593  1
  P  P13  1  0.750000  0.095055  0.662575  1
  Rh  Rh14  1  0.250000  0.526717  0.098646  1
  Rh  Rh15  1  0.750000  0.474531  0.903662  1
  Rh  Rh16  1  0.250000  0.927509  0.100980  1
  Rh  Rh17  1  0.750000  0.070521  0.902019  1
