# generated using pymatgen
data_Ca6LaPr(Si3Ag)4
_symmetry_space_group_name_H-M   'P 1'
_cell_length_a   8.38211100
_cell_length_b   8.38211170
_cell_length_c   8.56627600
_cell_angle_alpha   90.00000000
_cell_angle_beta   90.00000000
_cell_angle_gamma   120.00000910
_symmetry_Int_Tables_number   1
_chemical_formula_structural   Ca6LaPr(Si3Ag)4
_chemical_formula_sum   'Ca6 La1 Pr1 Si12 Ag4'
_cell_volume   521.23012260
_cell_formula_units_Z   1
loop_
 _symmetry_equiv_pos_site_id
 _symmetry_equiv_pos_as_xyz
  1  'x, y, z'
loop_
 _atom_site_type_symbol
 _atom_site_label
 _atom_site_symmetry_multiplicity
 _atom_site_fract_x
 _atom_site_fract_y
 _atom_site_fract_z
 _atom_site_occupancy
  Ca  Ca0  1  0.499268  0.500732  0.750000  1
  Ca  Ca1  1  0.500786  0.499214  0.250000  1
  Ca  Ca2  1  0.001464  0.500732  0.750000  1
  Ca  Ca3  1  0.998428  0.499214  0.250000  1
  Ca  Ca4  1  0.499268  0.998536  0.750000  1
  Ca  Ca5  1  0.500786  0.001572  0.250000  1
  La  La6  1  0.000000  0.000000  0.750000  1
  Pr  Pr7  1  0.000000  0.000000  0.250000  1
  Si  Si8  1  0.837711  0.162289  0.000577  1
  Si  Si9  1  0.162277  0.837723  0.001120  1
  Si  Si10  1  0.324579  0.162289  0.000577  1
  Si  Si11  1  0.162277  0.837723  0.498880  1
  Si  Si12  1  0.675446  0.837723  0.001120  1
  Si  Si13  1  0.837711  0.162289  0.499423  1
  Si  Si14  1  0.837711  0.675421  0.000577  1
  Si  Si15  1  0.675446  0.837723  0.498880  1
  Si  Si16  1  0.162277  0.324554  0.001120  1
  Si  Si17  1  0.324579  0.162289  0.499423  1
  Si  Si18  1  0.162277  0.324554  0.498880  1
  Si  Si19  1  0.837711  0.675421  0.499423  1
  Ag  Ag20  1  0.666667  0.333333  0.998088  1
  Ag  Ag21  1  0.333333  0.666667  0.001701  1
  Ag  Ag22  1  0.333333  0.666667  0.498299  1
  Ag  Ag23  1  0.666667  0.333333  0.501912  1
