# generated using pymatgen
data_YErLu4(Co3P2)6
_symmetry_space_group_name_H-M   'P 1'
_cell_length_a   3.65928500
_cell_length_b   10.44972800
_cell_length_c   12.08803900
_cell_angle_alpha   90.00000000
_cell_angle_beta   90.00000000
_cell_angle_gamma   90.00000000
_symmetry_Int_Tables_number   1
_chemical_formula_structural   YErLu4(Co3P2)6
_chemical_formula_sum   'Y1 Er1 Lu4 Co18 P12'
_cell_volume   462.22887729
_cell_formula_units_Z   1
loop_
 _symmetry_equiv_pos_site_id
 _symmetry_equiv_pos_as_xyz
  1  'x, y, z'
loop_
 _atom_site_type_symbol
 _atom_site_label
 _atom_site_symmetry_multiplicity
 _atom_site_fract_x
 _atom_site_fract_y
 _atom_site_fract_z
 _atom_site_occupancy
  Y  Y0  1  0.000000  0.500000  0.522595  1
  Er  Er1  1  0.500000  0.000000  0.477466  1
  Lu  Lu2  1  0.500000  0.818448  0.205794  1
  Lu  Lu3  1  0.500000  0.181552  0.205794  1
  Lu  Lu4  1  0.000000  0.681858  0.794460  1
  Lu  Lu5  1  0.000000  0.318142  0.794460  1
  Co  Co6  1  0.500000  0.500000  0.158658  1
  Co  Co7  1  0.000000  0.000000  0.840669  1
  Co  Co8  1  0.500000  0.500000  0.704866  1
  Co  Co9  1  0.000000  0.000000  0.295994  1
  Co  Co10  1  0.000000  0.500000  0.986507  1
  Co  Co11  1  0.500000  0.000000  0.013905  1
  Co  Co12  1  0.500000  0.332911  0.994398  1
  Co  Co13  1  0.500000  0.667089  0.994398  1
  Co  Co14  1  0.000000  0.166702  0.005552  1
  Co  Co15  1  0.000000  0.833298  0.005552  1
  Co  Co16  1  0.500000  0.296342  0.430187  1
  Co  Co17  1  0.500000  0.703658  0.430187  1
  Co  Co18  1  0.000000  0.202082  0.569666  1
  Co  Co19  1  0.000000  0.797918  0.569666  1
  Co  Co20  1  0.500000  0.878365  0.710170  1
  Co  Co21  1  0.500000  0.121635  0.710170  1
  Co  Co22  1  0.000000  0.622039  0.289543  1
  Co  Co23  1  0.000000  0.377961  0.289543  1
  P  P24  1  0.500000  0.500000  0.882341  1
  P  P25  1  0.000000  0.000000  0.118129  1
  P  P26  1  0.500000  0.500000  0.343672  1
  P  P27  1  0.000000  0.000000  0.655162  1
  P  P28  1  0.500000  0.310857  0.617687  1
  P  P29  1  0.500000  0.689143  0.617687  1
  P  P30  1  0.000000  0.188142  0.382729  1
  P  P31  1  0.000000  0.811858  0.382729  1
  P  P32  1  0.500000  0.846546  0.892026  1
  P  P33  1  0.500000  0.153454  0.892026  1
  P  P34  1  0.000000  0.653974  0.107808  1
  P  P35  1  0.000000  0.346026  0.107808  1
