# generated using pymatgen
data_ZrNb5(B2Os5)2
_symmetry_space_group_name_H-M   'P 1'
_cell_length_a   9.57180332
_cell_length_b   9.57180330
_cell_length_c   3.05067900
_cell_angle_alpha   90.00000000
_cell_angle_beta   90.00000000
_cell_angle_gamma   90.12050804
_symmetry_Int_Tables_number   1
_chemical_formula_structural   ZrNb5(B2Os5)2
_chemical_formula_sum   'Zr1 Nb5 B4 Os10'
_cell_volume   279.50081793
_cell_formula_units_Z   1
loop_
 _symmetry_equiv_pos_site_id
 _symmetry_equiv_pos_as_xyz
  1  'x, y, z'
loop_
 _atom_site_type_symbol
 _atom_site_label
 _atom_site_symmetry_multiplicity
 _atom_site_fract_x
 _atom_site_fract_y
 _atom_site_fract_z
 _atom_site_occupancy
  Zr  Zr0  1  0.823190  0.676810  0.000000  1
  Nb  Nb1  1  0.177795  0.322205  0.000000  1
  Nb  Nb2  1  0.323080  0.822056  0.000000  1
  Nb  Nb3  1  0.677944  0.176920  0.000000  1
  Nb  Nb4  1  0.500114  0.500213  0.000000  1
  Nb  Nb5  1  0.999787  0.999886  0.000000  1
  B  B6  1  0.620670  0.879330  0.000000  1
  B  B7  1  0.378511  0.121489  0.000000  1
  B  B8  1  0.120647  0.621019  0.000000  1
  B  B9  1  0.878981  0.379353  0.000000  1
  Os  Os10  1  0.565964  0.721370  0.500000  1
  Os  Os11  1  0.428300  0.281092  0.500000  1
  Os  Os12  1  0.075607  0.781639  0.500000  1
  Os  Os13  1  0.929300  0.218496  0.500000  1
  Os  Os14  1  0.281504  0.570700  0.500000  1
  Os  Os15  1  0.718361  0.424393  0.500000  1
  Os  Os16  1  0.218908  0.071700  0.500000  1
  Os  Os17  1  0.778630  0.934036  0.500000  1
  Os  Os18  1  0.498694  0.001306  0.500000  1
  Os  Os19  1  0.004010  0.495990  0.500000  1
