# generated using pymatgen
data_Li2Tm2BIr4
_symmetry_space_group_name_H-M   'P 1'
_cell_length_a   5.83529445
_cell_length_b   5.83529444
_cell_length_c   5.70485100
_cell_angle_alpha   60.73676265
_cell_angle_beta   60.73676270
_cell_angle_gamma   60.17712222
_symmetry_Int_Tables_number   1
_chemical_formula_structural   Li2Tm2BIr4
_chemical_formula_sum   'Li2 Tm2 B1 Ir4'
_cell_volume   139.05708084
_cell_formula_units_Z   1
loop_
 _symmetry_equiv_pos_site_id
 _symmetry_equiv_pos_as_xyz
  1  'x, y, z'
loop_
 _atom_site_type_symbol
 _atom_site_label
 _atom_site_symmetry_multiplicity
 _atom_site_fract_x
 _atom_site_fract_y
 _atom_site_fract_z
 _atom_site_occupancy
  Li  Li0  1  0.761649  0.238350  0.236668  1
  Li  Li1  1  0.238350  0.761649  0.236668  1
  Tm  Tm2  1  0.253160  0.253160  0.241924  1
  Tm  Tm3  1  0.746840  0.746840  0.748245  1
  B  B4  1  0.499999  0.499999  0.527740  1
  Ir  Ir5  1  0.748272  0.748272  0.241516  1
  Ir  Ir6  1  0.251727  0.251727  0.738061  1
  Ir  Ir7  1  0.767043  0.232956  0.764587  1
  Ir  Ir8  1  0.232956  0.767043  0.764587  1
