# generated using pymatgen
data_La2Sm3Tl(SbO7)2
_symmetry_space_group_name_H-M   'P 1'
_cell_length_a   6.71133762
_cell_length_b   6.57384817
_cell_length_c   7.79225302
_cell_angle_alpha   90.00674551
_cell_angle_beta   89.99292401
_cell_angle_gamma   109.98878775
_symmetry_Int_Tables_number   1
_chemical_formula_structural   La2Sm3Tl(SbO7)2
_chemical_formula_sum   'La2 Sm3 Tl1 Sb2 O14'
_cell_volume   323.07885678
_cell_formula_units_Z   1
loop_
 _symmetry_equiv_pos_site_id
 _symmetry_equiv_pos_as_xyz
  1  'x, y, z'
loop_
 _atom_site_type_symbol
 _atom_site_label
 _atom_site_symmetry_multiplicity
 _atom_site_fract_x
 _atom_site_fract_y
 _atom_site_fract_z
 _atom_site_occupancy
  La  La0  1  0.495956  0.491002  0.503923  1
  La  La1  1  0.495917  0.490962  0.996098  1
  Sm  Sm2  1  0.005226  0.543972  0.250003  1
  Sm  Sm3  1  0.530112  0.996790  0.749994  1
  Sm  Sm4  1  0.999612  0.469568  0.750017  1
  Tl  Tl5  1  0.497726  0.002549  0.250002  1
  Sb  Sb6  1  0.000513  0.002246  0.499496  1
  Sb  Sb7  1  0.000480  0.002230  0.000496  1
  O  O8  1  0.310903  0.067000  0.533001  1
  O  O9  1  0.931579  0.681871  0.972277  1
  O  O10  1  0.684322  0.931247  0.018015  1
  O  O11  1  0.071168  0.322457  0.469182  1
  O  O12  1  0.931660  0.681905  0.527744  1
  O  O13  1  0.310848  0.066974  0.966940  1
  O  O14  1  0.071138  0.322446  0.030837  1
  O  O15  1  0.684356  0.931230  0.481980  1
  O  O16  1  0.631733  0.352602  0.250006  1
  O  O17  1  0.365273  0.624154  0.750009  1
  O  O18  1  0.638131  0.363078  0.749992  1
  O  O19  1  0.367710  0.654632  0.249995  1
  O  O20  1  0.038129  0.931264  0.250001  1
  O  O21  1  0.937507  0.069822  0.749991  1
