# generated using pymatgen
data_DyHo4Pt9
_symmetry_space_group_name_H-M   'P 1'
_cell_length_a   9.76792324
_cell_length_b   9.76247824
_cell_length_c   5.76933900
_cell_angle_alpha   90.00000000
_cell_angle_beta   90.00000000
_cell_angle_gamma   90.02526478
_symmetry_Int_Tables_number   1
_chemical_formula_structural   DyHo4Pt9
_chemical_formula_sum   'Dy2 Ho8 Pt18'
_cell_volume   550.15914055
_cell_formula_units_Z   2
loop_
 _symmetry_equiv_pos_site_id
 _symmetry_equiv_pos_as_xyz
  1  'x, y, z'
loop_
 _atom_site_type_symbol
 _atom_site_label
 _atom_site_symmetry_multiplicity
 _atom_site_fract_x
 _atom_site_fract_y
 _atom_site_fract_z
 _atom_site_occupancy
  Dy  Dy0  1  0.452387  0.809437  0.000000  1
  Dy  Dy1  1  0.547613  0.190563  0.000000  1
  Ho  Ho2  1  0.190463  0.547600  0.000000  1
  Ho  Ho3  1  0.809537  0.452400  0.000000  1
  Ho  Ho4  1  0.500000  0.500000  0.500000  1
  Ho  Ho5  1  0.309451  0.047642  0.500000  1
  Ho  Ho6  1  0.690549  0.952358  0.500000  1
  Ho  Ho7  1  0.952387  0.690510  0.500000  1
  Ho  Ho8  1  0.047613  0.309490  0.500000  1
  Ho  Ho9  1  0.000000  0.000000  0.000000  1
  Pt  Pt10  1  0.191282  0.808559  0.250685  1
  Pt  Pt11  1  0.808718  0.191441  0.749315  1
  Pt  Pt12  1  0.808718  0.191441  0.250685  1
  Pt  Pt13  1  0.191282  0.808559  0.749315  1
  Pt  Pt14  1  0.440072  0.781466  0.500000  1
  Pt  Pt15  1  0.559928  0.218534  0.500000  1
  Pt  Pt16  1  0.218519  0.559931  0.500000  1
  Pt  Pt17  1  0.781481  0.440069  0.500000  1
  Pt  Pt18  1  0.308447  0.308617  0.249576  1
  Pt  Pt19  1  0.691553  0.691383  0.750424  1
  Pt  Pt20  1  0.691553  0.691383  0.249576  1
  Pt  Pt21  1  0.308447  0.308617  0.750424  1
  Pt  Pt22  1  0.281259  0.059987  0.000000  1
  Pt  Pt23  1  0.718741  0.940013  0.000000  1
  Pt  Pt24  1  0.940084  0.718503  0.000000  1
  Pt  Pt25  1  0.059916  0.281497  0.000000  1
  Pt  Pt26  1  0.000000  0.000000  0.500000  1
  Pt  Pt27  1  0.500000  0.500000  0.000000  1
