# generated using pymatgen
data_La5Pr(Pd3Rh)2
_symmetry_space_group_name_H-M   'P 1'
_cell_length_a   8.17384710
_cell_length_b   8.18203798
_cell_length_c   8.18776325
_cell_angle_alpha   114.40855117
_cell_angle_beta   114.18450418
_cell_angle_gamma   114.08025262
_symmetry_Int_Tables_number   1
_chemical_formula_structural   La5Pr(Pd3Rh)2
_chemical_formula_sum   'La5 Pr1 Pd6 Rh2'
_cell_volume   327.07548465
_cell_formula_units_Z   1
loop_
 _symmetry_equiv_pos_site_id
 _symmetry_equiv_pos_as_xyz
  1  'x, y, z'
loop_
 _atom_site_type_symbol
 _atom_site_label
 _atom_site_symmetry_multiplicity
 _atom_site_fract_x
 _atom_site_fract_y
 _atom_site_fract_z
 _atom_site_occupancy
  La  La0  1  0.402629  0.039909  0.282436  1
  La  La1  1  0.040390  0.281785  0.403586  1
  La  La2  1  0.281923  0.403194  0.039278  1
  La  La3  1  0.596750  0.960256  0.718148  1
  La  La4  1  0.959938  0.717960  0.596424  1
  Pr  Pr5  1  0.718079  0.596720  0.961941  1
  Pd  Pd6  1  0.223703  0.055612  0.554757  1
  Pd  Pd7  1  0.056914  0.555262  0.224604  1
  Pd  Pd8  1  0.555249  0.224208  0.055830  1
  Pd  Pd9  1  0.775644  0.943506  0.443908  1
  Pd  Pd10  1  0.943438  0.444790  0.775898  1
  Pd  Pd11  1  0.444972  0.776058  0.943790  1
  Rh  Rh12  1  0.000555  0.000754  0.999981  1
  Rh  Rh13  1  0.499817  0.499984  0.499419  1
