# generated using pymatgen
data_Yb3(DySn2)2
_symmetry_space_group_name_H-M   'P 1'
_cell_length_a   7.83732700
_cell_length_b   8.43982100
_cell_length_c   16.05415100
_cell_angle_alpha   90.00000000
_cell_angle_beta   90.00000000
_cell_angle_gamma   90.00000000
_symmetry_Int_Tables_number   1
_chemical_formula_structural   Yb3(DySn2)2
_chemical_formula_sum   'Yb12 Dy8 Sn16'
_cell_volume   1061.91204436
_cell_formula_units_Z   4
loop_
 _symmetry_equiv_pos_site_id
 _symmetry_equiv_pos_as_xyz
  1  'x, y, z'
loop_
 _atom_site_type_symbol
 _atom_site_label
 _atom_site_symmetry_multiplicity
 _atom_site_fract_x
 _atom_site_fract_y
 _atom_site_fract_z
 _atom_site_occupancy
  Yb  Yb0  1  0.504975  0.688770  0.592682  1
  Yb  Yb1  1  0.004975  0.811230  0.907318  1
  Yb  Yb2  1  0.495025  0.311230  0.092682  1
  Yb  Yb3  1  0.995025  0.188770  0.407318  1
  Yb  Yb4  1  0.495025  0.311230  0.407318  1
  Yb  Yb5  1  0.995025  0.188770  0.092682  1
  Yb  Yb6  1  0.504975  0.688770  0.907318  1
  Yb  Yb7  1  0.004975  0.811230  0.592682  1
  Yb  Yb8  1  0.835245  0.512518  0.750000  1
  Yb  Yb9  1  0.335245  0.987482  0.750000  1
  Yb  Yb10  1  0.164755  0.487482  0.250000  1
  Yb  Yb11  1  0.664755  0.012518  0.250000  1
  Dy  Dy12  1  0.672369  0.165787  0.622052  1
  Dy  Dy13  1  0.172369  0.334213  0.877948  1
  Dy  Dy14  1  0.327631  0.834213  0.122052  1
  Dy  Dy15  1  0.827631  0.665787  0.377948  1
  Dy  Dy16  1  0.327631  0.834213  0.377948  1
  Dy  Dy17  1  0.827631  0.665787  0.122052  1
  Dy  Dy18  1  0.672369  0.165787  0.877948  1
  Dy  Dy19  1  0.172369  0.334213  0.622052  1
  Sn  Sn20  1  0.672175  0.964373  0.459301  1
  Sn  Sn21  1  0.172175  0.535627  0.040699  1
  Sn  Sn22  1  0.327825  0.035627  0.959301  1
  Sn  Sn23  1  0.827825  0.464373  0.540699  1
  Sn  Sn24  1  0.327825  0.035627  0.540699  1
  Sn  Sn25  1  0.827825  0.464373  0.959301  1
  Sn  Sn26  1  0.672175  0.964373  0.040699  1
  Sn  Sn27  1  0.172175  0.535627  0.459301  1
  Sn  Sn28  1  0.471490  0.374792  0.750000  1
  Sn  Sn29  1  0.971490  0.125208  0.750000  1
  Sn  Sn30  1  0.528510  0.625208  0.250000  1
  Sn  Sn31  1  0.028510  0.874792  0.250000  1
  Sn  Sn32  1  0.716984  0.873970  0.750000  1
  Sn  Sn33  1  0.216984  0.626030  0.750000  1
  Sn  Sn34  1  0.283016  0.126030  0.250000  1
  Sn  Sn35  1  0.783016  0.373970  0.250000  1
