# generated using pymatgen
data_Tb8ErTm11Pb16
_symmetry_space_group_name_H-M   'P 1'
_cell_length_a   8.16901907
_cell_length_b   8.24565907
_cell_length_c   15.54351701
_cell_angle_alpha   90.00289030
_cell_angle_beta   89.99967262
_cell_angle_gamma   90.01461830
_symmetry_Int_Tables_number   1
_chemical_formula_structural   Tb8ErTm11Pb16
_chemical_formula_sum   'Tb8 Er1 Tm11 Pb16'
_cell_volume   1046.99488960
_cell_formula_units_Z   1
loop_
 _symmetry_equiv_pos_site_id
 _symmetry_equiv_pos_as_xyz
  1  'x, y, z'
loop_
 _atom_site_type_symbol
 _atom_site_label
 _atom_site_symmetry_multiplicity
 _atom_site_fract_x
 _atom_site_fract_y
 _atom_site_fract_z
 _atom_site_occupancy
  Tb  Tb0  1  0.534547  0.322829  0.900099  1
  Tb  Tb1  1  0.034603  0.177122  0.599909  1
  Tb  Tb2  1  0.465387  0.677127  0.400084  1
  Tb  Tb3  1  0.965423  0.822913  0.099998  1
  Tb  Tb4  1  0.465423  0.677083  0.099910  1
  Tb  Tb5  1  0.965385  0.822872  0.400085  1
  Tb  Tb6  1  0.534589  0.322856  0.599911  1
  Tb  Tb7  1  0.034597  0.177076  0.900076  1
  Er  Er8  1  0.876606  0.659226  0.879012  1
  Tm  Tm9  1  0.376506  0.840821  0.879042  1
  Tm  Tm10  1  0.876525  0.659151  0.620929  1
  Tm  Tm11  1  0.623486  0.159147  0.379058  1
  Tm  Tm12  1  0.123457  0.340871  0.120931  1
  Tm  Tm13  1  0.623469  0.159165  0.120981  1
  Tm  Tm14  1  0.123474  0.340823  0.379049  1
  Tm  Tm15  1  0.376550  0.840844  0.620936  1
  Tm  Tm16  1  0.208011  0.504793  0.749955  1
  Tm  Tm17  1  0.707854  0.995278  0.749950  1
  Tm  Tm18  1  0.792071  0.495147  0.250010  1
  Tm  Tm19  1  0.292069  0.004812  0.250001  1
  Pb  Pb20  1  0.282639  0.034164  0.042774  1
  Pb  Pb21  1  0.782638  0.465836  0.457243  1
  Pb  Pb22  1  0.717352  0.965844  0.542723  1
  Pb  Pb23  1  0.217625  0.534090  0.957327  1
  Pb  Pb24  1  0.717221  0.966110  0.957320  1
  Pb  Pb25  1  0.217349  0.534154  0.542719  1
  Pb  Pb26  1  0.282628  0.034178  0.457229  1
  Pb  Pb27  1  0.782562  0.465677  0.042913  1
  Pb  Pb28  1  0.571095  0.627951  0.749937  1
  Pb  Pb29  1  0.071385  0.872189  0.749906  1
  Pb  Pb30  1  0.428720  0.372055  0.250015  1
  Pb  Pb31  1  0.928769  0.127954  0.250012  1
  Pb  Pb32  1  0.345504  0.151995  0.750000  1
  Pb  Pb33  1  0.845489  0.347833  0.749948  1
  Pb  Pb34  1  0.654493  0.848006  0.250003  1
  Pb  Pb35  1  0.154499  0.652009  0.250006  1
