# generated using pymatgen
data_La9Pr7(CdRu)4
_symmetry_space_group_name_H-M   'P 1'
_cell_length_a   10.02870793
_cell_length_b   10.02870783
_cell_length_c   10.04197900
_cell_angle_alpha   59.95621863
_cell_angle_beta   59.95621894
_cell_angle_gamma   60.28907571
_symmetry_Int_Tables_number   1
_chemical_formula_structural   La9Pr7(CdRu)4
_chemical_formula_sum   'La9 Pr7 Cd4 Ru4'
_cell_volume   715.22900642
_cell_formula_units_Z   1
loop_
 _symmetry_equiv_pos_site_id
 _symmetry_equiv_pos_as_xyz
  1  'x, y, z'
loop_
 _atom_site_type_symbol
 _atom_site_label
 _atom_site_symmetry_multiplicity
 _atom_site_fract_x
 _atom_site_fract_y
 _atom_site_fract_z
 _atom_site_occupancy
  La  La0  1  0.345439  0.345439  0.346936  1
  La  La1  1  0.345439  0.345439  0.962185  1
  La  La2  1  0.345352  0.963999  0.345324  1
  La  La3  1  0.963999  0.345352  0.345324  1
  La  La4  1  0.809936  0.188695  0.188468  1
  La  La5  1  0.188695  0.809936  0.812902  1
  La  La6  1  0.188695  0.809936  0.188468  1
  La  La7  1  0.809936  0.188695  0.812902  1
  La  La8  1  0.189182  0.189182  0.810818  1
  Pr  Pr9  1  0.808272  0.808272  0.191728  1
  Pr  Pr10  1  0.936285  0.563579  0.563223  1
  Pr  Pr11  1  0.563579  0.936285  0.936913  1
  Pr  Pr12  1  0.563579  0.936285  0.563223  1
  Pr  Pr13  1  0.936285  0.563579  0.936913  1
  Pr  Pr14  1  0.562431  0.562431  0.937569  1
  Pr  Pr15  1  0.939156  0.939156  0.560844  1
  Cd  Cd16  1  0.580326  0.580326  0.577882  1
  Cd  Cd17  1  0.580326  0.580326  0.261466  1
  Cd  Cd18  1  0.579900  0.260996  0.579551  1
  Cd  Cd19  1  0.260996  0.579900  0.579551  1
  Ru  Ru20  1  0.134993  0.134993  0.138199  1
  Ru  Ru21  1  0.134993  0.134993  0.591815  1
  Ru  Ru22  1  0.144941  0.587265  0.133897  1
  Ru  Ru23  1  0.587265  0.144941  0.133897  1
