# generated using pymatgen
data_Sr2Sn5Pd3
_symmetry_space_group_name_H-M   'P 1'
_cell_length_a   9.31418767
_cell_length_b   9.31418700
_cell_length_c   9.31418830
_cell_angle_alpha   138.33154708
_cell_angle_beta   104.16399202
_cell_angle_gamma   90.47541893
_symmetry_Int_Tables_number   1
_chemical_formula_structural   Sr2Sn5Pd3
_chemical_formula_sum   'Sr4 Sn10 Pd6'
_cell_volume   497.45920407
_cell_formula_units_Z   2
loop_
 _symmetry_equiv_pos_site_id
 _symmetry_equiv_pos_as_xyz
  1  'x, y, z'
loop_
 _atom_site_type_symbol
 _atom_site_label
 _atom_site_symmetry_multiplicity
 _atom_site_fract_x
 _atom_site_fract_y
 _atom_site_fract_z
 _atom_site_occupancy
  Sr  Sr0  1  0.909338  0.142540  0.766798  1
  Sr  Sr1  1  0.090662  0.857460  0.233202  1
  Sr  Sr2  1  0.624258  0.357460  0.266798  1
  Sr  Sr3  1  0.375742  0.642540  0.733202  1
  Sn  Sn4  1  0.566608  0.907588  0.659020  1
  Sn  Sn5  1  0.248569  0.407588  0.840980  1
  Sn  Sn6  1  0.433392  0.092412  0.340980  1
  Sn  Sn7  1  0.751431  0.592412  0.159020  1
  Sn  Sn8  1  0.000000  0.250000  0.250000  1
  Sn  Sn9  1  0.000000  0.750000  0.750000  1
  Sn  Sn10  1  0.730337  0.980337  0.250000  1
  Sn  Sn11  1  0.269663  0.519663  0.250000  1
  Sn  Sn12  1  0.269663  0.019663  0.750000  1
  Sn  Sn13  1  0.730337  0.480337  0.750000  1
  Pd  Pd14  1  0.247979  0.135297  0.112681  1
  Pd  Pd15  1  0.977383  0.364703  0.612681  1
  Pd  Pd16  1  0.022617  0.635297  0.387319  1
  Pd  Pd17  1  0.752021  0.864703  0.887319  1
  Pd  Pd18  1  0.500000  0.250000  0.750000  1
  Pd  Pd19  1  0.500000  0.750000  0.250000  1
