# generated using pymatgen
data_Ho3MgCdIn3Ir
_symmetry_space_group_name_H-M   'P 1'
_cell_length_a   8.22973700
_cell_length_b   8.22973785
_cell_length_c   3.65018600
_cell_angle_alpha   90.00000000
_cell_angle_beta   90.00000000
_cell_angle_gamma   119.99999365
_symmetry_Int_Tables_number   1
_chemical_formula_structural   Ho3MgCdIn3Ir
_chemical_formula_sum   'Ho3 Mg1 Cd1 In3 Ir1'
_cell_volume   214.10046597
_cell_formula_units_Z   1
loop_
 _symmetry_equiv_pos_site_id
 _symmetry_equiv_pos_as_xyz
  1  'x, y, z'
loop_
 _atom_site_type_symbol
 _atom_site_label
 _atom_site_symmetry_multiplicity
 _atom_site_fract_x
 _atom_site_fract_y
 _atom_site_fract_z
 _atom_site_occupancy
  Ho  Ho0  1  0.581584  0.626459  0.000000  1
  Ho  Ho1  1  0.373541  0.955125  0.000000  1
  Ho  Ho2  1  0.044875  0.418416  0.000000  1
  Mg  Mg3  1  0.000000  0.000000  0.000000  1
  Cd  Cd4  1  0.666667  0.333333  0.500000  1
  In  In5  1  0.991533  0.713468  0.500000  1
  In  In6  1  0.286532  0.278065  0.500000  1
  In  In7  1  0.721935  0.008467  0.500000  1
  Ir  Ir8  1  0.333333  0.666667  0.500000  1
