# generated using pymatgen
data_Y12Tm4Cd4NiIr3
_symmetry_space_group_name_H-M   'P 1'
_cell_length_a   9.58710657
_cell_length_b   9.60628913
_cell_length_c   9.60628900
_cell_angle_alpha   60.00000390
_cell_angle_beta   59.93379353
_cell_angle_gamma   59.93379477
_symmetry_Int_Tables_number   1
_chemical_formula_structural   Y12Tm4Cd4NiIr3
_chemical_formula_sum   'Y12 Tm4 Cd4 Ni1 Ir3'
_cell_volume   624.95471268
_cell_formula_units_Z   1
loop_
 _symmetry_equiv_pos_site_id
 _symmetry_equiv_pos_as_xyz
  1  'x, y, z'
loop_
 _atom_site_type_symbol
 _atom_site_label
 _atom_site_symmetry_multiplicity
 _atom_site_fract_x
 _atom_site_fract_y
 _atom_site_fract_z
 _atom_site_occupancy
  Y  Y0  1  0.058891  0.439857  0.439857  1
  Y  Y1  1  0.439191  0.060300  0.060300  1
  Y  Y2  1  0.439191  0.060300  0.440208  1
  Y  Y3  1  0.058891  0.439857  0.061393  1
  Y  Y4  1  0.439191  0.440208  0.060300  1
  Y  Y5  1  0.058891  0.061393  0.439857  1
  Y  Y6  1  0.188151  0.811930  0.811930  1
  Y  Y7  1  0.811234  0.186616  0.186616  1
  Y  Y8  1  0.811234  0.186616  0.815533  1
  Y  Y9  1  0.188151  0.811930  0.187988  1
  Y  Y10  1  0.811234  0.815533  0.186616  1
  Y  Y11  1  0.188151  0.187988  0.811930  1
  Tm  Tm12  1  0.601348  0.596541  0.596541  1
  Tm  Tm13  1  0.601348  0.596541  0.205571  1
  Tm  Tm14  1  0.601348  0.205571  0.596541  1
  Tm  Tm15  1  0.204289  0.598570  0.598570  1
  Cd  Cd16  1  0.829894  0.830821  0.830821  1
  Cd  Cd17  1  0.829894  0.830821  0.508462  1
  Cd  Cd18  1  0.829894  0.508462  0.830821  1
  Cd  Cd19  1  0.507883  0.830706  0.830706  1
  Ni  Ni20  1  0.821398  0.392868  0.392868  1
  Ir  Ir21  1  0.393434  0.393291  0.393291  1
  Ir  Ir22  1  0.393434  0.393291  0.819985  1
  Ir  Ir23  1  0.393434  0.819985  0.393291  1
