# generated using pymatgen
data_Ho2TmZr(Al3Rh)6
_symmetry_space_group_name_H-M   'P 1'
_cell_length_a   7.51991092
_cell_length_b   7.50791300
_cell_length_c   9.38654400
_cell_angle_alpha   90.00000000
_cell_angle_beta   90.00000000
_cell_angle_gamma   119.50408867
_symmetry_Int_Tables_number   1
_chemical_formula_structural   Ho2TmZr(Al3Rh)6
_chemical_formula_sum   'Ho2 Tm1 Zr1 Al18 Rh6'
_cell_volume   461.22929978
_cell_formula_units_Z   1
loop_
 _symmetry_equiv_pos_site_id
 _symmetry_equiv_pos_as_xyz
  1  'x, y, z'
loop_
 _atom_site_type_symbol
 _atom_site_label
 _atom_site_symmetry_multiplicity
 _atom_site_fract_x
 _atom_site_fract_y
 _atom_site_fract_z
 _atom_site_occupancy
  Ho  Ho0  1  0.006230  0.327369  0.750000  1
  Ho  Ho1  1  0.328490  0.006618  0.750000  1
  Tm  Tm2  1  0.672044  0.995715  0.250000  1
  Zr  Zr3  1  0.996038  0.671681  0.250000  1
  Al  Al4  1  0.123976  0.121757  0.250000  1
  Al  Al5  1  0.871319  0.870136  0.750000  1
  Al  Al6  1  0.999689  0.338066  0.079859  1
  Al  Al7  1  0.999772  0.664778  0.927792  1
  Al  Al8  1  0.999772  0.664778  0.572208  1
  Al  Al9  1  0.332768  0.997677  0.420023  1
  Al  Al10  1  0.999689  0.338066  0.420141  1
  Al  Al11  1  0.664241  0.998653  0.575419  1
  Al  Al12  1  0.664241  0.998653  0.924581  1
  Al  Al13  1  0.332768  0.997677  0.079977  1
  Al  Al14  1  0.333654  0.333693  0.549290  1
  Al  Al15  1  0.669537  0.667707  0.443465  1
  Al  Al16  1  0.669537  0.667707  0.056535  1
  Al  Al17  1  0.333654  0.333693  0.950710  1
  Al  Al18  1  0.336515  0.551897  0.250000  1
  Al  Al19  1  0.660927  0.450636  0.750000  1
  Al  Al20  1  0.556670  0.343830  0.250000  1
  Al  Al21  1  0.449181  0.659200  0.750000  1
  Rh  Rh22  1  0.672732  0.327937  0.001099  1
  Rh  Rh23  1  0.327823  0.672778  0.001781  1
  Rh  Rh24  1  0.327823  0.672778  0.498219  1
  Rh  Rh25  1  0.672732  0.327937  0.498901  1
  Rh  Rh26  1  0.999092  0.999288  0.001130  1
  Rh  Rh27  1  0.999092  0.999288  0.498870  1
