# generated using pymatgen
data_Sr8TbY3(GaO5)4
_symmetry_space_group_name_H-M   'P 1'
_cell_length_a   5.97518903
_cell_length_b   7.64432885
_cell_length_c   12.50925811
_cell_angle_alpha   91.38191140
_cell_angle_beta   90.01147810
_cell_angle_gamma   89.99536893
_symmetry_Int_Tables_number   1
_chemical_formula_structural   Sr8TbY3(GaO5)4
_chemical_formula_sum   'Sr8 Tb1 Y3 Ga4 O20'
_cell_volume   571.21055395
_cell_formula_units_Z   1
loop_
 _symmetry_equiv_pos_site_id
 _symmetry_equiv_pos_as_xyz
  1  'x, y, z'
loop_
 _atom_site_type_symbol
 _atom_site_label
 _atom_site_symmetry_multiplicity
 _atom_site_fract_x
 _atom_site_fract_y
 _atom_site_fract_z
 _atom_site_occupancy
  Sr  Sr0  1  0.772589  0.487030  0.330036  1
  Sr  Sr1  1  0.727459  0.986964  0.830270  1
  Sr  Sr2  1  0.227455  0.513130  0.669970  1
  Sr  Sr3  1  0.272558  0.012983  0.169852  1
  Sr  Sr4  1  0.772041  0.985273  0.366988  1
  Sr  Sr5  1  0.727994  0.485354  0.867265  1
  Sr  Sr6  1  0.227985  0.014528  0.632963  1
  Sr  Sr7  1  0.272003  0.514644  0.132898  1
  Tb  Tb8  1  0.754842  0.271101  0.619396  1
  Y  Y9  1  0.744743  0.770741  0.119620  1
  Y  Y10  1  0.244747  0.729261  0.380326  1
  Y  Y11  1  0.255179  0.229199  0.880489  1
  Ga  Ga12  1  0.719800  0.742297  0.580065  1
  Ga  Ga13  1  0.780271  0.242230  0.080068  1
  Ga  Ga14  1  0.280305  0.257670  0.419686  1
  Ga  Ga15  1  0.219742  0.757747  0.919964  1
  O  O16  1  0.789832  0.970427  0.628904  1
  O  O17  1  0.710138  0.470392  0.128861  1
  O  O18  1  0.209992  0.029474  0.371113  1
  O  O19  1  0.289848  0.529674  0.871136  1
  O  O20  1  0.716340  0.067645  0.176906  1
  O  O21  1  0.783780  0.568007  0.677167  1
  O  O22  1  0.283659  0.932225  0.823081  1
  O  O23  1  0.216145  0.432474  0.322992  1
  O  O24  1  0.541044  0.747347  0.275703  1
  O  O25  1  0.958793  0.247249  0.775840  1
  O  O26  1  0.458283  0.252557  0.724655  1
  O  O27  1  0.041049  0.752653  0.224318  1
  O  O28  1  0.597577  0.213105  0.959916  1
  O  O29  1  0.902507  0.713028  0.459931  1
  O  O30  1  0.402527  0.786888  0.040143  1
  O  O31  1  0.098669  0.286945  0.540067  1
  O  O32  1  0.089488  0.237128  0.046952  1
  O  O33  1  0.410546  0.737053  0.546879  1
  O  O34  1  0.910477  0.762885  0.953192  1
  O  O35  1  0.589591  0.262691  0.452388  1
