# generated using pymatgen
data_Dy2MoWN4
_symmetry_space_group_name_H-M   'P 1'
_cell_length_a   3.21059600
_cell_length_b   5.71637200
_cell_length_c   10.58623900
_cell_angle_alpha   90.00000000
_cell_angle_beta   90.00000000
_cell_angle_gamma   90.00000000
_symmetry_Int_Tables_number   1
_chemical_formula_structural   Dy2MoWN4
_chemical_formula_sum   'Dy4 Mo2 W2 N8'
_cell_volume   194.28883233
_cell_formula_units_Z   2
loop_
 _symmetry_equiv_pos_site_id
 _symmetry_equiv_pos_as_xyz
  1  'x, y, z'
loop_
 _atom_site_type_symbol
 _atom_site_label
 _atom_site_symmetry_multiplicity
 _atom_site_fract_x
 _atom_site_fract_y
 _atom_site_fract_z
 _atom_site_occupancy
  Dy  Dy0  1  0.250000  0.078724  0.853704  1
  Dy  Dy1  1  0.250000  0.578724  0.646296  1
  Dy  Dy2  1  0.750000  0.920559  0.145119  1
  Dy  Dy3  1  0.750000  0.420559  0.354881  1
  Mo  Mo4  1  0.750000  0.566944  0.906053  1
  Mo  Mo5  1  0.750000  0.066944  0.593947  1
  W  W6  1  0.250000  0.433765  0.094668  1
  W  W7  1  0.250000  0.933765  0.405332  1
  N  N8  1  0.250000  0.165691  0.248831  1
  N  N9  1  0.250000  0.665691  0.251169  1
  N  N10  1  0.750000  0.835426  0.749829  1
  N  N11  1  0.750000  0.335426  0.750171  1
  N  N12  1  0.250000  0.758854  0.994399  1
  N  N13  1  0.250000  0.258854  0.505601  1
  N  N14  1  0.750000  0.240036  0.008565  1
  N  N15  1  0.750000  0.740036  0.491435  1
