# generated using pymatgen
data_TbNdAl2(Co3B)2
_symmetry_space_group_name_H-M   'P 1'
_cell_length_a   5.20350000
_cell_length_b   5.20360389
_cell_length_c   6.66547200
_cell_angle_alpha   90.00000000
_cell_angle_beta   90.00000000
_cell_angle_gamma   119.99936497
_symmetry_Int_Tables_number   1
_chemical_formula_structural   TbNdAl2(Co3B)2
_chemical_formula_sum   'Tb1 Nd1 Al2 Co6 B2'
_cell_volume   156.30184627
_cell_formula_units_Z   1
loop_
 _symmetry_equiv_pos_site_id
 _symmetry_equiv_pos_as_xyz
  1  'x, y, z'
loop_
 _atom_site_type_symbol
 _atom_site_label
 _atom_site_symmetry_multiplicity
 _atom_site_fract_x
 _atom_site_fract_y
 _atom_site_fract_z
 _atom_site_occupancy
  Tb  Tb0  1  0.999989  0.000000  0.500000  1
  Nd  Nd1  1  0.999974  0.000000  0.000000  1
  Al  Al2  1  0.333329  0.666695  0.000000  1
  Al  Al3  1  0.666634  0.333305  0.000000  1
  Co  Co4  1  0.499986  0.000000  0.296010  1
  Co  Co5  1  0.499985  0.500001  0.295988  1
  Co  Co6  1  0.999983  0.499999  0.295988  1
  Co  Co7  1  0.499986  0.000000  0.703990  1
  Co  Co8  1  0.499985  0.500001  0.704012  1
  Co  Co9  1  0.999983  0.499999  0.704012  1
  B  B10  1  0.333305  0.666644  0.500000  1
  B  B11  1  0.666661  0.333356  0.500000  1
