# generated using pymatgen
data_Ba5Rh2Pb
_symmetry_space_group_name_H-M   'P 1'
_cell_length_a   8.62140383
_cell_length_b   8.62140306
_cell_length_c   10.12663712
_cell_angle_alpha   115.19368608
_cell_angle_beta   115.19368273
_cell_angle_gamma   89.99999961
_symmetry_Int_Tables_number   1
_chemical_formula_structural   Ba5Rh2Pb
_chemical_formula_sum   'Ba10 Rh4 Pb2'
_cell_volume   601.02597482
_cell_formula_units_Z   2
loop_
 _symmetry_equiv_pos_site_id
 _symmetry_equiv_pos_as_xyz
  1  'x, y, z'
loop_
 _atom_site_type_symbol
 _atom_site_label
 _atom_site_symmetry_multiplicity
 _atom_site_fract_x
 _atom_site_fract_y
 _atom_site_fract_z
 _atom_site_occupancy
  Ba  Ba0  1  0.000000  0.000000  0.000000  1
  Ba  Ba1  1  0.500000  0.500000  0.000000  1
  Ba  Ba2  1  0.803066  0.303066  0.260763  1
  Ba  Ba3  1  0.303066  0.457696  0.260763  1
  Ba  Ba4  1  0.957696  0.803066  0.260763  1
  Ba  Ba5  1  0.457696  0.957696  0.260763  1
  Ba  Ba6  1  0.542303  0.042304  0.739237  1
  Ba  Ba7  1  0.042304  0.196934  0.739237  1
  Ba  Ba8  1  0.696933  0.542303  0.739237  1
  Ba  Ba9  1  0.196934  0.696933  0.739237  1
  Rh  Rh10  1  0.384043  0.115957  0.000000  1
  Rh  Rh11  1  0.884043  0.384043  0.000000  1
  Rh  Rh12  1  0.115957  0.615956  0.000000  1
  Rh  Rh13  1  0.615956  0.884043  0.000000  1
  Pb  Pb14  1  0.250000  0.250000  0.500001  1
  Pb  Pb15  1  0.750000  0.750000  0.500001  1
