# generated using pymatgen
data_Sm6CoP12Rh16W
_symmetry_space_group_name_H-M   'P 1'
_cell_length_a   3.93848200
_cell_length_b   11.19604400
_cell_length_c   12.90248600
_cell_angle_alpha   90.00000000
_cell_angle_beta   90.00000000
_cell_angle_gamma   90.00000000
_symmetry_Int_Tables_number   1
_chemical_formula_structural   Sm6CoP12Rh16W
_chemical_formula_sum   'Sm6 Co1 P12 Rh16 W1'
_cell_volume   568.94051038
_cell_formula_units_Z   1
loop_
 _symmetry_equiv_pos_site_id
 _symmetry_equiv_pos_as_xyz
  1  'x, y, z'
loop_
 _atom_site_type_symbol
 _atom_site_label
 _atom_site_symmetry_multiplicity
 _atom_site_fract_x
 _atom_site_fract_y
 _atom_site_fract_z
 _atom_site_occupancy
  Sm  Sm0  1  0.000000  0.500000  0.519481  1
  Sm  Sm1  1  0.500000  0.000000  0.478090  1
  Sm  Sm2  1  0.500000  0.817429  0.204244  1
  Sm  Sm3  1  0.500000  0.182571  0.204244  1
  Sm  Sm4  1  0.000000  0.685814  0.799040  1
  Sm  Sm5  1  0.000000  0.314186  0.799040  1
  Co  Co6  1  0.500000  0.000000  0.019949  1
  P  P7  1  0.500000  0.500000  0.878185  1
  P  P8  1  0.000000  0.000000  0.118243  1
  P  P9  1  0.500000  0.500000  0.344578  1
  P  P10  1  0.000000  0.000000  0.650888  1
  P  P11  1  0.500000  0.314064  0.618017  1
  P  P12  1  0.500000  0.685936  0.618017  1
  P  P13  1  0.000000  0.186961  0.382356  1
  P  P14  1  0.000000  0.813039  0.382356  1
  P  P15  1  0.500000  0.857182  0.894836  1
  P  P16  1  0.500000  0.142818  0.894836  1
  P  P17  1  0.000000  0.654569  0.108589  1
  P  P18  1  0.000000  0.345431  0.108589  1
  Rh  Rh19  1  0.000000  0.000000  0.831781  1
  Rh  Rh20  1  0.500000  0.500000  0.700701  1
  Rh  Rh21  1  0.000000  0.000000  0.297106  1
  Rh  Rh22  1  0.000000  0.500000  0.987947  1
  Rh  Rh23  1  0.500000  0.330725  0.991052  1
  Rh  Rh24  1  0.500000  0.669275  0.991052  1
  Rh  Rh25  1  0.000000  0.161710  0.008184  1
  Rh  Rh26  1  0.000000  0.838290  0.008184  1
  Rh  Rh27  1  0.500000  0.292113  0.431519  1
  Rh  Rh28  1  0.500000  0.707887  0.431519  1
  Rh  Rh29  1  0.000000  0.205357  0.570219  1
  Rh  Rh30  1  0.000000  0.794643  0.570219  1
  Rh  Rh31  1  0.500000  0.875010  0.710983  1
  Rh  Rh32  1  0.500000  0.124990  0.710983  1
  Rh  Rh33  1  0.000000  0.624359  0.288663  1
  Rh  Rh34  1  0.000000  0.375641  0.288663  1
  W  W35  1  0.500000  0.500000  0.157644  1
