# generated using pymatgen
data_YEr9In8Ir2PdPt
_symmetry_space_group_name_H-M   'P 1'
_cell_length_a   3.59907000
_cell_length_b   8.09781397
_cell_length_c   18.17297600
_cell_angle_alpha   90.11729710
_cell_angle_beta   90.00000000
_cell_angle_gamma   90.00000000
_symmetry_Int_Tables_number   1
_chemical_formula_structural   YEr9In8Ir2PdPt
_chemical_formula_sum   'Y1 Er9 In8 Ir2 Pd1 Pt1'
_cell_volume   529.64299413
_cell_formula_units_Z   1
loop_
 _symmetry_equiv_pos_site_id
 _symmetry_equiv_pos_as_xyz
  1  'x, y, z'
loop_
 _atom_site_type_symbol
 _atom_site_label
 _atom_site_symmetry_multiplicity
 _atom_site_fract_x
 _atom_site_fract_y
 _atom_site_fract_z
 _atom_site_occupancy
  Y  Y0  1  0.000000  0.999914  0.000051  1
  Er  Er1  1  0.000000  0.500097  0.500213  1
  Er  Er2  1  0.000000  0.728060  0.277569  1
  Er  Er3  1  0.000000  0.268691  0.722253  1
  Er  Er4  1  0.000000  0.750182  0.778895  1
  Er  Er5  1  0.000000  0.252912  0.220130  1
  Er  Er6  1  0.000000  0.614270  0.087293  1
  Er  Er7  1  0.000000  0.385897  0.912377  1
  Er  Er8  1  0.000000  0.885467  0.585778  1
  Er  Er9  1  0.000000  0.115326  0.415255  1
  In  In10  1  0.500000  0.707438  0.932264  1
  In  In11  1  0.500000  0.292499  0.067929  1
  In  In12  1  0.500000  0.790545  0.432117  1
  In  In13  1  0.500000  0.209895  0.567029  1
  In  In14  1  0.500000  0.577030  0.648108  1
  In  In15  1  0.500000  0.421445  0.351812  1
  In  In16  1  0.500000  0.923034  0.150178  1
  In  In17  1  0.500000  0.077225  0.850634  1
  Ir  Ir18  1  0.500000  0.519145  0.195802  1
  Ir  Ir19  1  0.500000  0.480878  0.804190  1
  Pd  Pd20  1  0.500000  0.019201  0.303969  1
  Pt  Pt21  1  0.500000  0.980850  0.696156  1
