# generated using pymatgen
data_Ac2Cu2I
_symmetry_space_group_name_H-M   'P 1'
_cell_length_a   4.35247200
_cell_length_b   4.35247222
_cell_length_c   18.49654100
_cell_angle_alpha   90.00000000
_cell_angle_beta   90.00000000
_cell_angle_gamma   120.00001351
_symmetry_Int_Tables_number   1
_chemical_formula_structural   Ac2Cu2I
_chemical_formula_sum   'Ac4 Cu4 I2'
_cell_volume   303.45415335
_cell_formula_units_Z   2
loop_
 _symmetry_equiv_pos_site_id
 _symmetry_equiv_pos_as_xyz
  1  'x, y, z'
loop_
 _atom_site_type_symbol
 _atom_site_label
 _atom_site_symmetry_multiplicity
 _atom_site_fract_x
 _atom_site_fract_y
 _atom_site_fract_z
 _atom_site_occupancy
  Ac  Ac0  1  0.000000  0.000000  0.104846  1
  Ac  Ac1  1  0.000000  0.000000  0.895154  1
  Ac  Ac2  1  0.000000  0.000000  0.604846  1
  Ac  Ac3  1  0.000000  0.000000  0.395154  1
  Cu  Cu4  1  0.333333  0.666667  0.500556  1
  Cu  Cu5  1  0.666667  0.333333  0.499444  1
  Cu  Cu6  1  0.666667  0.333333  0.000556  1
  Cu  Cu7  1  0.333333  0.666667  0.999444  1
  I  I8  1  0.333333  0.666667  0.250000  1
  I  I9  1  0.666667  0.333333  0.750000  1
