# generated using pymatgen
data_CaY2Ga6Ni7Rh2
_symmetry_space_group_name_H-M   'P 1'
_cell_length_a   9.23191735
_cell_length_b   9.23191862
_cell_length_c   3.86197800
_cell_angle_alpha   90.00000000
_cell_angle_beta   90.00000000
_cell_angle_gamma   121.08447967
_symmetry_Int_Tables_number   1
_chemical_formula_structural   CaY2Ga6Ni7Rh2
_chemical_formula_sum   'Ca1 Y2 Ga6 Ni7 Rh2'
_cell_volume   281.88623238
_cell_formula_units_Z   1
loop_
 _symmetry_equiv_pos_site_id
 _symmetry_equiv_pos_as_xyz
  1  'x, y, z'
loop_
 _atom_site_type_symbol
 _atom_site_label
 _atom_site_symmetry_multiplicity
 _atom_site_fract_x
 _atom_site_fract_y
 _atom_site_fract_z
 _atom_site_occupancy
  Ca  Ca0  1  0.000000  0.000000  0.000000  1
  Y  Y1  1  0.326594  0.673406  0.500000  1
  Y  Y2  1  0.673406  0.326594  0.500000  1
  Ga  Ga3  1  0.328589  0.328589  0.500000  1
  Ga  Ga4  1  0.689076  0.994424  0.500000  1
  Ga  Ga5  1  0.671411  0.671411  0.500000  1
  Ga  Ga6  1  0.005576  0.310924  0.500000  1
  Ga  Ga7  1  0.994424  0.689076  0.500000  1
  Ga  Ga8  1  0.310924  0.005576  0.500000  1
  Ni  Ni9  1  0.186949  0.361124  0.000000  1
  Ni  Ni10  1  0.813051  0.638876  0.000000  1
  Ni  Ni11  1  0.173019  0.826981  0.000000  1
  Ni  Ni12  1  0.638876  0.813051  0.000000  1
  Ni  Ni13  1  0.361124  0.186949  0.000000  1
  Ni  Ni14  1  0.826981  0.173019  0.000000  1
  Ni  Ni15  1  0.500000  0.500000  0.000000  1
  Rh  Rh16  1  0.500000  0.000000  0.000000  1
  Rh  Rh17  1  0.000000  0.500000  0.000000  1
