# generated using pymatgen
data_Ta7TiGa6Tc2B
_symmetry_space_group_name_H-M   'P 1'
_cell_length_a   7.69387500
_cell_length_b   7.69387457
_cell_length_c   5.18946900
_cell_angle_alpha   90.00000000
_cell_angle_beta   90.00000000
_cell_angle_gamma   119.99999753
_symmetry_Int_Tables_number   1
_chemical_formula_structural   Ta7TiGa6Tc2B
_chemical_formula_sum   'Ta7 Ti1 Ga6 Tc2 B1'
_cell_volume   266.03807259
_cell_formula_units_Z   1
loop_
 _symmetry_equiv_pos_site_id
 _symmetry_equiv_pos_as_xyz
  1  'x, y, z'
loop_
 _atom_site_type_symbol
 _atom_site_label
 _atom_site_symmetry_multiplicity
 _atom_site_fract_x
 _atom_site_fract_y
 _atom_site_fract_z
 _atom_site_occupancy
  Ta  Ta0  1  0.333333  0.666667  0.000000  1
  Ta  Ta1  1  0.002258  0.764198  0.234868  1
  Ta  Ta2  1  0.235802  0.238060  0.234868  1
  Ta  Ta3  1  0.761940  0.997742  0.234868  1
  Ta  Ta4  1  0.002258  0.238060  0.765132  1
  Ta  Ta5  1  0.761940  0.764198  0.765132  1
  Ta  Ta6  1  0.235802  0.997742  0.765132  1
  Ti  Ti7  1  0.666667  0.333333  0.000000  1
  Ga  Ga8  1  0.996221  0.401996  0.264080  1
  Ga  Ga9  1  0.598004  0.594226  0.264080  1
  Ga  Ga10  1  0.405774  0.003779  0.264080  1
  Ga  Ga11  1  0.996221  0.594226  0.735920  1
  Ga  Ga12  1  0.405774  0.401996  0.735920  1
  Ga  Ga13  1  0.598004  0.003779  0.735920  1
  Tc  Tc14  1  0.333333  0.666667  0.500000  1
  Tc  Tc15  1  0.666667  0.333333  0.500000  1
  B  B16  1  0.000000  0.000000  0.500000  1
