# generated using pymatgen
data_La12FeOsI17
_symmetry_space_group_name_H-M   'P 1'
_cell_length_a   9.97134087
_cell_length_b   12.11358819
_cell_length_c   12.23633300
_cell_angle_alpha   73.36278822
_cell_angle_beta   74.68309358
_cell_angle_gamma   66.72338743
_symmetry_Int_Tables_number   1
_chemical_formula_structural   La12FeOsI17
_chemical_formula_sum   'La12 Fe1 Os1 I17'
_cell_volume   1281.58257650
_cell_formula_units_Z   1
loop_
 _symmetry_equiv_pos_site_id
 _symmetry_equiv_pos_as_xyz
  1  'x, y, z'
loop_
 _atom_site_type_symbol
 _atom_site_label
 _atom_site_symmetry_multiplicity
 _atom_site_fract_x
 _atom_site_fract_y
 _atom_site_fract_z
 _atom_site_occupancy
  La  La0  1  0.450556  0.481685  0.328085  1
  La  La1  1  0.563954  0.671744  0.999399  1
  La  La2  1  0.290481  0.000469  0.086450  1
  La  La3  1  0.841106  0.281959  0.846574  1
  La  La4  1  0.421918  0.238945  0.730840  1
  La  La5  1  0.707219  0.001105  0.913611  1
  La  La6  1  0.548639  0.519683  0.672324  1
  La  La7  1  0.435752  0.326240  0.999639  1
  La  La8  1  0.594755  0.762103  0.276246  1
  La  La9  1  0.831254  0.186151  0.577051  1
  La  La10  1  0.172239  0.812502  0.421252  1
  La  La11  1  0.140022  0.715370  0.147965  1
  Fe  Fe12  1  0.636378  0.265614  0.786723  1
  Os  Os13  1  0.368141  0.737192  0.212330  1
  I  I14  1  0.057244  0.105819  0.318763  1
  I  I15  1  0.458993  0.944047  0.822502  1
  I  I16  1  0.428368  0.823004  0.531231  1
  I  I17  1  0.571272  0.177538  0.471639  1
  I  I18  1  0.859274  0.695382  0.047482  1
  I  I19  1  0.212131  0.417815  0.245850  1
  I  I20  1  0.687681  0.366676  0.103715  1
  I  I21  1  0.540257  0.058480  0.176819  1
  I  I22  1  0.746933  0.472268  0.413820  1
  I  I23  1  0.883672  0.785352  0.370508  1
  I  I24  1  0.942118  0.894720  0.682752  1
  I  I25  1  0.142377  0.304982  0.950255  1
  I  I26  1  0.312801  0.631593  0.894465  1
  I  I27  1  0.998474  0.001103  0.999099  1
  I  I28  1  0.112742  0.215467  0.631604  1
  I  I29  1  0.787723  0.579746  0.753360  1
  I  I30  1  0.255526  0.525242  0.587644  1
