# generated using pymatgen
data_Nd3InHg2PdPt2
_symmetry_space_group_name_H-M   'P 1'
_cell_length_a   7.93996251
_cell_length_b   7.93996101
_cell_length_c   3.89363100
_cell_angle_alpha   90.00000000
_cell_angle_beta   90.00000000
_cell_angle_gamma   120.72317524
_symmetry_Int_Tables_number   1
_chemical_formula_structural   Nd3InHg2PdPt2
_chemical_formula_sum   'Nd3 In1 Hg2 Pd1 Pt2'
_cell_volume   211.01391972
_cell_formula_units_Z   1
loop_
 _symmetry_equiv_pos_site_id
 _symmetry_equiv_pos_as_xyz
  1  'x, y, z'
loop_
 _atom_site_type_symbol
 _atom_site_label
 _atom_site_symmetry_multiplicity
 _atom_site_fract_x
 _atom_site_fract_y
 _atom_site_fract_z
 _atom_site_occupancy
  Nd  Nd0  1  0.005220  0.593132  0.500000  1
  Nd  Nd1  1  0.593132  0.005220  0.500000  1
  Nd  Nd2  1  0.398970  0.398970  0.500000  1
  In  In3  1  0.743116  0.743116  0.000000  1
  Hg  Hg4  1  0.997239  0.259664  0.000000  1
  Hg  Hg5  1  0.259664  0.997239  0.000000  1
  Pd  Pd6  1  0.988926  0.988926  0.500000  1
  Pt  Pt7  1  0.668568  0.345164  0.000000  1
  Pt  Pt8  1  0.345164  0.668568  0.000000  1
