# generated using pymatgen
data_Er4MgCd(CuNi)2
_symmetry_space_group_name_H-M   'P 1'
_cell_length_a   7.42950776
_cell_length_b   7.44779960
_cell_length_c   3.65483300
_cell_angle_alpha   90.00000000
_cell_angle_beta   90.00000000
_cell_angle_gamma   90.77743549
_symmetry_Int_Tables_number   1
_chemical_formula_structural   Er4MgCd(CuNi)2
_chemical_formula_sum   'Er4 Mg1 Cd1 Cu2 Ni2'
_cell_volume   202.21602987
_cell_formula_units_Z   1
loop_
 _symmetry_equiv_pos_site_id
 _symmetry_equiv_pos_as_xyz
  1  'x, y, z'
loop_
 _atom_site_type_symbol
 _atom_site_label
 _atom_site_symmetry_multiplicity
 _atom_site_fract_x
 _atom_site_fract_y
 _atom_site_fract_z
 _atom_site_occupancy
  Er  Er0  1  0.673859  0.186023  0.500000  1
  Er  Er1  1  0.326141  0.813977  0.500000  1
  Er  Er2  1  0.168217  0.343226  0.500000  1
  Er  Er3  1  0.831783  0.656774  0.500000  1
  Mg  Mg4  1  0.000000  0.000000  0.000000  1
  Cd  Cd5  1  0.500000  0.500000  0.000000  1
  Cu  Cu6  1  0.624587  0.881466  0.000000  1
  Cu  Cu7  1  0.375413  0.118534  0.000000  1
  Ni  Ni8  1  0.119651  0.627270  0.000000  1
  Ni  Ni9  1  0.880349  0.372730  0.000000  1
