# generated using pymatgen
data_Nd8Be4Si11Au
_symmetry_space_group_name_H-M   'P 1'
_cell_length_a   8.01934487
_cell_length_b   8.01934539
_cell_length_c   8.55694303
_cell_angle_alpha   90.00882053
_cell_angle_beta   89.99117738
_cell_angle_gamma   119.86158950
_symmetry_Int_Tables_number   1
_chemical_formula_structural   Nd8Be4Si11Au
_chemical_formula_sum   'Nd8 Be4 Si11 Au1'
_cell_volume   477.23370099
_cell_formula_units_Z   1
loop_
 _symmetry_equiv_pos_site_id
 _symmetry_equiv_pos_as_xyz
  1  'x, y, z'
loop_
 _atom_site_type_symbol
 _atom_site_label
 _atom_site_symmetry_multiplicity
 _atom_site_fract_x
 _atom_site_fract_y
 _atom_site_fract_z
 _atom_site_occupancy
  Nd  Nd0  1  0.001548  0.998452  0.747103  1
  Nd  Nd1  1  0.001518  0.998482  0.252856  1
  Nd  Nd2  1  0.499213  0.500787  0.750838  1
  Nd  Nd3  1  0.496076  0.997344  0.747956  1
  Nd  Nd4  1  0.002656  0.503924  0.747956  1
  Nd  Nd5  1  0.499959  0.500041  0.249158  1
  Nd  Nd6  1  0.001125  0.503029  0.252101  1
  Nd  Nd7  1  0.496971  0.998875  0.252101  1
  Be  Be8  1  0.664141  0.335859  0.997278  1
  Be  Be9  1  0.666697  0.333303  0.502526  1
  Be  Be10  1  0.334165  0.665835  0.497470  1
  Be  Be11  1  0.335708  0.664292  0.002534  1
  Si  Si12  1  0.824168  0.653834  0.999518  1
  Si  Si13  1  0.346166  0.175832  0.999518  1
  Si  Si14  1  0.828046  0.171954  0.500577  1
  Si  Si15  1  0.826924  0.655451  0.500512  1
  Si  Si16  1  0.344549  0.173076  0.500512  1
  Si  Si17  1  0.171931  0.828069  0.499466  1
  Si  Si18  1  0.655426  0.827596  0.499452  1
  Si  Si19  1  0.172404  0.344574  0.499452  1
  Si  Si20  1  0.171539  0.828461  0.000565  1
  Si  Si21  1  0.654487  0.824175  0.000589  1
  Si  Si22  1  0.175825  0.345513  0.000589  1
  Au  Au23  1  0.828758  0.171242  0.999374  1
