# generated using pymatgen
data_NaNd3Te4
_symmetry_space_group_name_H-M   'P 1'
_cell_length_a   9.01581507
_cell_length_b   9.01581506
_cell_length_c   9.06647900
_cell_angle_alpha   59.81393161
_cell_angle_beta   59.81393165
_cell_angle_gamma   59.80270310
_symmetry_Int_Tables_number   1
_chemical_formula_structural   NaNd3Te4
_chemical_formula_sum   'Na2 Nd6 Te8'
_cell_volume   518.86980102
_cell_formula_units_Z   2
loop_
 _symmetry_equiv_pos_site_id
 _symmetry_equiv_pos_as_xyz
  1  'x, y, z'
loop_
 _atom_site_type_symbol
 _atom_site_label
 _atom_site_symmetry_multiplicity
 _atom_site_fract_x
 _atom_site_fract_y
 _atom_site_fract_z
 _atom_site_occupancy
  Na  Na0  1  0.125000  0.625000  0.125000  1
  Na  Na1  1  0.625000  0.125000  0.125000  1
  Nd  Nd2  1  0.625000  0.125000  0.625000  1
  Nd  Nd3  1  0.625000  0.625000  0.625000  1
  Nd  Nd4  1  0.125000  0.625000  0.625000  1
  Nd  Nd5  1  0.625000  0.625000  0.125000  1
  Nd  Nd6  1  0.125000  0.125000  0.625000  1
  Nd  Nd7  1  0.125000  0.125000  0.125000  1
  Te  Te8  1  0.378064  0.876783  0.372576  1
  Te  Te9  1  0.871936  0.373217  0.877424  1
  Te  Te10  1  0.874616  0.874616  0.374729  1
  Te  Te11  1  0.874616  0.874616  0.876040  1
  Te  Te12  1  0.876783  0.378064  0.372576  1
  Te  Te13  1  0.375384  0.375384  0.875271  1
  Te  Te14  1  0.375384  0.375384  0.373960  1
  Te  Te15  1  0.373217  0.871936  0.877424  1
