# generated using pymatgen
data_TmLu2(SbRh)3
_symmetry_space_group_name_H-M   'P 1'
_cell_length_a   7.43064876
_cell_length_b   7.41608251
_cell_length_c   3.89780900
_cell_angle_alpha   90.00000000
_cell_angle_beta   90.00000000
_cell_angle_gamma   119.93517353
_symmetry_Int_Tables_number   1
_chemical_formula_structural   TmLu2(SbRh)3
_chemical_formula_sum   'Tm1 Lu2 Sb3 Rh3'
_cell_volume   186.13832324
_cell_formula_units_Z   1
loop_
 _symmetry_equiv_pos_site_id
 _symmetry_equiv_pos_as_xyz
  1  'x, y, z'
loop_
 _atom_site_type_symbol
 _atom_site_label
 _atom_site_symmetry_multiplicity
 _atom_site_fract_x
 _atom_site_fract_y
 _atom_site_fract_z
 _atom_site_occupancy
  Tm  Tm0  1  0.000000  0.600649  0.500001  1
  Lu  Lu1  1  0.600878  0.999988  0.500001  1
  Lu  Lu2  1  0.399122  0.399110  0.500001  1
  Sb  Sb3  1  0.266167  0.000430  0.000000  1
  Sb  Sb4  1  0.000000  0.265419  0.000000  1
  Sb  Sb5  1  0.733833  0.734263  0.000000  1
  Rh  Rh6  1  0.665675  0.332481  0.000000  1
  Rh  Rh7  1  0.334325  0.666806  0.000000  1
  Rh  Rh8  1  0.000000  0.000853  0.500001  1
