# generated using pymatgen
data_Sr3LaTm5Lu3Se16
_symmetry_space_group_name_H-M   'P 1'
_cell_length_a   4.09108000
_cell_length_b   12.52044960
_cell_length_c   14.82169202
_cell_angle_alpha   90.20178943
_cell_angle_beta   90.00000000
_cell_angle_gamma   90.00000000
_symmetry_Int_Tables_number   1
_chemical_formula_structural   Sr3LaTm5Lu3Se16
_chemical_formula_sum   'Sr3 La1 Tm5 Lu3 Se16'
_cell_volume   759.19438585
_cell_formula_units_Z   1
loop_
 _symmetry_equiv_pos_site_id
 _symmetry_equiv_pos_as_xyz
  1  'x, y, z'
loop_
 _atom_site_type_symbol
 _atom_site_label
 _atom_site_symmetry_multiplicity
 _atom_site_fract_x
 _atom_site_fract_y
 _atom_site_fract_z
 _atom_site_occupancy
  Sr  Sr0  1  0.250000  0.257955  0.165100  1
  Sr  Sr1  1  0.750000  0.239500  0.667004  1
  Sr  Sr2  1  0.750000  0.741046  0.832934  1
  La  La3  1  0.250000  0.759758  0.331084  1
  Tm  Tm4  1  0.250000  0.439068  0.389545  1
  Tm  Tm5  1  0.250000  0.935740  0.109844  1
  Tm  Tm6  1  0.750000  0.561756  0.609999  1
  Tm  Tm7  1  0.750000  0.061517  0.889833  1
  Tm  Tm8  1  0.250000  0.418210  0.902964  1
  Lu  Lu9  1  0.250000  0.915874  0.596534  1
  Lu  Lu10  1  0.750000  0.584013  0.097200  1
  Lu  Lu11  1  0.750000  0.081936  0.402820  1
  Se  Se12  1  0.250000  0.205339  0.832946  1
  Se  Se13  1  0.250000  0.705242  0.667134  1
  Se  Se14  1  0.750000  0.795109  0.172654  1
  Se  Se15  1  0.750000  0.294695  0.330990  1
  Se  Se16  1  0.250000  0.126317  0.529285  1
  Se  Se17  1  0.250000  0.629943  0.971463  1
  Se  Se18  1  0.750000  0.869533  0.467769  1
  Se  Se19  1  0.750000  0.373416  0.032058  1
  Se  Se20  1  0.250000  0.020947  0.286766  1
  Se  Se21  1  0.250000  0.536606  0.217866  1
  Se  Se22  1  0.750000  0.971671  0.714475  1
  Se  Se23  1  0.750000  0.472560  0.784157  1
  Se  Se24  1  0.250000  0.409671  0.575520  1
  Se  Se25  1  0.250000  0.908994  0.922657  1
  Se  Se26  1  0.750000  0.594220  0.421594  1
  Se  Se27  1  0.750000  0.089363  0.077804  1
