# generated using pymatgen
data_YHoLuGa5Co
_symmetry_space_group_name_H-M   'P 1'
_cell_length_a   6.83173232
_cell_length_b   6.82585287
_cell_length_c   4.23094300
_cell_angle_alpha   90.00000000
_cell_angle_beta   90.00000000
_cell_angle_gamma   119.55192565
_symmetry_Int_Tables_number   1
_chemical_formula_structural   YHoLuGa5Co
_chemical_formula_sum   'Y1 Ho1 Lu1 Ga5 Co1'
_cell_volume   171.63221079
_cell_formula_units_Z   1
loop_
 _symmetry_equiv_pos_site_id
 _symmetry_equiv_pos_as_xyz
  1  'x, y, z'
loop_
 _atom_site_type_symbol
 _atom_site_label
 _atom_site_symmetry_multiplicity
 _atom_site_fract_x
 _atom_site_fract_y
 _atom_site_fract_z
 _atom_site_occupancy
  Y  Y0  1  0.999055  0.595808  0.000000  1
  Ho  Ho1  1  0.597126  0.998862  0.000000  1
  Lu  Lu2  1  0.397906  0.397643  0.000000  1
  Ga  Ga3  1  0.232096  0.000363  0.500000  1
  Ga  Ga4  1  0.000072  0.231728  0.500000  1
  Ga  Ga5  1  0.769158  0.769474  0.500000  1
  Ga  Ga6  1  0.335779  0.664635  0.500000  1
  Ga  Ga7  1  0.663512  0.334329  0.500000  1
  Co  Co8  1  0.005297  0.007158  0.000000  1
