# generated using pymatgen
data_LaTh(Ni4Pt)2
_symmetry_space_group_name_H-M   'P 1'
_cell_length_a   4.05384300
_cell_length_b   5.15742734
_cell_length_c   8.62160573
_cell_angle_alpha   93.24247689
_cell_angle_beta   90.00000000
_cell_angle_gamma   90.00000000
_symmetry_Int_Tables_number   1
_chemical_formula_structural   LaTh(Ni4Pt)2
_chemical_formula_sum   'La1 Th1 Ni8 Pt2'
_cell_volume   179.96679623
_cell_formula_units_Z   1
loop_
 _symmetry_equiv_pos_site_id
 _symmetry_equiv_pos_as_xyz
  1  'x, y, z'
loop_
 _atom_site_type_symbol
 _atom_site_label
 _atom_site_symmetry_multiplicity
 _atom_site_fract_x
 _atom_site_fract_y
 _atom_site_fract_z
 _atom_site_occupancy
  La  La0  1  0.000000  0.000000  0.000000  1
  Th  Th1  1  0.000000  0.500000  0.500000  1
  Ni  Ni2  1  0.000000  0.976199  0.343843  1
  Ni  Ni3  1  0.000000  0.475235  0.839939  1
  Ni  Ni4  1  0.000000  0.524765  0.160061  1
  Ni  Ni5  1  0.000000  0.023801  0.656157  1
  Ni  Ni6  1  0.500000  0.500000  0.000000  1
  Ni  Ni7  1  0.500000  0.000000  0.500000  1
  Ni  Ni8  1  0.500000  0.750381  0.252258  1
  Ni  Ni9  1  0.500000  0.249619  0.747742  1
  Pt  Pt10  1  0.500000  0.254722  0.254567  1
  Pt  Pt11  1  0.500000  0.745278  0.745433  1
