# generated using pymatgen
data_La7Yb9(MgIr)4
_symmetry_space_group_name_H-M   'P 1'
_cell_length_a   10.17027274
_cell_length_b   10.19094258
_cell_length_c   10.11028015
_cell_angle_alpha   60.12661960
_cell_angle_beta   59.75565122
_cell_angle_gamma   59.54338624
_symmetry_Int_Tables_number   1
_chemical_formula_structural   La7Yb9(MgIr)4
_chemical_formula_sum   'La7 Yb9 Mg4 Ir4'
_cell_volume   737.70113505
_cell_formula_units_Z   1
loop_
 _symmetry_equiv_pos_site_id
 _symmetry_equiv_pos_as_xyz
  1  'x, y, z'
loop_
 _atom_site_type_symbol
 _atom_site_label
 _atom_site_symmetry_multiplicity
 _atom_site_fract_x
 _atom_site_fract_y
 _atom_site_fract_z
 _atom_site_occupancy
  La  La0  1  0.188520  0.187970  0.814532  1
  La  La1  1  0.810510  0.189489  0.810510  1
  La  La2  1  0.814532  0.808975  0.188520  1
  La  La3  1  0.345398  0.345391  0.341497  1
  La  La4  1  0.343093  0.346537  0.966749  1
  La  La5  1  0.966749  0.343620  0.343093  1
  La  La6  1  0.341497  0.967713  0.345398  1
  Yb  Yb7  1  0.946551  0.552525  0.554068  1
  Yb  Yb8  1  0.554068  0.946855  0.946552  1
  Yb  Yb9  1  0.555493  0.944506  0.555493  1
  Yb  Yb10  1  0.557169  0.556590  0.943193  1
  Yb  Yb11  1  0.944175  0.555825  0.944175  1
  Yb  Yb12  1  0.943194  0.943047  0.557169  1
  Yb  Yb13  1  0.810090  0.190885  0.190083  1
  Yb  Yb14  1  0.190083  0.808940  0.810090  1
  Yb  Yb15  1  0.189878  0.810121  0.189878  1
  Mg  Mg16  1  0.578298  0.578113  0.577999  1
  Mg  Mg17  1  0.577067  0.580470  0.266212  1
  Mg  Mg18  1  0.266212  0.576251  0.577067  1
  Mg  Mg19  1  0.577999  0.265589  0.578298  1
  Ir  Ir20  1  0.146667  0.142224  0.133502  1
  Ir  Ir21  1  0.138014  0.148613  0.581237  1
  Ir  Ir22  1  0.581237  0.132137  0.138014  1
  Ir  Ir23  1  0.133502  0.577608  0.146667  1
