# generated using pymatgen
data_Zr2Pa4FeBr15
_symmetry_space_group_name_H-M   'P 1'
_cell_length_a   9.78238618
_cell_length_b   9.78238740
_cell_length_c   9.82067015
_cell_angle_alpha   109.57191988
_cell_angle_beta   109.57191229
_cell_angle_gamma   109.11094182
_symmetry_Int_Tables_number   1
_chemical_formula_structural   Zr2Pa4FeBr15
_chemical_formula_sum   'Zr2 Pa4 Fe1 Br15'
_cell_volume   724.85403631
_cell_formula_units_Z   1
loop_
 _symmetry_equiv_pos_site_id
 _symmetry_equiv_pos_as_xyz
  1  'x, y, z'
loop_
 _atom_site_type_symbol
 _atom_site_label
 _atom_site_symmetry_multiplicity
 _atom_site_fract_x
 _atom_site_fract_y
 _atom_site_fract_z
 _atom_site_occupancy
  Zr  Zr0  1  0.780316  0.997569  0.777885  1
  Zr  Zr1  1  0.997569  0.780316  0.777885  1
  Pa  Pa2  1  0.769200  0.769200  0.997388  1
  Pa  Pa3  1  0.242311  0.997558  0.239870  1
  Pa  Pa4  1  0.997558  0.242311  0.239870  1
  Pa  Pa5  1  0.228188  0.228188  0.997388  1
  Fe  Fe6  1  0.002187  0.002187  0.004375  1
  Br  Br7  1  0.252092  0.252092  0.504185  1
  Br  Br8  1  0.747838  0.000393  0.252437  1
  Br  Br9  1  0.000393  0.747838  0.252437  1
  Br  Br10  1  0.745306  0.237741  0.983048  1
  Br  Br11  1  0.252043  0.504600  0.252437  1
  Br  Br12  1  0.983856  0.236999  0.745296  1
  Br  Br13  1  0.237741  0.745306  0.983048  1
  Br  Br14  1  0.236999  0.983856  0.745296  1
  Br  Br15  1  0.504600  0.252043  0.252437  1
  Br  Br16  1  0.758516  0.758516  0.517031  1
  Br  Br17  1  0.761439  0.508296  0.745296  1
  Br  Br18  1  0.508296  0.761439  0.745296  1
  Br  Br19  1  0.498766  0.498766  0.997532  1
  Br  Br20  1  0.497005  0.997779  0.494783  1
  Br  Br21  1  0.997779  0.497005  0.494783  1
