# generated using pymatgen
data_Lu16Co3Ag4Rh
_symmetry_space_group_name_H-M   'P 1'
_cell_length_a   9.24581384
_cell_length_b   9.22332916
_cell_length_c   9.22332800
_cell_angle_alpha   60.00000415
_cell_angle_beta   60.08041743
_cell_angle_gamma   60.08041682
_symmetry_Int_Tables_number   1
_chemical_formula_structural   Lu16Co3Ag4Rh
_chemical_formula_sum   'Lu16 Co3 Ag4 Rh1'
_cell_volume   556.84245639
_cell_formula_units_Z   1
loop_
 _symmetry_equiv_pos_site_id
 _symmetry_equiv_pos_as_xyz
  1  'x, y, z'
loop_
 _atom_site_type_symbol
 _atom_site_label
 _atom_site_symmetry_multiplicity
 _atom_site_fract_x
 _atom_site_fract_y
 _atom_site_fract_z
 _atom_site_occupancy
  Lu  Lu0  1  0.592904  0.604359  0.604359  1
  Lu  Lu1  1  0.592904  0.604359  0.198379  1
  Lu  Lu2  1  0.592904  0.198379  0.604359  1
  Lu  Lu3  1  0.213994  0.595336  0.595336  1
  Lu  Lu4  1  0.067634  0.437976  0.437976  1
  Lu  Lu5  1  0.436126  0.062437  0.062437  1
  Lu  Lu6  1  0.436126  0.062437  0.439001  1
  Lu  Lu7  1  0.067634  0.437976  0.056413  1
  Lu  Lu8  1  0.436126  0.439001  0.062437  1
  Lu  Lu9  1  0.067634  0.056413  0.437976  1
  Lu  Lu10  1  0.183971  0.814461  0.814461  1
  Lu  Lu11  1  0.810911  0.188064  0.188064  1
  Lu  Lu12  1  0.810911  0.188064  0.812960  1
  Lu  Lu13  1  0.183971  0.814461  0.187107  1
  Lu  Lu14  1  0.810911  0.812960  0.188064  1
  Lu  Lu15  1  0.183971  0.187107  0.814461  1
  Co  Co16  1  0.396092  0.389678  0.389678  1
  Co  Co17  1  0.396092  0.389678  0.824550  1
  Co  Co18  1  0.396092  0.824550  0.389678  1
  Ag  Ag19  1  0.833733  0.830981  0.830981  1
  Ag  Ag20  1  0.833733  0.830981  0.504306  1
  Ag  Ag21  1  0.833733  0.504306  0.830981  1
  Ag  Ag22  1  0.502157  0.832614  0.832614  1
  Rh  Rh23  1  0.819731  0.393422  0.393422  1
