# generated using pymatgen
data_Ho3Tm9IrOs3
_symmetry_space_group_name_H-M   'P 1'
_cell_length_a   6.30898285
_cell_length_b   7.31101579
_cell_length_c   8.92895300
_cell_angle_alpha   90.00000000
_cell_angle_beta   90.00000000
_cell_angle_gamma   89.92018891
_symmetry_Int_Tables_number   1
_chemical_formula_structural   Ho3Tm9IrOs3
_chemical_formula_sum   'Ho3 Tm9 Ir1 Os3'
_cell_volume   411.84821158
_cell_formula_units_Z   1
loop_
 _symmetry_equiv_pos_site_id
 _symmetry_equiv_pos_as_xyz
  1  'x, y, z'
loop_
 _atom_site_type_symbol
 _atom_site_label
 _atom_site_symmetry_multiplicity
 _atom_site_fract_x
 _atom_site_fract_y
 _atom_site_fract_z
 _atom_site_occupancy
  Ho  Ho0  1  0.872462  0.538077  0.250000  1
  Ho  Ho1  1  0.627020  0.037259  0.250000  1
  Ho  Ho2  1  0.128886  0.462496  0.750000  1
  Tm  Tm3  1  0.330328  0.676876  0.061257  1
  Tm  Tm4  1  0.168359  0.173002  0.438602  1
  Tm  Tm5  1  0.671641  0.324271  0.564477  1
  Tm  Tm6  1  0.829715  0.825164  0.936999  1
  Tm  Tm7  1  0.671641  0.324271  0.935523  1
  Tm  Tm8  1  0.829715  0.825164  0.563001  1
  Tm  Tm9  1  0.330328  0.676876  0.438743  1
  Tm  Tm10  1  0.168359  0.173002  0.061398  1
  Tm  Tm11  1  0.371950  0.962353  0.750000  1
  Ir  Ir12  1  0.458556  0.384134  0.250000  1
  Os  Os13  1  0.039979  0.883551  0.250000  1
  Os  Os14  1  0.963333  0.116499  0.750000  1
  Os  Os15  1  0.537725  0.617007  0.750000  1
