# generated using pymatgen
data_Ti8MnCo7
_symmetry_space_group_name_H-M   'P 1'
_cell_length_a   5.95434200
_cell_length_b   5.95434200
_cell_length_c   5.95434200
_cell_angle_alpha   90.00000000
_cell_angle_beta   90.00000000
_cell_angle_gamma   90.00000000
_symmetry_Int_Tables_number   1
_chemical_formula_structural   Ti8MnCo7
_chemical_formula_sum   'Ti8 Mn1 Co7'
_cell_volume   211.10636457
_cell_formula_units_Z   1
loop_
 _symmetry_equiv_pos_site_id
 _symmetry_equiv_pos_as_xyz
  1  'x, y, z'
loop_
 _atom_site_type_symbol
 _atom_site_label
 _atom_site_symmetry_multiplicity
 _atom_site_fract_x
 _atom_site_fract_y
 _atom_site_fract_z
 _atom_site_occupancy
  Ti  Ti0  1  0.751011  0.751011  0.751011  1
  Ti  Ti1  1  0.248989  0.751011  0.751011  1
  Ti  Ti2  1  0.248989  0.248989  0.248989  1
  Ti  Ti3  1  0.751011  0.248989  0.751011  1
  Ti  Ti4  1  0.751011  0.751011  0.248989  1
  Ti  Ti5  1  0.751011  0.248989  0.248989  1
  Ti  Ti6  1  0.248989  0.248989  0.751011  1
  Ti  Ti7  1  0.248989  0.751011  0.248989  1
  Mn  Mn8  1  0.000000  0.000000  0.000000  1
  Co  Co9  1  0.000000  0.500000  0.500000  1
  Co  Co10  1  0.500000  0.000000  0.000000  1
  Co  Co11  1  0.500000  0.500000  0.000000  1
  Co  Co12  1  0.500000  0.000000  0.500000  1
  Co  Co13  1  0.000000  0.000000  0.500000  1
  Co  Co14  1  0.500000  0.500000  0.500000  1
  Co  Co15  1  0.000000  0.500000  0.000000  1
