# generated using pymatgen
data_PaV2MoBr18
_symmetry_space_group_name_H-M   'P 1'
_cell_length_a   8.22892597
_cell_length_b   10.26255052
_cell_length_c   10.81912200
_cell_angle_alpha   101.72784239
_cell_angle_beta   96.95557036
_cell_angle_gamma   96.10556546
_symmetry_Int_Tables_number   1
_chemical_formula_structural   PaV2MoBr18
_chemical_formula_sum   'Pa1 V2 Mo1 Br18'
_cell_volume   879.91449596
_cell_formula_units_Z   1
loop_
 _symmetry_equiv_pos_site_id
 _symmetry_equiv_pos_as_xyz
  1  'x, y, z'
loop_
 _atom_site_type_symbol
 _atom_site_label
 _atom_site_symmetry_multiplicity
 _atom_site_fract_x
 _atom_site_fract_y
 _atom_site_fract_z
 _atom_site_occupancy
  Pa  Pa0  1  0.894712  0.375597  0.337181  1
  V  V1  1  0.545940  0.187947  0.779655  1
  V  V2  1  0.452481  0.810280  0.219965  1
  Mo  Mo3  1  0.115880  0.634671  0.676303  1
  Br  Br4  1  0.657062  0.893525  0.121025  1
  Br  Br5  1  0.343560  0.101904  0.879024  1
  Br  Br6  1  0.218373  0.487320  0.458996  1
  Br  Br7  1  0.794109  0.525829  0.558377  1
  Br  Br8  1  0.077634  0.802725  0.547276  1
  Br  Br9  1  0.916566  0.166276  0.449566  1
  Br  Br10  1  0.005510  0.756955  0.858366  1
  Br  Br11  1  0.013675  0.241626  0.135869  1
  Br  Br12  1  0.108712  0.424831  0.751177  1
  Br  Br13  1  0.882657  0.586313  0.225951  1
  Br  Br14  1  0.405014  0.715063  0.759144  1
  Br  Br15  1  0.575583  0.290413  0.246454  1
  Br  Br16  1  0.440900  0.194348  0.576628  1
  Br  Br17  1  0.557344  0.808753  0.424325  1
  Br  Br18  1  0.749016  0.051912  0.773184  1
  Br  Br19  1  0.246995  0.943341  0.226493  1
  Br  Br20  1  0.654026  0.400455  0.886504  1
  Br  Br21  1  0.344252  0.599914  0.108535  1
