# generated using pymatgen
data_Ho2Er(LuIr)2
_symmetry_space_group_name_H-M   'P 1'
_cell_length_a   6.42749349
_cell_length_b   7.17155586
_cell_length_c   8.43986000
_cell_angle_alpha   96.64943883
_cell_angle_beta   112.38211234
_cell_angle_gamma   89.99999835
_symmetry_Int_Tables_number   1
_chemical_formula_structural   Ho2Er(LuIr)2
_chemical_formula_sum   'Ho4 Er2 Lu4 Ir4'
_cell_volume   356.89655597
_cell_formula_units_Z   2
loop_
 _symmetry_equiv_pos_site_id
 _symmetry_equiv_pos_as_xyz
  1  'x, y, z'
loop_
 _atom_site_type_symbol
 _atom_site_label
 _atom_site_symmetry_multiplicity
 _atom_site_fract_x
 _atom_site_fract_y
 _atom_site_fract_z
 _atom_site_occupancy
  Ho  Ho0  1  0.971985  0.919031  0.184159  1
  Ho  Ho1  1  0.787826  0.580969  0.815841  1
  Ho  Ho2  1  0.028184  0.081905  0.815621  1
  Ho  Ho3  1  0.212564  0.418095  0.184379  1
  Er  Er4  1  0.651619  0.817625  0.440643  1
  Er  Er5  1  0.210977  0.682375  0.559357  1
  Lu  Lu6  1  0.348471  0.182593  0.559794  1
  Lu  Lu7  1  0.788677  0.317407  0.440206  1
  Lu  Lu8  1  0.428042  0.750000  0.000000  1
  Lu  Lu9  1  0.572010  0.250000  0.000000  1
  Ir  Ir10  1  0.821209  0.572264  0.218661  1
  Ir  Ir11  1  0.602547  0.927736  0.781339  1
  Ir  Ir12  1  0.177786  0.425705  0.779678  1
  Ir  Ir13  1  0.398106  0.074295  0.220322  1
