# generated using pymatgen
data_Yb4MgSi12Ir19
_symmetry_space_group_name_H-M   'P 1'
_cell_length_a   12.76879812
_cell_length_b   12.76879923
_cell_length_c   4.00364400
_cell_angle_alpha   90.00000000
_cell_angle_beta   90.00000000
_cell_angle_gamma   119.98401585
_symmetry_Int_Tables_number   1
_chemical_formula_structural   Yb4MgSi12Ir19
_chemical_formula_sum   'Yb4 Mg1 Si12 Ir19'
_cell_volume   565.40037536
_cell_formula_units_Z   1
loop_
 _symmetry_equiv_pos_site_id
 _symmetry_equiv_pos_as_xyz
  1  'x, y, z'
loop_
 _atom_site_type_symbol
 _atom_site_label
 _atom_site_symmetry_multiplicity
 _atom_site_fract_x
 _atom_site_fract_y
 _atom_site_fract_z
 _atom_site_occupancy
  Yb  Yb0  1  0.332775  0.666439  0.000000  1
  Yb  Yb1  1  0.666439  0.332775  0.000000  1
  Yb  Yb2  1  0.819133  0.999964  0.500000  1
  Yb  Yb3  1  0.999964  0.819133  0.500000  1
  Mg  Mg4  1  0.178080  0.178080  0.500000  1
  Si  Si5  1  0.819053  0.819053  0.000000  1
  Si  Si6  1  0.182444  0.000930  0.000000  1
  Si  Si7  1  0.000930  0.182444  0.000000  1
  Si  Si8  1  0.312480  0.833648  0.500000  1
  Si  Si9  1  0.167679  0.479957  0.500000  1
  Si  Si10  1  0.519619  0.687325  0.500000  1
  Si  Si11  1  0.833648  0.312480  0.500000  1
  Si  Si12  1  0.479957  0.167679  0.500000  1
  Si  Si13  1  0.687325  0.519619  0.500000  1
  Si  Si14  1  0.368216  0.368216  0.000000  1
  Si  Si15  1  0.631477  0.999849  0.000000  1
  Si  Si16  1  0.999849  0.631477  0.000000  1
  Ir  Ir17  1  0.194113  0.816745  0.000000  1
  Ir  Ir18  1  0.184647  0.375676  0.000000  1
  Ir  Ir19  1  0.622328  0.805835  0.000000  1
  Ir  Ir20  1  0.816745  0.194113  0.000000  1
  Ir  Ir21  1  0.375676  0.184647  0.000000  1
  Ir  Ir22  1  0.805835  0.622328  0.000000  1
  Ir  Ir23  1  0.717404  0.717404  0.500000  1
  Ir  Ir24  1  0.281912  0.001302  0.500000  1
  Ir  Ir25  1  0.001302  0.281912  0.500000  1
  Ir  Ir26  1  0.125925  0.639513  0.500000  1
  Ir  Ir27  1  0.360334  0.486231  0.500000  1
  Ir  Ir28  1  0.513078  0.873838  0.500000  1
  Ir  Ir29  1  0.639513  0.125925  0.500000  1
  Ir  Ir30  1  0.486231  0.360334  0.500000  1
  Ir  Ir31  1  0.873838  0.513078  0.500000  1
  Ir  Ir32  1  0.552618  0.552618  0.000000  1
  Ir  Ir33  1  0.447107  0.999634  0.000000  1
  Ir  Ir34  1  0.999634  0.447107  0.000000  1
  Ir  Ir35  1  0.002693  0.002693  0.000000  1
