# generated using pymatgen
data_Dy12Mg3Nb5(ReN4)12
_symmetry_space_group_name_H-M   'P 1'
_cell_length_a   11.12848566
_cell_length_b   11.08440908
_cell_length_c   11.11461994
_cell_angle_alpha   109.38600433
_cell_angle_beta   109.60636079
_cell_angle_gamma   109.41485244
_symmetry_Int_Tables_number   1
_chemical_formula_structural   Dy12Mg3Nb5(ReN4)12
_chemical_formula_sum   'Dy12 Mg3 Nb5 Re12 N48'
_cell_volume   1055.49080334
_cell_formula_units_Z   1
loop_
 _symmetry_equiv_pos_site_id
 _symmetry_equiv_pos_as_xyz
  1  'x, y, z'
loop_
 _atom_site_type_symbol
 _atom_site_label
 _atom_site_symmetry_multiplicity
 _atom_site_fract_x
 _atom_site_fract_y
 _atom_site_fract_z
 _atom_site_occupancy
  Dy  Dy0  1  0.244993  0.371168  0.121996  1
  Dy  Dy1  1  0.373122  0.750921  0.122831  1
  Dy  Dy2  1  0.371921  0.120796  0.244366  1
  Dy  Dy3  1  0.875958  0.623331  0.248103  1
  Dy  Dy4  1  0.751254  0.126122  0.374836  1
  Dy  Dy5  1  0.122960  0.248402  0.372793  1
  Dy  Dy6  1  0.877040  0.751598  0.627207  1
  Dy  Dy7  1  0.248746  0.873878  0.625164  1
  Dy  Dy8  1  0.124042  0.376669  0.751897  1
  Dy  Dy9  1  0.628079  0.879204  0.755634  1
  Dy  Dy10  1  0.626878  0.249079  0.877169  1
  Dy  Dy11  1  0.755007  0.628832  0.878004  1
  Mg  Mg12  1  0.000000  0.000000  0.000000  1
  Mg  Mg13  1  0.500000  0.000000  0.000000  1
  Mg  Mg14  1  0.000000  0.500000  0.000000  1
  Nb  Nb15  1  0.500000  0.500000  0.000000  1
  Nb  Nb16  1  0.000000  0.000000  0.500000  1
  Nb  Nb17  1  0.500000  0.000000  0.500000  1
  Nb  Nb18  1  0.000000  0.500000  0.500000  1
  Nb  Nb19  1  0.500000  0.500000  0.500000  1
  Re  Re20  1  0.873992  0.250479  0.123967  1
  Re  Re21  1  0.749892  0.875364  0.124795  1
  Re  Re22  1  0.623662  0.374460  0.251381  1
  Re  Re23  1  0.125270  0.875475  0.251221  1
  Re  Re24  1  0.250082  0.623931  0.373694  1
  Re  Re25  1  0.624838  0.749428  0.374343  1
  Re  Re26  1  0.375161  0.250572  0.625657  1
  Re  Re27  1  0.749918  0.376069  0.626305  1
  Re  Re28  1  0.874730  0.124525  0.748778  1
  Re  Re29  1  0.376338  0.625539  0.748619  1
  Re  Re30  1  0.250107  0.124636  0.875205  1
  Re  Re31  1  0.126008  0.749520  0.876033  1
  N  N32  1  0.309030  0.900838  0.025191  1
  N  N33  1  0.215903  0.122577  0.023618  1
  N  N34  1  0.875770  0.400365  0.089864  1
  N  N35  1  0.706558  0.685751  0.087532  1
  N  N36  1  0.617075  0.409712  0.097304  1
  N  N37  1  0.976683  0.692832  0.100330  1
  N  N38  1  0.601449  0.909234  0.123330  1
  N  N39  1  0.023203  0.216203  0.123546  1
  N  N40  1  0.214340  0.591866  0.192209  1
  N  N41  1  0.480323  0.597416  0.185579  1
  N  N42  1  0.122801  0.022209  0.214828  1
  N  N43  1  0.591580  0.192068  0.214000  1
  N  N44  1  0.477560  0.380283  0.293057  1
  N  N45  1  0.313958  0.909660  0.291324  1
  N  N46  1  0.904642  0.023591  0.315150  1
  N  N47  1  0.911036  0.291948  0.315183  1
  N  N48  1  0.293569  0.478716  0.381302  1
  N  N49  1  0.588146  0.901629  0.382692  1
  N  N50  1  0.814029  0.520330  0.401844  1
  N  N51  1  0.087009  0.879818  0.402750  1
  N  N52  1  0.096642  0.618328  0.410600  1
  N  N53  1  0.814960  0.794807  0.412765  1
  N  N54  1  0.599270  0.186207  0.480603  1
  N  N55  1  0.382100  0.295406  0.481268  1
  N  N56  1  0.617900  0.704594  0.518732  1
  N  N57  1  0.400731  0.813793  0.519397  1
  N  N58  1  0.185039  0.205192  0.587234  1
  N  N59  1  0.903358  0.381673  0.589399  1
  N  N60  1  0.912991  0.120181  0.597249  1
  N  N61  1  0.185971  0.479670  0.598157  1
  N  N62  1  0.411853  0.098371  0.617309  1
  N  N63  1  0.706431  0.521284  0.618698  1
  N  N64  1  0.088964  0.708052  0.684817  1
  N  N65  1  0.095357  0.976408  0.684850  1
  N  N66  1  0.686042  0.090340  0.708676  1
  N  N67  1  0.522440  0.619717  0.706943  1
  N  N68  1  0.408419  0.807931  0.785999  1
  N  N69  1  0.877200  0.977792  0.785173  1
  N  N70  1  0.519677  0.402585  0.814421  1
  N  N71  1  0.785659  0.408133  0.807790  1
  N  N72  1  0.398550  0.090766  0.876669  1
  N  N73  1  0.976798  0.783798  0.876455  1
  N  N74  1  0.023316  0.307168  0.899669  1
  N  N75  1  0.382926  0.590287  0.902696  1
  N  N76  1  0.293442  0.314249  0.912468  1
  N  N77  1  0.124229  0.599634  0.910136  1
  N  N78  1  0.690970  0.099161  0.974808  1
  N  N79  1  0.784098  0.877424  0.976383  1
