# generated using pymatgen
data_LaTb4Bi(SbO7)2
_symmetry_space_group_name_H-M   'P 1'
_cell_length_a   6.56752904
_cell_length_b   6.56752957
_cell_length_c   7.63052611
_cell_angle_alpha   90.16377837
_cell_angle_beta   89.83622201
_cell_angle_gamma   108.77083761
_symmetry_Int_Tables_number   1
_chemical_formula_structural   LaTb4Bi(SbO7)2
_chemical_formula_sum   'La1 Tb4 Bi1 Sb2 O14'
_cell_volume   311.61626986
_cell_formula_units_Z   1
loop_
 _symmetry_equiv_pos_site_id
 _symmetry_equiv_pos_as_xyz
  1  'x, y, z'
loop_
 _atom_site_type_symbol
 _atom_site_label
 _atom_site_symmetry_multiplicity
 _atom_site_fract_x
 _atom_site_fract_y
 _atom_site_fract_z
 _atom_site_occupancy
  La  La0  1  0.500000  0.500000  0.000000  1
  Tb  Tb1  1  0.532375  0.000104  0.748605  1
  Tb  Tb2  1  0.000104  0.532375  0.251395  1
  Tb  Tb3  1  0.467625  0.999896  0.251395  1
  Tb  Tb4  1  0.999896  0.467625  0.748605  1
  Bi  Bi5  1  0.500000  0.500000  0.500000  1
  Sb  Sb6  1  0.000000  0.000000  0.500000  1
  Sb  Sb7  1  0.000000  0.000000  0.000000  1
  O  O8  1  0.682996  0.935216  0.469861  1
  O  O9  1  0.935216  0.682996  0.530139  1
  O  O10  1  0.682057  0.934787  0.029711  1
  O  O11  1  0.934787  0.682057  0.970289  1
  O  O12  1  0.317004  0.064784  0.530139  1
  O  O13  1  0.064784  0.317004  0.469861  1
  O  O14  1  0.317943  0.065213  0.970289  1
  O  O15  1  0.065213  0.317943  0.029711  1
  O  O16  1  0.932053  0.067947  0.750052  1
  O  O17  1  0.067947  0.932053  0.249948  1
  O  O18  1  0.362715  0.637285  0.748023  1
  O  O19  1  0.637285  0.362715  0.251977  1
  O  O20  1  0.642394  0.357606  0.748134  1
  O  O21  1  0.357606  0.642394  0.251866  1
