# generated using pymatgen
data_Ho4Tm9Th3(MgNi)4
_symmetry_space_group_name_H-M   'P 1'
_cell_length_a   9.60905611
_cell_length_b   9.60295319
_cell_length_c   9.60311363
_cell_angle_alpha   59.67851435
_cell_angle_beta   59.78820482
_cell_angle_gamma   59.78828129
_symmetry_Int_Tables_number   1
_chemical_formula_structural   Ho4Tm9Th3(MgNi)4
_chemical_formula_sum   'Ho4 Tm9 Th3 Mg4 Ni4'
_cell_volume   623.05386754
_cell_formula_units_Z   1
loop_
 _symmetry_equiv_pos_site_id
 _symmetry_equiv_pos_as_xyz
  1  'x, y, z'
loop_
 _atom_site_type_symbol
 _atom_site_label
 _atom_site_symmetry_multiplicity
 _atom_site_fract_x
 _atom_site_fract_y
 _atom_site_fract_z
 _atom_site_occupancy
  Ho  Ho0  1  0.566689  0.934528  0.566779  1
  Ho  Ho1  1  0.934347  0.565999  0.932991  1
  Ho  Ho2  1  0.566698  0.566774  0.934532  1
  Ho  Ho3  1  0.934348  0.932993  0.565996  1
  Tm  Tm4  1  0.957187  0.348143  0.348126  1
  Tm  Tm5  1  0.813794  0.187035  0.187050  1
  Tm  Tm6  1  0.185400  0.815160  0.815183  1
  Tm  Tm7  1  0.187917  0.813254  0.186683  1
  Tm  Tm8  1  0.814394  0.185774  0.813355  1
  Tm  Tm9  1  0.187931  0.186677  0.813255  1
  Tm  Tm10  1  0.814390  0.813338  0.185792  1
  Tm  Tm11  1  0.936970  0.566312  0.566304  1
  Tm  Tm12  1  0.563475  0.935148  0.935142  1
  Th  Th13  1  0.340884  0.347870  0.347868  1
  Th  Th14  1  0.341365  0.348457  0.959554  1
  Th  Th15  1  0.341376  0.959578  0.348443  1
  Mg  Mg16  1  0.582172  0.579102  0.579096  1
  Mg  Mg17  1  0.582112  0.578573  0.259413  1
  Mg  Mg18  1  0.582107  0.259413  0.578578  1
  Mg  Mg19  1  0.259530  0.579064  0.579072  1
  Ni  Ni20  1  0.147398  0.139772  0.139784  1
  Ni  Ni21  1  0.144413  0.141147  0.572974  1
  Ni  Ni22  1  0.144416  0.572975  0.141132  1
  Ni  Ni23  1  0.570687  0.142916  0.142894  1
