# generated using pymatgen
data_Ti3Al2Co6Si
_symmetry_space_group_name_H-M   'P 1'
_cell_length_a   4.10403900
_cell_length_b   5.82130400
_cell_length_c   12.30981600
_cell_angle_alpha   90.00000000
_cell_angle_beta   89.99999535
_cell_angle_gamma   90.00000000
_symmetry_Int_Tables_number   1
_chemical_formula_structural   Ti3Al2Co6Si
_chemical_formula_sum   'Ti6 Al4 Co12 Si2'
_cell_volume   294.09207402
_cell_formula_units_Z   2
loop_
 _symmetry_equiv_pos_site_id
 _symmetry_equiv_pos_as_xyz
  1  'x, y, z'
loop_
 _atom_site_type_symbol
 _atom_site_label
 _atom_site_symmetry_multiplicity
 _atom_site_fract_x
 _atom_site_fract_y
 _atom_site_fract_z
 _atom_site_occupancy
  Ti  Ti0  1  0.000009  0.000000  0.999016  1
  Ti  Ti1  1  0.500193  0.500000  0.166107  1
  Ti  Ti2  1  0.000193  0.000000  0.333885  1
  Ti  Ti3  1  0.500008  0.500000  0.501000  1
  Ti  Ti4  1  0.999812  0.000000  0.667042  1
  Ti  Ti5  1  0.499811  0.500000  0.832959  1
  Al  Al6  1  0.999997  0.500000  0.999382  1
  Al  Al7  1  0.500178  0.000000  0.166323  1
  Al  Al8  1  0.000178  0.500000  0.333656  1
  Al  Al9  1  0.499997  0.000000  0.500632  1
  Co  Co10  1  0.499997  0.246369  0.996281  1
  Co  Co11  1  0.499997  0.753631  0.996281  1
  Co  Co12  1  0.000216  0.249852  0.166193  1
  Co  Co13  1  0.000216  0.750148  0.166193  1
  Co  Co14  1  0.500214  0.250149  0.333794  1
  Co  Co15  1  0.500214  0.749851  0.333794  1
  Co  Co16  1  0.999997  0.253606  0.503703  1
  Co  Co17  1  0.999997  0.746394  0.503703  1
  Co  Co18  1  0.499785  0.252392  0.669563  1
  Co  Co19  1  0.499785  0.747608  0.669563  1
  Co  Co20  1  0.999787  0.247603  0.830459  1
  Co  Co21  1  0.999787  0.752397  0.830459  1
  Si  Si22  1  0.999817  0.500000  0.667067  1
  Si  Si23  1  0.499817  0.000000  0.832943  1
