# generated using pymatgen
data_YbDy4Ho2PtI12
_symmetry_space_group_name_H-M   'P 1'
_cell_length_a   9.79743872
_cell_length_b   9.79306960
_cell_length_c   9.80341950
_cell_angle_alpha   106.98552263
_cell_angle_beta   106.99092290
_cell_angle_gamma   106.94726873
_symmetry_Int_Tables_number   1
_chemical_formula_structural   YbDy4Ho2PtI12
_chemical_formula_sum   'Yb1 Dy4 Ho2 Pt1 I12'
_cell_volume   783.89055511
_cell_formula_units_Z   1
loop_
 _symmetry_equiv_pos_site_id
 _symmetry_equiv_pos_as_xyz
  1  'x, y, z'
loop_
 _atom_site_type_symbol
 _atom_site_label
 _atom_site_symmetry_multiplicity
 _atom_site_fract_x
 _atom_site_fract_y
 _atom_site_fract_z
 _atom_site_occupancy
  Yb  Yb0  1  0.000030  0.000050  0.999976  1
  Dy  Dy1  1  0.401633  0.473388  0.198021  1
  Dy  Dy2  1  0.197981  0.401673  0.473119  1
  Dy  Dy3  1  0.473292  0.197937  0.401320  1
  Dy  Dy4  1  0.598971  0.527293  0.802206  1
  Ho  Ho5  1  0.801100  0.598596  0.527213  1
  Ho  Ho6  1  0.527352  0.801217  0.598379  1
  Pt  Pt7  1  0.499558  0.499412  0.499873  1
  I  I8  1  0.039989  0.347449  0.117607  1
  I  I9  1  0.117652  0.040029  0.347380  1
  I  I10  1  0.347399  0.117600  0.039947  1
  I  I11  1  0.960060  0.652609  0.881787  1
  I  I12  1  0.881863  0.959321  0.652330  1
  I  I13  1  0.652363  0.882546  0.959316  1
  I  I14  1  0.724307  0.573839  0.178857  1
  I  I15  1  0.178212  0.724051  0.573697  1
  I  I16  1  0.573606  0.177587  0.723637  1
  I  I17  1  0.276144  0.426343  0.821696  1
  I  I18  1  0.821896  0.277073  0.426580  1
  I  I19  1  0.426594  0.821987  0.277059  1
