# generated using pymatgen
data_ErCo3Ni2P3
_symmetry_space_group_name_H-M   'P 1'
_cell_length_a   3.66385300
_cell_length_b   10.22887000
_cell_length_c   11.79719700
_cell_angle_alpha   90.00000000
_cell_angle_beta   90.00000000
_cell_angle_gamma   90.00000000
_symmetry_Int_Tables_number   1
_chemical_formula_structural   ErCo3Ni2P3
_chemical_formula_sum   'Er4 Co12 Ni8 P12'
_cell_volume   442.12444898
_cell_formula_units_Z   4
loop_
 _symmetry_equiv_pos_site_id
 _symmetry_equiv_pos_as_xyz
  1  'x, y, z'
loop_
 _atom_site_type_symbol
 _atom_site_label
 _atom_site_symmetry_multiplicity
 _atom_site_fract_x
 _atom_site_fract_y
 _atom_site_fract_z
 _atom_site_occupancy
  Er  Er0  1  0.250000  0.582260  0.703497  1
  Er  Er1  1  0.250000  0.917740  0.203497  1
  Er  Er2  1  0.750000  0.417740  0.296503  1
  Er  Er3  1  0.750000  0.082260  0.796503  1
  Co  Co4  1  0.250000  0.221348  0.176688  1
  Co  Co5  1  0.250000  0.278652  0.676688  1
  Co  Co6  1  0.750000  0.778652  0.823312  1
  Co  Co7  1  0.750000  0.721348  0.323312  1
  Co  Co8  1  0.250000  0.881789  0.697843  1
  Co  Co9  1  0.250000  0.618211  0.197843  1
  Co  Co10  1  0.750000  0.118211  0.302157  1
  Co  Co11  1  0.750000  0.381789  0.802157  1
  Co  Co12  1  0.250000  0.467692  0.932479  1
  Co  Co13  1  0.250000  0.032308  0.432479  1
  Co  Co14  1  0.750000  0.532308  0.067521  1
  Co  Co15  1  0.750000  0.967692  0.567521  1
  Ni  Ni16  1  0.250000  0.714343  0.990156  1
  Ni  Ni17  1  0.250000  0.785657  0.490156  1
  Ni  Ni18  1  0.750000  0.285657  0.009844  1
  Ni  Ni19  1  0.750000  0.214343  0.509844  1
  Ni  Ni20  1  0.250000  0.408303  0.485216  1
  Ni  Ni21  1  0.250000  0.091697  0.985216  1
  Ni  Ni22  1  0.750000  0.591697  0.514784  1
  Ni  Ni23  1  0.750000  0.908303  0.014784  1
  P  P24  1  0.250000  0.419450  0.113129  1
  P  P25  1  0.250000  0.080550  0.613129  1
  P  P26  1  0.750000  0.580550  0.886871  1
  P  P27  1  0.750000  0.919450  0.386871  1
  P  P28  1  0.250000  0.271730  0.865971  1
  P  P29  1  0.250000  0.228270  0.365971  1
  P  P30  1  0.750000  0.728270  0.134029  1
  P  P31  1  0.750000  0.771730  0.634029  1
  P  P32  1  0.250000  0.604115  0.387119  1
  P  P33  1  0.250000  0.895885  0.887119  1
  P  P34  1  0.750000  0.395885  0.612881  1
  P  P35  1  0.750000  0.104115  0.112881  1
