# generated using pymatgen
data_Sr2(PtO3)3
_symmetry_space_group_name_H-M   'P 1'
_cell_length_a   8.15835175
_cell_length_b   8.15835217
_cell_length_c   8.15835100
_cell_angle_alpha   109.47121525
_cell_angle_beta   109.47121629
_cell_angle_gamma   109.47122394
_symmetry_Int_Tables_number   1
_chemical_formula_structural   Sr2(PtO3)3
_chemical_formula_sum   'Sr4 Pt6 O18'
_cell_volume   418.00878037
_cell_formula_units_Z   2
loop_
 _symmetry_equiv_pos_site_id
 _symmetry_equiv_pos_as_xyz
  1  'x, y, z'
loop_
 _atom_site_type_symbol
 _atom_site_label
 _atom_site_symmetry_multiplicity
 _atom_site_fract_x
 _atom_site_fract_y
 _atom_site_fract_z
 _atom_site_occupancy
  Sr  Sr0  1  0.000000  0.000000  0.406283  1
  Sr  Sr1  1  0.000000  0.406283  0.000000  1
  Sr  Sr2  1  0.593717  0.593717  0.593717  1
  Sr  Sr3  1  0.406283  0.000000  0.000000  1
  Pt  Pt4  1  0.342624  0.500000  0.842624  1
  Pt  Pt5  1  0.842624  0.342624  0.500000  1
  Pt  Pt6  1  0.500000  0.157376  0.657376  1
  Pt  Pt7  1  0.157376  0.657376  0.500000  1
  Pt  Pt8  1  0.500000  0.842624  0.342624  1
  Pt  Pt9  1  0.657376  0.500000  0.157376  1
  O  O10  1  0.354775  0.000000  0.354775  1
  O  O11  1  0.354775  0.354775  0.000000  1
  O  O12  1  0.000000  0.645225  0.645225  1
  O  O13  1  0.645225  0.645225  0.000000  1
  O  O14  1  0.000000  0.354775  0.354775  1
  O  O15  1  0.645225  0.000000  0.645225  1
  O  O16  1  0.349036  0.306278  0.618728  1
  O  O17  1  0.042756  0.312450  0.693722  1
  O  O18  1  0.730307  0.381272  0.687550  1
  O  O19  1  0.381272  0.687550  0.730307  1
  O  O20  1  0.269693  0.957244  0.650964  1
  O  O21  1  0.618728  0.349036  0.306278  1
  O  O22  1  0.306278  0.618728  0.349036  1
  O  O23  1  0.693722  0.042756  0.312450  1
  O  O24  1  0.957244  0.650964  0.269693  1
  O  O25  1  0.687550  0.730307  0.381272  1
  O  O26  1  0.650964  0.269693  0.957244  1
  O  O27  1  0.312450  0.693722  0.042756  1
