# generated using pymatgen
data_Ca3Pd2RhPb3
_symmetry_space_group_name_H-M   'P 1'
_cell_length_a   7.94548700
_cell_length_b   7.94548661
_cell_length_c   3.90892900
_cell_angle_alpha   90.00000000
_cell_angle_beta   90.00000000
_cell_angle_gamma   119.99998914
_symmetry_Int_Tables_number   1
_chemical_formula_structural   Ca3Pd2RhPb3
_chemical_formula_sum   'Ca3 Pd2 Rh1 Pb3'
_cell_volume   213.71228252
_cell_formula_units_Z   1
loop_
 _symmetry_equiv_pos_site_id
 _symmetry_equiv_pos_as_xyz
  1  'x, y, z'
loop_
 _atom_site_type_symbol
 _atom_site_label
 _atom_site_symmetry_multiplicity
 _atom_site_fract_x
 _atom_site_fract_y
 _atom_site_fract_z
 _atom_site_occupancy
  Ca  Ca0  1  0.402366  0.402366  0.500000  1
  Ca  Ca1  1  0.000000  0.597634  0.500000  1
  Ca  Ca2  1  0.597634  0.000000  0.500000  1
  Pd  Pd3  1  0.666667  0.333333  0.000000  1
  Pd  Pd4  1  0.333333  0.666667  0.000000  1
  Rh  Rh5  1  0.000000  0.000000  0.500000  1
  Pb  Pb6  1  0.262338  0.000000  0.000000  1
  Pb  Pb7  1  0.737662  0.737662  0.000000  1
  Pb  Pb8  1  0.000000  0.262338  0.000000  1
