# generated using pymatgen
data_NaDy2Y4Co6Sn23
_symmetry_space_group_name_H-M   'P 1'
_cell_length_a   9.73230121
_cell_length_b   9.73232997
_cell_length_c   9.97464411
_cell_angle_alpha   89.98591456
_cell_angle_beta   90.01586337
_cell_angle_gamma   120.01727743
_symmetry_Int_Tables_number   1
_chemical_formula_structural   NaDy2Y4Co6Sn23
_chemical_formula_sum   'Na1 Dy2 Y4 Co6 Sn23'
_cell_volume   818.05923389
_cell_formula_units_Z   1
loop_
 _symmetry_equiv_pos_site_id
 _symmetry_equiv_pos_as_xyz
  1  'x, y, z'
loop_
 _atom_site_type_symbol
 _atom_site_label
 _atom_site_symmetry_multiplicity
 _atom_site_fract_x
 _atom_site_fract_y
 _atom_site_fract_z
 _atom_site_occupancy
  Na  Na0  1  0.000006  0.999999  0.999992  1
  Dy  Dy1  1  0.041439  0.520774  0.305451  1
  Dy  Dy2  1  0.479226  0.958555  0.305457  1
  Y  Y3  1  0.479134  0.520883  0.305462  1
  Y  Y4  1  0.958196  0.479038  0.694373  1
  Y  Y5  1  0.520954  0.041823  0.694362  1
  Y  Y6  1  0.520859  0.479111  0.694524  1
  Co  Co7  1  0.170268  0.829729  0.799311  1
  Co  Co8  1  0.659458  0.829692  0.799239  1
  Co  Co9  1  0.170304  0.340540  0.799239  1
  Co  Co10  1  0.829595  0.170408  0.200837  1
  Co  Co11  1  0.340700  0.170112  0.200823  1
  Co  Co12  1  0.829889  0.659297  0.200826  1
  Sn  Sn13  1  0.999994  0.000003  0.499968  1
  Sn  Sn14  1  0.115930  0.884056  0.271956  1
  Sn  Sn15  1  0.768257  0.884209  0.271793  1
  Sn  Sn16  1  0.115779  0.231741  0.271790  1
  Sn  Sn17  1  0.884221  0.115819  0.728164  1
  Sn  Sn18  1  0.231587  0.115751  0.728273  1
  Sn  Sn19  1  0.884266  0.768408  0.728274  1
  Sn  Sn20  1  0.343837  0.999945  0.000083  1
  Sn  Sn21  1  0.656179  0.656192  0.000024  1
  Sn  Sn22  1  0.000115  0.343938  0.000099  1
  Sn  Sn23  1  0.343796  0.343827  0.000002  1
  Sn  Sn24  1  0.000048  0.656158  0.000091  1
  Sn  Sn25  1  0.656068  0.999898  0.000115  1
  Sn  Sn26  1  0.781822  0.563136  0.453150  1
  Sn  Sn27  1  0.781564  0.218434  0.453193  1
  Sn  Sn28  1  0.436866  0.218179  0.453167  1
  Sn  Sn29  1  0.218238  0.436947  0.546636  1
  Sn  Sn30  1  0.218486  0.781516  0.546460  1
  Sn  Sn31  1  0.563048  0.781761  0.546604  1
  Sn  Sn32  1  0.666767  0.333256  0.185492  1
  Sn  Sn33  1  0.333302  0.666668  0.814519  1
  Sn  Sn34  1  0.666679  0.333323  0.885016  1
  Sn  Sn35  1  0.333122  0.666872  0.115230  1
