# generated using pymatgen
data_Lu3Zn6Pt5
_symmetry_space_group_name_H-M   'P 1'
_cell_length_a   8.16051625
_cell_length_b   8.16051580
_cell_length_c   8.16051621
_cell_angle_alpha   152.12532461
_cell_angle_beta   99.44601951
_cell_angle_gamma   87.24354446
_symmetry_Int_Tables_number   1
_chemical_formula_structural   Lu3Zn6Pt5
_chemical_formula_sum   'Lu3 Zn6 Pt5'
_cell_volume   245.03065479
_cell_formula_units_Z   1
loop_
 _symmetry_equiv_pos_site_id
 _symmetry_equiv_pos_as_xyz
  1  'x, y, z'
loop_
 _atom_site_type_symbol
 _atom_site_label
 _atom_site_symmetry_multiplicity
 _atom_site_fract_x
 _atom_site_fract_y
 _atom_site_fract_z
 _atom_site_occupancy
  Lu  Lu0  1  0.000000  0.000000  0.000000  1
  Lu  Lu1  1  0.291634  0.291634  0.000000  1
  Lu  Lu2  1  0.708366  0.708366  0.000000  1
  Zn  Zn3  1  0.674835  0.500000  0.174835  1
  Zn  Zn4  1  0.325165  0.500000  0.825165  1
  Zn  Zn5  1  0.436440  0.144773  0.291668  1
  Zn  Zn6  1  0.563560  0.855227  0.708332  1
  Zn  Zn7  1  0.853105  0.144773  0.708332  1
  Zn  Zn8  1  0.146895  0.855227  0.291668  1
  Pt  Pt9  1  0.725049  0.356591  0.368457  1
  Pt  Pt10  1  0.274951  0.643409  0.631543  1
  Pt  Pt11  1  0.988135  0.356591  0.631543  1
  Pt  Pt12  1  0.011865  0.643409  0.368457  1
  Pt  Pt13  1  0.500000  0.000000  0.500000  1
