# generated using pymatgen
data_Tm10Pt17Au
_symmetry_space_group_name_H-M   'P 1'
_cell_length_a   9.74440000
_cell_length_b   9.74439978
_cell_length_c   5.76256800
_cell_angle_alpha   90.00000000
_cell_angle_beta   90.00000000
_cell_angle_gamma   90.61688058
_symmetry_Int_Tables_number   1
_chemical_formula_structural   Tm10Pt17Au
_chemical_formula_sum   'Tm10 Pt17 Au1'
_cell_volume   547.14330247
_cell_formula_units_Z   1
loop_
 _symmetry_equiv_pos_site_id
 _symmetry_equiv_pos_as_xyz
  1  'x, y, z'
loop_
 _atom_site_type_symbol
 _atom_site_label
 _atom_site_symmetry_multiplicity
 _atom_site_fract_x
 _atom_site_fract_y
 _atom_site_fract_z
 _atom_site_occupancy
  Tm  Tm0  1  0.453389  0.807744  0.000000  1
  Tm  Tm1  1  0.546611  0.192256  0.000000  1
  Tm  Tm2  1  0.192256  0.546611  0.000000  1
  Tm  Tm3  1  0.807744  0.453389  0.000000  1
  Tm  Tm4  1  0.500000  0.500000  0.500000  1
  Tm  Tm5  1  0.315402  0.047141  0.500000  1
  Tm  Tm6  1  0.684598  0.952859  0.500000  1
  Tm  Tm7  1  0.952859  0.684598  0.500000  1
  Tm  Tm8  1  0.047141  0.315402  0.500000  1
  Tm  Tm9  1  0.000000  0.000000  0.000000  1
  Pt  Pt10  1  0.193068  0.806932  0.249729  1
  Pt  Pt11  1  0.806932  0.193068  0.750271  1
  Pt  Pt12  1  0.806932  0.193068  0.249729  1
  Pt  Pt13  1  0.193068  0.806932  0.750271  1
  Pt  Pt14  1  0.441768  0.780938  0.500000  1
  Pt  Pt15  1  0.558232  0.219062  0.500000  1
  Pt  Pt16  1  0.219062  0.558232  0.500000  1
  Pt  Pt17  1  0.780938  0.441768  0.500000  1
  Pt  Pt18  1  0.307056  0.307056  0.249410  1
  Pt  Pt19  1  0.692944  0.692944  0.750590  1
  Pt  Pt20  1  0.692944  0.692944  0.249410  1
  Pt  Pt21  1  0.307056  0.307056  0.750590  1
  Pt  Pt22  1  0.281635  0.057349  0.000000  1
  Pt  Pt23  1  0.718365  0.942651  0.000000  1
  Pt  Pt24  1  0.942651  0.718365  0.000000  1
  Pt  Pt25  1  0.057349  0.281635  0.000000  1
  Pt  Pt26  1  0.500000  0.500000  0.000000  1
  Au  Au27  1  0.000000  0.000000  0.500000  1
