# generated using pymatgen
data_DyAg6CO11
_symmetry_space_group_name_H-M   'P 1'
_cell_length_a   7.08776832
_cell_length_b   7.08776801
_cell_length_c   7.08776854
_cell_angle_alpha   61.01176925
_cell_angle_beta   61.01176005
_cell_angle_gamma   61.01177090
_symmetry_Int_Tables_number   1
_chemical_formula_structural   DyAg6CO11
_chemical_formula_sum   'Dy1 Ag6 C1 O11'
_cell_volume   257.51302676
_cell_formula_units_Z   1
loop_
 _symmetry_equiv_pos_site_id
 _symmetry_equiv_pos_as_xyz
  1  'x, y, z'
loop_
 _atom_site_type_symbol
 _atom_site_label
 _atom_site_symmetry_multiplicity
 _atom_site_fract_x
 _atom_site_fract_y
 _atom_site_fract_z
 _atom_site_occupancy
  Dy  Dy0  1  0.998992  0.998992  0.998992  1
  Ag  Ag1  1  0.499373  0.000490  0.000490  1
  Ag  Ag2  1  0.500407  0.500407  0.000726  1
  Ag  Ag3  1  0.500407  0.000726  0.500407  1
  Ag  Ag4  1  0.000490  0.000490  0.499373  1
  Ag  Ag5  1  0.000726  0.500407  0.500407  1
  Ag  Ag6  1  0.000490  0.499373  0.000490  1
  C  C7  1  0.499819  0.499819  0.499819  1
  O  O8  1  0.587398  0.141981  0.141981  1
  O  O9  1  0.141981  0.587398  0.141981  1
  O  O10  1  0.137802  0.137802  0.137802  1
  O  O11  1  0.141981  0.141981  0.587398  1
  O  O12  1  0.603287  0.603287  0.292770  1
  O  O13  1  0.603287  0.292770  0.603287  1
  O  O14  1  0.292770  0.603287  0.603287  1
  O  O15  1  0.859355  0.859355  0.410134  1
  O  O16  1  0.859355  0.410134  0.859355  1
  O  O17  1  0.861946  0.861946  0.861946  1
  O  O18  1  0.410134  0.859355  0.859355  1
