# generated using pymatgen
data_TbNdHo3(FeB3)2
_symmetry_space_group_name_H-M   'P 1'
_cell_length_a   8.31372342
_cell_length_b   8.31372332
_cell_length_c   8.31372192
_cell_angle_alpha   38.03561915
_cell_angle_beta   38.03562011
_cell_angle_gamma   38.03561034
_symmetry_Int_Tables_number   1
_chemical_formula_structural   TbNdHo3(FeB3)2
_chemical_formula_sum   'Tb1 Nd1 Ho3 Fe2 B6'
_cell_volume   195.83679805
_cell_formula_units_Z   1
loop_
 _symmetry_equiv_pos_site_id
 _symmetry_equiv_pos_as_xyz
  1  'x, y, z'
loop_
 _atom_site_type_symbol
 _atom_site_label
 _atom_site_symmetry_multiplicity
 _atom_site_fract_x
 _atom_site_fract_y
 _atom_site_fract_z
 _atom_site_occupancy
  Tb  Tb0  1  0.583341  0.583341  0.583341  1
  Nd  Nd1  1  0.000306  0.000306  0.000306  1
  Ho  Ho2  1  0.417555  0.417555  0.417555  1
  Ho  Ho3  1  0.750203  0.750203  0.750203  1
  Ho  Ho4  1  0.249681  0.249681  0.249681  1
  Fe  Fe5  1  0.882726  0.882726  0.882726  1
  Fe  Fe6  1  0.117146  0.117146  0.117146  1
  B  B7  1  0.500064  0.831898  0.167559  1
  B  B8  1  0.167559  0.500064  0.831898  1
  B  B9  1  0.831898  0.167559  0.500064  1
  B  B10  1  0.500064  0.167559  0.831898  1
  B  B11  1  0.831898  0.500064  0.167559  1
  B  B12  1  0.167559  0.831898  0.500064  1
