# generated using pymatgen
data_Er8Al2IrPt
_symmetry_space_group_name_H-M   'P 1'
_cell_length_a   9.43796213
_cell_length_b   9.49023382
_cell_length_c   9.49023371
_cell_angle_alpha   60.46077696
_cell_angle_beta   60.18203884
_cell_angle_gamma   60.18203488
_symmetry_Int_Tables_number   1
_chemical_formula_structural   Er8Al2IrPt
_chemical_formula_sum   'Er16 Al4 Ir2 Pt2'
_cell_volume   604.78978393
_cell_formula_units_Z   2
loop_
 _symmetry_equiv_pos_site_id
 _symmetry_equiv_pos_as_xyz
  1  'x, y, z'
loop_
 _atom_site_type_symbol
 _atom_site_label
 _atom_site_symmetry_multiplicity
 _atom_site_fract_x
 _atom_site_fract_y
 _atom_site_fract_z
 _atom_site_occupancy
  Er  Er0  1  0.063400  0.061765  0.434588  1
  Er  Er1  1  0.647001  0.063838  0.642161  1
  Er  Er2  1  0.191126  0.803946  0.197356  1
  Er  Er3  1  0.440247  0.061765  0.434588  1
  Er  Er4  1  0.191126  0.197356  0.803946  1
  Er  Er5  1  0.651935  0.647618  0.647618  1
  Er  Er6  1  0.052831  0.647618  0.647618  1
  Er  Er7  1  0.438113  0.061887  0.061887  1
  Er  Er8  1  0.647001  0.642161  0.063838  1
  Er  Er9  1  0.195258  0.804742  0.804742  1
  Er  Er10  1  0.807572  0.197356  0.803946  1
  Er  Er11  1  0.807146  0.192854  0.192854  1
  Er  Er12  1  0.807572  0.803946  0.197356  1
  Er  Er13  1  0.064304  0.435696  0.435696  1
  Er  Er14  1  0.440247  0.434588  0.061765  1
  Er  Er15  1  0.063400  0.434588  0.061765  1
  Al  Al16  1  0.733972  0.422420  0.422420  1
  Al  Al17  1  0.421652  0.423833  0.732861  1
  Al  Al18  1  0.421652  0.732861  0.423833  1
  Al  Al19  1  0.421187  0.422420  0.422420  1
  Ir  Ir20  1  0.856123  0.861706  0.426049  1
  Ir  Ir21  1  0.856123  0.426049  0.861706  1
  Pt  Pt22  1  0.853049  0.859494  0.859494  1
  Pt  Pt23  1  0.427964  0.859494  0.859494  1
