# generated using pymatgen
data_YHo9(SiBi2)2
_symmetry_space_group_name_H-M   'P 1'
_cell_length_a   8.03064067
_cell_length_b   9.14420200
_cell_length_c   12.07545409
_cell_angle_alpha   90.00000000
_cell_angle_beta   89.95590148
_cell_angle_gamma   90.00000000
_symmetry_Int_Tables_number   1
_chemical_formula_structural   YHo9(SiBi2)2
_chemical_formula_sum   'Y2 Ho18 Si4 Bi8'
_cell_volume   886.74622435
_cell_formula_units_Z   2
loop_
 _symmetry_equiv_pos_site_id
 _symmetry_equiv_pos_as_xyz
  1  'x, y, z'
loop_
 _atom_site_type_symbol
 _atom_site_label
 _atom_site_symmetry_multiplicity
 _atom_site_fract_x
 _atom_site_fract_y
 _atom_site_fract_z
 _atom_site_occupancy
  Y  Y0  1  0.340384  0.750000  0.711664  1
  Y  Y1  1  0.659616  0.250000  0.288336  1
  Ho  Ho2  1  0.840712  0.250000  0.789055  1
  Ho  Ho3  1  0.159288  0.750000  0.210945  1
  Ho  Ho4  1  0.867039  0.750000  0.794602  1
  Ho  Ho5  1  0.132961  0.250000  0.205398  1
  Ho  Ho6  1  0.367252  0.250000  0.705871  1
  Ho  Ho7  1  0.632748  0.750000  0.294129  1
  Ho  Ho8  1  0.681310  0.552090  0.563961  1
  Ho  Ho9  1  0.318690  0.447910  0.436039  1
  Ho  Ho10  1  0.181081  0.447713  0.936012  1
  Ho  Ho11  1  0.318690  0.052090  0.436039  1
  Ho  Ho12  1  0.818919  0.552287  0.063988  1
  Ho  Ho13  1  0.681310  0.947910  0.563961  1
  Ho  Ho14  1  0.818919  0.947713  0.063988  1
  Ho  Ho15  1  0.181081  0.052287  0.936012  1
  Ho  Ho16  1  0.041416  0.750000  0.500581  1
  Ho  Ho17  1  0.958584  0.250000  0.499419  1
  Ho  Ho18  1  0.541097  0.250000  0.999175  1
  Ho  Ho19  1  0.458903  0.750000  0.000825  1
  Si  Si20  1  0.085339  0.750000  0.979492  1
  Si  Si21  1  0.914661  0.250000  0.020508  1
  Si  Si22  1  0.584760  0.250000  0.520841  1
  Si  Si23  1  0.415240  0.750000  0.479159  1
  Bi  Bi24  1  0.572933  0.510404  0.827143  1
  Bi  Bi25  1  0.427067  0.489596  0.172857  1
  Bi  Bi26  1  0.071765  0.489079  0.673179  1
  Bi  Bi27  1  0.427067  0.010404  0.172857  1
  Bi  Bi28  1  0.928235  0.510921  0.326821  1
  Bi  Bi29  1  0.572933  0.989596  0.827143  1
  Bi  Bi30  1  0.928235  0.989079  0.326821  1
  Bi  Bi31  1  0.071765  0.010921  0.673179  1
