# generated using pymatgen
data_Tb4Os6RuW
_symmetry_space_group_name_H-M   'P 1'
_cell_length_a   5.25028984
_cell_length_b   5.25028900
_cell_length_c   9.09914019
_cell_angle_alpha   89.97986749
_cell_angle_beta   90.02013139
_cell_angle_gamma   117.23856886
_symmetry_Int_Tables_number   1
_chemical_formula_structural   Tb4Os6RuW
_chemical_formula_sum   'Tb4 Os6 Ru1 W1'
_cell_volume   223.00857239
_cell_formula_units_Z   1
loop_
 _symmetry_equiv_pos_site_id
 _symmetry_equiv_pos_as_xyz
  1  'x, y, z'
loop_
 _atom_site_type_symbol
 _atom_site_label
 _atom_site_symmetry_multiplicity
 _atom_site_fract_x
 _atom_site_fract_y
 _atom_site_fract_z
 _atom_site_occupancy
  Tb  Tb0  1  0.328987  0.671013  0.437449  1
  Tb  Tb1  1  0.665641  0.334359  0.566049  1
  Tb  Tb2  1  0.665551  0.334449  0.933508  1
  Tb  Tb3  1  0.328240  0.671760  0.062343  1
  Os  Os4  1  0.992165  0.007835  0.502609  1
  Os  Os5  1  0.827154  0.649543  0.250887  1
  Os  Os6  1  0.350457  0.172846  0.250887  1
  Os  Os7  1  0.175111  0.824889  0.748243  1
  Os  Os8  1  0.169567  0.335759  0.749754  1
  Os  Os9  1  0.664241  0.830433  0.749754  1
  Ru  Ru10  1  0.990920  0.009080  0.998338  1
  W  W11  1  0.841965  0.158035  0.250178  1
