# generated using pymatgen
data_Yb10Zn3Cd2Ru
_symmetry_space_group_name_H-M   'P 1'
_cell_length_a   9.18306934
_cell_length_b   9.18307036
_cell_length_c   9.13617835
_cell_angle_alpha   128.74166691
_cell_angle_beta   128.74167373
_cell_angle_gamma   75.80461558
_symmetry_Int_Tables_number   1
_chemical_formula_structural   Yb10Zn3Cd2Ru
_chemical_formula_sum   'Yb10 Zn3 Cd2 Ru1'
_cell_volume   454.93216933
_cell_formula_units_Z   1
loop_
 _symmetry_equiv_pos_site_id
 _symmetry_equiv_pos_as_xyz
  1  'x, y, z'
loop_
 _atom_site_type_symbol
 _atom_site_label
 _atom_site_symmetry_multiplicity
 _atom_site_fract_x
 _atom_site_fract_y
 _atom_site_fract_z
 _atom_site_occupancy
  Yb  Yb0  1  0.488992  0.502438  0.991431  1
  Yb  Yb1  1  0.002438  0.988992  0.991431  1
  Yb  Yb2  1  0.526831  0.026831  0.834585  1
  Yb  Yb3  1  0.180975  0.680975  0.132848  1
  Yb  Yb4  1  0.031938  0.208397  0.517896  1
  Yb  Yb5  1  0.708397  0.531938  0.517896  1
  Yb  Yb6  1  0.451875  0.951875  0.132848  1
  Yb  Yb7  1  0.807753  0.307753  0.834585  1
  Yb  Yb8  1  0.985958  0.809499  0.517896  1
  Yb  Yb9  1  0.309499  0.485958  0.517896  1
  Zn  Zn10  1  0.885382  0.385382  0.270763  1
  Zn  Zn11  1  0.618773  0.875731  0.494504  1
  Zn  Zn12  1  0.375731  0.118773  0.494504  1
  Cd  Cd13  1  0.255507  0.255507  0.011014  1
  Cd  Cd14  1  0.755507  0.755507  0.011014  1
  Ru  Ru15  1  0.114444  0.614444  0.728887  1
