# generated using pymatgen
data_Hf4US8
_symmetry_space_group_name_H-M   'P 1'
_cell_length_a   7.42405552
_cell_length_b   7.42405505
_cell_length_c   7.42405548
_cell_angle_alpha   58.22349224
_cell_angle_beta   58.22349213
_cell_angle_gamma   58.22348523
_symmetry_Int_Tables_number   1
_chemical_formula_structural   Hf4US8
_chemical_formula_sum   'Hf4 U1 S8'
_cell_volume   277.56347772
_cell_formula_units_Z   1
loop_
 _symmetry_equiv_pos_site_id
 _symmetry_equiv_pos_as_xyz
  1  'x, y, z'
loop_
 _atom_site_type_symbol
 _atom_site_label
 _atom_site_symmetry_multiplicity
 _atom_site_fract_x
 _atom_site_fract_y
 _atom_site_fract_z
 _atom_site_occupancy
  Hf  Hf0  1  0.000000  0.500000  0.500000  1
  Hf  Hf1  1  0.500000  0.000000  0.500000  1
  Hf  Hf2  1  0.500000  0.500000  0.000000  1
  Hf  Hf3  1  0.000000  0.000000  0.000000  1
  U  U4  1  0.500000  0.500000  0.500000  1
  S  S5  1  0.242415  0.754885  0.754885  1
  S  S6  1  0.245115  0.245115  0.757585  1
  S  S7  1  0.757585  0.245115  0.245115  1
  S  S8  1  0.245115  0.757585  0.245115  1
  S  S9  1  0.254864  0.254864  0.254864  1
  S  S10  1  0.745136  0.745136  0.745136  1
  S  S11  1  0.754885  0.242415  0.754885  1
  S  S12  1  0.754885  0.754885  0.242415  1
