# generated using pymatgen
data_La3Bi(Pb2O7)2
_symmetry_space_group_name_H-M   'P 1'
_cell_length_a   7.83835071
_cell_length_b   7.83834981
_cell_length_c   7.83835076
_cell_angle_alpha   60.04460289
_cell_angle_beta   60.04461515
_cell_angle_gamma   60.04460464
_symmetry_Int_Tables_number   1
_chemical_formula_structural   La3Bi(Pb2O7)2
_chemical_formula_sum   'La3 Bi1 Pb4 O14'
_cell_volume   340.87716802
_cell_formula_units_Z   1
loop_
 _symmetry_equiv_pos_site_id
 _symmetry_equiv_pos_as_xyz
  1  'x, y, z'
loop_
 _atom_site_type_symbol
 _atom_site_label
 _atom_site_symmetry_multiplicity
 _atom_site_fract_x
 _atom_site_fract_y
 _atom_site_fract_z
 _atom_site_occupancy
  La  La0  1  0.625000  0.625000  0.125000  1
  La  La1  1  0.625000  0.125000  0.625000  1
  La  La2  1  0.125000  0.625000  0.625000  1
  Bi  Bi3  1  0.625000  0.625000  0.625000  1
  Pb  Pb4  1  0.125000  0.125000  0.125000  1
  Pb  Pb5  1  0.625000  0.125000  0.125000  1
  Pb  Pb6  1  0.125000  0.625000  0.125000  1
  Pb  Pb7  1  0.125000  0.125000  0.625000  1
  O  O8  1  0.032816  0.466152  0.466152  1
  O  O9  1  0.783848  0.783848  0.217184  1
  O  O10  1  0.783102  0.216605  0.216605  1
  O  O11  1  0.466152  0.032816  0.466152  1
  O  O12  1  0.749599  0.749599  0.749599  1
  O  O13  1  0.033395  0.033395  0.466898  1
  O  O14  1  0.033395  0.466898  0.033395  1
  O  O15  1  0.216605  0.783102  0.216605  1
  O  O16  1  0.216605  0.216605  0.783102  1
  O  O17  1  0.783848  0.217184  0.783848  1
  O  O18  1  0.500401  0.500401  0.500401  1
  O  O19  1  0.466898  0.033395  0.033395  1
  O  O20  1  0.466152  0.466152  0.032816  1
  O  O21  1  0.217184  0.783848  0.783848  1
