# generated using pymatgen
data_Ce4Tm4B24RuW3
_symmetry_space_group_name_H-M   'P 1'
_cell_length_a   3.68889000
_cell_length_b   9.21309148
_cell_length_c   11.62287337
_cell_angle_alpha   89.90051711
_cell_angle_beta   90.00000000
_cell_angle_gamma   90.00000000
_symmetry_Int_Tables_number   1
_chemical_formula_structural   Ce4Tm4B24RuW3
_chemical_formula_sum   'Ce4 Tm4 B24 Ru1 W3'
_cell_volume   395.01532071
_cell_formula_units_Z   1
loop_
 _symmetry_equiv_pos_site_id
 _symmetry_equiv_pos_as_xyz
  1  'x, y, z'
loop_
 _atom_site_type_symbol
 _atom_site_label
 _atom_site_symmetry_multiplicity
 _atom_site_fract_x
 _atom_site_fract_y
 _atom_site_fract_z
 _atom_site_occupancy
  Ce  Ce0  1  0.000000  0.320855  0.413756  1
  Ce  Ce1  1  0.000000  0.676494  0.584119  1
  Ce  Ce2  1  0.000000  0.821833  0.086969  1
  Ce  Ce3  1  0.000000  0.179678  0.915037  1
  Tm  Tm4  1  0.000000  0.944789  0.373786  1
  Tm  Tm5  1  0.000000  0.054771  0.628706  1
  Tm  Tm6  1  0.000000  0.445879  0.126348  1
  Tm  Tm7  1  0.000000  0.557099  0.871954  1
  B  B8  1  0.500000  0.553221  0.432769  1
  B  B9  1  0.500000  0.446616  0.567527  1
  B  B10  1  0.500000  0.052668  0.065838  1
  B  B11  1  0.500000  0.944106  0.930773  1
  B  B12  1  0.500000  0.751203  0.419901  1
  B  B13  1  0.500000  0.247874  0.581226  1
  B  B14  1  0.500000  0.251924  0.079830  1
  B  B15  1  0.500000  0.750581  0.917634  1
  B  B16  1  0.500000  0.794459  0.265037  1
  B  B17  1  0.500000  0.204945  0.736195  1
  B  B18  1  0.500000  0.293771  0.234614  1
  B  B19  1  0.500000  0.709082  0.766009  1
  B  B20  1  0.500000  0.632028  0.183687  1
  B  B21  1  0.500000  0.369131  0.816693  1
  B  B22  1  0.500000  0.130434  0.315382  1
  B  B23  1  0.500000  0.868874  0.685809  1
  B  B24  1  0.500000  0.980662  0.213200  1
  B  B25  1  0.500000  0.014766  0.787387  1
  B  B26  1  0.500000  0.481246  0.285829  1
  B  B27  1  0.500000  0.519419  0.713796  1
  B  B28  1  0.500000  0.605191  0.027175  1
  B  B29  1  0.500000  0.398430  0.971146  1
  B  B30  1  0.500000  0.101776  0.472651  1
  B  B31  1  0.500000  0.897224  0.529922  1
  Ru  Ru32  1  0.000000  0.860210  0.819815  1
  W  W33  1  0.000000  0.639754  0.320208  1
  W  W34  1  0.000000  0.360386  0.680858  1
  W  W35  1  0.000000  0.138623  0.178412  1
