# generated using pymatgen
data_YErNbIr3
_symmetry_space_group_name_H-M   'P 1'
_cell_length_a   5.26196317
_cell_length_b   5.26196281
_cell_length_c   5.26196292
_cell_angle_alpha   64.73389453
_cell_angle_beta   64.73389433
_cell_angle_gamma   64.73389156
_symmetry_Int_Tables_number   1
_chemical_formula_structural   YErNbIr3
_chemical_formula_sum   'Y1 Er1 Nb1 Ir3'
_cell_volume   113.69608964
_cell_formula_units_Z   1
loop_
 _symmetry_equiv_pos_site_id
 _symmetry_equiv_pos_as_xyz
  1  'x, y, z'
loop_
 _atom_site_type_symbol
 _atom_site_label
 _atom_site_symmetry_multiplicity
 _atom_site_fract_x
 _atom_site_fract_y
 _atom_site_fract_z
 _atom_site_occupancy
  Y  Y0  1  0.251367  0.251367  0.251367  1
  Er  Er1  1  0.997979  0.997979  0.997979  1
  Nb  Nb2  1  0.625029  0.625029  0.625029  1
  Ir  Ir3  1  0.625433  0.124761  0.625433  1
  Ir  Ir4  1  0.625433  0.625433  0.124761  1
  Ir  Ir5  1  0.124761  0.625433  0.625433  1
