# generated using pymatgen
data_Tb12B3PCl12
_symmetry_space_group_name_H-M   'P 1'
_cell_length_a   9.53682694
_cell_length_b   9.53682602
_cell_length_c   9.53682700
_cell_angle_alpha   109.59110855
_cell_angle_beta   109.59111296
_cell_angle_gamma   109.59111521
_symmetry_Int_Tables_number   1
_chemical_formula_structural   Tb12B3PCl12
_chemical_formula_sum   'Tb12 B3 P1 Cl12'
_cell_volume   664.73250530
_cell_formula_units_Z   1
loop_
 _symmetry_equiv_pos_site_id
 _symmetry_equiv_pos_as_xyz
  1  'x, y, z'
loop_
 _atom_site_type_symbol
 _atom_site_label
 _atom_site_symmetry_multiplicity
 _atom_site_fract_x
 _atom_site_fract_y
 _atom_site_fract_z
 _atom_site_occupancy
  Tb  Tb0  1  0.476783  0.497471  0.230488  1
  Tb  Tb1  1  0.750002  0.233465  0.266538  1
  Tb  Tb2  1  0.750001  0.014682  0.485318  1
  Tb  Tb3  1  0.230495  0.476783  0.497470  1
  Tb  Tb4  1  0.266533  0.750002  0.233461  1
  Tb  Tb5  1  0.023215  0.269511  0.002527  1
  Tb  Tb6  1  0.002532  0.023210  0.269515  1
  Tb  Tb7  1  0.485318  0.750008  0.014682  1
  Tb  Tb8  1  0.497469  0.230487  0.476790  1
  Tb  Tb9  1  0.014683  0.485319  0.749992  1
  Tb  Tb10  1  0.269504  0.002530  0.023220  1
  Tb  Tb11  1  0.233467  0.266537  0.749997  1
  B  B12  1  0.499612  0.000380  0.249998  1
  B  B13  1  0.000390  0.250003  0.499621  1
  B  B14  1  0.250001  0.499625  0.000376  1
  P  P15  1  0.249999  0.249998  0.250002  1
  Cl  Cl16  1  0.249998  0.756596  0.743403  1
  Cl  Cl17  1  0.509294  0.504406  0.754452  1
  Cl  Cl18  1  0.990704  0.745546  0.995592  1
  Cl  Cl19  1  0.743413  0.250019  0.756600  1
  Cl  Cl20  1  0.995631  0.990699  0.745551  1
  Cl  Cl21  1  0.250001  0.995544  0.504454  1
  Cl  Cl22  1  0.754468  0.509308  0.504413  1
  Cl  Cl23  1  0.504425  0.249972  0.995541  1
  Cl  Cl24  1  0.756586  0.743397  0.249981  1
  Cl  Cl25  1  0.745535  0.995589  0.990695  1
  Cl  Cl26  1  0.995575  0.504466  0.250029  1
  Cl  Cl27  1  0.504367  0.754446  0.509294  1
