# generated using pymatgen
data_Sr2Ho2HgPb11
_symmetry_space_group_name_H-M   'P 1'
_cell_length_a   10.05069000
_cell_length_b   6.93464448
_cell_length_c   6.93635485
_cell_angle_alpha   89.58238687
_cell_angle_beta   90.00000000
_cell_angle_gamma   90.00000000
_symmetry_Int_Tables_number   1
_chemical_formula_structural   Sr2Ho2HgPb11
_chemical_formula_sum   'Sr2 Ho2 Hg1 Pb11'
_cell_volume   483.43695509
_cell_formula_units_Z   1
loop_
 _symmetry_equiv_pos_site_id
 _symmetry_equiv_pos_as_xyz
  1  'x, y, z'
loop_
 _atom_site_type_symbol
 _atom_site_label
 _atom_site_symmetry_multiplicity
 _atom_site_fract_x
 _atom_site_fract_y
 _atom_site_fract_z
 _atom_site_occupancy
  Sr  Sr0  1  0.750000  0.995470  0.999058  1
  Sr  Sr1  1  0.750000  0.507888  0.498289  1
  Ho  Ho2  1  0.250000  0.007079  0.002362  1
  Ho  Ho3  1  0.250000  0.498341  0.504578  1
  Hg  Hg4  1  0.750000  0.494087  0.997011  1
  Pb  Pb5  1  0.006646  0.243715  0.743261  1
  Pb  Pb6  1  0.493749  0.252333  0.248770  1
  Pb  Pb7  1  0.491499  0.751353  0.250441  1
  Pb  Pb8  1  0.007703  0.745908  0.754589  1
  Pb  Pb9  1  0.008501  0.751353  0.250441  1
  Pb  Pb10  1  0.492297  0.745908  0.754589  1
  Pb  Pb11  1  0.493354  0.243715  0.743261  1
  Pb  Pb12  1  0.006251  0.252333  0.248770  1
  Pb  Pb13  1  0.250000  0.997471  0.501941  1
  Pb  Pb14  1  0.250000  0.506274  0.004045  1
  Pb  Pb15  1  0.750000  0.006773  0.498592  1
