# generated using pymatgen
data_TaAlSiPt8
_symmetry_space_group_name_H-M   'P 1'
_cell_length_a   3.94904200
_cell_length_b   3.94904200
_cell_length_c   10.87870700
_cell_angle_alpha   90.00000000
_cell_angle_beta   90.00000000
_cell_angle_gamma   90.00000000
_symmetry_Int_Tables_number   1
_chemical_formula_structural   TaAlSiPt8
_chemical_formula_sum   'Ta1 Al1 Si1 Pt8'
_cell_volume   169.65270372
_cell_formula_units_Z   1
loop_
 _symmetry_equiv_pos_site_id
 _symmetry_equiv_pos_as_xyz
  1  'x, y, z'
loop_
 _atom_site_type_symbol
 _atom_site_label
 _atom_site_symmetry_multiplicity
 _atom_site_fract_x
 _atom_site_fract_y
 _atom_site_fract_z
 _atom_site_occupancy
  Ta  Ta0  1  0.500000  0.500000  0.818051  1
  Al  Al1  1  0.500000  0.500000  0.195171  1
  Si  Si2  1  0.000000  0.000000  0.495513  1
  Pt  Pt3  1  0.500000  0.000000  0.997765  1
  Pt  Pt4  1  0.000000  0.500000  0.997765  1
  Pt  Pt5  1  0.500000  0.000000  0.635442  1
  Pt  Pt6  1  0.000000  0.500000  0.635442  1
  Pt  Pt7  1  0.500000  0.000000  0.362931  1
  Pt  Pt8  1  0.000000  0.500000  0.362931  1
  Pt  Pt9  1  0.000000  0.000000  0.820968  1
  Pt  Pt10  1  0.000000  0.000000  0.178022  1
