# generated using pymatgen
data_Li3Nd4AlPd4
_symmetry_space_group_name_H-M   'P 1'
_cell_length_a   4.15843000
_cell_length_b   7.31809598
_cell_length_c   8.55776925
_cell_angle_alpha   89.67692944
_cell_angle_beta   90.00000000
_cell_angle_gamma   90.00000000
_symmetry_Int_Tables_number   1
_chemical_formula_structural   Li3Nd4AlPd4
_chemical_formula_sum   'Li3 Nd4 Al1 Pd4'
_cell_volume   260.42409564
_cell_formula_units_Z   1
loop_
 _symmetry_equiv_pos_site_id
 _symmetry_equiv_pos_as_xyz
  1  'x, y, z'
loop_
 _atom_site_type_symbol
 _atom_site_label
 _atom_site_symmetry_multiplicity
 _atom_site_fract_x
 _atom_site_fract_y
 _atom_site_fract_z
 _atom_site_occupancy
  Li  Li0  1  0.750000  0.871445  0.940660  1
  Li  Li1  1  0.250000  0.629064  0.443621  1
  Li  Li2  1  0.750000  0.365463  0.559999  1
  Nd  Nd3  1  0.750000  0.459589  0.188110  1
  Nd  Nd4  1  0.250000  0.040437  0.685818  1
  Nd  Nd5  1  0.750000  0.961451  0.310701  1
  Nd  Nd6  1  0.250000  0.536633  0.815630  1
  Al  Al7  1  0.250000  0.133502  0.059456  1
  Pd  Pd8  1  0.750000  0.749165  0.617603  1
  Pd  Pd9  1  0.750000  0.237685  0.898121  1
  Pd  Pd10  1  0.250000  0.248676  0.370968  1
  Pd  Pd11  1  0.250000  0.766890  0.109313  1
