# generated using pymatgen
data_Ga8PtO8
_symmetry_space_group_name_H-M   'P 1'
_cell_length_a   6.74565337
_cell_length_b   6.74565377
_cell_length_c   6.74565500
_cell_angle_alpha   59.99999889
_cell_angle_beta   59.99999690
_cell_angle_gamma   59.99999426
_symmetry_Int_Tables_number   1
_chemical_formula_structural   Ga8PtO8
_chemical_formula_sum   'Ga8 Pt1 O8'
_cell_volume   217.04868704
_cell_formula_units_Z   1
loop_
 _symmetry_equiv_pos_site_id
 _symmetry_equiv_pos_as_xyz
  1  'x, y, z'
loop_
 _atom_site_type_symbol
 _atom_site_label
 _atom_site_symmetry_multiplicity
 _atom_site_fract_x
 _atom_site_fract_y
 _atom_site_fract_z
 _atom_site_occupancy
  Ga  Ga0  1  0.743556  0.743556  0.256444  1
  Ga  Ga1  1  0.743556  0.256444  0.743556  1
  Ga  Ga2  1  0.256444  0.743556  0.256444  1
  Ga  Ga3  1  0.743556  0.256444  0.256444  1
  Ga  Ga4  1  0.256444  0.743556  0.743556  1
  Ga  Ga5  1  0.256444  0.256444  0.743556  1
  Ga  Ga6  1  0.250000  0.250000  0.250000  1
  Ga  Ga7  1  0.750000  0.750000  0.750000  1
  Pt  Pt8  1  0.000000  0.000000  0.000000  1
  O  O9  1  0.363933  0.908203  0.363933  1
  O  O10  1  0.636067  0.636067  0.091797  1
  O  O11  1  0.636067  0.636067  0.636067  1
  O  O12  1  0.091797  0.636067  0.636067  1
  O  O13  1  0.363933  0.363933  0.363933  1
  O  O14  1  0.908203  0.363933  0.363933  1
  O  O15  1  0.363933  0.363933  0.908203  1
  O  O16  1  0.636067  0.091797  0.636067  1
