# generated using pymatgen
data_Tb3Tc(P3Rh4)2
_symmetry_space_group_name_H-M   'P 1'
_cell_length_a   3.92670900
_cell_length_b   11.14875600
_cell_length_c   12.80459400
_cell_angle_alpha   90.00000000
_cell_angle_beta   90.00000000
_cell_angle_gamma   90.00000000
_symmetry_Int_Tables_number   1
_chemical_formula_structural   Tb3Tc(P3Rh4)2
_chemical_formula_sum   'Tb6 Tc2 P12 Rh16'
_cell_volume   560.55849847
_cell_formula_units_Z   2
loop_
 _symmetry_equiv_pos_site_id
 _symmetry_equiv_pos_as_xyz
  1  'x, y, z'
loop_
 _atom_site_type_symbol
 _atom_site_label
 _atom_site_symmetry_multiplicity
 _atom_site_fract_x
 _atom_site_fract_y
 _atom_site_fract_z
 _atom_site_occupancy
  Tb  Tb0  1  0.000000  0.500000  0.520490  1
  Tb  Tb1  1  0.500000  0.000000  0.479510  1
  Tb  Tb2  1  0.500000  0.815746  0.205323  1
  Tb  Tb3  1  0.500000  0.184254  0.205323  1
  Tb  Tb4  1  0.000000  0.684254  0.794677  1
  Tb  Tb5  1  0.000000  0.315746  0.794677  1
  Tc  Tc6  1  0.500000  0.500000  0.159117  1
  Tc  Tc7  1  0.000000  0.000000  0.840883  1
  P  P8  1  0.500000  0.500000  0.877271  1
  P  P9  1  0.000000  0.000000  0.122729  1
  P  P10  1  0.500000  0.500000  0.345936  1
  P  P11  1  0.000000  0.000000  0.654064  1
  P  P12  1  0.500000  0.315215  0.618377  1
  P  P13  1  0.500000  0.684785  0.618377  1
  P  P14  1  0.000000  0.184785  0.381623  1
  P  P15  1  0.000000  0.815215  0.381623  1
  P  P16  1  0.500000  0.848834  0.888516  1
  P  P17  1  0.500000  0.151166  0.888516  1
  P  P18  1  0.000000  0.651166  0.111484  1
  P  P19  1  0.000000  0.348834  0.111484  1
  Rh  Rh20  1  0.500000  0.500000  0.700778  1
  Rh  Rh21  1  0.000000  0.000000  0.299222  1
  Rh  Rh22  1  0.000000  0.500000  0.988283  1
  Rh  Rh23  1  0.500000  0.000000  0.011717  1
  Rh  Rh24  1  0.500000  0.331382  0.984598  1
  Rh  Rh25  1  0.500000  0.668618  0.984598  1
  Rh  Rh26  1  0.000000  0.168618  0.015402  1
  Rh  Rh27  1  0.000000  0.831382  0.015402  1
  Rh  Rh28  1  0.500000  0.295314  0.431926  1
  Rh  Rh29  1  0.500000  0.704686  0.431926  1
  Rh  Rh30  1  0.000000  0.204686  0.568074  1
  Rh  Rh31  1  0.000000  0.795314  0.568074  1
  Rh  Rh32  1  0.500000  0.875609  0.709097  1
  Rh  Rh33  1  0.500000  0.124391  0.709097  1
  Rh  Rh34  1  0.000000  0.624391  0.290903  1
  Rh  Rh35  1  0.000000  0.375609  0.290903  1
