# generated using pymatgen
data_Dy4ErReRuC7
_symmetry_space_group_name_H-M   'P 1'
_cell_length_a   8.25783425
_cell_length_b   8.24638302
_cell_length_c   3.46897800
_cell_angle_alpha   90.00000000
_cell_angle_beta   90.00000000
_cell_angle_gamma   122.37723470
_symmetry_Int_Tables_number   1
_chemical_formula_structural   Dy4ErReRuC7
_chemical_formula_sum   'Dy4 Er1 Re1 Ru1 C7'
_cell_volume   199.50409929
_cell_formula_units_Z   1
loop_
 _symmetry_equiv_pos_site_id
 _symmetry_equiv_pos_as_xyz
  1  'x, y, z'
loop_
 _atom_site_type_symbol
 _atom_site_label
 _atom_site_symmetry_multiplicity
 _atom_site_fract_x
 _atom_site_fract_y
 _atom_site_fract_z
 _atom_site_occupancy
  Dy  Dy0  1  0.500335  0.498828  0.000000  1
  Dy  Dy1  1  0.074544  0.334750  0.500000  1
  Dy  Dy2  1  0.922550  0.662245  0.500000  1
  Dy  Dy3  1  0.664508  0.926060  0.500000  1
  Er  Er4  1  0.340382  0.078555  0.500000  1
  Re  Re5  1  0.285327  0.714928  0.000000  1
  Ru  Ru6  1  0.712478  0.287362  0.000000  1
  C  C7  1  0.629115  0.370251  0.500000  1
  C  C8  1  0.373254  0.626631  0.500000  1
  C  C9  1  0.999520  0.000098  0.000000  1
  C  C10  1  0.171873  0.169137  0.000000  1
  C  C11  1  0.828951  0.829821  0.000000  1
  C  C12  1  0.001537  0.502775  0.000000  1
  C  C13  1  0.495630  0.998557  0.000000  1
