# generated using pymatgen
data_Dy7Ho3InBi5
_symmetry_space_group_name_H-M   'P 1'
_cell_length_a   9.12879532
_cell_length_b   9.13469755
_cell_length_c   6.45644605
_cell_angle_alpha   90.00607131
_cell_angle_beta   89.98525249
_cell_angle_gamma   120.03278997
_symmetry_Int_Tables_number   1
_chemical_formula_structural   Dy7Ho3InBi5
_chemical_formula_sum   'Dy7 Ho3 In1 Bi5'
_cell_volume   466.10975758
_cell_formula_units_Z   1
loop_
 _symmetry_equiv_pos_site_id
 _symmetry_equiv_pos_as_xyz
  1  'x, y, z'
loop_
 _atom_site_type_symbol
 _atom_site_label
 _atom_site_symmetry_multiplicity
 _atom_site_fract_x
 _atom_site_fract_y
 _atom_site_fract_z
 _atom_site_occupancy
  Dy  Dy0  1  0.671881  0.334389  0.000217  1
  Dy  Dy1  1  0.758953  0.757469  0.749967  1
  Dy  Dy2  1  0.241082  0.998556  0.749939  1
  Dy  Dy3  1  0.000031  0.240739  0.749902  1
  Dy  Dy4  1  0.235607  0.243554  0.250062  1
  Dy  Dy5  1  0.764427  0.007923  0.250020  1
  Dy  Dy6  1  0.000035  0.755292  0.250037  1
  Ho  Ho7  1  0.327886  0.662312  0.000374  1
  Ho  Ho8  1  0.328048  0.662401  0.499658  1
  Ho  Ho9  1  0.672008  0.334405  0.499646  1
  In  In10  1  0.000319  0.394301  0.250429  1
  Bi  Bi11  1  0.391541  0.389549  0.749761  1
  Bi  Bi12  1  0.608142  0.997394  0.749789  1
  Bi  Bi13  1  0.000304  0.609018  0.749724  1
  Bi  Bi14  1  0.610020  0.611639  0.250218  1
  Bi  Bi15  1  0.389716  0.001058  0.250257  1
