# generated using pymatgen
data_Li3DyY2InGe2
_symmetry_space_group_name_H-M   'P 1'
_cell_length_a   7.26688969
_cell_length_b   7.27236216
_cell_length_c   4.25210400
_cell_angle_alpha   90.00000000
_cell_angle_beta   90.00000000
_cell_angle_gamma   120.02490519
_symmetry_Int_Tables_number   1
_chemical_formula_structural   Li3DyY2InGe2
_chemical_formula_sum   'Li3 Dy1 Y2 In1 Ge2'
_cell_volume   194.55819571
_cell_formula_units_Z   1
loop_
 _symmetry_equiv_pos_site_id
 _symmetry_equiv_pos_as_xyz
  1  'x, y, z'
loop_
 _atom_site_type_symbol
 _atom_site_label
 _atom_site_symmetry_multiplicity
 _atom_site_fract_x
 _atom_site_fract_y
 _atom_site_fract_z
 _atom_site_occupancy
  Li  Li0  1  0.748958  0.748923  0.500000  1
  Li  Li1  1  0.251042  0.999965  0.500000  1
  Li  Li2  1  0.000000  0.251150  0.500000  1
  Dy  Dy3  1  0.000000  0.558300  0.000000  1
  Y  Y4  1  0.441772  0.441814  0.000000  1
  Y  Y5  1  0.558228  0.000042  0.000000  1
  In  In6  1  0.000000  0.999711  0.000000  1
  Ge  Ge7  1  0.667299  0.333696  0.500000  1
  Ge  Ge8  1  0.332701  0.666399  0.500000  1
