# generated using pymatgen
data_DyBiCl8
_symmetry_space_group_name_H-M   'P 1'
_cell_length_a   7.10655623
_cell_length_b   7.10655673
_cell_length_c   9.07588874
_cell_angle_alpha   92.33897213
_cell_angle_beta   92.33897646
_cell_angle_gamma   119.61900163
_symmetry_Int_Tables_number   1
_chemical_formula_structural   DyBiCl8
_chemical_formula_sum   'Dy1 Bi1 Cl8'
_cell_volume   397.15301331
_cell_formula_units_Z   1
loop_
 _symmetry_equiv_pos_site_id
 _symmetry_equiv_pos_as_xyz
  1  'x, y, z'
loop_
 _atom_site_type_symbol
 _atom_site_label
 _atom_site_symmetry_multiplicity
 _atom_site_fract_x
 _atom_site_fract_y
 _atom_site_fract_z
 _atom_site_occupancy
  Dy  Dy0  1  0.168304  0.831696  0.000000  1
  Bi  Bi1  1  0.831202  0.168798  0.000000  1
  Cl  Cl2  1  0.902685  0.894071  0.169478  1
  Cl  Cl3  1  0.508320  0.136933  0.168202  1
  Cl  Cl4  1  0.144777  0.523979  0.168146  1
  Cl  Cl5  1  0.612788  0.613092  0.441986  1
  Cl  Cl6  1  0.386909  0.387213  0.558013  1
  Cl  Cl7  1  0.863067  0.491680  0.831798  1
  Cl  Cl8  1  0.476021  0.855223  0.831854  1
  Cl  Cl9  1  0.105929  0.097315  0.830521  1
