# generated using pymatgen
data_GdCdIO6
_symmetry_space_group_name_H-M   'P 1'
_cell_length_a   5.08839900
_cell_length_b   5.08368600
_cell_length_c   10.02233700
_cell_angle_alpha   90.00000000
_cell_angle_beta   90.00000000
_cell_angle_gamma   90.00000000
_symmetry_Int_Tables_number   1
_chemical_formula_structural   GdCdIO6
_chemical_formula_sum   'Gd2 Cd2 I2 O12'
_cell_volume   259.25603714
_cell_formula_units_Z   2
loop_
 _symmetry_equiv_pos_site_id
 _symmetry_equiv_pos_as_xyz
  1  'x, y, z'
loop_
 _atom_site_type_symbol
 _atom_site_label
 _atom_site_symmetry_multiplicity
 _atom_site_fract_x
 _atom_site_fract_y
 _atom_site_fract_z
 _atom_site_occupancy
  Gd  Gd0  1  0.000000  0.000000  0.344050  1
  Gd  Gd1  1  0.500000  0.500000  0.155950  1
  Cd  Cd2  1  0.000000  0.000000  0.669377  1
  Cd  Cd3  1  0.500000  0.500000  0.830623  1
  I  I4  1  0.500000  0.500000  0.503287  1
  I  I5  1  0.000000  0.000000  0.996713  1
  O  O6  1  0.681752  0.682079  0.638753  1
  O  O7  1  0.318248  0.317921  0.638753  1
  O  O8  1  0.818248  0.182079  0.861247  1
  O  O9  1  0.181752  0.817921  0.861247  1
  O  O10  1  0.322265  0.322095  0.356058  1
  O  O11  1  0.677735  0.677905  0.356058  1
  O  O12  1  0.177735  0.822095  0.143942  1
  O  O13  1  0.822265  0.177905  0.143942  1
  O  O14  1  0.733562  0.733614  0.005006  1
  O  O15  1  0.266438  0.266386  0.005006  1
  O  O16  1  0.766438  0.233614  0.494994  1
  O  O17  1  0.233562  0.766386  0.494994  1
