# generated using pymatgen
data_Zr2(FeAs)3
_symmetry_space_group_name_H-M   'P 1'
_cell_length_a   3.80855500
_cell_length_b   10.47592200
_cell_length_c   12.64922600
_cell_angle_alpha   90.00000000
_cell_angle_beta   90.00000000
_cell_angle_gamma   90.00000000
_symmetry_Int_Tables_number   1
_chemical_formula_structural   Zr2(FeAs)3
_chemical_formula_sum   'Zr8 Fe12 As12'
_cell_volume   504.68040153
_cell_formula_units_Z   4
loop_
 _symmetry_equiv_pos_site_id
 _symmetry_equiv_pos_as_xyz
  1  'x, y, z'
loop_
 _atom_site_type_symbol
 _atom_site_label
 _atom_site_symmetry_multiplicity
 _atom_site_fract_x
 _atom_site_fract_y
 _atom_site_fract_z
 _atom_site_occupancy
  Zr  Zr0  1  0.250000  0.071613  0.198766  1
  Zr  Zr1  1  0.750000  0.928387  0.801234  1
  Zr  Zr2  1  0.750000  0.571613  0.301234  1
  Zr  Zr3  1  0.250000  0.428387  0.698766  1
  Zr  Zr4  1  0.250000  0.163529  0.493283  1
  Zr  Zr5  1  0.750000  0.836471  0.506717  1
  Zr  Zr6  1  0.750000  0.663529  0.006717  1
  Zr  Zr7  1  0.250000  0.336471  0.993283  1
  Fe  Fe8  1  0.250000  0.724284  0.672715  1
  Fe  Fe9  1  0.750000  0.275716  0.327285  1
  Fe  Fe10  1  0.750000  0.224284  0.827285  1
  Fe  Fe11  1  0.250000  0.775716  0.172715  1
  Fe  Fe12  1  0.250000  0.353410  0.223728  1
  Fe  Fe13  1  0.750000  0.646590  0.776272  1
  Fe  Fe14  1  0.750000  0.853410  0.276272  1
  Fe  Fe15  1  0.250000  0.146590  0.723728  1
  Fe  Fe16  1  0.250000  0.595831  0.491505  1
  Fe  Fe17  1  0.750000  0.404169  0.508495  1
  Fe  Fe18  1  0.750000  0.095831  0.008495  1
  Fe  Fe19  1  0.250000  0.904169  0.991505  1
  As  As20  1  0.250000  0.951130  0.630963  1
  As  As21  1  0.750000  0.048870  0.369037  1
  As  As22  1  0.750000  0.451130  0.869037  1
  As  As23  1  0.250000  0.548870  0.130963  1
  As  As24  1  0.250000  0.402572  0.403360  1
  As  As25  1  0.750000  0.597428  0.596640  1
  As  As26  1  0.750000  0.902572  0.096640  1
  As  As27  1  0.250000  0.097428  0.903360  1
  As  As28  1  0.250000  0.759463  0.363973  1
  As  As29  1  0.750000  0.240537  0.636027  1
  As  As30  1  0.750000  0.259463  0.136027  1
  As  As31  1  0.250000  0.740537  0.863973  1
