# generated using pymatgen
data_Nd6Si2GeSe14
_symmetry_space_group_name_H-M   'P 1'
_cell_length_a   10.69284500
_cell_length_b   10.69284576
_cell_length_c   6.04750800
_cell_angle_alpha   90.00000000
_cell_angle_beta   90.00000000
_cell_angle_gamma   120.00000074
_symmetry_Int_Tables_number   1
_chemical_formula_structural   Nd6Si2GeSe14
_chemical_formula_sum   'Nd6 Si2 Ge1 Se14'
_cell_volume   598.81635576
_cell_formula_units_Z   1
loop_
 _symmetry_equiv_pos_site_id
 _symmetry_equiv_pos_as_xyz
  1  'x, y, z'
loop_
 _atom_site_type_symbol
 _atom_site_label
 _atom_site_symmetry_multiplicity
 _atom_site_fract_x
 _atom_site_fract_y
 _atom_site_fract_z
 _atom_site_occupancy
  Nd  Nd0  1  0.894741  0.691290  0.245972  1
  Nd  Nd1  1  0.308710  0.203450  0.245972  1
  Nd  Nd2  1  0.796550  0.105259  0.245972  1
  Nd  Nd3  1  0.438515  0.974818  0.749258  1
  Nd  Nd4  1  0.025182  0.463697  0.749258  1
  Nd  Nd5  1  0.536303  0.561485  0.749258  1
  Si  Si6  1  0.000000  0.000000  0.833259  1
  Si  Si7  1  0.333333  0.666667  0.336947  1
  Ge  Ge8  1  0.666667  0.333333  0.481894  1
  Se  Se9  1  0.000000  0.000000  0.458442  1
  Se  Se10  1  0.333333  0.666667  0.961523  1
  Se  Se11  1  0.773281  0.854839  0.982714  1
  Se  Se12  1  0.145161  0.918442  0.982714  1
  Se  Se13  1  0.081558  0.226719  0.982714  1
  Se  Se14  1  0.559948  0.811797  0.485945  1
  Se  Se15  1  0.188203  0.748152  0.485945  1
  Se  Se16  1  0.251848  0.440052  0.485945  1
  Se  Se17  1  0.828707  0.590241  0.724402  1
  Se  Se18  1  0.409759  0.238467  0.724402  1
  Se  Se19  1  0.761533  0.171293  0.724402  1
  Se  Se20  1  0.501410  0.075514  0.233039  1
  Se  Se21  1  0.924486  0.425895  0.233039  1
  Se  Se22  1  0.574105  0.498590  0.233039  1
