# generated using pymatgen
data_DyEr7Cd3SnAu8
_symmetry_space_group_name_H-M   'P 1'
_cell_length_a   7.99067649
_cell_length_b   7.99066049
_cell_length_c   7.29135010
_cell_angle_alpha   90.01446034
_cell_angle_beta   89.98659107
_cell_angle_gamma   89.93156004
_symmetry_Int_Tables_number   1
_chemical_formula_structural   DyEr7Cd3SnAu8
_chemical_formula_sum   'Dy1 Er7 Cd3 Sn1 Au8'
_cell_volume   465.55805254
_cell_formula_units_Z   1
loop_
 _symmetry_equiv_pos_site_id
 _symmetry_equiv_pos_as_xyz
  1  'x, y, z'
loop_
 _atom_site_type_symbol
 _atom_site_label
 _atom_site_symmetry_multiplicity
 _atom_site_fract_x
 _atom_site_fract_y
 _atom_site_fract_z
 _atom_site_occupancy
  Dy  Dy0  1  0.183878  0.174651  0.999611  1
  Er  Er1  1  0.326516  0.684083  0.500197  1
  Er  Er2  1  0.674300  0.317286  0.500043  1
  Er  Er3  1  0.816655  0.825841  0.000020  1
  Er  Er4  1  0.344374  0.665313  0.999965  1
  Er  Er5  1  0.655902  0.334734  0.000090  1
  Er  Er6  1  0.834014  0.843942  0.500039  1
  Er  Er7  1  0.164868  0.155368  0.499914  1
  Cd  Cd8  1  0.999786  0.500530  0.749262  1
  Cd  Cd9  1  0.500587  0.000264  0.250691  1
  Cd  Cd10  1  0.999973  0.499407  0.249630  1
  Sn  Sn11  1  0.501156  0.999065  0.749831  1
  Au  Au12  1  0.122418  0.864703  0.768200  1
  Au  Au13  1  0.872364  0.132034  0.232605  1
  Au  Au14  1  0.367826  0.374475  0.270326  1
  Au  Au15  1  0.634572  0.622718  0.731920  1
  Au  Au16  1  0.632446  0.626137  0.267757  1
  Au  Au17  1  0.876025  0.134778  0.767860  1
  Au  Au18  1  0.366095  0.378005  0.729290  1
  Au  Au19  1  0.126247  0.866665  0.232748  1
