# generated using pymatgen
data_Th2Al5SiPd2
_symmetry_space_group_name_H-M   'P 1'
_cell_length_a   6.07762200
_cell_length_b   6.07762288
_cell_length_c   5.87839800
_cell_angle_alpha   90.00000000
_cell_angle_beta   90.00000000
_cell_angle_gamma   117.12539604
_symmetry_Int_Tables_number   1
_chemical_formula_structural   Th2Al5SiPd2
_chemical_formula_sum   'Th2 Al5 Si1 Pd2'
_cell_volume   193.25097658
_cell_formula_units_Z   1
loop_
 _symmetry_equiv_pos_site_id
 _symmetry_equiv_pos_as_xyz
  1  'x, y, z'
loop_
 _atom_site_type_symbol
 _atom_site_label
 _atom_site_symmetry_multiplicity
 _atom_site_fract_x
 _atom_site_fract_y
 _atom_site_fract_z
 _atom_site_occupancy
  Th  Th0  1  0.243341  0.756659  0.750000  1
  Th  Th1  1  0.761132  0.238868  0.250000  1
  Al  Al2  1  0.663793  0.336207  0.750000  1
  Al  Al3  1  0.717979  0.720934  0.005400  1
  Al  Al4  1  0.717979  0.720934  0.494600  1
  Al  Al5  1  0.279066  0.282021  0.005400  1
  Al  Al6  1  0.279066  0.282021  0.494600  1
  Si  Si7  1  0.334455  0.665545  0.250000  1
  Pd  Pd8  1  0.901449  0.098551  0.750000  1
  Pd  Pd9  1  0.101740  0.898260  0.250000  1
