# generated using pymatgen
data_LiMnAgTeO6
_symmetry_space_group_name_H-M   'P 1'
_cell_length_a   5.18357880
_cell_length_b   6.22387898
_cell_length_c   5.18387806
_cell_angle_alpha   114.58255534
_cell_angle_beta   59.99039818
_cell_angle_gamma   114.57707608
_symmetry_Int_Tables_number   1
_chemical_formula_structural   LiMnAgTeO6
_chemical_formula_sum   'Li1 Mn1 Ag1 Te1 O6'
_cell_volume   127.02497047
_cell_formula_units_Z   1
loop_
 _symmetry_equiv_pos_site_id
 _symmetry_equiv_pos_as_xyz
  1  'x, y, z'
loop_
 _atom_site_type_symbol
 _atom_site_label
 _atom_site_symmetry_multiplicity
 _atom_site_fract_x
 _atom_site_fract_y
 _atom_site_fract_z
 _atom_site_occupancy
  Li  Li0  1  0.103702  0.311392  0.103706  1
  Mn  Mn1  1  0.668323  0.005368  0.668417  1
  Ag  Ag2  1  0.861428  0.583870  0.861306  1
  Te  Te3  1  0.339747  0.019476  0.339849  1
  O  O4  1  0.066512  0.212273  0.437183  1
  O  O5  1  0.553722  0.814306  0.322407  1
  O  O6  1  0.322540  0.814308  0.938423  1
  O  O7  1  0.708331  0.212385  0.066781  1
  O  O8  1  0.437072  0.212367  0.708453  1
  O  O9  1  0.938623  0.814254  0.553476  1
