# generated using pymatgen
data_Cs2MgV2O7
_symmetry_space_group_name_H-M   'P 1'
_cell_length_a   6.39252103
_cell_length_b   8.73320804
_cell_length_c   8.73322101
_cell_angle_alpha   89.99736246
_cell_angle_beta   90.00605738
_cell_angle_gamma   90.00789807
_symmetry_Int_Tables_number   1
_chemical_formula_structural   Cs2MgV2O7
_chemical_formula_sum   'Cs4 Mg2 V4 O14'
_cell_volume   487.55140790
_cell_formula_units_Z   2
loop_
 _symmetry_equiv_pos_site_id
 _symmetry_equiv_pos_as_xyz
  1  'x, y, z'
loop_
 _atom_site_type_symbol
 _atom_site_label
 _atom_site_symmetry_multiplicity
 _atom_site_fract_x
 _atom_site_fract_y
 _atom_site_fract_z
 _atom_site_occupancy
  Cs  Cs0  1  0.509996  0.162509  0.662509  1
  Cs  Cs1  1  0.489986  0.337494  0.162544  1
  Cs  Cs2  1  0.510070  0.837464  0.337458  1
  Cs  Cs3  1  0.489978  0.662546  0.837486  1
  Mg  Mg4  1  0.000006  0.499986  0.500021  1
  Mg  Mg5  1  0.000007  0.000021  0.999984  1
  V  V6  1  0.957258  0.641220  0.141223  1
  V  V7  1  0.042781  0.141227  0.358727  1
  V  V8  1  0.957155  0.358782  0.858800  1
  V  V9  1  0.042802  0.858744  0.641227  1
  O  O10  1  0.131582  0.999954  0.499952  1
  O  O11  1  0.868378  0.500006  0.000009  1
  O  O12  1  0.780057  0.146353  0.353632  1
  O  O13  1  0.219864  0.353635  0.853641  1
  O  O14  1  0.780062  0.853647  0.646347  1
  O  O15  1  0.220000  0.646338  0.146336  1
  O  O16  1  0.147871  0.317322  0.413653  1
  O  O17  1  0.852088  0.182670  0.913637  1
  O  O18  1  0.147878  0.682632  0.586400  1
  O  O19  1  0.852163  0.817356  0.086372  1
  O  O20  1  0.852157  0.586376  0.317360  1
  O  O21  1  0.147887  0.913675  0.817350  1
  O  O22  1  0.852102  0.413633  0.682687  1
  O  O23  1  0.147875  0.086413  0.182645  1
