# generated using pymatgen
data_La12TbNdRh6
_symmetry_space_group_name_H-M   'P 1'
_cell_length_a   10.28437700
_cell_length_b   10.28437884
_cell_length_c   6.45076200
_cell_angle_alpha   90.00000000
_cell_angle_beta   90.00000000
_cell_angle_gamma   120.00000374
_symmetry_Int_Tables_number   1
_chemical_formula_structural   La12TbNdRh6
_chemical_formula_sum   'La12 Tb1 Nd1 Rh6'
_cell_volume   590.87782101
_cell_formula_units_Z   1
loop_
 _symmetry_equiv_pos_site_id
 _symmetry_equiv_pos_as_xyz
  1  'x, y, z'
loop_
 _atom_site_type_symbol
 _atom_site_label
 _atom_site_symmetry_multiplicity
 _atom_site_fract_x
 _atom_site_fract_y
 _atom_site_fract_z
 _atom_site_occupancy
  La  La0  1  0.873847  0.747692  0.765626  1
  La  La1  1  0.252308  0.126153  0.765626  1
  La  La2  1  0.873847  0.126153  0.765626  1
  La  La3  1  0.127375  0.254752  0.264717  1
  La  La4  1  0.745248  0.872625  0.264717  1
  La  La5  1  0.127375  0.872625  0.264717  1
  La  La6  1  0.457097  0.914195  0.597410  1
  La  La7  1  0.085805  0.542903  0.597410  1
  La  La8  1  0.457097  0.542903  0.597410  1
  La  La9  1  0.541810  0.083617  0.096810  1
  La  La10  1  0.916383  0.458190  0.096810  1
  La  La11  1  0.541810  0.458190  0.096810  1
  Tb  Tb12  1  0.333333  0.666667  0.067383  1
  Nd  Nd13  1  0.666667  0.333333  0.572495  1
  Rh  Rh14  1  0.190702  0.381403  0.851703  1
  Rh  Rh15  1  0.618597  0.809298  0.851703  1
  Rh  Rh16  1  0.190702  0.809298  0.851703  1
  Rh  Rh17  1  0.811196  0.622393  0.348791  1
  Rh  Rh18  1  0.377607  0.188804  0.348791  1
  Rh  Rh19  1  0.811196  0.188804  0.348791  1
