# generated using pymatgen
data_Dy2Lu2SiTc7
_symmetry_space_group_name_H-M   'P 1'
_cell_length_a   5.30631100
_cell_length_b   5.30631151
_cell_length_c   8.83405800
_cell_angle_alpha   90.00000000
_cell_angle_beta   90.00000000
_cell_angle_gamma   119.99999061
_symmetry_Int_Tables_number   1
_chemical_formula_structural   Dy2Lu2SiTc7
_chemical_formula_sum   'Dy2 Lu2 Si1 Tc7'
_cell_volume   215.41520813
_cell_formula_units_Z   1
loop_
 _symmetry_equiv_pos_site_id
 _symmetry_equiv_pos_as_xyz
  1  'x, y, z'
loop_
 _atom_site_type_symbol
 _atom_site_label
 _atom_site_symmetry_multiplicity
 _atom_site_fract_x
 _atom_site_fract_y
 _atom_site_fract_z
 _atom_site_occupancy
  Dy  Dy0  1  0.333333  0.666667  0.435124  1
  Dy  Dy1  1  0.666667  0.333333  0.564876  1
  Lu  Lu2  1  0.666667  0.333333  0.935091  1
  Lu  Lu3  1  0.333333  0.666667  0.064909  1
  Si  Si4  1  0.000000  0.000000  0.500000  1
  Tc  Tc5  1  0.000000  0.000000  0.000000  1
  Tc  Tc6  1  0.829838  0.170162  0.252084  1
  Tc  Tc7  1  0.829838  0.659678  0.252084  1
  Tc  Tc8  1  0.340322  0.170162  0.252084  1
  Tc  Tc9  1  0.170162  0.829838  0.747916  1
  Tc  Tc10  1  0.170162  0.340322  0.747916  1
  Tc  Tc11  1  0.659678  0.829838  0.747916  1
