# generated using pymatgen
data_Er8Si13Au
_symmetry_space_group_name_H-M   'P 1'
_cell_length_a   7.23031890
_cell_length_b   7.23031908
_cell_length_c   11.32084443
_cell_angle_alpha   89.91233923
_cell_angle_beta   89.91233676
_cell_angle_gamma   133.82333023
_symmetry_Int_Tables_number   1
_chemical_formula_structural   Er8Si13Au
_chemical_formula_sum   'Er8 Si13 Au1'
_cell_volume   426.98608972
_cell_formula_units_Z   1
loop_
 _symmetry_equiv_pos_site_id
 _symmetry_equiv_pos_as_xyz
  1  'x, y, z'
loop_
 _atom_site_type_symbol
 _atom_site_label
 _atom_site_symmetry_multiplicity
 _atom_site_fract_x
 _atom_site_fract_y
 _atom_site_fract_z
 _atom_site_occupancy
  Er  Er0  1  0.520984  0.523100  0.505747  1
  Er  Er1  1  0.476900  0.479016  0.994253  1
  Er  Er2  1  0.999437  0.000563  0.250000  1
  Er  Er3  1  0.997335  0.002665  0.750000  1
  Er  Er4  1  0.021473  0.516520  0.621587  1
  Er  Er5  1  0.517635  0.025504  0.383532  1
  Er  Er6  1  0.974496  0.482365  0.116468  1
  Er  Er7  1  0.483480  0.978527  0.878413  1
  Si  Si8  1  0.432538  0.567462  0.750000  1
  Si  Si9  1  0.848030  0.540764  0.849458  1
  Si  Si10  1  0.510839  0.801832  0.166598  1
  Si  Si11  1  0.198168  0.489161  0.333402  1
  Si  Si12  1  0.459236  0.151970  0.650542  1
  Si  Si13  1  0.076049  0.414400  0.872678  1
  Si  Si14  1  0.409559  0.062102  0.126661  1
  Si  Si15  1  0.940565  0.122560  0.490407  1
  Si  Si16  1  0.104613  0.936568  0.506111  1
  Si  Si17  1  0.063432  0.895387  0.993889  1
  Si  Si18  1  0.877440  0.059435  0.009593  1
  Si  Si19  1  0.585600  0.923951  0.627322  1
  Si  Si20  1  0.937898  0.590441  0.373339  1
  Au  Au21  1  0.564293  0.435707  0.250000  1
