# generated using pymatgen
data_Nd2Dy6Si12Ir3Rh
_symmetry_space_group_name_H-M   'P 1'
_cell_length_a   8.19786900
_cell_length_b   8.19786928
_cell_length_c   8.04842000
_cell_angle_alpha   90.00000000
_cell_angle_beta   90.00000000
_cell_angle_gamma   119.99998677
_symmetry_Int_Tables_number   1
_chemical_formula_structural   Nd2Dy6Si12Ir3Rh
_chemical_formula_sum   'Nd2 Dy6 Si12 Ir3 Rh1'
_cell_volume   468.42847177
_cell_formula_units_Z   1
loop_
 _symmetry_equiv_pos_site_id
 _symmetry_equiv_pos_as_xyz
  1  'x, y, z'
loop_
 _atom_site_type_symbol
 _atom_site_label
 _atom_site_symmetry_multiplicity
 _atom_site_fract_x
 _atom_site_fract_y
 _atom_site_fract_z
 _atom_site_occupancy
  Nd  Nd0  1  0.000000  0.000000  0.249269  1
  Nd  Nd1  1  0.000000  0.000000  0.750315  1
  Dy  Dy2  1  0.509014  0.490986  0.250226  1
  Dy  Dy3  1  0.509014  0.018029  0.250226  1
  Dy  Dy4  1  0.981971  0.490986  0.250226  1
  Dy  Dy5  1  0.491350  0.508650  0.749867  1
  Dy  Dy6  1  0.491350  0.982699  0.749867  1
  Dy  Dy7  1  0.017301  0.508650  0.749867  1
  Si  Si8  1  0.168031  0.831969  0.500409  1
  Si  Si9  1  0.168031  0.336064  0.500409  1
  Si  Si10  1  0.663936  0.831969  0.500409  1
  Si  Si11  1  0.832028  0.167972  0.499238  1
  Si  Si12  1  0.832028  0.664055  0.499238  1
  Si  Si13  1  0.335945  0.167972  0.499238  1
  Si  Si14  1  0.832290  0.167710  0.000658  1
  Si  Si15  1  0.832290  0.664580  0.000658  1
  Si  Si16  1  0.335420  0.167710  0.000658  1
  Si  Si17  1  0.168360  0.831640  0.998988  1
  Si  Si18  1  0.168360  0.336722  0.998988  1
  Si  Si19  1  0.663278  0.831640  0.998988  1
  Ir  Ir20  1  0.333333  0.666667  0.467581  1
  Ir  Ir21  1  0.666667  0.333333  0.533569  1
  Ir  Ir22  1  0.666667  0.333333  0.966014  1
  Rh  Rh23  1  0.333333  0.666667  0.035095  1
