# generated using pymatgen
data_Si2GePd6
_symmetry_space_group_name_H-M   'P 1'
_cell_length_a   6.64092400
_cell_length_b   6.64092460
_cell_length_c   3.48943900
_cell_angle_alpha   90.00000000
_cell_angle_beta   90.00000000
_cell_angle_gamma   120.00000699
_symmetry_Int_Tables_number   1
_chemical_formula_structural   Si2GePd6
_chemical_formula_sum   'Si2 Ge1 Pd6'
_cell_volume   133.27333669
_cell_formula_units_Z   1
loop_
 _symmetry_equiv_pos_site_id
 _symmetry_equiv_pos_as_xyz
  1  'x, y, z'
loop_
 _atom_site_type_symbol
 _atom_site_label
 _atom_site_symmetry_multiplicity
 _atom_site_fract_x
 _atom_site_fract_y
 _atom_site_fract_z
 _atom_site_occupancy
  Si  Si0  1  0.333333  0.666667  0.000000  1
  Si  Si1  1  0.000000  0.000000  0.500000  1
  Ge  Ge2  1  0.666667  0.333333  0.000000  1
  Pd  Pd3  1  0.739598  0.737879  0.000000  1
  Pd  Pd4  1  0.262121  0.001719  0.000000  1
  Pd  Pd5  1  0.998281  0.260402  0.000000  1
  Pd  Pd6  1  0.382843  0.403816  0.500000  1
  Pd  Pd7  1  0.596184  0.979027  0.500000  1
  Pd  Pd8  1  0.020973  0.617157  0.500000  1
