# generated using pymatgen
data_Y3ThMgRu
_symmetry_space_group_name_H-M   'P 1'
_cell_length_a   9.78821761
_cell_length_b   9.78821752
_cell_length_c   9.78821700
_cell_angle_alpha   59.99999839
_cell_angle_beta   59.99999870
_cell_angle_gamma   59.99999883
_symmetry_Int_Tables_number   1
_chemical_formula_structural   Y3ThMgRu
_chemical_formula_sum   'Y12 Th4 Mg4 Ru4'
_cell_volume   663.12561786
_cell_formula_units_Z   4
loop_
 _symmetry_equiv_pos_site_id
 _symmetry_equiv_pos_as_xyz
  1  'x, y, z'
loop_
 _atom_site_type_symbol
 _atom_site_label
 _atom_site_symmetry_multiplicity
 _atom_site_fract_x
 _atom_site_fract_y
 _atom_site_fract_z
 _atom_site_occupancy
  Y  Y0  1  0.813054  0.186946  0.186946  1
  Y  Y1  1  0.186946  0.813054  0.813054  1
  Y  Y2  1  0.186946  0.813054  0.186946  1
  Y  Y3  1  0.813054  0.186946  0.813054  1
  Y  Y4  1  0.186946  0.186946  0.813054  1
  Y  Y5  1  0.813054  0.813054  0.186946  1
  Y  Y6  1  0.935815  0.564185  0.564185  1
  Y  Y7  1  0.564185  0.935815  0.935815  1
  Y  Y8  1  0.564185  0.935815  0.564185  1
  Y  Y9  1  0.935815  0.564185  0.935815  1
  Y  Y10  1  0.564185  0.564185  0.935815  1
  Y  Y11  1  0.935815  0.935815  0.564185  1
  Th  Th12  1  0.345528  0.345528  0.345528  1
  Th  Th13  1  0.345528  0.345528  0.963416  1
  Th  Th14  1  0.345528  0.963416  0.345528  1
  Th  Th15  1  0.963416  0.345528  0.345528  1
  Mg  Mg16  1  0.579828  0.579828  0.579828  1
  Mg  Mg17  1  0.579828  0.579828  0.260515  1
  Mg  Mg18  1  0.579828  0.260515  0.579828  1
  Mg  Mg19  1  0.260515  0.579828  0.579828  1
  Ru  Ru20  1  0.144317  0.144317  0.144317  1
  Ru  Ru21  1  0.144317  0.144317  0.567050  1
  Ru  Ru22  1  0.144317  0.567050  0.144317  1
  Ru  Ru23  1  0.567050  0.144317  0.144317  1
