# generated using pymatgen
data_La5Nd3(Tm3Si4)4
_symmetry_space_group_name_H-M   'P 1'
_cell_length_a   7.75140728
_cell_length_b   7.75157175
_cell_length_c   14.27856696
_cell_angle_alpha   89.92783586
_cell_angle_beta   90.01575496
_cell_angle_gamma   89.97369834
_symmetry_Int_Tables_number   1
_chemical_formula_structural   La5Nd3(Tm3Si4)4
_chemical_formula_sum   'La5 Nd3 Tm12 Si16'
_cell_volume   857.93531151
_cell_formula_units_Z   1
loop_
 _symmetry_equiv_pos_site_id
 _symmetry_equiv_pos_as_xyz
  1  'x, y, z'
loop_
 _atom_site_type_symbol
 _atom_site_label
 _atom_site_symmetry_multiplicity
 _atom_site_fract_x
 _atom_site_fract_y
 _atom_site_fract_z
 _atom_site_occupancy
  La  La0  1  0.644013  0.991989  0.459084  1
  La  La1  1  0.355806  0.007980  0.959837  1
  La  La2  1  0.991415  0.643362  0.540595  1
  La  La3  1  0.492297  0.856009  0.209241  1
  La  La4  1  0.507985  0.144144  0.709965  1
  Nd  Nd5  1  0.857473  0.492261  0.790980  1
  Nd  Nd6  1  0.142825  0.507299  0.290680  1
  Nd  Nd7  1  0.007979  0.357581  0.040794  1
  Tm  Tm8  1  0.493458  0.359283  0.124197  1
  Tm  Tm9  1  0.992422  0.141517  0.626015  1
  Tm  Tm10  1  0.859592  0.006666  0.874492  1
  Tm  Tm11  1  0.141028  0.993687  0.373792  1
  Tm  Tm12  1  0.505754  0.640463  0.624505  1
  Tm  Tm13  1  0.359521  0.492816  0.876099  1
  Tm  Tm14  1  0.640328  0.506622  0.375176  1
  Tm  Tm15  1  0.007135  0.859446  0.125525  1
  Tm  Tm16  1  0.318084  0.318507  0.500215  1
  Tm  Tm17  1  0.180624  0.817727  0.750049  1
  Tm  Tm18  1  0.819711  0.182714  0.249739  1
  Tm  Tm19  1  0.683098  0.680294  0.999963  1
  Si  Si20  1  0.287318  0.936717  0.561977  1
  Si  Si21  1  0.713998  0.065290  0.061746  1
  Si  Si22  1  0.938713  0.289397  0.437095  1
  Si  Si23  1  0.434720  0.214019  0.311862  1
  Si  Si24  1  0.564365  0.786223  0.812339  1
  Si  Si25  1  0.209715  0.438483  0.688450  1
  Si  Si26  1  0.791164  0.560410  0.187519  1
  Si  Si27  1  0.060153  0.708971  0.937586  1
  Si  Si28  1  0.796002  0.848058  0.690456  1
  Si  Si29  1  0.202252  0.153042  0.188721  1
  Si  Si30  1  0.852499  0.793458  0.310369  1
  Si  Si31  1  0.348920  0.703150  0.438230  1
  Si  Si32  1  0.653324  0.297703  0.939095  1
  Si  Si33  1  0.704647  0.350797  0.560955  1
  Si  Si34  1  0.293639  0.647554  0.061241  1
  Si  Si35  1  0.148026  0.206360  0.811417  1
