# generated using pymatgen
data_Rb4Na2ScInP4
_symmetry_space_group_name_H-M   'P 1'
_cell_length_a   9.19962943
_cell_length_b   9.19962783
_cell_length_c   9.19963049
_cell_angle_alpha   136.13134475
_cell_angle_beta   62.38397537
_cell_angle_gamma   137.95452799
_symmetry_Int_Tables_number   1
_chemical_formula_structural   Rb4Na2ScInP4
_chemical_formula_sum   'Rb4 Na2 Sc1 In1 P4'
_cell_volume   357.00804335
_cell_formula_units_Z   1
loop_
 _symmetry_equiv_pos_site_id
 _symmetry_equiv_pos_as_xyz
  1  'x, y, z'
loop_
 _atom_site_type_symbol
 _atom_site_label
 _atom_site_symmetry_multiplicity
 _atom_site_fract_x
 _atom_site_fract_y
 _atom_site_fract_z
 _atom_site_occupancy
  Rb  Rb0  1  0.317522  0.725066  0.054117  1
  Rb  Rb1  1  0.182478  0.236594  0.407544  1
  Rb  Rb2  1  0.829050  0.774934  0.592455  1
  Rb  Rb3  1  0.670950  0.263406  0.945883  1
  Na  Na4  1  0.249999  0.249999  0.000000  1
  Na  Na5  1  0.750000  0.750000  0.000000  1
  Sc  Sc6  1  0.749999  0.249999  0.500000  1
  In  In7  1  0.249999  0.749999  0.500000  1
  P  P8  1  0.902635  0.282468  0.194443  1
  P  P9  1  0.597366  0.791808  0.379833  1
  P  P10  1  0.411974  0.217532  0.620167  1
  P  P11  1  0.088025  0.708192  0.805556  1
