# generated using pymatgen
data_Pr8Tm12Ga5Si11
_symmetry_space_group_name_H-M   'P 1'
_cell_length_a   7.51392947
_cell_length_b   7.81577499
_cell_length_c   14.90372036
_cell_angle_alpha   89.98845945
_cell_angle_beta   90.10457893
_cell_angle_gamma   90.07407902
_symmetry_Int_Tables_number   1
_chemical_formula_structural   Pr8Tm12Ga5Si11
_chemical_formula_sum   'Pr8 Tm12 Ga5 Si11'
_cell_volume   875.25129196
_cell_formula_units_Z   1
loop_
 _symmetry_equiv_pos_site_id
 _symmetry_equiv_pos_as_xyz
  1  'x, y, z'
loop_
 _atom_site_type_symbol
 _atom_site_label
 _atom_site_symmetry_multiplicity
 _atom_site_fract_x
 _atom_site_fract_y
 _atom_site_fract_z
 _atom_site_occupancy
  Pr  Pr0  1  0.016346  0.176096  0.400232  1
  Pr  Pr1  1  0.516214  0.324201  0.400340  1
  Pr  Pr2  1  0.485696  0.677097  0.899397  1
  Pr  Pr3  1  0.483938  0.678920  0.599097  1
  Pr  Pr4  1  0.984021  0.821107  0.598977  1
  Pr  Pr5  1  0.983980  0.827188  0.899914  1
  Pr  Pr6  1  0.515312  0.322643  0.101036  1
  Pr  Pr7  1  0.014573  0.176623  0.101180  1
  Tm  Tm8  1  0.326636  0.173455  0.624104  1
  Tm  Tm9  1  0.673801  0.822326  0.375665  1
  Tm  Tm10  1  0.663418  0.994299  0.751174  1
  Tm  Tm11  1  0.173099  0.677587  0.375576  1
  Tm  Tm12  1  0.825366  0.323805  0.875633  1
  Tm  Tm13  1  0.826422  0.325715  0.623932  1
  Tm  Tm14  1  0.837227  0.494879  0.250630  1
  Tm  Tm15  1  0.338038  0.004173  0.251599  1
  Tm  Tm16  1  0.329084  0.175825  0.874086  1
  Tm  Tm17  1  0.172443  0.673279  0.125971  1
  Tm  Tm18  1  0.671994  0.826107  0.125128  1
  Tm  Tm19  1  0.162171  0.504495  0.750575  1
  Ga  Ga20  1  0.155175  0.462334  0.537710  1
  Ga  Ga21  1  0.843601  0.537949  0.038776  1
  Ga  Ga22  1  0.343715  0.962014  0.037857  1
  Ga  Ga23  1  0.155945  0.462685  0.960700  1
  Ga  Ga24  1  0.655141  0.037766  0.537697  1
  Si  Si25  1  0.281509  0.878755  0.749463  1
  Si  Si26  1  0.466450  0.615764  0.251517  1
  Si  Si27  1  0.033095  0.116046  0.749214  1
  Si  Si28  1  0.533815  0.385798  0.749236  1
  Si  Si29  1  0.966802  0.884969  0.250779  1
  Si  Si30  1  0.717082  0.121441  0.251157  1
  Si  Si31  1  0.348575  0.965282  0.460167  1
  Si  Si32  1  0.848332  0.534797  0.460253  1
  Si  Si33  1  0.782449  0.621321  0.749144  1
  Si  Si34  1  0.217346  0.377860  0.251133  1
  Si  Si35  1  0.651190  0.035401  0.960952  1
