# generated using pymatgen
data_Dy2Er2FeSi4Rh
_symmetry_space_group_name_H-M   'P 1'
_cell_length_a   5.63467158
_cell_length_b   5.63467108
_cell_length_c   10.01787026
_cell_angle_alpha   63.33242221
_cell_angle_beta   63.33242668
_cell_angle_gamma   43.42454921
_symmetry_Int_Tables_number   1
_chemical_formula_structural   Dy2Er2FeSi4Rh
_chemical_formula_sum   'Dy2 Er2 Fe1 Si4 Rh1'
_cell_volume   191.43151405
_cell_formula_units_Z   1
loop_
 _symmetry_equiv_pos_site_id
 _symmetry_equiv_pos_as_xyz
  1  'x, y, z'
loop_
 _atom_site_type_symbol
 _atom_site_label
 _atom_site_symmetry_multiplicity
 _atom_site_fract_x
 _atom_site_fract_y
 _atom_site_fract_z
 _atom_site_occupancy
  Dy  Dy0  1  0.812287  0.812287  0.107838  1
  Dy  Dy1  1  0.186630  0.186630  0.890251  1
  Er  Er2  1  0.001839  0.001839  0.325508  1
  Er  Er3  1  0.000178  0.000178  0.671875  1
  Fe  Fe4  1  0.272326  0.272326  0.378655  1
  Si  Si5  1  0.651581  0.651581  0.430665  1
  Si  Si6  1  0.360442  0.360442  0.557983  1
  Si  Si7  1  0.500124  0.500124  0.129252  1
  Si  Si8  1  0.487181  0.487181  0.880343  1
  Rh  Rh9  1  0.727413  0.727413  0.627629  1
