# generated using pymatgen
data_Li3Yb(YPt)4
_symmetry_space_group_name_H-M   'P 1'
_cell_length_a   4.05488300
_cell_length_b   7.18873972
_cell_length_c   8.72615474
_cell_angle_alpha   89.95125820
_cell_angle_beta   90.00000000
_cell_angle_gamma   90.00000000
_symmetry_Int_Tables_number   1
_chemical_formula_structural   Li3Yb(YPt)4
_chemical_formula_sum   'Li3 Yb1 Y4 Pt4'
_cell_volume   254.36294228
_cell_formula_units_Z   1
loop_
 _symmetry_equiv_pos_site_id
 _symmetry_equiv_pos_as_xyz
  1  'x, y, z'
loop_
 _atom_site_type_symbol
 _atom_site_label
 _atom_site_symmetry_multiplicity
 _atom_site_fract_x
 _atom_site_fract_y
 _atom_site_fract_z
 _atom_site_occupancy
  Li  Li0  1  0.250000  0.374817  0.555115  1
  Li  Li1  1  0.250000  0.852108  0.932203  1
  Li  Li2  1  0.750000  0.625054  0.445136  1
  Yb  Yb3  1  0.750000  0.126053  0.056815  1
  Y  Y4  1  0.250000  0.945500  0.338582  1
  Y  Y5  1  0.250000  0.473837  0.185924  1
  Y  Y6  1  0.750000  0.043211  0.672456  1
  Y  Y7  1  0.750000  0.553543  0.816663  1
  Pt  Pt8  1  0.250000  0.267601  0.866005  1
  Pt  Pt9  1  0.250000  0.750777  0.626145  1
  Pt  Pt10  1  0.750000  0.743734  0.129378  1
  Pt  Pt11  1  0.750000  0.243765  0.375579  1
