# generated using pymatgen
data_Tb2YIn3Cu2Hg
_symmetry_space_group_name_H-M   'P 1'
_cell_length_a   7.70329678
_cell_length_b   7.70237906
_cell_length_c   3.95846700
_cell_angle_alpha   90.00000000
_cell_angle_beta   90.00000000
_cell_angle_gamma   119.95739528
_symmetry_Int_Tables_number   1
_chemical_formula_structural   Tb2YIn3Cu2Hg
_chemical_formula_sum   'Tb2 Y1 In3 Cu2 Hg1'
_cell_volume   203.49112204
_cell_formula_units_Z   1
loop_
 _symmetry_equiv_pos_site_id
 _symmetry_equiv_pos_as_xyz
  1  'x, y, z'
loop_
 _atom_site_type_symbol
 _atom_site_label
 _atom_site_symmetry_multiplicity
 _atom_site_fract_x
 _atom_site_fract_y
 _atom_site_fract_z
 _atom_site_occupancy
  Tb  Tb0  1  0.413458  0.398531  0.500000  1
  Tb  Tb1  1  0.601587  0.015037  0.500000  1
  Y  Y2  1  0.985283  0.587139  0.500000  1
  In  In3  1  0.754964  0.745359  0.000000  1
  In  In4  1  0.990981  0.245388  0.000000  1
  In  In5  1  0.254299  0.008743  0.000000  1
  Cu  Cu6  1  0.999953  0.000175  0.500000  1
  Cu  Cu7  1  0.666249  0.333118  0.000000  1
  Hg  Hg8  1  0.333226  0.666511  0.000000  1
