# generated using pymatgen
data_Dy10Er10Si15Pd
_symmetry_space_group_name_H-M   'P 1'
_cell_length_a   7.42109630
_cell_length_b   7.65388093
_cell_length_c   14.54344700
_cell_angle_alpha   90.29129052
_cell_angle_beta   90.55192009
_cell_angle_gamma   90.25084854
_symmetry_Int_Tables_number   1
_chemical_formula_structural   Dy10Er10Si15Pd
_chemical_formula_sum   'Dy10 Er10 Si15 Pd1'
_cell_volume   826.01341933
_cell_formula_units_Z   1
loop_
 _symmetry_equiv_pos_site_id
 _symmetry_equiv_pos_as_xyz
  1  'x, y, z'
loop_
 _atom_site_type_symbol
 _atom_site_label
 _atom_site_symmetry_multiplicity
 _atom_site_fract_x
 _atom_site_fract_y
 _atom_site_fract_z
 _atom_site_occupancy
  Dy  Dy0  1  0.025376  0.817128  0.600290  1
  Dy  Dy1  1  0.523603  0.677941  0.599652  1
  Dy  Dy2  1  0.319264  0.821303  0.121272  1
  Dy  Dy3  1  0.818417  0.680568  0.122618  1
  Dy  Dy4  1  0.851106  0.505671  0.749166  1
  Dy  Dy5  1  0.471215  0.318062  0.099122  1
  Dy  Dy6  1  0.028725  0.817167  0.900992  1
  Dy  Dy7  1  0.472832  0.323378  0.401854  1
  Dy  Dy8  1  0.652213  0.012429  0.254756  1
  Dy  Dy9  1  0.530814  0.682004  0.899052  1
  Er  Er10  1  0.681425  0.178251  0.876359  1
  Er  Er11  1  0.176458  0.320308  0.623326  1
  Er  Er12  1  0.183440  0.321498  0.876223  1
  Er  Er13  1  0.822089  0.684186  0.380120  1
  Er  Er14  1  0.320220  0.825546  0.378299  1
  Er  Er15  1  0.350660  0.989672  0.747126  1
  Er  Er16  1  0.681188  0.167690  0.620659  1
  Er  Er17  1  0.150075  0.490928  0.251452  1
  Er  Er18  1  0.969803  0.183900  0.099558  1
  Er  Er19  1  0.974859  0.181167  0.400518  1
  Si  Si20  1  0.233295  0.626558  0.750755  1
  Si  Si21  1  0.342184  0.029329  0.541669  1
  Si  Si22  1  0.026336  0.895729  0.248517  1
  Si  Si23  1  0.733118  0.870221  0.751396  1
  Si  Si24  1  0.266668  0.129296  0.247674  1
  Si  Si25  1  0.848566  0.467997  0.540254  1
  Si  Si26  1  0.478239  0.389175  0.749007  1
  Si  Si27  1  0.147634  0.530399  0.460692  1
  Si  Si28  1  0.145659  0.525969  0.040596  1
  Si  Si29  1  0.977412  0.104822  0.751712  1
  Si  Si30  1  0.769345  0.377089  0.250346  1
  Si  Si31  1  0.355234  0.030029  0.958067  1
  Si  Si32  1  0.855351  0.467864  0.959335  1
  Si  Si33  1  0.647174  0.972673  0.038520  1
  Si  Si34  1  0.523341  0.608750  0.249612  1
  Pd  Pd35  1  0.646661  0.975302  0.459432  1
