# generated using pymatgen
data_Zr8Ti9Si16Tc3
_symmetry_space_group_name_H-M   'P 1'
_cell_length_a   6.78571015
_cell_length_b   6.78571074
_cell_length_c   12.46690335
_cell_angle_alpha   90.09248190
_cell_angle_beta   89.90751858
_cell_angle_gamma   90.01898303
_symmetry_Int_Tables_number   1
_chemical_formula_structural   Zr8Ti9Si16Tc3
_chemical_formula_sum   'Zr8 Ti9 Si16 Tc3'
_cell_volume   574.04783696
_cell_formula_units_Z   1
loop_
 _symmetry_equiv_pos_site_id
 _symmetry_equiv_pos_as_xyz
  1  'x, y, z'
loop_
 _atom_site_type_symbol
 _atom_site_label
 _atom_site_symmetry_multiplicity
 _atom_site_fract_x
 _atom_site_fract_y
 _atom_site_fract_z
 _atom_site_occupancy
  Zr  Zr0  1  0.342143  0.000412  0.470570  1
  Zr  Zr1  1  0.497176  0.840999  0.720613  1
  Zr  Zr2  1  0.502263  0.158945  0.220001  1
  Zr  Zr3  1  0.840999  0.497176  0.279387  1
  Zr  Zr4  1  0.158945  0.502263  0.779999  1
  Zr  Zr5  1  0.660035  0.997531  0.971597  1
  Zr  Zr6  1  0.000412  0.342143  0.529430  1
  Zr  Zr7  1  0.997531  0.660035  0.028403  1
  Ti  Ti8  1  0.671325  0.671325  0.500000  1
  Ti  Ti9  1  0.152824  0.000840  0.874352  1
  Ti  Ti10  1  0.498453  0.653549  0.123055  1
  Ti  Ti11  1  0.500427  0.349201  0.624755  1
  Ti  Ti12  1  0.653549  0.498453  0.876945  1
  Ti  Ti13  1  0.349201  0.500427  0.375245  1
  Ti  Ti14  1  0.846641  0.996763  0.374753  1
  Ti  Ti15  1  0.000840  0.152824  0.125648  1
  Ti  Ti16  1  0.996763  0.846641  0.625247  1
  Si  Si17  1  0.203570  0.133891  0.678660  1
  Si  Si18  1  0.365963  0.704188  0.928780  1
  Si  Si19  1  0.634925  0.294148  0.429634  1
  Si  Si20  1  0.704188  0.365963  0.071220  1
  Si  Si21  1  0.294148  0.634925  0.570366  1
  Si  Si22  1  0.795218  0.865430  0.179228  1
  Si  Si23  1  0.133891  0.203570  0.321340  1
  Si  Si24  1  0.865430  0.795218  0.820772  1
  Si  Si25  1  0.293383  0.955109  0.065889  1
  Si  Si26  1  0.543427  0.793297  0.314850  1
  Si  Si27  1  0.455367  0.207270  0.816157  1
  Si  Si28  1  0.793297  0.543427  0.685150  1
  Si  Si29  1  0.207270  0.455367  0.183843  1
  Si  Si30  1  0.705981  0.048017  0.567425  1
  Si  Si31  1  0.955109  0.293383  0.934111  1
  Si  Si32  1  0.048017  0.705981  0.432575  1
  Tc  Tc33  1  0.329167  0.329167  0.000000  1
  Tc  Tc34  1  0.170603  0.831521  0.248119  1
  Tc  Tc35  1  0.831521  0.170603  0.751881  1
