# generated using pymatgen
data_Li2Hf2NbN5
_symmetry_space_group_name_H-M   'P 1'
_cell_length_a   5.59816167
_cell_length_b   5.59816140
_cell_length_c   10.03400654
_cell_angle_alpha   87.94671186
_cell_angle_beta   87.94670949
_cell_angle_gamma   44.99176640
_symmetry_Int_Tables_number   1
_chemical_formula_structural   Li2Hf2NbN5
_chemical_formula_sum   'Li4 Hf4 Nb2 N10'
_cell_volume   222.15751368
_cell_formula_units_Z   2
loop_
 _symmetry_equiv_pos_site_id
 _symmetry_equiv_pos_as_xyz
  1  'x, y, z'
loop_
 _atom_site_type_symbol
 _atom_site_label
 _atom_site_symmetry_multiplicity
 _atom_site_fract_x
 _atom_site_fract_y
 _atom_site_fract_z
 _atom_site_occupancy
  Li  Li0  1  0.641123  0.641123  0.455641  1
  Li  Li1  1  0.456528  0.456528  0.844602  1
  Li  Li2  1  0.543472  0.543472  0.155398  1
  Li  Li3  1  0.358877  0.358877  0.544359  1
  Hf  Hf4  1  0.056526  0.056526  0.640464  1
  Hf  Hf5  1  0.943474  0.943474  0.359536  1
  Hf  Hf6  1  0.756935  0.756935  0.737752  1
  Hf  Hf7  1  0.243065  0.243065  0.262248  1
  Nb  Nb8  1  0.143983  0.143983  0.951135  1
  Nb  Nb9  1  0.856017  0.856017  0.048865  1
  N  N10  1  0.577957  0.577957  0.657073  1
  N  N11  1  0.422043  0.422043  0.342927  1
  N  N12  1  0.870796  0.870796  0.561624  1
  N  N13  1  0.039066  0.039066  0.138765  1
  N  N14  1  0.960934  0.960934  0.861235  1
  N  N15  1  0.129204  0.129204  0.438376  1
  N  N16  1  0.330148  0.330148  0.047742  1
  N  N17  1  0.669852  0.669852  0.952258  1
  N  N18  1  0.762005  0.762005  0.237390  1
  N  N19  1  0.237995  0.237995  0.762610  1
