# generated using pymatgen
data_CsAlSeCl2
_symmetry_space_group_name_H-M   'P 1'
_cell_length_a   6.48957200
_cell_length_b   7.18763592
_cell_length_c   8.34339049
_cell_angle_alpha   110.12280157
_cell_angle_beta   90.00000000
_cell_angle_gamma   90.00000000
_symmetry_Int_Tables_number   1
_chemical_formula_structural   CsAlSeCl2
_chemical_formula_sum   'Cs2 Al2 Se2 Cl4'
_cell_volume   365.41855125
_cell_formula_units_Z   2
loop_
 _symmetry_equiv_pos_site_id
 _symmetry_equiv_pos_as_xyz
  1  'x, y, z'
loop_
 _atom_site_type_symbol
 _atom_site_label
 _atom_site_symmetry_multiplicity
 _atom_site_fract_x
 _atom_site_fract_y
 _atom_site_fract_z
 _atom_site_occupancy
  Cs  Cs0  1  0.561311  0.656302  0.800491  1
  Cs  Cs1  1  0.061311  0.343698  0.199509  1
  Al  Al2  1  0.465425  0.930776  0.367881  1
  Al  Al3  1  0.965425  0.069224  0.632119  1
  Se  Se4  1  0.097969  0.910107  0.355045  1
  Se  Se5  1  0.597969  0.089893  0.644955  1
  Cl  Cl6  1  0.056224  0.921070  0.813643  1
  Cl  Cl7  1  0.556224  0.078930  0.186357  1
  Cl  Cl8  1  0.069070  0.380345  0.751675  1
  Cl  Cl9  1  0.569070  0.619655  0.248325  1
