# generated using pymatgen
data_Tb8Be3Si12Rh
_symmetry_space_group_name_H-M   'P 1'
_cell_length_a   7.97583600
_cell_length_b   7.97583599
_cell_length_c   8.15124900
_cell_angle_alpha   90.00000000
_cell_angle_beta   90.00000000
_cell_angle_gamma   120.00000835
_symmetry_Int_Tables_number   1
_chemical_formula_structural   Tb8Be3Si12Rh
_chemical_formula_sum   'Tb8 Be3 Si12 Rh1'
_cell_volume   449.06290878
_cell_formula_units_Z   1
loop_
 _symmetry_equiv_pos_site_id
 _symmetry_equiv_pos_as_xyz
  1  'x, y, z'
loop_
 _atom_site_type_symbol
 _atom_site_label
 _atom_site_symmetry_multiplicity
 _atom_site_fract_x
 _atom_site_fract_y
 _atom_site_fract_z
 _atom_site_occupancy
  Tb  Tb0  1  0.500120  0.000240  0.248639  1
  Tb  Tb1  1  0.500522  0.001045  0.751373  1
  Tb  Tb2  1  0.999760  0.499880  0.248639  1
  Tb  Tb3  1  0.998955  0.499478  0.751373  1
  Tb  Tb4  1  0.500120  0.499880  0.248639  1
  Tb  Tb5  1  0.500522  0.499478  0.751373  1
  Tb  Tb6  1  0.000000  0.000000  0.248371  1
  Tb  Tb7  1  0.000000  0.000000  0.751520  1
  Be  Be8  1  0.333333  0.666667  0.000600  1
  Be  Be9  1  0.666667  0.333333  0.000678  1
  Be  Be10  1  0.666667  0.333333  0.498739  1
  Si  Si11  1  0.172616  0.345231  0.999676  1
  Si  Si12  1  0.827412  0.654825  0.000319  1
  Si  Si13  1  0.654769  0.827384  0.999676  1
  Si  Si14  1  0.830065  0.660131  0.499965  1
  Si  Si15  1  0.345175  0.172588  0.000319  1
  Si  Si16  1  0.168659  0.337318  0.499693  1
  Si  Si17  1  0.172616  0.827384  0.999676  1
  Si  Si18  1  0.339869  0.169935  0.499965  1
  Si  Si19  1  0.827412  0.172588  0.000319  1
  Si  Si20  1  0.662682  0.831341  0.499693  1
  Si  Si21  1  0.830065  0.169935  0.499965  1
  Si  Si22  1  0.168659  0.831341  0.499693  1
  Rh  Rh23  1  0.333333  0.666667  0.501102  1
