# generated using pymatgen
data_Ho8Ti8VSi16W3
_symmetry_space_group_name_H-M   'P 1'
_cell_length_a   6.97736945
_cell_length_b   6.97736893
_cell_length_c   12.82538791
_cell_angle_alpha   89.96120241
_cell_angle_beta   90.03879638
_cell_angle_gamma   89.98988554
_symmetry_Int_Tables_number   1
_chemical_formula_structural   Ho8Ti8VSi16W3
_chemical_formula_sum   'Ho8 Ti8 V1 Si16 W3'
_cell_volume   624.38679536
_cell_formula_units_Z   1
loop_
 _symmetry_equiv_pos_site_id
 _symmetry_equiv_pos_as_xyz
  1  'x, y, z'
loop_
 _atom_site_type_symbol
 _atom_site_label
 _atom_site_symmetry_multiplicity
 _atom_site_fract_x
 _atom_site_fract_y
 _atom_site_fract_z
 _atom_site_occupancy
  Ho  Ho0  1  0.341260  0.000701  0.467129  1
  Ho  Ho1  1  0.499198  0.841005  0.717193  1
  Ho  Ho2  1  0.500628  0.158381  0.217166  1
  Ho  Ho3  1  0.841005  0.499198  0.282807  1
  Ho  Ho4  1  0.158381  0.500628  0.782834  1
  Ho  Ho5  1  0.659204  0.999222  0.967239  1
  Ho  Ho6  1  0.000701  0.341260  0.532871  1
  Ho  Ho7  1  0.999222  0.659204  0.032761  1
  Ti  Ti8  1  0.152462  0.008841  0.875993  1
  Ti  Ti9  1  0.491398  0.652903  0.125709  1
  Ti  Ti10  1  0.508289  0.347751  0.625994  1
  Ti  Ti11  1  0.652903  0.491398  0.874291  1
  Ti  Ti12  1  0.347751  0.508289  0.374006  1
  Ti  Ti13  1  0.847390  0.990596  0.376110  1
  Ti  Ti14  1  0.008841  0.152462  0.124007  1
  Ti  Ti15  1  0.990596  0.847390  0.623890  1
  V  V16  1  0.673630  0.673630  0.500000  1
  Si  Si17  1  0.201020  0.130619  0.684284  1
  Si  Si18  1  0.369157  0.700820  0.934208  1
  Si  Si19  1  0.631101  0.299783  0.434979  1
  Si  Si20  1  0.700820  0.369157  0.065792  1
  Si  Si21  1  0.299783  0.631101  0.565021  1
  Si  Si22  1  0.799020  0.868944  0.184560  1
  Si  Si23  1  0.130619  0.201020  0.315716  1
  Si  Si24  1  0.868944  0.799020  0.815440  1
  Si  Si25  1  0.292023  0.953034  0.065094  1
  Si  Si26  1  0.547932  0.790770  0.316562  1
  Si  Si27  1  0.452967  0.208258  0.815291  1
  Si  Si28  1  0.790770  0.547932  0.683438  1
  Si  Si29  1  0.208258  0.452967  0.184709  1
  Si  Si30  1  0.707842  0.046478  0.565146  1
  Si  Si31  1  0.953034  0.292023  0.934906  1
  Si  Si32  1  0.046478  0.707842  0.434854  1
  W  W33  1  0.326646  0.326646  0.000000  1
  W  W34  1  0.173923  0.826807  0.249599  1
  W  W35  1  0.826807  0.173923  0.750401  1
