# generated using pymatgen
data_Rb3HPbF8
_symmetry_space_group_name_H-M   'P 1'
_cell_length_a   8.89638638
_cell_length_b   8.89638629
_cell_length_c   7.33096075
_cell_angle_alpha   88.32989234
_cell_angle_beta   88.32988832
_cell_angle_gamma   115.42799785
_symmetry_Int_Tables_number   1
_chemical_formula_structural   Rb3HPbF8
_chemical_formula_sum   'Rb6 H2 Pb2 F16'
_cell_volume   523.22545267
_cell_formula_units_Z   2
loop_
 _symmetry_equiv_pos_site_id
 _symmetry_equiv_pos_as_xyz
  1  'x, y, z'
loop_
 _atom_site_type_symbol
 _atom_site_label
 _atom_site_symmetry_multiplicity
 _atom_site_fract_x
 _atom_site_fract_y
 _atom_site_fract_z
 _atom_site_occupancy
  Rb  Rb0  1  0.655096  0.344904  0.750000  1
  Rb  Rb1  1  0.344904  0.655096  0.250000  1
  Rb  Rb2  1  0.677486  0.873065  0.720749  1
  Rb  Rb3  1  0.126935  0.322514  0.779251  1
  Rb  Rb4  1  0.322514  0.126935  0.279251  1
  Rb  Rb5  1  0.873065  0.677486  0.220749  1
  H  H6  1  0.500000  0.500000  0.500000  1
  H  H7  1  0.500000  0.500000  0.000000  1
  Pb  Pb8  1  0.822437  0.177563  0.250000  1
  Pb  Pb9  1  0.177563  0.822437  0.750000  1
  F  F10  1  0.600543  0.962548  0.315344  1
  F  F11  1  0.037452  0.399457  0.184656  1
  F  F12  1  0.399457  0.037452  0.684656  1
  F  F13  1  0.962548  0.600543  0.815344  1
  F  F14  1  0.598164  0.634449  0.014445  1
  F  F15  1  0.365551  0.401836  0.485555  1
  F  F16  1  0.401836  0.365551  0.985555  1
  F  F17  1  0.634449  0.598164  0.514445  1
  F  F18  1  0.962400  0.037600  0.250000  1
  F  F19  1  0.037600  0.962400  0.750000  1
  F  F20  1  0.682257  0.317743  0.250000  1
  F  F21  1  0.317743  0.682257  0.750000  1
  F  F22  1  0.786857  0.146148  0.965988  1
  F  F23  1  0.853852  0.213143  0.534012  1
  F  F24  1  0.213143  0.853852  0.034012  1
  F  F25  1  0.146148  0.786857  0.465988  1
