# generated using pymatgen
data_Nd5SmIr18
_symmetry_space_group_name_H-M   'P 1'
_cell_length_a   5.38163301
_cell_length_b   5.38159779
_cell_length_c   17.66614800
_cell_angle_alpha   90.00000000
_cell_angle_beta   90.00000000
_cell_angle_gamma   120.00079625
_symmetry_Int_Tables_number   1
_chemical_formula_structural   Nd5SmIr18
_chemical_formula_sum   'Nd5 Sm1 Ir18'
_cell_volume   443.09242599
_cell_formula_units_Z   1
loop_
 _symmetry_equiv_pos_site_id
 _symmetry_equiv_pos_as_xyz
  1  'x, y, z'
loop_
 _atom_site_type_symbol
 _atom_site_label
 _atom_site_symmetry_multiplicity
 _atom_site_fract_x
 _atom_site_fract_y
 _atom_site_fract_z
 _atom_site_occupancy
  Nd  Nd0  1  0.333325  0.666658  0.958940  1
  Nd  Nd1  1  0.666662  0.333328  0.040513  1
  Nd  Nd2  1  0.666662  0.333328  0.459487  1
  Nd  Nd3  1  0.333325  0.666658  0.541060  1
  Nd  Nd4  1  0.333328  0.666658  0.750000  1
  Sm  Sm5  1  0.666706  0.333359  0.250000  1
  Ir  Ir6  1  0.166483  0.833532  0.371612  1
  Ir  Ir7  1  0.166484  0.332956  0.371615  1
  Ir  Ir8  1  0.667023  0.833513  0.371605  1
  Ir  Ir9  1  0.833602  0.166407  0.628447  1
  Ir  Ir10  1  0.833602  0.667197  0.628452  1
  Ir  Ir11  1  0.332821  0.166411  0.628429  1
  Ir  Ir12  1  0.833602  0.166407  0.871553  1
  Ir  Ir13  1  0.833602  0.667197  0.871548  1
  Ir  Ir14  1  0.332821  0.166411  0.871571  1
  Ir  Ir15  1  0.166483  0.833532  0.128388  1
  Ir  Ir16  1  0.166484  0.332956  0.128385  1
  Ir  Ir17  1  0.667023  0.833513  0.128395  1
  Ir  Ir18  1  0.333270  0.666627  0.250000  1
  Ir  Ir19  1  0.666585  0.333273  0.750000  1
  Ir  Ir20  1  0.000042  0.000027  0.250000  1
  Ir  Ir21  1  0.000100  0.000075  0.750000  1
  Ir  Ir22  1  0.999983  0.999987  0.500030  1
  Ir  Ir23  1  0.999983  0.999987  0.999970  1
