# generated using pymatgen
data_Lu4Al17Co6Si
_symmetry_space_group_name_H-M   'P 1'
_cell_length_a   7.33371501
_cell_length_b   7.33371552
_cell_length_c   9.16687700
_cell_angle_alpha   90.00000000
_cell_angle_beta   90.00000000
_cell_angle_gamma   119.25514178
_symmetry_Int_Tables_number   1
_chemical_formula_structural   Lu4Al17Co6Si
_chemical_formula_sum   'Lu4 Al17 Co6 Si1'
_cell_volume   430.14126899
_cell_formula_units_Z   1
loop_
 _symmetry_equiv_pos_site_id
 _symmetry_equiv_pos_as_xyz
  1  'x, y, z'
loop_
 _atom_site_type_symbol
 _atom_site_label
 _atom_site_symmetry_multiplicity
 _atom_site_fract_x
 _atom_site_fract_y
 _atom_site_fract_z
 _atom_site_occupancy
  Lu  Lu0  1  0.992546  0.678623  0.250000  1
  Lu  Lu1  1  0.005706  0.328379  0.750000  1
  Lu  Lu2  1  0.678623  0.992546  0.250000  1
  Lu  Lu3  1  0.328379  0.005706  0.750000  1
  Al  Al4  1  0.878700  0.878700  0.750000  1
  Al  Al5  1  0.330302  0.330302  0.547493  1
  Al  Al6  1  0.665740  0.665740  0.042908  1
  Al  Al7  1  0.330302  0.330302  0.952507  1
  Al  Al8  1  0.665740  0.665740  0.457092  1
  Al  Al9  1  0.336694  0.556459  0.250000  1
  Al  Al10  1  0.661495  0.444349  0.750000  1
  Al  Al11  1  0.556459  0.336694  0.250000  1
  Al  Al12  1  0.444349  0.661495  0.750000  1
  Al  Al13  1  0.997631  0.337317  0.074575  1
  Al  Al14  1  0.003136  0.665212  0.572032  1
  Al  Al15  1  0.337317  0.997631  0.425425  1
  Al  Al16  1  0.665212  0.003136  0.927968  1
  Al  Al17  1  0.003136  0.665212  0.927968  1
  Al  Al18  1  0.997631  0.337317  0.425425  1
  Al  Al19  1  0.665212  0.003136  0.572032  1
  Al  Al20  1  0.337317  0.997631  0.074575  1
  Co  Co21  1  0.000352  0.000352  0.008898  1
  Co  Co22  1  0.000352  0.000352  0.491102  1
  Co  Co23  1  0.669757  0.327152  0.000475  1
  Co  Co24  1  0.327152  0.669757  0.499525  1
  Co  Co25  1  0.327152  0.669757  0.000475  1
  Co  Co26  1  0.669757  0.327152  0.499525  1
  Si  Si27  1  0.123850  0.123850  0.250000  1
