# generated using pymatgen
data_Dy2Al9AgRh2
_symmetry_space_group_name_H-M   'P 1'
_cell_length_a   7.62993900
_cell_length_b   7.62994018
_cell_length_c   9.46474500
_cell_angle_alpha   90.00000000
_cell_angle_beta   90.00000000
_cell_angle_gamma   119.47226248
_symmetry_Int_Tables_number   1
_chemical_formula_structural   Dy2Al9AgRh2
_chemical_formula_sum   'Dy4 Al18 Ag2 Rh4'
_cell_volume   479.69675109
_cell_formula_units_Z   2
loop_
 _symmetry_equiv_pos_site_id
 _symmetry_equiv_pos_as_xyz
  1  'x, y, z'
loop_
 _atom_site_type_symbol
 _atom_site_label
 _atom_site_symmetry_multiplicity
 _atom_site_fract_x
 _atom_site_fract_y
 _atom_site_fract_z
 _atom_site_occupancy
  Dy  Dy0  1  0.995376  0.678139  0.750000  1
  Dy  Dy1  1  0.004624  0.321861  0.250000  1
  Dy  Dy2  1  0.678139  0.995376  0.750000  1
  Dy  Dy3  1  0.321861  0.004624  0.250000  1
  Al  Al4  1  0.142102  0.142102  0.750000  1
  Al  Al5  1  0.857898  0.857898  0.250000  1
  Al  Al6  1  0.000449  0.345786  0.577643  1
  Al  Al7  1  0.999551  0.654214  0.422357  1
  Al  Al8  1  0.999551  0.654214  0.077643  1
  Al  Al9  1  0.345786  0.000449  0.922357  1
  Al  Al10  1  0.000449  0.345786  0.922357  1
  Al  Al11  1  0.654214  0.999551  0.077643  1
  Al  Al12  1  0.654214  0.999551  0.422357  1
  Al  Al13  1  0.345786  0.000449  0.577643  1
  Al  Al14  1  0.342348  0.342348  0.057858  1
  Al  Al15  1  0.657652  0.657652  0.942142  1
  Al  Al16  1  0.657652  0.657652  0.557858  1
  Al  Al17  1  0.342348  0.342348  0.442142  1
  Al  Al18  1  0.337222  0.553501  0.750000  1
  Al  Al19  1  0.662778  0.446499  0.250000  1
  Al  Al20  1  0.553501  0.337222  0.750000  1
  Al  Al21  1  0.446499  0.662778  0.250000  1
  Ag  Ag22  1  0.000000  0.000000  0.500000  1
  Ag  Ag23  1  0.000000  0.000000  0.000000  1
  Rh  Rh24  1  0.671728  0.328272  0.500000  1
  Rh  Rh25  1  0.328272  0.671728  0.500000  1
  Rh  Rh26  1  0.328272  0.671728  0.000000  1
  Rh  Rh27  1  0.671728  0.328272  0.000000  1
