# generated using pymatgen
data_AcTh(InRh)2
_symmetry_space_group_name_H-M   'P 1'
_cell_length_a   4.21209200
_cell_length_b   7.59351863
_cell_length_c   9.06522400
_cell_angle_alpha   90.58190764
_cell_angle_beta   90.00000000
_cell_angle_gamma   90.00000000
_symmetry_Int_Tables_number   1
_chemical_formula_structural   AcTh(InRh)2
_chemical_formula_sum   'Ac2 Th2 In4 Rh4'
_cell_volume   289.93260132
_cell_formula_units_Z   2
loop_
 _symmetry_equiv_pos_site_id
 _symmetry_equiv_pos_as_xyz
  1  'x, y, z'
loop_
 _atom_site_type_symbol
 _atom_site_label
 _atom_site_symmetry_multiplicity
 _atom_site_fract_x
 _atom_site_fract_y
 _atom_site_fract_z
 _atom_site_occupancy
  Ac  Ac0  1  0.250000  0.536620  0.316369  1
  Ac  Ac1  1  0.750000  0.463380  0.683631  1
  Th  Th2  1  0.250000  0.038045  0.180364  1
  Th  Th3  1  0.750000  0.961955  0.819636  1
  In  In4  1  0.750000  0.355786  0.051391  1
  In  In5  1  0.250000  0.644214  0.948609  1
  In  In6  1  0.750000  0.863686  0.446949  1
  In  In7  1  0.250000  0.136314  0.553051  1
  Rh  Rh8  1  0.250000  0.770961  0.657396  1
  Rh  Rh9  1  0.750000  0.229039  0.342604  1
  Rh  Rh10  1  0.250000  0.219439  0.871192  1
  Rh  Rh11  1  0.750000  0.780561  0.128808  1
