# generated using pymatgen
data_CeHoSn5Rh3
_symmetry_space_group_name_H-M   'P 1'
_cell_length_a   13.52769457
_cell_length_b   13.52769532
_cell_length_c   7.24845104
_cell_angle_alpha   89.98848675
_cell_angle_beta   90.01151198
_cell_angle_gamma   160.96840090
_symmetry_Int_Tables_number   1
_chemical_formula_structural   CeHoSn5Rh3
_chemical_formula_sum   'Ce2 Ho2 Sn10 Rh6'
_cell_volume   432.54341629
_cell_formula_units_Z   2
loop_
 _symmetry_equiv_pos_site_id
 _symmetry_equiv_pos_as_xyz
  1  'x, y, z'
loop_
 _atom_site_type_symbol
 _atom_site_label
 _atom_site_symmetry_multiplicity
 _atom_site_fract_x
 _atom_site_fract_y
 _atom_site_fract_z
 _atom_site_occupancy
  Ce  Ce0  1  0.172074  0.827926  0.742907  1
  Ce  Ce1  1  0.827900  0.172100  0.242913  1
  Ho  Ho2  1  0.475946  0.524054  0.763358  1
  Ho  Ho3  1  0.524056  0.475944  0.263362  1
  Sn  Sn4  1  0.880046  0.119954  0.768040  1
  Sn  Sn5  1  0.119959  0.880041  0.268048  1
  Sn  Sn6  1  0.705068  0.294932  0.448848  1
  Sn  Sn7  1  0.294932  0.705068  0.948893  1
  Sn  Sn8  1  0.595385  0.404615  0.888874  1
  Sn  Sn9  1  0.404611  0.595389  0.388861  1
  Sn  Sn10  1  0.952814  0.047186  0.100804  1
  Sn  Sn11  1  0.047190  0.952810  0.600806  1
  Sn  Sn12  1  0.290707  0.709293  0.523669  1
  Sn  Sn13  1  0.709308  0.290692  0.023700  1
  Rh  Rh14  1  0.049851  0.950149  0.984297  1
  Rh  Rh15  1  0.950145  0.049855  0.484299  1
  Rh  Rh16  1  0.777091  0.222909  0.734928  1
  Rh  Rh17  1  0.222918  0.777082  0.234929  1
  Rh  Rh18  1  0.394642  0.605358  0.016228  1
  Rh  Rh19  1  0.605356  0.394644  0.516235  1
