# generated using pymatgen
data_Hf3AlAs2Ru3
_symmetry_space_group_name_H-M   'P 1'
_cell_length_a   7.67909897
_cell_length_b   7.67909951
_cell_length_c   7.67909965
_cell_angle_alpha   128.24165896
_cell_angle_beta   120.38815217
_cell_angle_gamma   82.82876552
_symmetry_Int_Tables_number   1
_chemical_formula_structural   Hf3AlAs2Ru3
_chemical_formula_sum   'Hf6 Al2 As4 Ru6'
_cell_volume   294.70766223
_cell_formula_units_Z   2
loop_
 _symmetry_equiv_pos_site_id
 _symmetry_equiv_pos_as_xyz
  1  'x, y, z'
loop_
 _atom_site_type_symbol
 _atom_site_label
 _atom_site_symmetry_multiplicity
 _atom_site_fract_x
 _atom_site_fract_y
 _atom_site_fract_z
 _atom_site_occupancy
  Hf  Hf0  1  0.477830  0.714347  0.736517  1
  Hf  Hf1  1  0.522170  0.258686  0.236517  1
  Hf  Hf2  1  0.749392  0.829162  0.579770  1
  Hf  Hf3  1  0.250608  0.830380  0.079770  1
  Hf  Hf4  1  0.052434  0.254524  0.702089  1
  Hf  Hf5  1  0.947566  0.649655  0.202089  1
  Al  Al6  1  0.276545  0.275017  0.498472  1
  Al  Al7  1  0.723455  0.221927  0.998472  1
  As  As8  1  0.328002  0.586802  0.248245  1
  As  As9  1  0.671998  0.920243  0.258800  1
  As  As10  1  0.161443  0.920243  0.748245  1
  As  As11  1  0.838557  0.586802  0.758800  1
  Ru  Ru12  1  0.500000  0.498108  0.998108  1
  Ru  Ru13  1  0.000000  0.498108  0.498108  1
  Ru  Ru14  1  0.096357  0.252429  0.101726  1
  Ru  Ru15  1  0.903643  0.005369  0.156072  1
  Ru  Ru16  1  0.349297  0.005369  0.601726  1
  Ru  Ru17  1  0.650703  0.252429  0.656072  1
