# generated using pymatgen
data_Hf2Nb2Al2Zn
_symmetry_space_group_name_H-M   'P 1'
_cell_length_a   5.20134265
_cell_length_b   5.25044035
_cell_length_c   5.28813800
_cell_angle_alpha   90.00000000
_cell_angle_beta   90.00000000
_cell_angle_gamma   120.31275810
_symmetry_Int_Tables_number   1
_chemical_formula_structural   Hf2Nb2Al2Zn
_chemical_formula_sum   'Hf2 Nb2 Al2 Zn1'
_cell_volume   124.67152045
_cell_formula_units_Z   1
loop_
 _symmetry_equiv_pos_site_id
 _symmetry_equiv_pos_as_xyz
  1  'x, y, z'
loop_
 _atom_site_type_symbol
 _atom_site_label
 _atom_site_symmetry_multiplicity
 _atom_site_fract_x
 _atom_site_fract_y
 _atom_site_fract_z
 _atom_site_occupancy
  Hf  Hf0  1  0.335955  0.667978  0.500000  1
  Hf  Hf1  1  0.664045  0.332022  0.500000  1
  Nb  Nb2  1  0.000000  0.000000  0.264784  1
  Nb  Nb3  1  0.000000  0.000000  0.735216  1
  Al  Al4  1  0.500000  0.000000  0.000000  1
  Al  Al5  1  0.500000  0.500000  0.000000  1
  Zn  Zn6  1  0.000000  0.500000  0.000000  1
