# generated using pymatgen
data_NaDy3(MgPb2)4
_symmetry_space_group_name_H-M   'P 1'
_cell_length_a   6.92920000
_cell_length_b   6.91311100
_cell_length_c   9.10188400
_cell_angle_alpha   89.99864673
_cell_angle_beta   89.99948819
_cell_angle_gamma   89.99971847
_symmetry_Int_Tables_number   1
_chemical_formula_structural   NaDy3(MgPb2)4
_chemical_formula_sum   'Na1 Dy3 Mg4 Pb8'
_cell_volume   436.00143947
_cell_formula_units_Z   1
loop_
 _symmetry_equiv_pos_site_id
 _symmetry_equiv_pos_as_xyz
  1  'x, y, z'
loop_
 _atom_site_type_symbol
 _atom_site_label
 _atom_site_symmetry_multiplicity
 _atom_site_fract_x
 _atom_site_fract_y
 _atom_site_fract_z
 _atom_site_occupancy
  Na  Na0  1  0.749218  0.250001  0.499999  1
  Dy  Dy1  1  0.751025  0.249998  0.000009  1
  Dy  Dy2  1  0.249496  0.750005  0.999986  1
  Dy  Dy3  1  0.250123  0.749997  0.499993  1
  Mg  Mg4  1  0.250160  0.249998  0.000010  1
  Mg  Mg5  1  0.750103  0.750000  0.000010  1
  Mg  Mg6  1  0.749540  0.750000  0.500005  1
  Mg  Mg7  1  0.250442  0.250002  0.500008  1
  Pb  Pb8  1  0.499452  0.998940  0.248497  1
  Pb  Pb9  1  0.499437  0.501043  0.248472  1
  Pb  Pb10  1  0.000518  0.501010  0.249335  1
  Pb  Pb11  1  0.000534  0.999001  0.249329  1
  Pb  Pb12  1  0.000529  0.501010  0.750661  1
  Pb  Pb13  1  0.000513  0.999009  0.750650  1
  Pb  Pb14  1  0.499463  0.501032  0.751514  1
  Pb  Pb15  1  0.499449  0.998955  0.751523  1
