# generated using pymatgen
data_Dy5YAl24CuOs7
_symmetry_space_group_name_H-M   'P 1'
_cell_length_a   8.82510541
_cell_length_b   8.82643544
_cell_length_c   9.52331444
_cell_angle_alpha   89.64882621
_cell_angle_beta   90.34729607
_cell_angle_gamma   119.78379656
_symmetry_Int_Tables_number   1
_chemical_formula_structural   Dy5YAl24CuOs7
_chemical_formula_sum   'Dy5 Y1 Al24 Cu1 Os7'
_cell_volume   643.80636496
_cell_formula_units_Z   1
loop_
 _symmetry_equiv_pos_site_id
 _symmetry_equiv_pos_as_xyz
  1  'x, y, z'
loop_
 _atom_site_type_symbol
 _atom_site_label
 _atom_site_symmetry_multiplicity
 _atom_site_fract_x
 _atom_site_fract_y
 _atom_site_fract_z
 _atom_site_occupancy
  Dy  Dy0  1  0.809879  0.613604  0.750134  1
  Dy  Dy1  1  0.613737  0.809992  0.249879  1
  Dy  Dy2  1  0.386360  0.190153  0.750115  1
  Dy  Dy3  1  0.194517  0.805629  0.251317  1
  Dy  Dy4  1  0.805490  0.194510  0.748730  1
  Y  Y5  1  0.190108  0.386028  0.249789  1
  Al  Al6  1  0.332386  0.667735  0.019083  1
  Al  Al7  1  0.667609  0.332375  0.980793  1
  Al  Al8  1  0.666362  0.333636  0.516197  1
  Al  Al9  1  0.333630  0.666405  0.483885  1
  Al  Al10  1  0.163308  0.325690  0.575626  1
  Al  Al11  1  0.836697  0.674349  0.424478  1
  Al  Al12  1  0.674334  0.836662  0.575529  1
  Al  Al13  1  0.842837  0.675761  0.078460  1
  Al  Al14  1  0.325746  0.163318  0.424560  1
  Al  Al15  1  0.157124  0.324226  0.921431  1
  Al  Al16  1  0.163090  0.836847  0.574848  1
  Al  Al17  1  0.324299  0.157117  0.078375  1
  Al  Al18  1  0.836813  0.163130  0.425244  1
  Al  Al19  1  0.675746  0.842810  0.921538  1
  Al  Al20  1  0.836243  0.163681  0.074852  1
  Al  Al21  1  0.163665  0.836294  0.925035  1
  Al  Al22  1  0.560891  0.121990  0.248973  1
  Al  Al23  1  0.439100  0.878010  0.751036  1
  Al  Al24  1  0.878000  0.439170  0.248992  1
  Al  Al25  1  0.122036  0.560914  0.751039  1
  Al  Al26  1  0.561109  0.439092  0.249908  1
  Al  Al27  1  0.439006  0.560980  0.750123  1
  Al  Al28  1  0.999103  0.000332  0.250329  1
  Al  Al29  1  0.000698  0.999249  0.749642  1
  Cu  Cu30  1  0.500103  0.500029  0.999938  1
  Os  Os31  1  0.500014  0.000024  0.000008  1
  Os  Os32  1  0.999940  0.500030  0.999916  1
  Os  Os33  1  0.500017  0.000002  0.499993  1
  Os  Os34  1  0.999906  0.500077  0.500159  1
  Os  Os35  1  0.500054  0.500039  0.500077  1
  Os  Os36  1  0.000008  0.000023  0.000031  1
  Os  Os37  1  0.000037  0.000085  0.499938  1
