# generated using pymatgen
data_Dy7YSnHg3Au8
_symmetry_space_group_name_H-M   'P 1'
_cell_length_a   8.01710211
_cell_length_b   8.01687213
_cell_length_c   7.36345103
_cell_angle_alpha   90.00951346
_cell_angle_beta   90.00238151
_cell_angle_gamma   90.06021882
_symmetry_Int_Tables_number   1
_chemical_formula_structural   Dy7YSnHg3Au8
_chemical_formula_sum   'Dy7 Y1 Sn1 Hg3 Au8'
_cell_volume   473.26406353
_cell_formula_units_Z   1
loop_
 _symmetry_equiv_pos_site_id
 _symmetry_equiv_pos_as_xyz
  1  'x, y, z'
loop_
 _atom_site_type_symbol
 _atom_site_label
 _atom_site_symmetry_multiplicity
 _atom_site_fract_x
 _atom_site_fract_y
 _atom_site_fract_z
 _atom_site_occupancy
  Dy  Dy0  1  0.159616  0.839778  0.500452  1
  Dy  Dy1  1  0.339855  0.340485  0.999531  1
  Dy  Dy2  1  0.660094  0.659619  0.999564  1
  Dy  Dy3  1  0.684218  0.684700  0.500053  1
  Dy  Dy4  1  0.315851  0.315202  0.500064  1
  Dy  Dy5  1  0.184769  0.815771  0.999909  1
  Dy  Dy6  1  0.815209  0.184247  0.999950  1
  Y  Y7  1  0.840405  0.160206  0.500451  1
  Sn  Sn8  1  0.999988  0.500003  0.249956  1
  Hg  Hg9  1  0.499959  0.999970  0.249971  1
  Hg  Hg10  1  0.000044  0.500062  0.750024  1
  Hg  Hg11  1  0.499967  0.999976  0.750043  1
  Au  Au12  1  0.625772  0.372497  0.275362  1
  Au  Au13  1  0.374008  0.627740  0.275590  1
  Au  Au14  1  0.127897  0.126182  0.775123  1
  Au  Au15  1  0.872335  0.873559  0.775130  1
  Au  Au16  1  0.373754  0.627733  0.725091  1
  Au  Au17  1  0.626015  0.372498  0.725284  1
  Au  Au18  1  0.872363  0.873834  0.224211  1
  Au  Au19  1  0.127882  0.125939  0.224241  1
