# generated using pymatgen
data_Nd20Ir8Pt3Au
_symmetry_space_group_name_H-M   'P 1'
_cell_length_a   11.41697696
_cell_length_b   11.41697704
_cell_length_c   6.54082054
_cell_angle_alpha   89.98397447
_cell_angle_beta   89.98397935
_cell_angle_gamma   89.69780853
_symmetry_Int_Tables_number   1
_chemical_formula_structural   Nd20Ir8Pt3Au
_chemical_formula_sum   'Nd20 Ir8 Pt3 Au1'
_cell_volume   852.56678945
_cell_formula_units_Z   1
loop_
 _symmetry_equiv_pos_site_id
 _symmetry_equiv_pos_as_xyz
  1  'x, y, z'
loop_
 _atom_site_type_symbol
 _atom_site_label
 _atom_site_symmetry_multiplicity
 _atom_site_fract_x
 _atom_site_fract_y
 _atom_site_fract_z
 _atom_site_occupancy
  Nd  Nd0  1  0.092326  0.290791  0.117012  1
  Nd  Nd1  1  0.794049  0.412831  0.122773  1
  Nd  Nd2  1  0.207017  0.579049  0.123155  1
  Nd  Nd3  1  0.902599  0.704948  0.116141  1
  Nd  Nd4  1  0.420951  0.792983  0.376845  1
  Nd  Nd5  1  0.587169  0.205951  0.377227  1
  Nd  Nd6  1  0.295052  0.097401  0.383859  1
  Nd  Nd7  1  0.709209  0.907674  0.382988  1
  Nd  Nd8  1  0.406665  0.208533  0.884951  1
  Nd  Nd9  1  0.703876  0.086980  0.876556  1
  Nd  Nd10  1  0.298055  0.916720  0.866768  1
  Nd  Nd11  1  0.595336  0.793673  0.884023  1
  Nd  Nd12  1  0.083280  0.701945  0.633232  1
  Nd  Nd13  1  0.913020  0.296124  0.623444  1
  Nd  Nd14  1  0.206327  0.404664  0.615977  1
  Nd  Nd15  1  0.791467  0.593335  0.615049  1
  Nd  Nd16  1  0.996834  0.001736  0.998703  1
  Nd  Nd17  1  0.501159  0.500744  0.999482  1
  Nd  Nd18  1  0.499256  0.498841  0.500518  1
  Nd  Nd19  1  0.998264  0.003166  0.501297  1
  Ir  Ir20  1  0.347207  0.349636  0.249158  1
  Ir  Ir21  1  0.650364  0.652793  0.250842  1
  Ir  Ir22  1  0.151243  0.150719  0.748800  1
  Ir  Ir23  1  0.849281  0.848757  0.751200  1
  Ir  Ir24  1  0.999533  0.500819  0.378312  1
  Ir  Ir25  1  0.499181  0.000467  0.121688  1
  Ir  Ir26  1  0.500935  0.999991  0.618036  1
  Ir  Ir27  1  0.000009  0.499065  0.881964  1
  Pt  Pt28  1  0.843020  0.156980  0.250000  1
  Pt  Pt29  1  0.344379  0.655621  0.750000  1
  Pt  Pt30  1  0.655490  0.344510  0.750000  1
  Au  Au31  1  0.157447  0.842553  0.250000  1
