# generated using pymatgen
data_NdGaPIr2
_symmetry_space_group_name_H-M   'P 1'
_cell_length_a   5.93709545
_cell_length_b   5.93709557
_cell_length_c   5.93709533
_cell_angle_alpha   139.35505359
_cell_angle_beta   139.35505427
_cell_angle_gamma   58.83388087
_symmetry_Int_Tables_number   1
_chemical_formula_structural   NdGaPIr2
_chemical_formula_sum   'Nd1 Ga1 P1 Ir2'
_cell_volume   87.95342521
_cell_formula_units_Z   1
loop_
 _symmetry_equiv_pos_site_id
 _symmetry_equiv_pos_as_xyz
  1  'x, y, z'
loop_
 _atom_site_type_symbol
 _atom_site_label
 _atom_site_symmetry_multiplicity
 _atom_site_fract_x
 _atom_site_fract_y
 _atom_site_fract_z
 _atom_site_occupancy
  Nd  Nd0  1  0.002440  0.002440  0.000000  1
  Ga  Ga1  1  0.384658  0.384658  0.000000  1
  P  P2  1  0.629037  0.629037  0.000000  1
  Ir  Ir3  1  0.241933  0.741933  0.500000  1
  Ir  Ir4  1  0.741933  0.241933  0.500000  1
