# generated using pymatgen
data_Y6Sc4GaSb5
_symmetry_space_group_name_H-M   'P 1'
_cell_length_a   6.15595800
_cell_length_b   8.74802667
_cell_length_c   8.73848657
_cell_angle_alpha   120.03482656
_cell_angle_beta   90.00108406
_cell_angle_gamma   89.99937540
_symmetry_Int_Tables_number   1
_chemical_formula_structural   Y6Sc4GaSb5
_chemical_formula_sum   'Y6 Sc4 Ga1 Sb5'
_cell_volume   407.39911867
_cell_formula_units_Z   1
loop_
 _symmetry_equiv_pos_site_id
 _symmetry_equiv_pos_as_xyz
  1  'x, y, z'
loop_
 _atom_site_type_symbol
 _atom_site_label
 _atom_site_symmetry_multiplicity
 _atom_site_fract_x
 _atom_site_fract_y
 _atom_site_fract_z
 _atom_site_occupancy
  Y  Y0  1  0.749997  0.252993  0.000005  1
  Y  Y1  1  0.750000  0.751885  0.762495  1
  Y  Y2  1  0.750000  0.989440  0.237521  1
  Y  Y3  1  0.249991  0.754176  0.000000  1
  Y  Y4  1  0.249994  0.245721  0.244833  1
  Y  Y5  1  0.249992  0.000915  0.755193  1
  Sc  Sc6  1  0.501718  0.337718  0.672550  1
  Sc  Sc7  1  0.501717  0.665169  0.327425  1
  Sc  Sc8  1  0.998307  0.665183  0.327486  1
  Sc  Sc9  1  0.998304  0.337677  0.672491  1
  Ga  Ga10  1  0.750030  0.602676  0.999907  1
  Sb  Sb11  1  0.750002  0.393222  0.395022  1
  Sb  Sb12  1  0.750000  0.998362  0.605072  1
  Sb  Sb13  1  0.249963  0.398352  0.999930  1
  Sb  Sb14  1  0.249995  0.604998  0.603616  1
  Sb  Sb15  1  0.249994  0.001512  0.396454  1
