# generated using pymatgen
data_Dy5Tl2(HgPt)2
_symmetry_space_group_name_H-M   'P 1'
_cell_length_a   3.62121400
_cell_length_b   8.06484900
_cell_length_c   18.30777600
_cell_angle_alpha   90.00000000
_cell_angle_beta   90.00000000
_cell_angle_gamma   90.00000000
_symmetry_Int_Tables_number   1
_chemical_formula_structural   Dy5Tl2(HgPt)2
_chemical_formula_sum   'Dy10 Tl4 Hg4 Pt4'
_cell_volume   534.67025169
_cell_formula_units_Z   2
loop_
 _symmetry_equiv_pos_site_id
 _symmetry_equiv_pos_as_xyz
  1  'x, y, z'
loop_
 _atom_site_type_symbol
 _atom_site_label
 _atom_site_symmetry_multiplicity
 _atom_site_fract_x
 _atom_site_fract_y
 _atom_site_fract_z
 _atom_site_occupancy
  Dy  Dy0  1  0.000000  0.108471  0.414620  1
  Dy  Dy1  1  0.000000  0.891529  0.585380  1
  Dy  Dy2  1  0.000000  0.391529  0.914620  1
  Dy  Dy3  1  0.000000  0.608471  0.085380  1
  Dy  Dy4  1  0.000000  0.243895  0.217210  1
  Dy  Dy5  1  0.000000  0.756105  0.782790  1
  Dy  Dy6  1  0.000000  0.256105  0.717210  1
  Dy  Dy7  1  0.000000  0.743895  0.282790  1
  Dy  Dy8  1  0.000000  0.000000  0.000000  1
  Dy  Dy9  1  0.000000  0.500000  0.500000  1
  Tl  Tl10  1  0.500000  0.423999  0.353946  1
  Tl  Tl11  1  0.500000  0.576001  0.646054  1
  Tl  Tl12  1  0.500000  0.076001  0.853946  1
  Tl  Tl13  1  0.500000  0.923999  0.146054  1
  Hg  Hg14  1  0.500000  0.288347  0.064017  1
  Hg  Hg15  1  0.500000  0.711653  0.935983  1
  Hg  Hg16  1  0.500000  0.211653  0.564017  1
  Hg  Hg17  1  0.500000  0.788347  0.435983  1
  Pt  Pt18  1  0.500000  0.027504  0.302672  1
  Pt  Pt19  1  0.500000  0.972496  0.697328  1
  Pt  Pt20  1  0.500000  0.472496  0.802672  1
  Pt  Pt21  1  0.500000  0.527504  0.197328  1
