# generated using pymatgen
data_Li(CaAg3)2
_symmetry_space_group_name_H-M   'P 1'
_cell_length_a   5.40986197
_cell_length_b   5.40986310
_cell_length_c   14.20584300
_cell_angle_alpha   90.00000000
_cell_angle_beta   90.00000000
_cell_angle_gamma   115.52814924
_symmetry_Int_Tables_number   1
_chemical_formula_structural   Li(CaAg3)2
_chemical_formula_sum   'Li2 Ca4 Ag12'
_cell_volume   375.16808164
_cell_formula_units_Z   2
loop_
 _symmetry_equiv_pos_site_id
 _symmetry_equiv_pos_as_xyz
  1  'x, y, z'
loop_
 _atom_site_type_symbol
 _atom_site_label
 _atom_site_symmetry_multiplicity
 _atom_site_fract_x
 _atom_site_fract_y
 _atom_site_fract_z
 _atom_site_occupancy
  Li  Li0  1  0.829623  0.829623  0.250000  1
  Li  Li1  1  0.170377  0.170377  0.750000  1
  Ca  Ca2  1  0.322385  0.322385  0.112283  1
  Ca  Ca3  1  0.677615  0.677615  0.612283  1
  Ca  Ca4  1  0.322385  0.322385  0.387717  1
  Ca  Ca5  1  0.677615  0.677615  0.887717  1
  Ag  Ag6  1  0.830545  0.330107  0.250000  1
  Ag  Ag7  1  0.169455  0.669893  0.750000  1
  Ag  Ag8  1  0.330107  0.830545  0.250000  1
  Ag  Ag9  1  0.669893  0.169455  0.750000  1
  Ag  Ag10  1  0.991851  0.669538  0.077517  1
  Ag  Ag11  1  0.008149  0.330462  0.577517  1
  Ag  Ag12  1  0.669538  0.991851  0.422483  1
  Ag  Ag13  1  0.330462  0.008149  0.922483  1
  Ag  Ag14  1  0.008149  0.330462  0.922483  1
  Ag  Ag15  1  0.991851  0.669538  0.422483  1
  Ag  Ag16  1  0.330462  0.008149  0.577517  1
  Ag  Ag17  1  0.669538  0.991851  0.077517  1
