# generated using pymatgen
data_LiDy16Hg3Pt4
_symmetry_space_group_name_H-M   'P 1'
_cell_length_a   9.63902067
_cell_length_b   9.63729556
_cell_length_c   9.66391874
_cell_angle_alpha   60.09099533
_cell_angle_beta   60.25264185
_cell_angle_gamma   60.00585439
_symmetry_Int_Tables_number   1
_chemical_formula_structural   LiDy16Hg3Pt4
_chemical_formula_sum   'Li1 Dy16 Hg3 Pt4'
_cell_volume   636.45390374
_cell_formula_units_Z   1
loop_
 _symmetry_equiv_pos_site_id
 _symmetry_equiv_pos_as_xyz
  1  'x, y, z'
loop_
 _atom_site_type_symbol
 _atom_site_label
 _atom_site_symmetry_multiplicity
 _atom_site_fract_x
 _atom_site_fract_y
 _atom_site_fract_z
 _atom_site_occupancy
  Li  Li0  1  0.299353  0.567998  0.564651  1
  Dy  Dy1  1  0.353170  0.349369  0.351202  1
  Dy  Dy2  1  0.356676  0.352578  0.938170  1
  Dy  Dy3  1  0.353170  0.946260  0.351202  1
  Dy  Dy4  1  0.928512  0.356056  0.359376  1
  Dy  Dy5  1  0.808724  0.191236  0.191193  1
  Dy  Dy6  1  0.187136  0.811511  0.814179  1
  Dy  Dy7  1  0.187162  0.812052  0.188736  1
  Dy  Dy8  1  0.808525  0.190341  0.810794  1
  Dy  Dy9  1  0.187136  0.187175  0.814179  1
  Dy  Dy10  1  0.808723  0.808848  0.191193  1
  Dy  Dy11  1  0.934660  0.564503  0.564597  1
  Dy  Dy12  1  0.562978  0.935529  0.936626  1
  Dy  Dy13  1  0.564795  0.934936  0.565333  1
  Dy  Dy14  1  0.935256  0.563437  0.937870  1
  Dy  Dy15  1  0.562978  0.564868  0.936626  1
  Dy  Dy16  1  0.934660  0.936241  0.564597  1
  Hg  Hg17  1  0.579546  0.590389  0.587885  1
  Hg  Hg18  1  0.579478  0.589731  0.241060  1
  Hg  Hg19  1  0.579547  0.242180  0.587884  1
  Pt  Pt20  1  0.140072  0.148557  0.145119  1
  Pt  Pt21  1  0.138273  0.145609  0.570509  1
  Pt  Pt22  1  0.140072  0.566251  0.145121  1
  Pt  Pt23  1  0.569402  0.144349  0.141901  1
