# generated using pymatgen
data_Li7TaP4
_symmetry_space_group_name_H-M   'P 1'
_cell_length_a   7.19704319
_cell_length_b   7.19704403
_cell_length_c   11.75995100
_cell_angle_alpha   65.86482602
_cell_angle_beta   65.86484005
_cell_angle_gamma   48.76258068
_symmetry_Int_Tables_number   1
_chemical_formula_structural   Li7TaP4
_chemical_formula_sum   'Li14 Ta2 P8'
_cell_volume   409.30836656
_cell_formula_units_Z   2
loop_
 _symmetry_equiv_pos_site_id
 _symmetry_equiv_pos_as_xyz
  1  'x, y, z'
loop_
 _atom_site_type_symbol
 _atom_site_label
 _atom_site_symmetry_multiplicity
 _atom_site_fract_x
 _atom_site_fract_y
 _atom_site_fract_z
 _atom_site_occupancy
  Li  Li0  1  0.516238  0.984361  0.876070  1
  Li  Li1  1  0.755283  0.244717  0.750000  1
  Li  Li2  1  0.006616  0.474003  0.878429  1
  Li  Li3  1  0.015639  0.483761  0.623930  1
  Li  Li4  1  0.249988  0.749062  0.491852  1
  Li  Li5  1  0.525998  0.993384  0.621571  1
  Li  Li6  1  0.474002  0.006616  0.378429  1
  Li  Li7  1  0.750012  0.250938  0.508148  1
  Li  Li8  1  0.984361  0.516239  0.376070  1
  Li  Li9  1  0.250938  0.750012  0.008148  1
  Li  Li10  1  0.993384  0.525997  0.121571  1
  Li  Li11  1  0.483762  0.015639  0.123930  1
  Li  Li12  1  0.244717  0.755283  0.250000  1
  Li  Li13  1  0.749062  0.249988  0.991852  1
  Ta  Ta14  1  0.255997  0.744002  0.750000  1
  Ta  Ta15  1  0.744003  0.255998  0.250000  1
  P  P16  1  0.366592  0.394354  0.927414  1
  P  P17  1  0.906924  0.853399  0.692199  1
  P  P18  1  0.146601  0.093077  0.807801  1
  P  P19  1  0.394354  0.366592  0.427414  1
  P  P20  1  0.605646  0.633408  0.572586  1
  P  P21  1  0.853399  0.906923  0.192199  1
  P  P22  1  0.093076  0.146601  0.307801  1
  P  P23  1  0.633408  0.605646  0.072586  1
