# generated using pymatgen
data_HfZr3TiB4MoRu10
_symmetry_space_group_name_H-M   'P 1'
_cell_length_a   9.46963200
_cell_length_b   9.46963210
_cell_length_c   3.08601000
_cell_angle_alpha   90.00000000
_cell_angle_beta   90.00000000
_cell_angle_gamma   90.08773193
_symmetry_Int_Tables_number   1
_chemical_formula_structural   HfZr3TiB4MoRu10
_chemical_formula_sum   'Hf1 Zr3 Ti1 B4 Mo1 Ru10'
_cell_volume   276.73432393
_cell_formula_units_Z   1
loop_
 _symmetry_equiv_pos_site_id
 _symmetry_equiv_pos_as_xyz
  1  'x, y, z'
loop_
 _atom_site_type_symbol
 _atom_site_label
 _atom_site_symmetry_multiplicity
 _atom_site_fract_x
 _atom_site_fract_y
 _atom_site_fract_z
 _atom_site_occupancy
  Hf  Hf0  1  0.678824  0.174083  0.000000  1
  Zr  Zr1  1  0.321984  0.826387  0.000000  1
  Zr  Zr2  1  0.173893  0.321186  0.000000  1
  Zr  Zr3  1  0.825707  0.678622  0.000000  1
  Ti  Ti4  1  0.999490  0.000036  0.000000  1
  B  B5  1  0.118366  0.624971  0.000000  1
  B  B6  1  0.880866  0.374209  0.000000  1
  B  B7  1  0.625209  0.881942  0.000000  1
  B  B8  1  0.375217  0.118552  0.000000  1
  Mo  Mo9  1  0.500064  0.499476  0.000000  1
  Ru  Ru10  1  0.216880  0.071439  0.500000  1
  Ru  Ru11  1  0.783313  0.929732  0.500000  1
  Ru  Ru12  1  0.071513  0.783328  0.500000  1
  Ru  Ru13  1  0.715796  0.430166  0.500000  1
  Ru  Ru14  1  0.927219  0.216054  0.500000  1
  Ru  Ru15  1  0.283681  0.568657  0.500000  1
  Ru  Ru16  1  0.568768  0.716704  0.500000  1
  Ru  Ru17  1  0.432384  0.283662  0.500000  1
  Ru  Ru18  1  0.501101  0.001116  0.500000  1
  Ru  Ru19  1  0.999726  0.499675  0.500000  1
