# generated using pymatgen
data_K3VSe16
_symmetry_space_group_name_H-M   'P 1'
_cell_length_a   11.89661268
_cell_length_b   11.89661278
_cell_length_c   11.89661300
_cell_angle_alpha   60.00000216
_cell_angle_beta   60.00000190
_cell_angle_gamma   60.00000313
_symmetry_Int_Tables_number   1
_chemical_formula_structural   K3VSe16
_chemical_formula_sum   'K6 V2 Se32'
_cell_volume   1190.57020127
_cell_formula_units_Z   2
loop_
 _symmetry_equiv_pos_site_id
 _symmetry_equiv_pos_as_xyz
  1  'x, y, z'
loop_
 _atom_site_type_symbol
 _atom_site_label
 _atom_site_symmetry_multiplicity
 _atom_site_fract_x
 _atom_site_fract_y
 _atom_site_fract_z
 _atom_site_occupancy
  K  K0  1  0.250000  0.250000  0.250000  1
  K  K1  1  0.625000  0.625000  0.125000  1
  K  K2  1  0.125000  0.625000  0.625000  1
  K  K3  1  0.625000  0.125000  0.625000  1
  K  K4  1  0.625000  0.625000  0.625000  1
  K  K5  1  0.000000  0.000000  0.000000  1
  V  V6  1  0.500000  0.500000  0.500000  1
  V  V7  1  0.750000  0.750000  0.750000  1
  Se  Se8  1  0.570478  0.160237  0.316716  1
  Se  Se9  1  0.316717  0.160237  0.952568  1
  Se  Se10  1  0.160237  0.570478  0.952568  1
  Se  Se11  1  0.160237  0.316717  0.570478  1
  Se  Se12  1  0.952568  0.316716  0.160237  1
  Se  Se13  1  0.316717  0.570478  0.160237  1
  Se  Se14  1  0.952568  0.160237  0.570478  1
  Se  Se15  1  0.160237  0.952568  0.316717  1
  Se  Se16  1  0.679522  0.933283  0.297432  1
  Se  Se17  1  0.297432  0.679522  0.933283  1
  Se  Se18  1  0.933283  0.297432  0.679522  1
  Se  Se19  1  0.679522  0.089763  0.933284  1
  Se  Se20  1  0.570478  0.952568  0.160237  1
  Se  Se21  1  0.933283  0.089763  0.297432  1
  Se  Se22  1  0.089763  0.679522  0.297432  1
  Se  Se23  1  0.089763  0.933283  0.679522  1
  Se  Se24  1  0.297432  0.933283  0.089763  1
  Se  Se25  1  0.933283  0.679522  0.089763  1
  Se  Se26  1  0.297432  0.089763  0.679522  1
  Se  Se27  1  0.089763  0.297432  0.933283  1
  Se  Se28  1  0.421359  0.421359  0.735924  1
  Se  Se29  1  0.735924  0.421359  0.421359  1
  Se  Se30  1  0.421359  0.735924  0.421359  1
  Se  Se31  1  0.421359  0.421359  0.421359  1
  Se  Se32  1  0.828641  0.828641  0.514076  1
  Se  Se33  1  0.514076  0.828641  0.828641  1
  Se  Se34  1  0.828641  0.514076  0.828641  1
  Se  Se35  1  0.828641  0.828641  0.828641  1
  Se  Se36  1  0.316716  0.952568  0.570478  1
  Se  Se37  1  0.952568  0.570478  0.316716  1
  Se  Se38  1  0.570478  0.316717  0.952568  1
  Se  Se39  1  0.679522  0.297432  0.089763  1
