# generated using pymatgen
data_Ho8Si8PdPt7
_symmetry_space_group_name_H-M   'P 1'
_cell_length_a   4.26108000
_cell_length_b   7.48773694
_cell_length_c   14.05419715
_cell_angle_alpha   89.93287457
_cell_angle_beta   90.00000000
_cell_angle_gamma   90.00000000
_symmetry_Int_Tables_number   1
_chemical_formula_structural   Ho8Si8PdPt7
_chemical_formula_sum   'Ho8 Si8 Pd1 Pt7'
_cell_volume   448.41074410
_cell_formula_units_Z   1
loop_
 _symmetry_equiv_pos_site_id
 _symmetry_equiv_pos_as_xyz
  1  'x, y, z'
loop_
 _atom_site_type_symbol
 _atom_site_label
 _atom_site_symmetry_multiplicity
 _atom_site_fract_x
 _atom_site_fract_y
 _atom_site_fract_z
 _atom_site_occupancy
  Ho  Ho0  1  0.000000  0.300094  0.999756  1
  Ho  Ho1  1  0.500000  0.700027  0.499901  1
  Ho  Ho2  1  0.000000  0.293065  0.500116  1
  Ho  Ho3  1  0.500000  0.705989  0.000285  1
  Ho  Ho4  1  0.000000  0.204314  0.249274  1
  Ho  Ho5  1  0.500000  0.795362  0.250400  1
  Ho  Ho6  1  0.000000  0.203790  0.750246  1
  Ho  Ho7  1  0.500000  0.795008  0.749995  1
  Si  Si8  1  0.000000  0.907775  0.591624  1
  Si  Si9  1  0.500000  0.094316  0.907213  1
  Si  Si10  1  0.000000  0.906844  0.407696  1
  Si  Si11  1  0.500000  0.093567  0.092144  1
  Si  Si12  1  0.000000  0.593281  0.147004  1
  Si  Si13  1  0.500000  0.406596  0.351304  1
  Si  Si14  1  0.000000  0.593812  0.856077  1
  Si  Si15  1  0.500000  0.403695  0.646093  1
  Pd  Pd16  1  0.000000  0.580716  0.656480  1
  Pt  Pt17  1  0.500000  0.074882  0.608309  1
  Pt  Pt18  1  0.000000  0.924136  0.891388  1
  Pt  Pt19  1  0.500000  0.076276  0.391476  1
  Pt  Pt20  1  0.000000  0.923726  0.108385  1
  Pt  Pt21  1  0.500000  0.420638  0.154997  1
  Pt  Pt22  1  0.000000  0.579624  0.347151  1
  Pt  Pt23  1  0.500000  0.422467  0.842684  1
