# generated using pymatgen
data_Nd3SmAl18Rh5Au
_symmetry_space_group_name_H-M   'P 1'
_cell_length_a   7.63921946
_cell_length_b   7.64212049
_cell_length_c   9.60759259
_cell_angle_alpha   89.87732164
_cell_angle_beta   89.94041944
_cell_angle_gamma   119.37953388
_symmetry_Int_Tables_number   1
_chemical_formula_structural   Nd3SmAl18Rh5Au
_chemical_formula_sum   'Nd3 Sm1 Al18 Rh5 Au1'
_cell_volume   488.75062742
_cell_formula_units_Z   1
loop_
 _symmetry_equiv_pos_site_id
 _symmetry_equiv_pos_as_xyz
  1  'x, y, z'
loop_
 _atom_site_type_symbol
 _atom_site_label
 _atom_site_symmetry_multiplicity
 _atom_site_fract_x
 _atom_site_fract_y
 _atom_site_fract_z
 _atom_site_occupancy
  Nd  Nd0  1  0.995817  0.674030  0.250040  1
  Nd  Nd1  1  0.004241  0.325845  0.749976  1
  Nd  Nd2  1  0.673986  0.995758  0.249997  1
  Sm  Sm3  1  0.325946  0.004209  0.749857  1
  Al  Al4  1  0.138333  0.138038  0.257964  1
  Al  Al5  1  0.862829  0.862010  0.742119  1
  Al  Al6  1  0.004201  0.345211  0.077258  1
  Al  Al7  1  0.996796  0.655859  0.922016  1
  Al  Al8  1  0.999519  0.664784  0.573015  1
  Al  Al9  1  0.336164  0.001417  0.428574  1
  Al  Al10  1  0.001531  0.336200  0.427679  1
  Al  Al11  1  0.662928  0.998510  0.573059  1
  Al  Al12  1  0.653941  0.995941  0.921890  1
  Al  Al13  1  0.344998  0.004031  0.076419  1
  Al  Al14  1  0.334435  0.333677  0.547697  1
  Al  Al15  1  0.665615  0.665568  0.453359  1
  Al  Al16  1  0.656560  0.656566  0.053001  1
  Al  Al17  1  0.343384  0.342658  0.945965  1
  Al  Al18  1  0.340022  0.549386  0.251279  1
  Al  Al19  1  0.659038  0.449436  0.748649  1
  Al  Al20  1  0.549201  0.339748  0.251252  1
  Al  Al21  1  0.450532  0.660941  0.748710  1
  Rh  Rh22  1  0.670811  0.328622  0.999620  1
  Rh  Rh23  1  0.328862  0.671290  0.999612  1
  Rh  Rh24  1  0.328883  0.671355  0.500307  1
  Rh  Rh25  1  0.670774  0.328581  0.500379  1
  Rh  Rh26  1  0.000634  0.000282  0.500391  1
  Au  Au27  1  0.000016  0.000048  0.999917  1
