# generated using pymatgen
data_Tb(Co3Si2)2
_symmetry_space_group_name_H-M   'P 1'
_cell_length_a   6.61115700
_cell_length_b   6.61115546
_cell_length_c   3.60997100
_cell_angle_alpha   90.00000000
_cell_angle_beta   90.00000000
_cell_angle_gamma   119.99999269
_symmetry_Int_Tables_number   1
_chemical_formula_structural   Tb(Co3Si2)2
_chemical_formula_sum   'Tb1 Co6 Si4'
_cell_volume   136.64357544
_cell_formula_units_Z   1
loop_
 _symmetry_equiv_pos_site_id
 _symmetry_equiv_pos_as_xyz
  1  'x, y, z'
loop_
 _atom_site_type_symbol
 _atom_site_label
 _atom_site_symmetry_multiplicity
 _atom_site_fract_x
 _atom_site_fract_y
 _atom_site_fract_z
 _atom_site_occupancy
  Tb  Tb0  1  0.000000  0.000000  0.000000  1
  Co  Co1  1  0.534102  0.068206  0.000000  1
  Co  Co2  1  0.931795  0.465898  0.000000  1
  Co  Co3  1  0.534102  0.465898  0.000000  1
  Co  Co4  1  0.204900  0.409799  0.500001  1
  Co  Co5  1  0.204900  0.795100  0.500001  1
  Co  Co6  1  0.590202  0.795100  0.500001  1
  Si  Si7  1  0.333333  0.666666  0.000000  1
  Si  Si8  1  0.399261  0.199630  0.500001  1
  Si  Si9  1  0.800370  0.199630  0.500001  1
  Si  Si10  1  0.800370  0.600740  0.500001  1
