# generated using pymatgen
data_Yb(CeSe2)2
_symmetry_space_group_name_H-M   'P 1'
_cell_length_a   7.75088248
_cell_length_b   7.75088211
_cell_length_c   7.75088223
_cell_angle_alpha   109.55492345
_cell_angle_beta   109.55492628
_cell_angle_gamma   109.30394542
_symmetry_Int_Tables_number   1
_chemical_formula_structural   Yb(CeSe2)2
_chemical_formula_sum   'Yb2 Ce4 Se8'
_cell_volume   358.45012379
_cell_formula_units_Z   2
loop_
 _symmetry_equiv_pos_site_id
 _symmetry_equiv_pos_as_xyz
  1  'x, y, z'
loop_
 _atom_site_type_symbol
 _atom_site_label
 _atom_site_symmetry_multiplicity
 _atom_site_fract_x
 _atom_site_fract_y
 _atom_site_fract_z
 _atom_site_occupancy
  Yb  Yb0  1  0.750000  0.250000  0.500000  1
  Yb  Yb1  1  0.000000  0.000000  0.000000  1
  Ce  Ce2  1  0.875000  0.496999  0.121999  1
  Ce  Ce3  1  0.246999  0.125000  0.621999  1
  Ce  Ce4  1  0.375000  0.753001  0.878001  1
  Ce  Ce5  1  0.503001  0.625000  0.378001  1
  Se  Se6  1  0.771973  0.875810  0.251977  1
  Se  Se7  1  0.126168  0.374190  0.396163  1
  Se  Se8  1  0.978027  0.730005  0.603837  1
  Se  Se9  1  0.269995  0.873832  0.248023  1
  Se  Se10  1  0.124190  0.376168  0.896163  1
  Se  Se11  1  0.625810  0.021973  0.751977  1
  Se  Se12  1  0.480005  0.228027  0.103837  1
  Se  Se13  1  0.623832  0.519995  0.748023  1
