# generated using pymatgen
data_LiTaWN3
_symmetry_space_group_name_H-M   'P 1'
_cell_length_a   5.10705470
_cell_length_b   5.10705369
_cell_length_c   10.39801600
_cell_angle_alpha   90.00000000
_cell_angle_beta   90.00000000
_cell_angle_gamma   120.17125262
_symmetry_Int_Tables_number   1
_chemical_formula_structural   LiTaWN3
_chemical_formula_sum   'Li4 Ta4 W4 N12'
_cell_volume   234.46067663
_cell_formula_units_Z   4
loop_
 _symmetry_equiv_pos_site_id
 _symmetry_equiv_pos_as_xyz
  1  'x, y, z'
loop_
 _atom_site_type_symbol
 _atom_site_label
 _atom_site_symmetry_multiplicity
 _atom_site_fract_x
 _atom_site_fract_y
 _atom_site_fract_z
 _atom_site_occupancy
  Li  Li0  1  0.333568  0.666432  0.000000  1
  Li  Li1  1  0.333568  0.666432  0.500000  1
  Li  Li2  1  0.666630  0.333370  0.500000  1
  Li  Li3  1  0.666630  0.333370  0.000000  1
  Ta  Ta4  1  0.001084  0.998916  0.500000  1
  Ta  Ta5  1  0.001084  0.998916  0.000000  1
  Ta  Ta6  1  0.338226  0.999814  0.250000  1
  Ta  Ta7  1  0.000186  0.661774  0.750000  1
  W  W8  1  0.999750  0.338528  0.250000  1
  W  W9  1  0.661472  0.000250  0.750000  1
  W  W10  1  0.338641  0.338786  0.750000  1
  W  W11  1  0.661214  0.661359  0.250000  1
  N  N12  1  0.669371  0.672789  0.623470  1
  N  N13  1  0.669371  0.672789  0.876530  1
  N  N14  1  0.327211  0.330629  0.123470  1
  N  N15  1  0.327211  0.330629  0.376530  1
  N  N16  1  0.331243  0.003319  0.876386  1
  N  N17  1  0.331243  0.003319  0.623614  1
  N  N18  1  0.996681  0.668757  0.376386  1
  N  N19  1  0.996681  0.668757  0.123614  1
  N  N20  1  0.674416  0.999949  0.123632  1
  N  N21  1  0.674416  0.999949  0.376368  1
  N  N22  1  0.000051  0.325584  0.876368  1
  N  N23  1  0.000051  0.325584  0.623632  1
