# generated using pymatgen
data_Li3Pr2ErPt3
_symmetry_space_group_name_H-M   'P 1'
_cell_length_a   7.24817049
_cell_length_b   7.28622445
_cell_length_c   4.14647600
_cell_angle_alpha   90.00000000
_cell_angle_beta   90.00000000
_cell_angle_gamma   120.17380757
_symmetry_Int_Tables_number   1
_chemical_formula_structural   Li3Pr2ErPt3
_chemical_formula_sum   'Li3 Pr2 Er1 Pt3'
_cell_volume   189.31169451
_cell_formula_units_Z   1
loop_
 _symmetry_equiv_pos_site_id
 _symmetry_equiv_pos_as_xyz
  1  'x, y, z'
loop_
 _atom_site_type_symbol
 _atom_site_label
 _atom_site_symmetry_multiplicity
 _atom_site_fract_x
 _atom_site_fract_y
 _atom_site_fract_z
 _atom_site_occupancy
  Li  Li0  1  0.775264  0.770057  0.500000  1
  Li  Li1  1  0.224736  0.994793  0.500000  1
  Li  Li2  1  0.000000  0.230881  0.500000  1
  Pr  Pr3  1  0.412384  0.414038  0.000000  1
  Pr  Pr4  1  0.587616  0.001654  0.000000  1
  Er  Er5  1  0.000000  0.592511  0.000000  1
  Pt  Pt6  1  0.000000  0.989052  0.000000  1
  Pt  Pt7  1  0.681971  0.344491  0.500000  1
  Pt  Pt8  1  0.318029  0.662521  0.500000  1
