# generated using pymatgen
data_Pr5CrTcO12
_symmetry_space_group_name_H-M   'P 1'
_cell_length_a   7.08981308
_cell_length_b   7.08981332
_cell_length_c   7.69025400
_cell_angle_alpha   74.34331702
_cell_angle_beta   74.34331647
_cell_angle_gamma   51.05190399
_symmetry_Int_Tables_number   1
_chemical_formula_structural   Pr5CrTcO12
_chemical_formula_sum   'Pr5 Cr1 Tc1 O12'
_cell_volume   286.87030425
_cell_formula_units_Z   1
loop_
 _symmetry_equiv_pos_site_id
 _symmetry_equiv_pos_as_xyz
  1  'x, y, z'
loop_
 _atom_site_type_symbol
 _atom_site_label
 _atom_site_symmetry_multiplicity
 _atom_site_fract_x
 _atom_site_fract_y
 _atom_site_fract_z
 _atom_site_occupancy
  Pr  Pr0  1  0.319699  0.293402  0.357161  1
  Pr  Pr1  1  0.706598  0.680301  0.642839  1
  Pr  Pr2  1  0.693298  0.690802  0.166521  1
  Pr  Pr3  1  0.309198  0.306702  0.833479  1
  Pr  Pr4  1  0.007004  0.992996  0.500000  1
  Cr  Cr5  1  0.742674  0.257326  0.000000  1
  Tc  Tc6  1  0.229996  0.770004  0.000000  1
  O  O7  1  0.102369  0.594631  0.573269  1
  O  O8  1  0.002584  0.996115  0.171707  1
  O  O9  1  0.405369  0.897631  0.426731  1
  O  O10  1  0.488721  0.513127  0.173059  1
  O  O11  1  0.106533  0.586880  0.078152  1
  O  O12  1  0.911986  0.400667  0.419173  1
  O  O13  1  0.003885  0.997416  0.828293  1
  O  O14  1  0.599333  0.088013  0.580827  1
  O  O15  1  0.486873  0.511279  0.826941  1
  O  O16  1  0.570862  0.100098  0.079641  1
  O  O17  1  0.413120  0.893467  0.921848  1
  O  O18  1  0.899902  0.429138  0.920359  1
