# generated using pymatgen
data_Dy4YTc6P12Ir13
_symmetry_space_group_name_H-M   'P 1'
_cell_length_a   12.65631900
_cell_length_b   12.65631895
_cell_length_c   3.99076600
_cell_angle_alpha   90.00000000
_cell_angle_beta   90.00000000
_cell_angle_gamma   119.99999752
_symmetry_Int_Tables_number   1
_chemical_formula_structural   Dy4YTc6P12Ir13
_chemical_formula_sum   'Dy4 Y1 Tc6 P12 Ir13'
_cell_volume   553.60719959
_cell_formula_units_Z   1
loop_
 _symmetry_equiv_pos_site_id
 _symmetry_equiv_pos_as_xyz
  1  'x, y, z'
loop_
 _atom_site_type_symbol
 _atom_site_label
 _atom_site_symmetry_multiplicity
 _atom_site_fract_x
 _atom_site_fract_y
 _atom_site_fract_z
 _atom_site_occupancy
  Dy  Dy0  1  0.666667  0.333333  0.500000  1
  Dy  Dy1  1  0.000251  0.812142  0.000000  1
  Dy  Dy2  1  0.187858  0.188108  0.000000  1
  Dy  Dy3  1  0.811892  0.999749  0.000000  1
  Y  Y4  1  0.333333  0.666667  0.500000  1
  Tc  Tc5  1  0.990519  0.446623  0.500000  1
  Tc  Tc6  1  0.553377  0.543896  0.500000  1
  Tc  Tc7  1  0.456104  0.009481  0.500000  1
  Tc  Tc8  1  0.620426  0.799288  0.500000  1
  Tc  Tc9  1  0.200712  0.821138  0.500000  1
  Tc  Tc10  1  0.178862  0.379574  0.500000  1
  P  P11  1  0.006986  0.638531  0.500000  1
  P  P12  1  0.361469  0.368456  0.500000  1
  P  P13  1  0.631544  0.993014  0.500000  1
  P  P14  1  0.521378  0.694018  0.000000  1
  P  P15  1  0.305982  0.827360  0.000000  1
  P  P16  1  0.172640  0.478622  0.000000  1
  P  P17  1  0.482303  0.168162  0.000000  1
  P  P18  1  0.685859  0.517697  0.000000  1
  P  P19  1  0.831838  0.314141  0.000000  1
  P  P20  1  0.003882  0.182589  0.500000  1
  P  P21  1  0.817411  0.821293  0.500000  1
  P  P22  1  0.178707  0.996118  0.500000  1
  Ir  Ir23  1  0.506759  0.874561  0.000000  1
  Ir  Ir24  1  0.125439  0.632200  0.000000  1
  Ir  Ir25  1  0.367800  0.493241  0.000000  1
  Ir  Ir26  1  0.493713  0.358037  0.000000  1
  Ir  Ir27  1  0.864324  0.506287  0.000000  1
  Ir  Ir28  1  0.641963  0.135676  0.000000  1
  Ir  Ir29  1  0.995139  0.281569  0.000000  1
  Ir  Ir30  1  0.718431  0.713571  0.000000  1
  Ir  Ir31  1  0.286429  0.004861  0.000000  1
  Ir  Ir32  1  0.374103  0.185047  0.500000  1
  Ir  Ir33  1  0.810945  0.625897  0.500000  1
  Ir  Ir34  1  0.814953  0.189055  0.500000  1
  Ir  Ir35  1  0.000000  0.000000  0.500000  1
