# generated using pymatgen
data_Sc8Ti11Si16Ru
_symmetry_space_group_name_H-M   'P 1'
_cell_length_a   6.63910626
_cell_length_b   6.82471246
_cell_length_c   12.99562100
_cell_angle_alpha   90.00000000
_cell_angle_beta   90.00000000
_cell_angle_gamma   90.11719884
_symmetry_Int_Tables_number   1
_chemical_formula_structural   Sc8Ti11Si16Ru
_chemical_formula_sum   'Sc8 Ti11 Si16 Ru1'
_cell_volume   588.83024147
_cell_formula_units_Z   1
loop_
 _symmetry_equiv_pos_site_id
 _symmetry_equiv_pos_as_xyz
  1  'x, y, z'
loop_
 _atom_site_type_symbol
 _atom_site_label
 _atom_site_symmetry_multiplicity
 _atom_site_fract_x
 _atom_site_fract_y
 _atom_site_fract_z
 _atom_site_occupancy
  Sc  Sc0  1  0.499518  0.673609  0.594805  1
  Sc  Sc1  1  0.001773  0.826772  0.905318  1
  Sc  Sc2  1  0.496745  0.325565  0.094237  1
  Sc  Sc3  1  0.997560  0.175362  0.405853  1
  Sc  Sc4  1  0.496745  0.325565  0.405763  1
  Sc  Sc5  1  0.997560  0.175362  0.094147  1
  Sc  Sc6  1  0.499518  0.673609  0.905195  1
  Sc  Sc7  1  0.001773  0.826772  0.594682  1
  Ti  Ti8  1  0.665790  0.171204  0.626482  1
  Ti  Ti9  1  0.166472  0.327321  0.873280  1
  Ti  Ti10  1  0.336839  0.825346  0.126750  1
  Ti  Ti11  1  0.836240  0.673693  0.374068  1
  Ti  Ti12  1  0.336839  0.825346  0.373250  1
  Ti  Ti13  1  0.836240  0.673693  0.125932  1
  Ti  Ti14  1  0.665790  0.171204  0.873518  1
  Ti  Ti15  1  0.166472  0.327321  0.626720  1
  Ti  Ti16  1  0.337283  0.007650  0.750000  1
  Ti  Ti17  1  0.161978  0.507367  0.250000  1
  Ti  Ti18  1  0.662887  0.992877  0.250000  1
  Si  Si19  1  0.664600  0.965154  0.459509  1
  Si  Si20  1  0.165218  0.536571  0.039069  1
  Si  Si21  1  0.334684  0.035543  0.960135  1
  Si  Si22  1  0.834370  0.464246  0.543247  1
  Si  Si23  1  0.334684  0.035543  0.539865  1
  Si  Si24  1  0.834370  0.464246  0.956753  1
  Si  Si25  1  0.664600  0.965154  0.040491  1
  Si  Si26  1  0.165218  0.536571  0.460931  1
  Si  Si27  1  0.469027  0.385531  0.750000  1
  Si  Si28  1  0.962908  0.115700  0.750000  1
  Si  Si29  1  0.537139  0.615436  0.250000  1
  Si  Si30  1  0.038123  0.882518  0.250000  1
  Si  Si31  1  0.702844  0.860347  0.750000  1
  Si  Si32  1  0.200057  0.636555  0.750000  1
  Si  Si33  1  0.294464  0.136270  0.250000  1
  Si  Si34  1  0.795445  0.363545  0.250000  1
  Ru  Ru35  1  0.838226  0.495434  0.750000  1
