# generated using pymatgen
data_HoTm5(ReB7)2
_symmetry_space_group_name_H-M   'P 1'
_cell_length_a   7.98647100
_cell_length_b   7.98647051
_cell_length_c   9.29318600
_cell_angle_alpha   90.00000000
_cell_angle_beta   90.00000000
_cell_angle_gamma   154.64934637
_symmetry_Int_Tables_number   1
_chemical_formula_structural   HoTm5(ReB7)2
_chemical_formula_sum   'Ho1 Tm5 Re2 B14'
_cell_volume   253.79172676
_cell_formula_units_Z   1
loop_
 _symmetry_equiv_pos_site_id
 _symmetry_equiv_pos_as_xyz
  1  'x, y, z'
loop_
 _atom_site_type_symbol
 _atom_site_label
 _atom_site_symmetry_multiplicity
 _atom_site_fract_x
 _atom_site_fract_y
 _atom_site_fract_z
 _atom_site_occupancy
  Ho  Ho0  1  0.243932  0.756068  0.750000  1
  Tm  Tm1  1  0.894666  0.105334  0.941216  1
  Tm  Tm2  1  0.105521  0.894479  0.059782  1
  Tm  Tm3  1  0.757218  0.242782  0.250000  1
  Tm  Tm4  1  0.894666  0.105334  0.558784  1
  Tm  Tm5  1  0.105521  0.894479  0.440218  1
  Re  Re6  1  0.052149  0.947851  0.750000  1
  Re  Re7  1  0.947792  0.052208  0.250000  1
  B  B8  1  0.545513  0.454487  0.250000  1
  B  B9  1  0.454170  0.545830  0.750000  1
  B  B10  1  0.519852  0.480148  0.905412  1
  B  B11  1  0.479991  0.520009  0.094582  1
  B  B12  1  0.479991  0.520009  0.405418  1
  B  B13  1  0.519852  0.480148  0.594588  1
  B  B14  1  0.632285  0.367715  0.850009  1
  B  B15  1  0.367651  0.632349  0.150632  1
  B  B16  1  0.727250  0.272750  0.968113  1
  B  B17  1  0.272397  0.727603  0.035029  1
  B  B18  1  0.272397  0.727603  0.464971  1
  B  B19  1  0.727250  0.272750  0.531887  1
  B  B20  1  0.632285  0.367715  0.649991  1
  B  B21  1  0.367651  0.632349  0.349368  1
