# generated using pymatgen
data_Rb12Na8Ti3SnSb12
_symmetry_space_group_name_H-M   'P 1'
_cell_length_a   11.52620165
_cell_length_b   11.52620240
_cell_length_c   16.77206022
_cell_angle_alpha   89.97246320
_cell_angle_beta   89.97246280
_cell_angle_gamma   142.89358601
_symmetry_Int_Tables_number   1
_chemical_formula_structural   Rb12Na8Ti3SnSb12
_chemical_formula_sum   'Rb12 Na8 Ti3 Sn1 Sb12'
_cell_volume   1344.27998395
_cell_formula_units_Z   1
loop_
 _symmetry_equiv_pos_site_id
 _symmetry_equiv_pos_as_xyz
  1  'x, y, z'
loop_
 _atom_site_type_symbol
 _atom_site_label
 _atom_site_symmetry_multiplicity
 _atom_site_fract_x
 _atom_site_fract_y
 _atom_site_fract_z
 _atom_site_occupancy
  Rb  Rb0  1  0.942787  0.606869  0.830877  1
  Rb  Rb1  1  0.555965  0.893048  0.327676  1
  Rb  Rb2  1  0.393131  0.057213  0.169123  1
  Rb  Rb3  1  0.057699  0.394052  0.171518  1
  Rb  Rb4  1  0.900489  0.567328  0.327753  1
  Rb  Rb5  1  0.432672  0.099511  0.672247  1
  Rb  Rb6  1  0.605948  0.942301  0.828482  1
  Rb  Rb7  1  0.274167  0.272013  0.320466  1
  Rb  Rb8  1  0.776117  0.776037  0.176921  1
  Rb  Rb9  1  0.223963  0.223883  0.823079  1
  Rb  Rb10  1  0.727987  0.725833  0.679534  1
  Rb  Rb11  1  0.106952  0.444035  0.672324  1
  Na  Na12  1  0.919816  0.080184  0.000000  1
  Na  Na13  1  0.580916  0.419084  0.500000  1
  Na  Na14  1  0.079998  0.920002  0.000000  1
  Na  Na15  1  0.418823  0.581177  0.500000  1
  Na  Na16  1  0.754782  0.245218  0.000000  1
  Na  Na17  1  0.745521  0.254479  0.500000  1
  Na  Na18  1  0.245439  0.754561  0.000000  1
  Na  Na19  1  0.254874  0.745126  0.500000  1
  Ti  Ti20  1  0.585108  0.414892  0.000000  1
  Ti  Ti21  1  0.916475  0.083525  0.500000  1
  Ti  Ti22  1  0.414864  0.585136  0.000000  1
  Sn  Sn23  1  0.084690  0.915310  0.500000  1
  Sb  Sb24  1  0.867424  0.556559  0.096511  1
  Sb  Sb25  1  0.443441  0.132576  0.903489  1
  Sb  Sb26  1  0.636004  0.945221  0.597002  1
  Sb  Sb27  1  0.933658  0.615436  0.604135  1
  Sb  Sb28  1  0.132633  0.443501  0.903327  1
  Sb  Sb29  1  0.556499  0.867367  0.096673  1
  Sb  Sb30  1  0.384564  0.066342  0.395865  1
  Sb  Sb31  1  0.202334  0.210356  0.594687  1
  Sb  Sb32  1  0.695738  0.695903  0.912045  1
  Sb  Sb33  1  0.304097  0.304262  0.087955  1
  Sb  Sb34  1  0.054779  0.363996  0.402998  1
  Sb  Sb35  1  0.789644  0.797666  0.405313  1
