# generated using pymatgen
data_Na(TiSe2)4
_symmetry_space_group_name_H-M   'P 1'
_cell_length_a   8.51015654
_cell_length_b   8.51015653
_cell_length_c   8.51015715
_cell_angle_alpha   49.14864090
_cell_angle_beta   49.14864168
_cell_angle_gamma   49.14863118
_symmetry_Int_Tables_number   1
_chemical_formula_structural   Na(TiSe2)4
_chemical_formula_sum   'Na1 Ti4 Se8'
_cell_volume   323.89264649
_cell_formula_units_Z   1
loop_
 _symmetry_equiv_pos_site_id
 _symmetry_equiv_pos_as_xyz
  1  'x, y, z'
loop_
 _atom_site_type_symbol
 _atom_site_label
 _atom_site_symmetry_multiplicity
 _atom_site_fract_x
 _atom_site_fract_y
 _atom_site_fract_z
 _atom_site_occupancy
  Na  Na0  1  0.500000  0.500000  0.500000  1
  Ti  Ti1  1  0.000000  0.500000  0.500000  1
  Ti  Ti2  1  0.500000  0.000000  0.500000  1
  Ti  Ti3  1  0.500000  0.500000  0.000000  1
  Ti  Ti4  1  0.000000  0.000000  0.000000  1
  Se  Se5  1  0.261092  0.765015  0.765015  1
  Se  Se6  1  0.234985  0.234985  0.738908  1
  Se  Se7  1  0.738908  0.234985  0.234985  1
  Se  Se8  1  0.234985  0.738908  0.234985  1
  Se  Se9  1  0.263514  0.263514  0.263514  1
  Se  Se10  1  0.736486  0.736486  0.736486  1
  Se  Se11  1  0.765015  0.261092  0.765015  1
  Se  Se12  1  0.765015  0.765015  0.261092  1
