# generated using pymatgen
data_Ac8Be4Si11Au
_symmetry_space_group_name_H-M   'P 1'
_cell_length_a   8.42031210
_cell_length_b   8.42031274
_cell_length_c   8.98479000
_cell_angle_alpha   90.00881860
_cell_angle_beta   89.99117460
_cell_angle_gamma   119.86158922
_symmetry_Int_Tables_number   1
_chemical_formula_structural   Ac8Be4Si11Au
_chemical_formula_sum   'Ac8 Be4 Si11 Au1'
_cell_volume   552.45765714
_cell_formula_units_Z   1
loop_
 _symmetry_equiv_pos_site_id
 _symmetry_equiv_pos_as_xyz
  1  'x, y, z'
loop_
 _atom_site_type_symbol
 _atom_site_label
 _atom_site_symmetry_multiplicity
 _atom_site_fract_x
 _atom_site_fract_y
 _atom_site_fract_z
 _atom_site_occupancy
  Ac  Ac0  1  0.001249  0.998751  0.748833  1
  Ac  Ac1  1  0.001207  0.998793  0.251166  1
  Ac  Ac2  1  0.499380  0.500620  0.751028  1
  Ac  Ac3  1  0.497199  0.997817  0.750691  1
  Ac  Ac4  1  0.002183  0.502801  0.750691  1
  Ac  Ac5  1  0.499764  0.500236  0.248947  1
  Ac  Ac6  1  0.001426  0.502190  0.249351  1
  Ac  Ac7  1  0.497810  0.998574  0.249351  1
  Be  Be8  1  0.664504  0.335496  0.997939  1
  Be  Be9  1  0.666400  0.333600  0.502053  1
  Be  Be10  1  0.334355  0.665645  0.497979  1
  Be  Be11  1  0.337135  0.662865  0.001959  1
  Si  Si12  1  0.821897  0.654376  0.999792  1
  Si  Si13  1  0.345624  0.178103  0.999792  1
  Si  Si14  1  0.828308  0.171692  0.500283  1
  Si  Si15  1  0.827150  0.656289  0.500237  1
  Si  Si16  1  0.343711  0.172850  0.500237  1
  Si  Si17  1  0.171353  0.828647  0.499727  1
  Si  Si18  1  0.656319  0.827224  0.499727  1
  Si  Si19  1  0.172776  0.343681  0.499727  1
  Si  Si20  1  0.170184  0.829816  0.000246  1
  Si  Si21  1  0.657176  0.824758  0.000323  1
  Si  Si22  1  0.175242  0.342824  0.000323  1
  Au  Au23  1  0.827648  0.172352  0.999598  1
