# generated using pymatgen
data_Sm2Th2(Ga8Pt3)3
_symmetry_space_group_name_H-M   'P 1'
_cell_length_a   7.64360244
_cell_length_b   7.65663134
_cell_length_c   13.36795435
_cell_angle_alpha   84.47859090
_cell_angle_beta   78.96455697
_cell_angle_gamma   59.98897650
_symmetry_Int_Tables_number   1
_chemical_formula_structural   Sm2Th2(Ga8Pt3)3
_chemical_formula_sum   'Sm2 Th2 Ga24 Pt9'
_cell_volume   664.93219416
_cell_formula_units_Z   1
loop_
 _symmetry_equiv_pos_site_id
 _symmetry_equiv_pos_as_xyz
  1  'x, y, z'
loop_
 _atom_site_type_symbol
 _atom_site_label
 _atom_site_symmetry_multiplicity
 _atom_site_fract_x
 _atom_site_fract_y
 _atom_site_fract_z
 _atom_site_occupancy
  Sm  Sm0  1  0.732569  0.498357  0.809501  1
  Sm  Sm1  1  0.267431  0.501643  0.190499  1
  Th  Th2  1  0.396165  0.167896  0.807943  1
  Th  Th3  1  0.603835  0.832104  0.192057  1
  Ga  Ga4  1  0.688809  0.830700  0.939232  1
  Ga  Ga5  1  0.311191  0.169300  0.060768  1
  Ga  Ga6  1  0.145322  0.833812  0.560257  1
  Ga  Ga7  1  0.854678  0.166188  0.439743  1
  Ga  Ga8  1  0.480805  0.167508  0.556288  1
  Ga  Ga9  1  0.519195  0.832492  0.443712  1
  Ga  Ga10  1  0.215835  0.169520  0.329593  1
  Ga  Ga11  1  0.784165  0.830480  0.670407  1
  Ga  Ga12  1  0.439507  0.507420  0.671008  1
  Ga  Ga13  1  0.560493  0.492580  0.328992  1
  Ga  Ga14  1  0.106270  0.162692  0.669178  1
  Ga  Ga15  1  0.893730  0.837308  0.330822  1
  Ga  Ga16  1  0.354606  0.501493  0.941099  1
  Ga  Ga17  1  0.645394  0.498507  0.058901  1
  Ga  Ga18  1  0.015900  0.168096  0.945867  1
  Ga  Ga19  1  0.984100  0.831904  0.054133  1
  Ga  Ga20  1  0.186116  0.499988  0.442249  1
  Ga  Ga21  1  0.813884  0.500012  0.557751  1
  Ga  Ga22  1  0.735419  0.166251  0.182523  1
  Ga  Ga23  1  0.264581  0.833749  0.817477  1
  Ga  Ga24  1  0.060169  0.634347  0.816097  1
  Ga  Ga25  1  0.939831  0.365653  0.183903  1
  Ga  Ga26  1  0.862081  0.039275  0.816168  1
  Ga  Ga27  1  0.137919  0.960725  0.183833  1
  Pt  Pt28  1  0.122075  0.493832  0.638594  1
  Pt  Pt29  1  0.877925  0.506168  0.361406  1
  Pt  Pt30  1  0.658890  0.168144  0.999117  1
  Pt  Pt31  1  0.341110  0.831856  0.000883  1
  Pt  Pt32  1  0.541630  0.164298  0.360844  1
  Pt  Pt33  1  0.458370  0.835702  0.639156  1
  Pt  Pt34  1  0.780384  0.171485  0.637482  1
  Pt  Pt35  1  0.219616  0.828515  0.362518  1
  Pt  Pt36  1  0.000000  0.500000  0.000000  1
