# generated using pymatgen
data_CsRbTb2Sm4(CBr6)2
_symmetry_space_group_name_H-M   'P 1'
_cell_length_a   8.95226672
_cell_length_b   8.98740270
_cell_length_c   9.55362400
_cell_angle_alpha   70.92839387
_cell_angle_beta   84.95084654
_cell_angle_gamma   89.22342213
_symmetry_Int_Tables_number   1
_chemical_formula_structural   CsRbTb2Sm4(CBr6)2
_chemical_formula_sum   'Cs1 Rb1 Tb2 Sm4 C2 Br12'
_cell_volume   723.55739005
_cell_formula_units_Z   1
loop_
 _symmetry_equiv_pos_site_id
 _symmetry_equiv_pos_as_xyz
  1  'x, y, z'
loop_
 _atom_site_type_symbol
 _atom_site_label
 _atom_site_symmetry_multiplicity
 _atom_site_fract_x
 _atom_site_fract_y
 _atom_site_fract_z
 _atom_site_occupancy
  Cs  Cs0  1  0.530635  0.640827  0.666495  1
  Rb  Rb1  1  0.469015  0.346844  0.332825  1
  Tb  Tb2  1  0.973436  0.886867  0.323370  1
  Tb  Tb3  1  0.026283  0.114163  0.676392  1
  Sm  Sm4  1  0.915954  0.740662  0.004556  1
  Sm  Sm5  1  0.083806  0.259939  0.995642  1
  Sm  Sm6  1  0.739060  0.086368  0.000351  1
  Sm  Sm7  1  0.260803  0.914633  0.999024  1
  C  C8  1  0.006231  0.026997  0.921516  1
  C  C9  1  0.993474  0.973627  0.078341  1
  Br  Br10  1  0.080448  0.192593  0.330518  1
  Br  Br11  1  0.923773  0.808053  0.669179  1
  Br  Br12  1  0.208339  0.591885  0.000900  1
  Br  Br13  1  0.791366  0.408298  0.001179  1
  Br  Br14  1  0.404639  0.204565  0.004473  1
  Br  Br15  1  0.595096  0.795798  0.998084  1
  Br  Br16  1  0.669488  0.002646  0.328747  1
  Br  Br17  1  0.331313  0.005668  0.669538  1
  Br  Br18  1  0.276242  0.772884  0.325499  1
  Br  Br19  1  0.722627  0.225641  0.673220  1
  Br  Br20  1  0.849657  0.592706  0.329468  1
  Br  Br21  1  0.148312  0.408336  0.670684  1
