# generated using pymatgen
data_YbPr3In4
_symmetry_space_group_name_H-M   'P 1'
_cell_length_a   6.76650359
_cell_length_b   6.76650414
_cell_length_c   10.40477300
_cell_angle_alpha   90.00000000
_cell_angle_beta   90.00000000
_cell_angle_gamma   100.34698537
_symmetry_Int_Tables_number   1
_chemical_formula_structural   YbPr3In4
_chemical_formula_sum   'Yb2 Pr6 In8'
_cell_volume   468.64151872
_cell_formula_units_Z   2
loop_
 _symmetry_equiv_pos_site_id
 _symmetry_equiv_pos_as_xyz
  1  'x, y, z'
loop_
 _atom_site_type_symbol
 _atom_site_label
 _atom_site_symmetry_multiplicity
 _atom_site_fract_x
 _atom_site_fract_y
 _atom_site_fract_z
 _atom_site_occupancy
  Yb  Yb0  1  0.973124  0.973124  0.250000  1
  Yb  Yb1  1  0.026876  0.026876  0.750000  1
  Pr  Pr2  1  0.547035  0.547035  0.250000  1
  Pr  Pr3  1  0.452965  0.452965  0.750000  1
  Pr  Pr4  1  0.243190  0.756810  0.500000  1
  Pr  Pr5  1  0.243190  0.756810  0.000000  1
  Pr  Pr6  1  0.756810  0.243190  0.500000  1
  Pr  Pr7  1  0.756810  0.243190  0.000000  1
  In  In8  1  0.251317  0.251317  0.027803  1
  In  In9  1  0.748683  0.748683  0.972197  1
  In  In10  1  0.251317  0.251317  0.472197  1
  In  In11  1  0.748683  0.748683  0.527803  1
  In  In12  1  0.474769  0.030675  0.250000  1
  In  In13  1  0.969325  0.525231  0.750000  1
  In  In14  1  0.525231  0.969325  0.750000  1
  In  In15  1  0.030675  0.474769  0.250000  1
