# generated using pymatgen
data_V3ReP4
_symmetry_space_group_name_H-M   'P 1'
_cell_length_a   3.16791000
_cell_length_b   5.52077394
_cell_length_c   6.17552726
_cell_angle_alpha   89.93254823
_cell_angle_beta   90.00000000
_cell_angle_gamma   90.00000000
_symmetry_Int_Tables_number   1
_chemical_formula_structural   V3ReP4
_chemical_formula_sum   'V3 Re1 P4'
_cell_volume   108.00566642
_cell_formula_units_Z   1
loop_
 _symmetry_equiv_pos_site_id
 _symmetry_equiv_pos_as_xyz
  1  'x, y, z'
loop_
 _atom_site_type_symbol
 _atom_site_label
 _atom_site_symmetry_multiplicity
 _atom_site_fract_x
 _atom_site_fract_y
 _atom_site_fract_z
 _atom_site_occupancy
  V  V0  1  0.500000  0.007826  0.189430  1
  V  V1  1  0.000000  0.494014  0.691824  1
  V  V2  1  0.000000  0.992331  0.809721  1
  Re  Re3  1  0.500000  0.507440  0.311804  1
  P  P4  1  0.500000  0.688964  0.933764  1
  P  P5  1  0.500000  0.182172  0.567578  1
  P  P6  1  0.000000  0.309356  0.060308  1
  P  P7  1  0.000000  0.817898  0.435571  1
