# generated using pymatgen
data_La8Tb3Nd9Si16
_symmetry_space_group_name_H-M   'P 1'
_cell_length_a   7.89233273
_cell_length_b   7.89233273
_cell_length_c   15.27626282
_cell_angle_alpha   89.95080046
_cell_angle_beta   90.04919954
_cell_angle_gamma   89.99906681
_symmetry_Int_Tables_number   1
_chemical_formula_structural   La8Tb3Nd9Si16
_chemical_formula_sum   'La8 Tb3 Nd9 Si16'
_cell_volume   951.54114782
_cell_formula_units_Z   1
loop_
 _symmetry_equiv_pos_site_id
 _symmetry_equiv_pos_as_xyz
  1  'x, y, z'
loop_
 _atom_site_type_symbol
 _atom_site_label
 _atom_site_symmetry_multiplicity
 _atom_site_fract_x
 _atom_site_fract_y
 _atom_site_fract_z
 _atom_site_occupancy
  La  La0  1  0.987240  0.623610  0.052496  1
  La  La1  1  0.013336  0.376363  0.552406  1
  La  La2  1  0.623610  0.987240  0.947504  1
  La  La3  1  0.123483  0.513858  0.801973  1
  La  La4  1  0.876104  0.486518  0.302720  1
  La  La5  1  0.513858  0.123483  0.198027  1
  La  La6  1  0.486518  0.876104  0.697280  1
  La  La7  1  0.376363  0.013336  0.447594  1
  Tb  Tb8  1  0.689541  0.689541  0.500000  1
  Tb  Tb9  1  0.809733  0.189534  0.749832  1
  Tb  Tb10  1  0.189534  0.809733  0.250168  1
  Nd  Nd11  1  0.372779  0.480441  0.373036  1
  Nd  Nd12  1  0.872772  0.019732  0.377676  1
  Nd  Nd13  1  0.980475  0.127218  0.122997  1
  Nd  Nd14  1  0.019732  0.872772  0.622324  1
  Nd  Nd15  1  0.626731  0.519921  0.872009  1
  Nd  Nd16  1  0.480441  0.372779  0.626964  1
  Nd  Nd17  1  0.519921  0.626731  0.127991  1
  Nd  Nd18  1  0.127218  0.980475  0.877003  1
  Nd  Nd19  1  0.308496  0.308496  0.000000  1
  Si  Si20  1  0.078066  0.714283  0.437411  1
  Si  Si21  1  0.919145  0.285149  0.936677  1
  Si  Si22  1  0.714283  0.078066  0.562589  1
  Si  Si23  1  0.213292  0.423626  0.189825  1
  Si  Si24  1  0.785939  0.578562  0.687131  1
  Si  Si25  1  0.423626  0.213292  0.810175  1
  Si  Si26  1  0.578562  0.785939  0.312869  1
  Si  Si27  1  0.285149  0.919145  0.063323  1
  Si  Si28  1  0.830281  0.808827  0.794586  1
  Si  Si29  1  0.169806  0.191337  0.295499  1
  Si  Si30  1  0.808827  0.830281  0.205414  1
  Si  Si31  1  0.308477  0.670047  0.544609  1
  Si  Si32  1  0.694013  0.331268  0.045315  1
  Si  Si33  1  0.670047  0.308477  0.455391  1
  Si  Si34  1  0.331268  0.694013  0.954685  1
  Si  Si35  1  0.191337  0.169806  0.704501  1
