# generated using pymatgen
data_Er5Tm15(Cd3Re)2
_symmetry_space_group_name_H-M   'P 1'
_cell_length_a   9.44152300
_cell_length_b   9.44152326
_cell_length_c   9.90396700
_cell_angle_alpha   90.00000000
_cell_angle_beta   90.00000000
_cell_angle_gamma   119.99427079
_symmetry_Int_Tables_number   1
_chemical_formula_structural   Er5Tm15(Cd3Re)2
_chemical_formula_sum   'Er5 Tm15 Cd6 Re2'
_cell_volume   764.62590708
_cell_formula_units_Z   1
loop_
 _symmetry_equiv_pos_site_id
 _symmetry_equiv_pos_as_xyz
  1  'x, y, z'
loop_
 _atom_site_type_symbol
 _atom_site_label
 _atom_site_symmetry_multiplicity
 _atom_site_fract_x
 _atom_site_fract_y
 _atom_site_fract_z
 _atom_site_occupancy
  Er  Er0  1  0.537541  0.075701  0.250000  1
  Er  Er1  1  0.924299  0.462459  0.250000  1
  Er  Er2  1  0.462416  0.537584  0.750000  1
  Er  Er3  1  0.462860  0.926266  0.750000  1
  Er  Er4  1  0.073734  0.537140  0.750000  1
  Tm  Tm5  1  0.000243  0.999757  0.499838  1
  Tm  Tm6  1  0.000243  0.999757  0.000162  1
  Tm  Tm7  1  0.210353  0.789647  0.442967  1
  Tm  Tm8  1  0.210367  0.419651  0.443173  1
  Tm  Tm9  1  0.580349  0.789633  0.443173  1
  Tm  Tm10  1  0.790017  0.209983  0.556204  1
  Tm  Tm11  1  0.789139  0.579540  0.556258  1
  Tm  Tm12  1  0.420460  0.210861  0.556258  1
  Tm  Tm13  1  0.790017  0.209983  0.943796  1
  Tm  Tm14  1  0.789139  0.579540  0.943742  1
  Tm  Tm15  1  0.420460  0.210861  0.943742  1
  Tm  Tm16  1  0.210353  0.789647  0.057033  1
  Tm  Tm17  1  0.210367  0.419651  0.056827  1
  Tm  Tm18  1  0.580349  0.789633  0.056827  1
  Tm  Tm19  1  0.536064  0.463936  0.250000  1
  Cd  Cd20  1  0.886587  0.113413  0.250000  1
  Cd  Cd21  1  0.885830  0.772537  0.250000  1
  Cd  Cd22  1  0.227463  0.114170  0.250000  1
  Cd  Cd23  1  0.113387  0.886613  0.750000  1
  Cd  Cd24  1  0.113431  0.226544  0.750000  1
  Cd  Cd25  1  0.773456  0.886569  0.750000  1
  Re  Re26  1  0.334266  0.665734  0.250000  1
  Re  Re27  1  0.666809  0.333191  0.750000  1
