# generated using pymatgen
data_NdEr2Co8P6Ru
_symmetry_space_group_name_H-M   'P 1'
_cell_length_a   3.72391700
_cell_length_b   10.56491200
_cell_length_c   12.30955500
_cell_angle_alpha   90.00000000
_cell_angle_beta   90.00000000
_cell_angle_gamma   90.00000000
_symmetry_Int_Tables_number   1
_chemical_formula_structural   NdEr2Co8P6Ru
_chemical_formula_sum   'Nd2 Er4 Co16 P12 Ru2'
_cell_volume   484.29304241
_cell_formula_units_Z   2
loop_
 _symmetry_equiv_pos_site_id
 _symmetry_equiv_pos_as_xyz
  1  'x, y, z'
loop_
 _atom_site_type_symbol
 _atom_site_label
 _atom_site_symmetry_multiplicity
 _atom_site_fract_x
 _atom_site_fract_y
 _atom_site_fract_z
 _atom_site_occupancy
  Nd  Nd0  1  0.000000  0.500000  0.525090  1
  Nd  Nd1  1  0.500000  0.000000  0.474910  1
  Er  Er2  1  0.500000  0.817381  0.205598  1
  Er  Er3  1  0.500000  0.182619  0.205598  1
  Er  Er4  1  0.000000  0.682619  0.794402  1
  Er  Er5  1  0.000000  0.317381  0.794402  1
  Co  Co6  1  0.500000  0.500000  0.707488  1
  Co  Co7  1  0.000000  0.000000  0.292512  1
  Co  Co8  1  0.000000  0.500000  0.986615  1
  Co  Co9  1  0.500000  0.000000  0.013385  1
  Co  Co10  1  0.500000  0.332261  0.990650  1
  Co  Co11  1  0.500000  0.667739  0.990650  1
  Co  Co12  1  0.000000  0.167739  0.009350  1
  Co  Co13  1  0.000000  0.832261  0.009350  1
  Co  Co14  1  0.500000  0.296673  0.429366  1
  Co  Co15  1  0.500000  0.703327  0.429366  1
  Co  Co16  1  0.000000  0.203327  0.570634  1
  Co  Co17  1  0.000000  0.796673  0.570634  1
  Co  Co18  1  0.500000  0.878888  0.710700  1
  Co  Co19  1  0.500000  0.121112  0.710700  1
  Co  Co20  1  0.000000  0.621112  0.289300  1
  Co  Co21  1  0.000000  0.378888  0.289300  1
  P  P22  1  0.500000  0.500000  0.883150  1
  P  P23  1  0.000000  0.000000  0.116850  1
  P  P24  1  0.500000  0.500000  0.346106  1
  P  P25  1  0.000000  0.000000  0.653894  1
  P  P26  1  0.500000  0.308457  0.618420  1
  P  P27  1  0.500000  0.691543  0.618420  1
  P  P28  1  0.000000  0.191543  0.381580  1
  P  P29  1  0.000000  0.808457  0.381580  1
  P  P30  1  0.500000  0.845767  0.893817  1
  P  P31  1  0.500000  0.154233  0.893817  1
  P  P32  1  0.000000  0.654233  0.106183  1
  P  P33  1  0.000000  0.345767  0.106183  1
  Ru  Ru34  1  0.500000  0.500000  0.157185  1
  Ru  Ru35  1  0.000000  0.000000  0.842815  1
