# generated using pymatgen
data_Ce2Ni7As7Ru5
_symmetry_space_group_name_H-M   'P 1'
_cell_length_a   9.77052182
_cell_length_b   9.70437374
_cell_length_c   3.84407400
_cell_angle_alpha   90.00000000
_cell_angle_beta   90.00000000
_cell_angle_gamma   119.86986960
_symmetry_Int_Tables_number   1
_chemical_formula_structural   Ce2Ni7As7Ru5
_chemical_formula_sum   'Ce2 Ni7 As7 Ru5'
_cell_volume   316.06443768
_cell_formula_units_Z   1
loop_
 _symmetry_equiv_pos_site_id
 _symmetry_equiv_pos_as_xyz
  1  'x, y, z'
loop_
 _atom_site_type_symbol
 _atom_site_label
 _atom_site_symmetry_multiplicity
 _atom_site_fract_x
 _atom_site_fract_y
 _atom_site_fract_z
 _atom_site_occupancy
  Ce  Ce0  1  0.997046  0.000102  0.000000  1
  Ce  Ce1  1  0.337090  0.669442  0.500000  1
  Ni  Ni2  1  0.821543  0.220787  0.000000  1
  Ni  Ni3  1  0.782634  0.602067  0.000000  1
  Ni  Ni4  1  0.396491  0.177267  0.000000  1
  Ni  Ni5  1  0.233865  0.953140  0.500000  1
  Ni  Ni6  1  0.879373  0.458527  0.500000  1
  Ni  Ni7  1  0.539888  0.426195  0.500000  1
  Ni  Ni8  1  0.567878  0.106962  0.500000  1
  As  As9  1  0.073682  0.448939  0.000000  1
  As  As10  1  0.554012  0.622728  0.000000  1
  As  As11  1  0.375479  0.931908  0.000000  1
  As  As12  1  0.778295  0.047917  0.500000  1
  As  As13  1  0.958260  0.735676  0.500000  1
  As  As14  1  0.263908  0.214412  0.500000  1
  As  As15  1  0.664569  0.332090  0.000000  1
  Ru  Ru16  1  0.101296  0.712012  0.000000  1
  Ru  Ru17  1  0.295296  0.388325  0.000000  1
  Ru  Ru18  1  0.606678  0.901807  0.000000  1
  Ru  Ru19  1  0.046489  0.279663  0.500000  1
  Ru  Ru20  1  0.726230  0.770033  0.500000  1
