# generated using pymatgen
data_Ho2Fe3Ni6Mo3P7
_symmetry_space_group_name_H-M   'P 1'
_cell_length_a   9.12340300
_cell_length_b   9.12340259
_cell_length_c   3.72863900
_cell_angle_alpha   90.00000000
_cell_angle_beta   90.00000000
_cell_angle_gamma   120.00000513
_symmetry_Int_Tables_number   1
_chemical_formula_structural   Ho2Fe3Ni6Mo3P7
_chemical_formula_sum   'Ho2 Fe3 Ni6 Mo3 P7'
_cell_volume   268.77857391
_cell_formula_units_Z   1
loop_
 _symmetry_equiv_pos_site_id
 _symmetry_equiv_pos_as_xyz
  1  'x, y, z'
loop_
 _atom_site_type_symbol
 _atom_site_label
 _atom_site_symmetry_multiplicity
 _atom_site_fract_x
 _atom_site_fract_y
 _atom_site_fract_z
 _atom_site_occupancy
  Ho  Ho0  1  0.000000  0.000000  0.000000  1
  Ho  Ho1  1  0.333333  0.666667  0.500000  1
  Fe  Fe2  1  0.790778  0.176799  0.000000  1
  Fe  Fe3  1  0.386021  0.209222  0.000000  1
  Fe  Fe4  1  0.823201  0.613979  0.000000  1
  Ni  Ni5  1  0.297037  0.899186  0.000000  1
  Ni  Ni6  1  0.602149  0.702963  0.000000  1
  Ni  Ni7  1  0.100814  0.397851  0.000000  1
  Ni  Ni8  1  0.721417  0.944648  0.500000  1
  Ni  Ni9  1  0.223231  0.278583  0.500000  1
  Ni  Ni10  1  0.055352  0.776769  0.500000  1
  Mo  Mo11  1  0.547680  0.112507  0.500000  1
  Mo  Mo12  1  0.564827  0.452320  0.500000  1
  Mo  Mo13  1  0.887493  0.435173  0.500000  1
  P  P14  1  0.557030  0.923561  0.000000  1
  P  P15  1  0.366531  0.442970  0.000000  1
  P  P16  1  0.076439  0.633469  0.000000  1
  P  P17  1  0.950022  0.211547  0.500000  1
  P  P18  1  0.261527  0.049978  0.500000  1
  P  P19  1  0.788453  0.738473  0.500000  1
  P  P20  1  0.666667  0.333333  0.000000  1
