# generated using pymatgen
data_Pa4HgBiPt4
_symmetry_space_group_name_H-M   'P 1'
_cell_length_a   7.82666100
_cell_length_b   7.82666100
_cell_length_c   3.74089600
_cell_angle_alpha   90.00000000
_cell_angle_beta   90.00000000
_cell_angle_gamma   90.00000000
_symmetry_Int_Tables_number   1
_chemical_formula_structural   Pa4HgBiPt4
_chemical_formula_sum   'Pa4 Hg1 Bi1 Pt4'
_cell_volume   229.15465374
_cell_formula_units_Z   1
loop_
 _symmetry_equiv_pos_site_id
 _symmetry_equiv_pos_as_xyz
  1  'x, y, z'
loop_
 _atom_site_type_symbol
 _atom_site_label
 _atom_site_symmetry_multiplicity
 _atom_site_fract_x
 _atom_site_fract_y
 _atom_site_fract_z
 _atom_site_occupancy
  Pa  Pa0  1  0.330908  0.176025  0.500000  1
  Pa  Pa1  1  0.823975  0.330908  0.500000  1
  Pa  Pa2  1  0.176025  0.669092  0.500000  1
  Pa  Pa3  1  0.669092  0.823975  0.500000  1
  Hg  Hg4  1  0.500000  0.500000  0.000000  1
  Bi  Bi5  1  0.000000  0.000000  0.000000  1
  Pt  Pt6  1  0.625394  0.131185  0.000000  1
  Pt  Pt7  1  0.131185  0.374606  0.000000  1
  Pt  Pt8  1  0.868815  0.625394  0.000000  1
  Pt  Pt9  1  0.374606  0.868815  0.000000  1
