# generated using pymatgen
data_CePu3Si8
_symmetry_space_group_name_H-M   'P 1'
_cell_length_a   4.00295700
_cell_length_b   4.02190600
_cell_length_c   14.17531300
_cell_angle_alpha   90.00000000
_cell_angle_beta   90.00000000
_cell_angle_gamma   90.00000000
_symmetry_Int_Tables_number   1
_chemical_formula_structural   CePu3Si8
_chemical_formula_sum   'Ce1 Pu3 Si8'
_cell_volume   228.21568945
_cell_formula_units_Z   1
loop_
 _symmetry_equiv_pos_site_id
 _symmetry_equiv_pos_as_xyz
  1  'x, y, z'
loop_
 _atom_site_type_symbol
 _atom_site_label
 _atom_site_symmetry_multiplicity
 _atom_site_fract_x
 _atom_site_fract_y
 _atom_site_fract_z
 _atom_site_occupancy
  Ce  Ce0  1  0.250000  0.000000  0.375234  1
  Pu  Pu1  1  0.750000  0.500000  0.875106  1
  Pu  Pu2  1  0.250000  0.500000  0.125892  1
  Pu  Pu3  1  0.750000  0.000000  0.623880  1
  Si  Si4  1  0.750000  0.500000  0.290638  1
  Si  Si5  1  0.250000  0.000000  0.792403  1
  Si  Si6  1  0.750000  0.000000  0.205846  1
  Si  Si7  1  0.250000  0.500000  0.708892  1
  Si  Si8  1  0.750000  0.500000  0.459203  1
  Si  Si9  1  0.250000  0.000000  0.957228  1
  Si  Si10  1  0.750000  0.000000  0.041226  1
  Si  Si11  1  0.250000  0.500000  0.544454  1
