# generated using pymatgen
data_Tm(PaRh2)5
_symmetry_space_group_name_H-M   'P 1'
_cell_length_a   5.83656593
_cell_length_b   5.83656626
_cell_length_c   9.18867544
_cell_angle_alpha   90.14261649
_cell_angle_beta   90.14261435
_cell_angle_gamma   105.15676092
_symmetry_Int_Tables_number   1
_chemical_formula_structural   Tm(PaRh2)5
_chemical_formula_sum   'Tm1 Pa5 Rh10'
_cell_volume   302.12574547
_cell_formula_units_Z   1
loop_
 _symmetry_equiv_pos_site_id
 _symmetry_equiv_pos_as_xyz
  1  'x, y, z'
loop_
 _atom_site_type_symbol
 _atom_site_label
 _atom_site_symmetry_multiplicity
 _atom_site_fract_x
 _atom_site_fract_y
 _atom_site_fract_z
 _atom_site_occupancy
  Tm  Tm0  1  0.794016  0.205984  0.500000  1
  Pa  Pa1  1  0.617191  0.612956  0.746173  1
  Pa  Pa2  1  0.387044  0.382809  0.253827  1
  Pa  Pa3  1  0.204960  0.795040  0.000000  1
  Pa  Pa4  1  0.193556  0.806444  0.500000  1
  Pa  Pa5  1  0.802204  0.197796  0.000000  1
  Rh  Rh6  1  0.690980  0.688833  0.047016  1
  Rh  Rh7  1  0.685071  0.689442  0.448210  1
  Rh  Rh8  1  0.311167  0.309020  0.952984  1
  Rh  Rh9  1  0.310558  0.314929  0.551790  1
  Rh  Rh10  1  0.501802  0.033863  0.754143  1
  Rh  Rh11  1  0.490173  0.956330  0.247592  1
  Rh  Rh12  1  0.990438  0.988964  0.248655  1
  Rh  Rh13  1  0.011036  0.009562  0.751345  1
  Rh  Rh14  1  0.043670  0.509827  0.752408  1
  Rh  Rh15  1  0.966137  0.498198  0.245857  1
