# generated using pymatgen
data_K3MoS4
_symmetry_space_group_name_H-M   'P 1'
_cell_length_a   9.32781700
_cell_length_b   9.55436800
_cell_length_c   10.70616200
_cell_angle_alpha   90.00000000
_cell_angle_beta   90.00000000
_cell_angle_gamma   90.00000000
_symmetry_Int_Tables_number   1
_chemical_formula_structural   K3MoS4
_chemical_formula_sum   'K12 Mo4 S16'
_cell_volume   954.14810597
_cell_formula_units_Z   4
loop_
 _symmetry_equiv_pos_site_id
 _symmetry_equiv_pos_as_xyz
  1  'x, y, z'
loop_
 _atom_site_type_symbol
 _atom_site_label
 _atom_site_symmetry_multiplicity
 _atom_site_fract_x
 _atom_site_fract_y
 _atom_site_fract_z
 _atom_site_occupancy
  K  K0  1  0.939449  0.705723  0.009353  1
  K  K1  1  0.060551  0.294277  0.509353  1
  K  K2  1  0.560551  0.205723  0.509353  1
  K  K3  1  0.439449  0.794277  0.009353  1
  K  K4  1  0.939006  0.709139  0.418783  1
  K  K5  1  0.060994  0.290861  0.918783  1
  K  K6  1  0.560994  0.209139  0.918783  1
  K  K7  1  0.439006  0.790861  0.418783  1
  K  K8  1  0.636253  0.424266  0.215362  1
  K  K9  1  0.363747  0.575734  0.715362  1
  K  K10  1  0.863747  0.924266  0.715362  1
  K  K11  1  0.136253  0.075734  0.215362  1
  Mo  Mo12  1  0.718026  0.984432  0.212409  1
  Mo  Mo13  1  0.281974  0.015568  0.712409  1
  Mo  Mo14  1  0.781974  0.484432  0.712409  1
  Mo  Mo15  1  0.218026  0.515568  0.212409  1
  S  S16  1  0.692043  0.750012  0.213431  1
  S  S17  1  0.307957  0.249988  0.713431  1
  S  S18  1  0.807957  0.250012  0.713431  1
  S  S19  1  0.192043  0.749988  0.213431  1
  S  S20  1  0.836603  0.044649  0.037990  1
  S  S21  1  0.163397  0.955351  0.537990  1
  S  S22  1  0.663397  0.544649  0.537990  1
  S  S23  1  0.336603  0.455351  0.037990  1
  S  S24  1  0.500008  0.086646  0.211651  1
  S  S25  1  0.499992  0.913354  0.711651  1
  S  S26  1  0.999992  0.586646  0.711651  1
  S  S27  1  0.000008  0.413354  0.211651  1
  S  S28  1  0.836152  0.046759  0.386421  1
  S  S29  1  0.163848  0.953241  0.886421  1
  S  S30  1  0.663848  0.546759  0.886421  1
  S  S31  1  0.336152  0.453241  0.386421  1
