# generated using pymatgen
data_Lu3Al7Si5Tc3
_symmetry_space_group_name_H-M   'P 1'
_cell_length_a   8.60770900
_cell_length_b   8.60770768
_cell_length_c   9.31043800
_cell_angle_alpha   90.00000000
_cell_angle_beta   90.00000000
_cell_angle_gamma   119.99999356
_symmetry_Int_Tables_number   1
_chemical_formula_structural   Lu3Al7Si5Tc3
_chemical_formula_sum   'Lu6 Al14 Si10 Tc6'
_cell_volume   597.41463629
_cell_formula_units_Z   2
loop_
 _symmetry_equiv_pos_site_id
 _symmetry_equiv_pos_as_xyz
  1  'x, y, z'
loop_
 _atom_site_type_symbol
 _atom_site_label
 _atom_site_symmetry_multiplicity
 _atom_site_fract_x
 _atom_site_fract_y
 _atom_site_fract_z
 _atom_site_occupancy
  Lu  Lu0  1  0.199141  0.800859  0.250000  1
  Lu  Lu1  1  0.199141  0.398282  0.250000  1
  Lu  Lu2  1  0.601718  0.800859  0.250000  1
  Lu  Lu3  1  0.800859  0.199141  0.750000  1
  Lu  Lu4  1  0.800859  0.601718  0.750000  1
  Lu  Lu5  1  0.398282  0.199141  0.750000  1
  Al  Al6  1  0.163846  0.836154  0.917362  1
  Al  Al7  1  0.163846  0.327692  0.917362  1
  Al  Al8  1  0.672308  0.836154  0.917362  1
  Al  Al9  1  0.836154  0.163846  0.082638  1
  Al  Al10  1  0.836154  0.672308  0.082638  1
  Al  Al11  1  0.327692  0.163846  0.082638  1
  Al  Al12  1  0.836154  0.163846  0.417362  1
  Al  Al13  1  0.836154  0.672308  0.417362  1
  Al  Al14  1  0.327692  0.163846  0.417362  1
  Al  Al15  1  0.163846  0.836154  0.582638  1
  Al  Al16  1  0.163846  0.327692  0.582638  1
  Al  Al17  1  0.672308  0.836154  0.582638  1
  Al  Al18  1  0.000000  0.000000  0.250000  1
  Al  Al19  1  0.000000  0.000000  0.750000  1
  Si  Si20  1  0.564691  0.435309  0.250000  1
  Si  Si21  1  0.564691  0.129384  0.250000  1
  Si  Si22  1  0.870616  0.435309  0.250000  1
  Si  Si23  1  0.435309  0.564691  0.750000  1
  Si  Si24  1  0.435309  0.870616  0.750000  1
  Si  Si25  1  0.129384  0.564691  0.750000  1
  Si  Si26  1  0.333333  0.666667  0.457801  1
  Si  Si27  1  0.666667  0.333333  0.542199  1
  Si  Si28  1  0.666667  0.333333  0.957801  1
  Si  Si29  1  0.333333  0.666667  0.042199  1
  Tc  Tc30  1  0.500000  0.500000  0.500000  1
  Tc  Tc31  1  0.500000  0.000000  0.500000  1
  Tc  Tc32  1  0.000000  0.500000  0.500000  1
  Tc  Tc33  1  0.500000  0.500000  0.000000  1
  Tc  Tc34  1  0.500000  0.000000  0.000000  1
  Tc  Tc35  1  0.000000  0.500000  0.000000  1
