# generated using pymatgen
data_Y10IrOs2Rh
_symmetry_space_group_name_H-M   'P 1'
_cell_length_a   6.46237994
_cell_length_b   7.33120830
_cell_length_c   8.51104510
_cell_angle_alpha   96.42321833
_cell_angle_beta   112.25666517
_cell_angle_gamma   90.07033170
_symmetry_Int_Tables_number   1
_chemical_formula_structural   Y10IrOs2Rh
_chemical_formula_sum   'Y10 Ir1 Os2 Rh1'
_cell_volume   370.42673233
_cell_formula_units_Z   1
loop_
 _symmetry_equiv_pos_site_id
 _symmetry_equiv_pos_as_xyz
  1  'x, y, z'
loop_
 _atom_site_type_symbol
 _atom_site_label
 _atom_site_symmetry_multiplicity
 _atom_site_fract_x
 _atom_site_fract_y
 _atom_site_fract_z
 _atom_site_occupancy
  Y  Y0  1  0.972196  0.914771  0.180000  1
  Y  Y1  1  0.791381  0.585938  0.820057  1
  Y  Y2  1  0.024147  0.081879  0.816397  1
  Y  Y3  1  0.208318  0.417394  0.185089  1
  Y  Y4  1  0.653829  0.818624  0.439868  1
  Y  Y5  1  0.213471  0.682266  0.559787  1
  Y  Y6  1  0.350443  0.177889  0.561170  1
  Y  Y7  1  0.784948  0.320347  0.436279  1
  Y  Y8  1  0.426736  0.751524  0.000569  1
  Y  Y9  1  0.576751  0.249289  0.000749  1
  Ir  Ir10  1  0.393976  0.076917  0.220637  1
  Os  Os11  1  0.824783  0.574303  0.218578  1
  Os  Os12  1  0.606364  0.925092  0.781695  1
  Rh  Rh13  1  0.172659  0.423768  0.779125  1
