# generated using pymatgen
data_Ti7Nb(SbAs2)2
_symmetry_space_group_name_H-M   'P 1'
_cell_length_a   7.54876691
_cell_length_b   7.54876604
_cell_length_c   19.34794600
_cell_angle_alpha   90.00000000
_cell_angle_beta   90.00000000
_cell_angle_gamma   152.75797037
_symmetry_Int_Tables_number   1
_chemical_formula_structural   Ti7Nb(SbAs2)2
_chemical_formula_sum   'Ti14 Nb2 Sb4 As8'
_cell_volume   504.67922567
_cell_formula_units_Z   2
loop_
 _symmetry_equiv_pos_site_id
 _symmetry_equiv_pos_as_xyz
  1  'x, y, z'
loop_
 _atom_site_type_symbol
 _atom_site_label
 _atom_site_symmetry_multiplicity
 _atom_site_fract_x
 _atom_site_fract_y
 _atom_site_fract_z
 _atom_site_occupancy
  Ti  Ti0  1  0.734634  0.265366  0.148173  1
  Ti  Ti1  1  0.265366  0.734634  0.851827  1
  Ti  Ti2  1  0.265366  0.734634  0.648173  1
  Ti  Ti3  1  0.734634  0.265366  0.351827  1
  Ti  Ti4  1  0.533922  0.466078  0.111477  1
  Ti  Ti5  1  0.466078  0.533922  0.888523  1
  Ti  Ti6  1  0.466078  0.533922  0.611477  1
  Ti  Ti7  1  0.533922  0.466078  0.388523  1
  Ti  Ti8  1  0.665270  0.334730  0.971462  1
  Ti  Ti9  1  0.334730  0.665270  0.028538  1
  Ti  Ti10  1  0.334730  0.665270  0.471462  1
  Ti  Ti11  1  0.665270  0.334730  0.528538  1
  Ti  Ti12  1  0.061847  0.938153  0.750000  1
  Ti  Ti13  1  0.938153  0.061847  0.250000  1
  Nb  Nb14  1  0.000000  0.000000  0.000000  1
  Nb  Nb15  1  0.000000  0.000000  0.500000  1
  Sb  Sb16  1  0.704706  0.295294  0.750000  1
  Sb  Sb17  1  0.295294  0.704706  0.250000  1
  Sb  Sb18  1  0.412169  0.587831  0.750000  1
  Sb  Sb19  1  0.587831  0.412169  0.250000  1
  As  As20  1  0.902043  0.097957  0.117385  1
  As  As21  1  0.097957  0.902043  0.882615  1
  As  As22  1  0.097957  0.902043  0.617385  1
  As  As23  1  0.902043  0.097957  0.382615  1
  As  As24  1  0.840250  0.159750  0.928971  1
  As  As25  1  0.159750  0.840250  0.071029  1
  As  As26  1  0.159750  0.840250  0.428971  1
  As  As27  1  0.840250  0.159750  0.571029  1
