# generated using pymatgen
data_DyLu2In3Ag2Rh
_symmetry_space_group_name_H-M   'P 1'
_cell_length_a   8.01468783
_cell_length_b   8.02434052
_cell_length_c   3.62104700
_cell_angle_alpha   90.00000000
_cell_angle_beta   90.00000000
_cell_angle_gamma   120.17910597
_symmetry_Int_Tables_number   1
_chemical_formula_structural   DyLu2In3Ag2Rh
_chemical_formula_sum   'Dy1 Lu2 In3 Ag2 Rh1'
_cell_volume   201.31406174
_cell_formula_units_Z   1
loop_
 _symmetry_equiv_pos_site_id
 _symmetry_equiv_pos_as_xyz
  1  'x, y, z'
loop_
 _atom_site_type_symbol
 _atom_site_label
 _atom_site_symmetry_multiplicity
 _atom_site_fract_x
 _atom_site_fract_y
 _atom_site_fract_z
 _atom_site_occupancy
  Dy  Dy0  1  0.381721  0.416583  0.500000  1
  Lu  Lu1  1  0.038542  0.620469  0.500000  1
  Lu  Lu2  1  0.581246  0.961488  0.500000  1
  In  In3  1  0.985795  0.270146  0.000000  1
  In  In4  1  0.283442  0.011571  0.000000  1
  In  In5  1  0.730493  0.717355  0.000000  1
  Ag  Ag6  1  0.999151  0.999162  0.500000  1
  Ag  Ag7  1  0.668356  0.332763  0.000000  1
  Rh  Rh8  1  0.331255  0.670463  0.000000  1
