# generated using pymatgen
data_Nd4Al18Ni2Ir3Rh
_symmetry_space_group_name_H-M   'P 1'
_cell_length_a   7.58428900
_cell_length_b   7.58428923
_cell_length_c   9.54140900
_cell_angle_alpha   89.99930555
_cell_angle_beta   89.99931777
_cell_angle_gamma   119.68760187
_symmetry_Int_Tables_number   1
_chemical_formula_structural   Nd4Al18Ni2Ir3Rh
_chemical_formula_sum   'Nd4 Al18 Ni2 Ir3 Rh1'
_cell_volume   476.79472724
_cell_formula_units_Z   1
loop_
 _symmetry_equiv_pos_site_id
 _symmetry_equiv_pos_as_xyz
  1  'x, y, z'
loop_
 _atom_site_type_symbol
 _atom_site_label
 _atom_site_symmetry_multiplicity
 _atom_site_fract_x
 _atom_site_fract_y
 _atom_site_fract_z
 _atom_site_occupancy
  Nd  Nd0  1  0.994554  0.668242  0.250016  1
  Nd  Nd1  1  0.005445  0.331798  0.749968  1
  Nd  Nd2  1  0.668202  0.994555  0.250032  1
  Nd  Nd3  1  0.331758  0.005446  0.749984  1
  Al  Al4  1  0.125477  0.125459  0.250011  1
  Al  Al5  1  0.874541  0.874523  0.749989  1
  Al  Al6  1  0.001777  0.332260  0.072774  1
  Al  Al7  1  0.998165  0.667719  0.927218  1
  Al  Al8  1  0.998174  0.667719  0.572784  1
  Al  Al9  1  0.332281  0.001826  0.427216  1
  Al  Al10  1  0.001793  0.332267  0.427222  1
  Al  Al11  1  0.667733  0.998207  0.572778  1
  Al  Al12  1  0.667740  0.998223  0.927226  1
  Al  Al13  1  0.332281  0.001835  0.072782  1
  Al  Al14  1  0.332773  0.332762  0.547668  1
  Al  Al15  1  0.667238  0.667227  0.452332  1
  Al  Al16  1  0.667241  0.667209  0.047685  1
  Al  Al17  1  0.332791  0.332759  0.952315  1
  Al  Al18  1  0.338240  0.544495  0.249990  1
  Al  Al19  1  0.661787  0.455474  0.750037  1
  Al  Al20  1  0.544526  0.338213  0.249963  1
  Al  Al21  1  0.455505  0.661760  0.750010  1
  Ni  Ni22  1  0.000007  0.999993  0.000000  1
  Ni  Ni23  1  0.999999  0.000001  0.500000  1
  Ir  Ir24  1  0.328681  0.671319  0.000000  1
  Ir  Ir25  1  0.328671  0.671329  0.500000  1
  Ir  Ir26  1  0.671319  0.328681  0.500000  1
  Rh  Rh27  1  0.671299  0.328701  0.000000  1
