# generated using pymatgen
data_ErVPH
_symmetry_space_group_name_H-M   'P 1'
_cell_length_a   3.67017500
_cell_length_b   3.67657600
_cell_length_c   16.40116100
_cell_angle_alpha   90.00146956
_cell_angle_beta   90.00000000
_cell_angle_gamma   90.00000000
_symmetry_Int_Tables_number   1
_chemical_formula_structural   ErVPH
_chemical_formula_sum   'Er4 V4 P4 H4'
_cell_volume   221.31197418
_cell_formula_units_Z   4
loop_
 _symmetry_equiv_pos_site_id
 _symmetry_equiv_pos_as_xyz
  1  'x, y, z'
loop_
 _atom_site_type_symbol
 _atom_site_label
 _atom_site_symmetry_multiplicity
 _atom_site_fract_x
 _atom_site_fract_y
 _atom_site_fract_z
 _atom_site_occupancy
  Er  Er0  1  0.250000  0.743142  0.418349  1
  Er  Er1  1  0.250000  0.756841  0.918352  1
  Er  Er2  1  0.750000  0.256858  0.581651  1
  Er  Er3  1  0.750000  0.243159  0.081648  1
  V  V4  1  0.250000  0.239355  0.249929  1
  V  V5  1  0.750000  0.760645  0.750071  1
  V  V6  1  0.250000  0.260604  0.749929  1
  V  V7  1  0.750000  0.739396  0.250071  1
  P  P8  1  0.250000  0.740630  0.152113  1
  P  P9  1  0.750000  0.240612  0.347887  1
  P  P10  1  0.750000  0.259370  0.847887  1
  P  P11  1  0.250000  0.759388  0.652113  1
  H  H12  1  0.750000  0.752025  0.500009  1
  H  H13  1  0.750000  0.747977  0.000010  1
  H  H14  1  0.250000  0.247975  0.499991  1
  H  H15  1  0.250000  0.252023  0.999990  1
