# generated using pymatgen
data_Ho(Ti3Bi2)2
_symmetry_space_group_name_H-M   'P 1'
_cell_length_a   8.49329674
_cell_length_b   8.49329683
_cell_length_c   8.49329662
_cell_angle_alpha   40.40340820
_cell_angle_beta   40.40340749
_cell_angle_gamma   40.40340706
_symmetry_Int_Tables_number   1
_chemical_formula_structural   Ho(Ti3Bi2)2
_chemical_formula_sum   'Ho1 Ti6 Bi4'
_cell_volume   232.10061754
_cell_formula_units_Z   1
loop_
 _symmetry_equiv_pos_site_id
 _symmetry_equiv_pos_as_xyz
  1  'x, y, z'
loop_
 _atom_site_type_symbol
 _atom_site_label
 _atom_site_symmetry_multiplicity
 _atom_site_fract_x
 _atom_site_fract_y
 _atom_site_fract_z
 _atom_site_occupancy
  Ho  Ho0  1  0.000000  0.000000  0.000000  1
  Ti  Ti1  1  0.596234  0.596234  0.121484  1
  Ti  Ti2  1  0.878516  0.403768  0.403766  1
  Ti  Ti3  1  0.403768  0.878516  0.403766  1
  Ti  Ti4  1  0.596233  0.121484  0.596235  1
  Ti  Ti5  1  0.121484  0.596233  0.596235  1
  Ti  Ti6  1  0.403767  0.403767  0.878516  1
  Bi  Bi7  1  0.129179  0.129179  0.129179  1
  Bi  Bi8  1  0.331523  0.331523  0.331523  1
  Bi  Bi9  1  0.668477  0.668477  0.668477  1
  Bi  Bi10  1  0.870821  0.870821  0.870821  1
