# generated using pymatgen
data_Nd3Cr(P3Rh4)2
_symmetry_space_group_name_H-M   'P 1'
_cell_length_a   3.95997500
_cell_length_b   11.30830600
_cell_length_c   12.93828100
_cell_angle_alpha   90.00000000
_cell_angle_beta   90.00000000
_cell_angle_gamma   90.00000000
_symmetry_Int_Tables_number   1
_chemical_formula_structural   Nd3Cr(P3Rh4)2
_chemical_formula_sum   'Nd6 Cr2 P12 Rh16'
_cell_volume   579.38410327
_cell_formula_units_Z   2
loop_
 _symmetry_equiv_pos_site_id
 _symmetry_equiv_pos_as_xyz
  1  'x, y, z'
loop_
 _atom_site_type_symbol
 _atom_site_label
 _atom_site_symmetry_multiplicity
 _atom_site_fract_x
 _atom_site_fract_y
 _atom_site_fract_z
 _atom_site_occupancy
  Nd  Nd0  1  0.000000  0.500000  0.518970  1
  Nd  Nd1  1  0.500000  0.000000  0.481030  1
  Nd  Nd2  1  0.500000  0.817530  0.203733  1
  Nd  Nd3  1  0.500000  0.182470  0.203733  1
  Nd  Nd4  1  0.000000  0.682470  0.796267  1
  Nd  Nd5  1  0.000000  0.317530  0.796267  1
  Cr  Cr6  1  0.500000  0.500000  0.160844  1
  Cr  Cr7  1  0.000000  0.000000  0.839156  1
  P  P8  1  0.500000  0.500000  0.882356  1
  P  P9  1  0.000000  0.000000  0.117644  1
  P  P10  1  0.500000  0.500000  0.343543  1
  P  P11  1  0.000000  0.000000  0.656457  1
  P  P12  1  0.500000  0.311822  0.616678  1
  P  P13  1  0.500000  0.688178  0.616678  1
  P  P14  1  0.000000  0.188178  0.383322  1
  P  P15  1  0.000000  0.811822  0.383322  1
  P  P16  1  0.500000  0.847837  0.891159  1
  P  P17  1  0.500000  0.152163  0.891159  1
  P  P18  1  0.000000  0.652163  0.108841  1
  P  P19  1  0.000000  0.347837  0.108841  1
  Rh  Rh20  1  0.500000  0.500000  0.702320  1
  Rh  Rh21  1  0.000000  0.000000  0.297680  1
  Rh  Rh22  1  0.000000  0.500000  0.986978  1
  Rh  Rh23  1  0.500000  0.000000  0.013022  1
  Rh  Rh24  1  0.500000  0.333150  0.994188  1
  Rh  Rh25  1  0.500000  0.666850  0.994188  1
  Rh  Rh26  1  0.000000  0.166850  0.005812  1
  Rh  Rh27  1  0.000000  0.833150  0.005812  1
  Rh  Rh28  1  0.500000  0.292666  0.430497  1
  Rh  Rh29  1  0.500000  0.707334  0.430497  1
  Rh  Rh30  1  0.000000  0.207334  0.569503  1
  Rh  Rh31  1  0.000000  0.792666  0.569503  1
  Rh  Rh32  1  0.500000  0.876617  0.711049  1
  Rh  Rh33  1  0.500000  0.123383  0.711049  1
  Rh  Rh34  1  0.000000  0.623383  0.288951  1
  Rh  Rh35  1  0.000000  0.376617  0.288951  1
