# generated using pymatgen
data_Hf2Tc2B4Ru3
_symmetry_space_group_name_H-M   'P 1'
_cell_length_a   3.09360900
_cell_length_b   8.59330800
_cell_length_c   9.96042300
_cell_angle_alpha   89.99882195
_cell_angle_beta   89.99999425
_cell_angle_gamma   90.00007038
_symmetry_Int_Tables_number   1
_chemical_formula_structural   Hf2Tc2B4Ru3
_chemical_formula_sum   'Hf4 Tc4 B8 Ru6'
_cell_volume   264.79122155
_cell_formula_units_Z   2
loop_
 _symmetry_equiv_pos_site_id
 _symmetry_equiv_pos_as_xyz
  1  'x, y, z'
loop_
 _atom_site_type_symbol
 _atom_site_label
 _atom_site_symmetry_multiplicity
 _atom_site_fract_x
 _atom_site_fract_y
 _atom_site_fract_z
 _atom_site_occupancy
  Hf  Hf0  1  0.500000  0.839762  0.181335  1
  Hf  Hf1  1  0.500000  0.160238  0.818665  1
  Hf  Hf2  1  0.500002  0.660251  0.681320  1
  Hf  Hf3  1  0.499998  0.339749  0.318680  1
  Tc  Tc4  1  0.999999  0.661129  0.952371  1
  Tc  Tc5  1  0.000001  0.338871  0.047629  1
  Tc  Tc6  1  0.000001  0.838869  0.452363  1
  Tc  Tc7  1  0.999999  0.161131  0.547637  1
  B  B8  1  0.500000  0.965202  0.587291  1
  B  B9  1  0.500000  0.034798  0.412709  1
  B  B10  1  0.500000  0.848652  0.900921  1
  B  B11  1  0.500000  0.151348  0.099079  1
  B  B12  1  0.500001  0.651329  0.400909  1
  B  B13  1  0.499999  0.348671  0.599091  1
  B  B14  1  0.499999  0.465257  0.912690  1
  B  B15  1  0.500001  0.534743  0.087310  1
  Ru  Ru16  1  0.000000  0.000000  0.000000  1
  Ru  Ru17  1  0.000000  0.406659  0.760771  1
  Ru  Ru18  1  0.000000  0.593341  0.239229  1
  Ru  Ru19  1  0.000000  0.500000  0.500000  1
  Ru  Ru20  1  0.000002  0.906635  0.739236  1
  Ru  Ru21  1  0.999998  0.093365  0.260764  1
