# generated using pymatgen
data_Ho2TmCu4Si3Ge
_symmetry_space_group_name_H-M   'P 1'
_cell_length_a   7.84340370
_cell_length_b   7.84268125
_cell_length_c   7.84268085
_cell_angle_alpha   149.48593118
_cell_angle_beta   130.60202386
_cell_angle_gamma   59.18161431
_symmetry_Int_Tables_number   1
_chemical_formula_structural   Ho2TmCu4Si3Ge
_chemical_formula_sum   'Ho2 Tm1 Cu4 Si3 Ge1'
_cell_volume   184.51198873
_cell_formula_units_Z   1
loop_
 _symmetry_equiv_pos_site_id
 _symmetry_equiv_pos_as_xyz
  1  'x, y, z'
loop_
 _atom_site_type_symbol
 _atom_site_label
 _atom_site_symmetry_multiplicity
 _atom_site_fract_x
 _atom_site_fract_y
 _atom_site_fract_z
 _atom_site_occupancy
  Ho  Ho0  1  0.130301  0.629081  0.501219  1
  Ho  Ho1  1  0.497615  0.499833  0.997782  1
  Tm  Tm2  1  0.871993  0.370638  0.501355  1
  Cu  Cu3  1  0.517985  0.826804  0.691180  1
  Cu  Cu4  1  0.863966  0.173544  0.690422  1
  Cu  Cu5  1  0.139618  0.831047  0.308573  1
  Cu  Cu6  1  0.478597  0.169279  0.309318  1
  Si  Si7  1  0.188312  0.999663  0.188649  1
  Si  Si8  1  0.283980  0.283986  0.999995  1
  Si  Si9  1  0.716567  0.716487  0.000079  1
  Ge  Ge10  1  0.811066  0.999639  0.811427  1
