# generated using pymatgen
data_Yb3YTi4O12
_symmetry_space_group_name_H-M   'P 1'
_cell_length_a   5.34408398
_cell_length_b   5.51326303
_cell_length_c   7.63592500
_cell_angle_alpha   90.00000000
_cell_angle_beta   90.00000000
_cell_angle_gamma   89.87944332
_symmetry_Int_Tables_number   1
_chemical_formula_structural   Yb3YTi4O12
_chemical_formula_sum   'Yb3 Y1 Ti4 O12'
_cell_volume   224.97936124
_cell_formula_units_Z   1
loop_
 _symmetry_equiv_pos_site_id
 _symmetry_equiv_pos_as_xyz
  1  'x, y, z'
loop_
 _atom_site_type_symbol
 _atom_site_label
 _atom_site_symmetry_multiplicity
 _atom_site_fract_x
 _atom_site_fract_y
 _atom_site_fract_z
 _atom_site_occupancy
  Yb  Yb0  1  0.513339  0.945893  0.750000  1
  Yb  Yb1  1  0.486315  0.053912  0.250000  1
  Yb  Yb2  1  0.012100  0.553232  0.250000  1
  Y  Y3  1  0.986794  0.440138  0.750000  1
  Ti  Ti4  1  0.001616  0.998091  0.002763  1
  Ti  Ti5  1  0.001616  0.998091  0.497237  1
  Ti  Ti6  1  0.497889  0.501247  0.003166  1
  Ti  Ti7  1  0.497889  0.501247  0.496834  1
  O  O8  1  0.088950  0.027618  0.750000  1
  O  O9  1  0.202100  0.296021  0.043877  1
  O  O10  1  0.202100  0.296021  0.456123  1
  O  O11  1  0.298112  0.795939  0.453507  1
  O  O12  1  0.298112  0.795939  0.046493  1
  O  O13  1  0.403601  0.526509  0.750000  1
  O  O14  1  0.585655  0.475491  0.250000  1
  O  O15  1  0.706293  0.208463  0.950580  1
  O  O16  1  0.706293  0.208463  0.549420  1
  O  O17  1  0.800156  0.701780  0.550012  1
  O  O18  1  0.800156  0.701780  0.949988  1
  O  O19  1  0.910912  0.974127  0.250000  1
