# generated using pymatgen
data_Er2Tm10Co5Bi
_symmetry_space_group_name_H-M   'P 1'
_cell_length_a   8.21231248
_cell_length_b   8.21231279
_cell_length_c   8.20643992
_cell_angle_alpha   111.00129590
_cell_angle_beta   110.88217749
_cell_angle_gamma   106.59917665
_symmetry_Int_Tables_number   1
_chemical_formula_structural   Er2Tm10Co5Bi
_chemical_formula_sum   'Er2 Tm10 Co5 Bi1'
_cell_volume   425.08580220
_cell_formula_units_Z   1
loop_
 _symmetry_equiv_pos_site_id
 _symmetry_equiv_pos_as_xyz
  1  'x, y, z'
loop_
 _atom_site_type_symbol
 _atom_site_label
 _atom_site_symmetry_multiplicity
 _atom_site_fract_x
 _atom_site_fract_y
 _atom_site_fract_z
 _atom_site_occupancy
  Er  Er0  1  0.286424  0.183721  0.470146  1
  Er  Er1  1  0.713576  0.816279  0.529854  1
  Tm  Tm2  1  0.286972  0.816248  0.103220  1
  Tm  Tm3  1  0.713028  0.183752  0.896780  1
  Tm  Tm4  1  0.620906  0.311153  0.309221  1
  Tm  Tm5  1  0.379094  0.688847  0.690779  1
  Tm  Tm6  1  0.001932  0.311686  0.690779  1
  Tm  Tm7  1  0.998068  0.688314  0.309221  1
  Tm  Tm8  1  0.208517  0.404069  0.194391  1
  Tm  Tm9  1  0.791483  0.595931  0.805609  1
  Tm  Tm10  1  0.209679  0.014127  0.805609  1
  Tm  Tm11  1  0.790321  0.985873  0.194391  1
  Co  Co12  1  0.999303  0.374228  0.373532  1
  Co  Co13  1  0.000697  0.625772  0.626468  1
  Co  Co14  1  0.388052  0.888052  0.500000  1
  Co  Co15  1  0.611948  0.111948  0.500000  1
  Co  Co16  1  0.000000  0.000000  0.000000  1
  Bi  Bi17  1  0.500000  0.500000  0.000000  1
