# generated using pymatgen
data_TaTi5(GaIr2)6
_symmetry_space_group_name_H-M   'P 1'
_cell_length_a   4.08872000
_cell_length_b   7.06472600
_cell_length_c   12.28016000
_cell_angle_alpha   90.00000000
_cell_angle_beta   90.00000000
_cell_angle_gamma   90.00000000
_symmetry_Int_Tables_number   1
_chemical_formula_structural   TaTi5(GaIr2)6
_chemical_formula_sum   'Ta1 Ti5 Ga6 Ir12'
_cell_volume   354.72085182
_cell_formula_units_Z   1
loop_
 _symmetry_equiv_pos_site_id
 _symmetry_equiv_pos_as_xyz
  1  'x, y, z'
loop_
 _atom_site_type_symbol
 _atom_site_label
 _atom_site_symmetry_multiplicity
 _atom_site_fract_x
 _atom_site_fract_y
 _atom_site_fract_z
 _atom_site_occupancy
  Ta  Ta0  1  0.000000  0.500000  0.000000  1
  Ti  Ti1  1  0.500084  0.000000  0.168450  1
  Ti  Ti2  1  0.000058  0.500000  0.334331  1
  Ti  Ti3  1  0.499999  0.000000  0.500000  1
  Ti  Ti4  1  0.999942  0.500000  0.665669  1
  Ti  Ti5  1  0.499916  0.000000  0.831549  1
  Ga  Ga6  1  0.000000  0.000000  0.000000  1
  Ga  Ga7  1  0.500075  0.500000  0.169610  1
  Ga  Ga8  1  0.000088  0.000000  0.334710  1
  Ga  Ga9  1  0.499999  0.500000  0.500000  1
  Ga  Ga10  1  0.999912  0.000000  0.665290  1
  Ga  Ga11  1  0.499925  0.500000  0.830389  1
  Ir  Ir12  1  0.499999  0.244359  0.000000  1
  Ir  Ir13  1  0.499999  0.755640  0.000000  1
  Ir  Ir14  1  0.000064  0.247497  0.167323  1
  Ir  Ir15  1  0.000064  0.752503  0.167323  1
  Ir  Ir16  1  0.500072  0.249929  0.333770  1
  Ir  Ir17  1  0.500072  0.750071  0.333770  1
  Ir  Ir18  1  0.000000  0.249862  0.500000  1
  Ir  Ir19  1  0.000000  0.750136  0.500000  1
  Ir  Ir20  1  0.499928  0.249929  0.666230  1
  Ir  Ir21  1  0.499928  0.750071  0.666230  1
  Ir  Ir22  1  0.999936  0.247497  0.832678  1
  Ir  Ir23  1  0.999936  0.752503  0.832678  1
