# generated using pymatgen
data_Hf9ZrIn3Ga2Bi3
_symmetry_space_group_name_H-M   'P 1'
_cell_length_a   8.75330466
_cell_length_b   8.76624812
_cell_length_c   5.86792500
_cell_angle_alpha   90.00000000
_cell_angle_beta   90.00000000
_cell_angle_gamma   120.04892593
_symmetry_Int_Tables_number   1
_chemical_formula_structural   Hf9ZrIn3Ga2Bi3
_chemical_formula_sum   'Hf9 Zr1 In3 Ga2 Bi3'
_cell_volume   389.75048672
_cell_formula_units_Z   1
loop_
 _symmetry_equiv_pos_site_id
 _symmetry_equiv_pos_as_xyz
  1  'x, y, z'
loop_
 _atom_site_type_symbol
 _atom_site_label
 _atom_site_symmetry_multiplicity
 _atom_site_fract_x
 _atom_site_fract_y
 _atom_site_fract_z
 _atom_site_occupancy
  Hf  Hf0  1  0.666531  0.333038  0.994110  1
  Hf  Hf1  1  0.333469  0.666508  0.994110  1
  Hf  Hf2  1  0.333469  0.666508  0.505890  1
  Hf  Hf3  1  0.666531  0.333038  0.505890  1
  Hf  Hf4  1  0.730029  0.730762  0.750000  1
  Hf  Hf5  1  0.269971  0.000734  0.750000  1
  Hf  Hf6  1  0.000000  0.270209  0.750000  1
  Hf  Hf7  1  0.261475  0.260619  0.250000  1
  Hf  Hf8  1  0.738525  0.999144  0.250000  1
  Zr  Zr9  1  0.000000  0.738966  0.250000  1
  In  In10  1  0.385261  0.385241  0.750000  1
  In  In11  1  0.614739  0.999980  0.750000  1
  In  In12  1  0.000000  0.615259  0.750000  1
  Ga  Ga13  1  0.000000  0.000778  0.988691  1
  Ga  Ga14  1  0.000000  0.000778  0.511309  1
  Bi  Bi15  1  0.607203  0.607204  0.250000  1
  Bi  Bi16  1  0.392797  0.000001  0.250000  1
  Bi  Bi17  1  0.000000  0.391237  0.250000  1
