# generated using pymatgen
data_Rb3VIrBr9
_symmetry_space_group_name_H-M   'P 1'
_cell_length_a   7.60797000
_cell_length_b   7.60797061
_cell_length_c   18.76130800
_cell_angle_alpha   90.00000000
_cell_angle_beta   90.00000000
_cell_angle_gamma   119.99999733
_symmetry_Int_Tables_number   1
_chemical_formula_structural   Rb3VIrBr9
_chemical_formula_sum   'Rb6 V2 Ir2 Br18'
_cell_volume   940.44060987
_cell_formula_units_Z   2
loop_
 _symmetry_equiv_pos_site_id
 _symmetry_equiv_pos_as_xyz
  1  'x, y, z'
loop_
 _atom_site_type_symbol
 _atom_site_label
 _atom_site_symmetry_multiplicity
 _atom_site_fract_x
 _atom_site_fract_y
 _atom_site_fract_z
 _atom_site_occupancy
  Rb  Rb0  1  0.666667  0.333333  0.568274  1
  Rb  Rb1  1  0.333333  0.666667  0.064867  1
  Rb  Rb2  1  0.333333  0.666667  0.431726  1
  Rb  Rb3  1  0.666667  0.333333  0.935133  1
  Rb  Rb4  1  0.000000  0.000000  0.249608  1
  Rb  Rb5  1  0.000000  0.000000  0.750392  1
  V  V6  1  0.333333  0.666667  0.833881  1
  V  V7  1  0.666667  0.333333  0.166119  1
  Ir  Ir8  1  0.333333  0.666667  0.669757  1
  Ir  Ir9  1  0.666667  0.333333  0.330243  1
  Br  Br10  1  0.821843  0.643686  0.407013  1
  Br  Br11  1  0.178157  0.821843  0.592987  1
  Br  Br12  1  0.643686  0.821843  0.592987  1
  Br  Br13  1  0.821843  0.178157  0.407013  1
  Br  Br14  1  0.356314  0.178157  0.407013  1
  Br  Br15  1  0.174500  0.349000  0.907094  1
  Br  Br16  1  0.017652  0.508826  0.747143  1
  Br  Br17  1  0.651000  0.825500  0.907094  1
  Br  Br18  1  0.825500  0.651000  0.092906  1
  Br  Br19  1  0.178157  0.356314  0.592987  1
  Br  Br20  1  0.491174  0.982348  0.747143  1
  Br  Br21  1  0.508826  0.491174  0.252857  1
  Br  Br22  1  0.491174  0.508826  0.747143  1
  Br  Br23  1  0.174500  0.825500  0.907094  1
  Br  Br24  1  0.349000  0.174500  0.092906  1
  Br  Br25  1  0.982348  0.491174  0.252857  1
  Br  Br26  1  0.508826  0.017652  0.252857  1
  Br  Br27  1  0.825500  0.174500  0.092906  1
