# generated using pymatgen
data_LuSiP5(Pd10Pb)2
_symmetry_space_group_name_H-M   'P 1'
_cell_length_a   8.70531531
_cell_length_b   8.68642714
_cell_length_c   8.68642803
_cell_angle_alpha   60.14391278
_cell_angle_beta   59.92805426
_cell_angle_gamma   59.92805066
_symmetry_Int_Tables_number   1
_chemical_formula_structural   LuSiP5(Pd10Pb)2
_chemical_formula_sum   'Lu1 Si1 P5 Pd20 Pb2'
_cell_volume   464.45950748
_cell_formula_units_Z   1
loop_
 _symmetry_equiv_pos_site_id
 _symmetry_equiv_pos_as_xyz
  1  'x, y, z'
loop_
 _atom_site_type_symbol
 _atom_site_label
 _atom_site_symmetry_multiplicity
 _atom_site_fract_x
 _atom_site_fract_y
 _atom_site_fract_z
 _atom_site_occupancy
  Lu  Lu0  1  0.998938  0.001062  0.001062  1
  Si  Si1  1  0.732518  0.267482  0.267482  1
  P  P2  1  0.264330  0.735670  0.735670  1
  P  P3  1  0.265558  0.734442  0.263634  1
  P  P4  1  0.736366  0.263634  0.734442  1
  P  P5  1  0.265558  0.263634  0.734442  1
  P  P6  1  0.736366  0.734442  0.263634  1
  Pd  Pd7  1  0.382524  0.384625  0.384625  1
  Pd  Pd8  1  0.615472  0.615239  0.615239  1
  Pd  Pd9  1  0.384761  0.384528  0.845948  1
  Pd  Pd10  1  0.384761  0.845948  0.384528  1
  Pd  Pd11  1  0.615375  0.617476  0.151776  1
  Pd  Pd12  1  0.615375  0.151776  0.617476  1
  Pd  Pd13  1  0.848224  0.384625  0.384625  1
  Pd  Pd14  1  0.154052  0.615239  0.615239  1
  Pd  Pd15  1  0.340766  0.001219  0.001219  1
  Pd  Pd16  1  0.656796  0.001219  0.001219  1
  Pd  Pd17  1  0.998781  0.343204  0.659234  1
  Pd  Pd18  1  0.998781  0.659234  0.343204  1
  Pd  Pd19  1  0.000459  0.342841  0.999541  1
  Pd  Pd20  1  0.657159  0.999541  0.342841  1
  Pd  Pd21  1  0.000533  0.656772  0.999467  1
  Pd  Pd22  1  0.343228  0.999467  0.656772  1
  Pd  Pd23  1  0.000459  0.999541  0.342841  1
  Pd  Pd24  1  0.000533  0.999467  0.656772  1
  Pd  Pd25  1  0.657159  0.342841  0.999541  1
  Pd  Pd26  1  0.343228  0.656772  0.999467  1
  Pb  Pb27  1  0.250971  0.249029  0.249029  1
  Pb  Pb28  1  0.750971  0.749029  0.749029  1
