# generated using pymatgen
data_Dy3Tm13(In3Ir)2
_symmetry_space_group_name_H-M   'P 1'
_cell_length_a   10.31960300
_cell_length_b   10.31960244
_cell_length_c   7.02119200
_cell_angle_alpha   90.00000000
_cell_angle_beta   90.00000000
_cell_angle_gamma   119.99999858
_symmetry_Int_Tables_number   1
_chemical_formula_structural   Dy3Tm13(In3Ir)2
_chemical_formula_sum   'Dy3 Tm13 In6 Ir2'
_cell_volume   647.54125698
_cell_formula_units_Z   1
loop_
 _symmetry_equiv_pos_site_id
 _symmetry_equiv_pos_as_xyz
  1  'x, y, z'
loop_
 _atom_site_type_symbol
 _atom_site_label
 _atom_site_symmetry_multiplicity
 _atom_site_fract_x
 _atom_site_fract_y
 _atom_site_fract_z
 _atom_site_occupancy
  Dy  Dy0  1  0.532481  0.064962  0.514785  1
  Dy  Dy1  1  0.935038  0.467519  0.514785  1
  Dy  Dy2  1  0.532481  0.467519  0.514785  1
  Tm  Tm3  1  0.466332  0.932664  0.015029  1
  Tm  Tm4  1  0.067336  0.533668  0.015029  1
  Tm  Tm5  1  0.466332  0.533668  0.015029  1
  Tm  Tm6  1  0.176635  0.353271  0.721527  1
  Tm  Tm7  1  0.646729  0.823365  0.721527  1
  Tm  Tm8  1  0.176635  0.823365  0.721527  1
  Tm  Tm9  1  0.823329  0.646659  0.219219  1
  Tm  Tm10  1  0.353341  0.176671  0.219219  1
  Tm  Tm11  1  0.823329  0.176671  0.219219  1
  Tm  Tm12  1  0.666667  0.333333  0.896867  1
  Tm  Tm13  1  0.333333  0.666667  0.396374  1
  Tm  Tm14  1  0.000000  0.000000  0.500187  1
  Tm  Tm15  1  0.000000  0.000000  0.000670  1
  In  In16  1  0.837514  0.675028  0.762412  1
  In  In17  1  0.324972  0.162486  0.762412  1
  In  In18  1  0.837514  0.162486  0.762412  1
  In  In19  1  0.162853  0.325706  0.261661  1
  In  In20  1  0.674294  0.837147  0.261661  1
  In  In21  1  0.162853  0.837147  0.261661  1
  Ir  Ir22  1  0.666667  0.333333  0.289130  1
  Ir  Ir23  1  0.333333  0.666667  0.790874  1
