# generated using pymatgen
data_K4TmNp3F16
_symmetry_space_group_name_H-M   'P 1'
_cell_length_a   3.76510700
_cell_length_b   6.30901042
_cell_length_c   15.74682348
_cell_angle_alpha   90.15684240
_cell_angle_beta   90.00000000
_cell_angle_gamma   90.00000000
_symmetry_Int_Tables_number   1
_chemical_formula_structural   K4TmNp3F16
_chemical_formula_sum   'K4 Tm1 Np3 F16'
_cell_volume   374.05020726
_cell_formula_units_Z   1
loop_
 _symmetry_equiv_pos_site_id
 _symmetry_equiv_pos_as_xyz
  1  'x, y, z'
loop_
 _atom_site_type_symbol
 _atom_site_label
 _atom_site_symmetry_multiplicity
 _atom_site_fract_x
 _atom_site_fract_y
 _atom_site_fract_z
 _atom_site_occupancy
  K  K0  1  0.250000  0.223860  0.302411  1
  K  K1  1  0.750000  0.775955  0.696104  1
  K  K2  1  0.250000  0.719995  0.202681  1
  K  K3  1  0.750000  0.278159  0.792481  1
  Tm  Tm4  1  0.250000  0.252440  0.560891  1
  Np  Np5  1  0.750000  0.245920  0.061853  1
  Np  Np6  1  0.250000  0.748659  0.936198  1
  Np  Np7  1  0.750000  0.746877  0.443868  1
  F  F8  1  0.250000  0.100778  0.683863  1
  F  F9  1  0.750000  0.910075  0.311178  1
  F  F10  1  0.250000  0.591946  0.801726  1
  F  F11  1  0.750000  0.408895  0.196014  1
  F  F12  1  0.750000  0.385988  0.628263  1
  F  F13  1  0.250000  0.607534  0.367541  1
  F  F14  1  0.750000  0.902211  0.862476  1
  F  F15  1  0.250000  0.103394  0.137522  1
  F  F16  1  0.750000  0.358778  0.466237  1
  F  F17  1  0.250000  0.614403  0.540856  1
  F  F18  1  0.750000  0.862458  0.037620  1
  F  F19  1  0.250000  0.136327  0.962265  1
  F  F20  1  0.250000  0.503794  0.058698  1
  F  F21  1  0.750000  0.495451  0.938809  1
  F  F22  1  0.250000  0.017783  0.450282  1
  F  F23  1  0.750000  0.008319  0.560167  1
