# generated using pymatgen
data_HoReMoO8
_symmetry_space_group_name_H-M   'P 1'
_cell_length_a   5.94986700
_cell_length_b   5.94986727
_cell_length_c   6.53794500
_cell_angle_alpha   90.00000000
_cell_angle_beta   90.00000000
_cell_angle_gamma   120.00000403
_symmetry_Int_Tables_number   1
_chemical_formula_structural   HoReMoO8
_chemical_formula_sum   'Ho1 Re1 Mo1 O8'
_cell_volume   200.44093163
_cell_formula_units_Z   1
loop_
 _symmetry_equiv_pos_site_id
 _symmetry_equiv_pos_as_xyz
  1  'x, y, z'
loop_
 _atom_site_type_symbol
 _atom_site_label
 _atom_site_symmetry_multiplicity
 _atom_site_fract_x
 _atom_site_fract_y
 _atom_site_fract_z
 _atom_site_occupancy
  Ho  Ho0  1  0.000000  0.000000  0.984332  1
  Re  Re1  1  0.333333  0.666667  0.298602  1
  Mo  Mo2  1  0.666667  0.333333  0.701224  1
  O  O3  1  0.340895  0.195016  0.798877  1
  O  O4  1  0.183861  0.837384  0.207465  1
  O  O5  1  0.162616  0.346476  0.207465  1
  O  O6  1  0.666667  0.333333  0.434111  1
  O  O7  1  0.333333  0.666667  0.562705  1
  O  O8  1  0.854122  0.659105  0.798877  1
  O  O9  1  0.804984  0.145878  0.798877  1
  O  O10  1  0.653524  0.816139  0.207465  1
