# generated using pymatgen
data_Cd3InP7N12
_symmetry_space_group_name_H-M   'P 1'
_cell_length_a   7.38135140
_cell_length_b   7.41256619
_cell_length_c   7.41256621
_cell_angle_alpha   109.55636050
_cell_angle_beta   109.38593668
_cell_angle_gamma   109.38595061
_symmetry_Int_Tables_number   1
_chemical_formula_structural   Cd3InP7N12
_chemical_formula_sum   'Cd3 In1 P7 N12'
_cell_volume   312.54111447
_cell_formula_units_Z   1
loop_
 _symmetry_equiv_pos_site_id
 _symmetry_equiv_pos_as_xyz
  1  'x, y, z'
loop_
 _atom_site_type_symbol
 _atom_site_label
 _atom_site_symmetry_multiplicity
 _atom_site_fract_x
 _atom_site_fract_y
 _atom_site_fract_z
 _atom_site_occupancy
  Cd  Cd0  1  0.998093  0.000000  0.672130  1
  Cd  Cd1  1  0.998093  0.672130  0.000000  1
  Cd  Cd2  1  0.325963  0.327870  0.327870  1
  In  In3  1  0.659342  0.000000  0.000000  1
  P  P4  1  0.250256  0.748397  0.499171  1
  P  P5  1  0.751085  0.249226  0.500829  1
  P  P6  1  0.751085  0.500829  0.249226  1
  P  P7  1  0.250256  0.499171  0.748397  1
  P  P8  1  0.501859  0.750774  0.251603  1
  P  P9  1  0.501859  0.251603  0.750774  1
  P  P10  1  0.991599  0.000000  0.000000  1
  N  N11  1  0.708497  0.280952  0.280952  1
  N  N12  1  0.287090  0.712494  0.286418  1
  N  N13  1  0.297418  0.580025  0.580025  1
  N  N14  1  0.574596  0.573923  0.287506  1
  N  N15  1  0.427545  0.719048  0.000000  1
  N  N16  1  0.000673  0.713582  0.426077  1
  N  N17  1  0.574596  0.287506  0.573923  1
  N  N18  1  0.717393  0.000000  0.419975  1
  N  N19  1  0.427545  0.000000  0.719048  1
  N  N20  1  0.717393  0.419975  0.000000  1
  N  N21  1  0.287090  0.286418  0.712494  1
  N  N22  1  0.000673  0.426077  0.713582  1
