# generated using pymatgen
data_SrLiZn12
_symmetry_space_group_name_H-M   'P 1'
_cell_length_a   8.67772896
_cell_length_b   8.67772882
_cell_length_c   8.67772900
_cell_angle_alpha   60.00000313
_cell_angle_beta   60.00000365
_cell_angle_gamma   59.99999971
_symmetry_Int_Tables_number   1
_chemical_formula_structural   SrLiZn12
_chemical_formula_sum   'Sr2 Li2 Zn24'
_cell_volume   462.06520094
_cell_formula_units_Z   2
loop_
 _symmetry_equiv_pos_site_id
 _symmetry_equiv_pos_as_xyz
  1  'x, y, z'
loop_
 _atom_site_type_symbol
 _atom_site_label
 _atom_site_symmetry_multiplicity
 _atom_site_fract_x
 _atom_site_fract_y
 _atom_site_fract_z
 _atom_site_occupancy
  Sr  Sr0  1  0.250000  0.250000  0.250000  1
  Sr  Sr1  1  0.750000  0.750000  0.750000  1
  Li  Li2  1  0.500000  0.500000  0.500000  1
  Li  Li3  1  0.000000  0.000000  0.000000  1
  Zn  Zn4  1  0.940908  0.297330  0.059092  1
  Zn  Zn5  1  0.559092  0.440908  0.202670  1
  Zn  Zn6  1  0.059092  0.940908  0.297330  1
  Zn  Zn7  1  0.297330  0.059092  0.940908  1
  Zn  Zn8  1  0.702670  0.297330  0.940908  1
  Zn  Zn9  1  0.202670  0.559092  0.440908  1
  Zn  Zn10  1  0.940908  0.059092  0.702670  1
  Zn  Zn11  1  0.202670  0.440908  0.797330  1
  Zn  Zn12  1  0.940908  0.702670  0.297330  1
  Zn  Zn13  1  0.440908  0.202670  0.559092  1
  Zn  Zn14  1  0.559092  0.797330  0.440908  1
  Zn  Zn15  1  0.440908  0.797330  0.202670  1
  Zn  Zn16  1  0.202670  0.797330  0.559092  1
  Zn  Zn17  1  0.702670  0.940908  0.059092  1
  Zn  Zn18  1  0.297330  0.940908  0.702670  1
  Zn  Zn19  1  0.797330  0.202670  0.440908  1
  Zn  Zn20  1  0.559092  0.202670  0.797330  1
  Zn  Zn21  1  0.059092  0.297330  0.702670  1
  Zn  Zn22  1  0.797330  0.440908  0.559092  1
  Zn  Zn23  1  0.702670  0.059092  0.297330  1
  Zn  Zn24  1  0.797330  0.559092  0.202670  1
  Zn  Zn25  1  0.297330  0.702670  0.059092  1
  Zn  Zn26  1  0.440908  0.559092  0.797330  1
  Zn  Zn27  1  0.059092  0.702670  0.940908  1
