# generated using pymatgen
data_Y3Ho7Al3Ru
_symmetry_space_group_name_H-M   'P 1'
_cell_length_a   9.52097800
_cell_length_b   9.52097866
_cell_length_c   9.59969900
_cell_angle_alpha   90.00000000
_cell_angle_beta   90.00000000
_cell_angle_gamma   120.00000466
_symmetry_Int_Tables_number   1
_chemical_formula_structural   Y3Ho7Al3Ru
_chemical_formula_sum   'Y6 Ho14 Al6 Ru2'
_cell_volume   753.61820401
_cell_formula_units_Z   2
loop_
 _symmetry_equiv_pos_site_id
 _symmetry_equiv_pos_as_xyz
  1  'x, y, z'
loop_
 _atom_site_type_symbol
 _atom_site_label
 _atom_site_symmetry_multiplicity
 _atom_site_fract_x
 _atom_site_fract_y
 _atom_site_fract_z
 _atom_site_occupancy
  Y  Y0  1  0.539608  0.460392  0.250000  1
  Y  Y1  1  0.539608  0.079214  0.250000  1
  Y  Y2  1  0.920786  0.460392  0.250000  1
  Y  Y3  1  0.460392  0.539608  0.750000  1
  Y  Y4  1  0.460392  0.920786  0.750000  1
  Y  Y5  1  0.079214  0.539608  0.750000  1
  Ho  Ho6  1  0.000000  0.000000  0.500000  1
  Ho  Ho7  1  0.000000  0.000000  0.000000  1
  Ho  Ho8  1  0.206857  0.793143  0.439830  1
  Ho  Ho9  1  0.206857  0.413715  0.439830  1
  Ho  Ho10  1  0.586285  0.793143  0.439830  1
  Ho  Ho11  1  0.793143  0.206857  0.560170  1
  Ho  Ho12  1  0.793143  0.586285  0.560170  1
  Ho  Ho13  1  0.413715  0.206857  0.560170  1
  Ho  Ho14  1  0.793143  0.206857  0.939830  1
  Ho  Ho15  1  0.793143  0.586285  0.939830  1
  Ho  Ho16  1  0.413715  0.206857  0.939830  1
  Ho  Ho17  1  0.206857  0.793143  0.060170  1
  Ho  Ho18  1  0.206857  0.413715  0.060170  1
  Ho  Ho19  1  0.586285  0.793143  0.060170  1
  Al  Al20  1  0.888629  0.111371  0.250000  1
  Al  Al21  1  0.888629  0.777259  0.250000  1
  Al  Al22  1  0.222741  0.111371  0.250000  1
  Al  Al23  1  0.111371  0.888629  0.750000  1
  Al  Al24  1  0.111371  0.222741  0.750000  1
  Al  Al25  1  0.777259  0.888629  0.750000  1
  Ru  Ru26  1  0.333333  0.666667  0.250000  1
  Ru  Ru27  1  0.666667  0.333333  0.750000  1
