# generated using pymatgen
data_Th7Re2Ni
_symmetry_space_group_name_H-M   'P 1'
_cell_length_a   9.94664069
_cell_length_b   10.04499886
_cell_length_c   6.30985509
_cell_angle_alpha   90.06097923
_cell_angle_beta   89.87682971
_cell_angle_gamma   119.67661652
_symmetry_Int_Tables_number   1
_chemical_formula_structural   Th7Re2Ni
_chemical_formula_sum   'Th14 Re4 Ni2'
_cell_volume   547.74867466
_cell_formula_units_Z   2
loop_
 _symmetry_equiv_pos_site_id
 _symmetry_equiv_pos_as_xyz
  1  'x, y, z'
loop_
 _atom_site_type_symbol
 _atom_site_label
 _atom_site_symmetry_multiplicity
 _atom_site_fract_x
 _atom_site_fract_y
 _atom_site_fract_z
 _atom_site_occupancy
  Th  Th0  1  0.330692  0.666005  0.035413  1
  Th  Th1  1  0.664688  0.333995  0.535413  1
  Th  Th2  1  0.128398  0.874520  0.244958  1
  Th  Th3  1  0.253877  0.125480  0.744958  1
  Th  Th4  1  0.873918  0.745426  0.754068  1
  Th  Th5  1  0.128492  0.254574  0.254068  1
  Th  Th6  1  0.752736  0.874988  0.255074  1
  Th  Th7  1  0.877747  0.125012  0.755074  1
  Th  Th8  1  0.535403  0.458311  0.043488  1
  Th  Th9  1  0.077091  0.541689  0.543488  1
  Th  Th10  1  0.461441  0.920166  0.545698  1
  Th  Th11  1  0.541275  0.079834  0.045698  1
  Th  Th12  1  0.916298  0.453397  0.045416  1
  Th  Th13  1  0.462901  0.546603  0.545416  1
  Re  Re14  1  0.805840  0.181753  0.305839  1
  Re  Re15  1  0.624086  0.818247  0.805839  1
  Re  Re16  1  0.188486  0.372977  0.800013  1
  Re  Re17  1  0.815510  0.627023  0.300013  1
  Ni  Ni18  1  0.372345  0.183570  0.300034  1
  Ni  Ni19  1  0.188775  0.816430  0.800034  1
