# generated using pymatgen
data_CsNdSiS4
_symmetry_space_group_name_H-M   'P 1'
_cell_length_a   6.54530500
_cell_length_b   6.85117100
_cell_length_c   18.10979100
_cell_angle_alpha   90.00000000
_cell_angle_beta   90.00000000
_cell_angle_gamma   90.00000000
_symmetry_Int_Tables_number   1
_chemical_formula_structural   CsNdSiS4
_chemical_formula_sum   'Cs4 Nd4 Si4 S16'
_cell_volume   812.09742667
_cell_formula_units_Z   4
loop_
 _symmetry_equiv_pos_site_id
 _symmetry_equiv_pos_as_xyz
  1  'x, y, z'
loop_
 _atom_site_type_symbol
 _atom_site_label
 _atom_site_symmetry_multiplicity
 _atom_site_fract_x
 _atom_site_fract_y
 _atom_site_fract_z
 _atom_site_occupancy
  Cs  Cs0  1  0.998011  0.007141  0.033144  1
  Cs  Cs1  1  0.001989  0.507142  0.466856  1
  Cs  Cs2  1  0.501989  0.992858  0.533144  1
  Cs  Cs3  1  0.498011  0.492859  0.966855  1
  Nd  Nd4  1  0.293125  0.480659  0.228422  1
  Nd  Nd5  1  0.706877  0.980660  0.271578  1
  Nd  Nd6  1  0.206876  0.519340  0.728422  1
  Nd  Nd7  1  0.793124  0.019341  0.771578  1
  Si  Si8  1  0.789157  0.515961  0.166456  1
  Si  Si9  1  0.210843  0.015960  0.333544  1
  Si  Si10  1  0.710844  0.484039  0.666456  1
  Si  Si11  1  0.289156  0.984040  0.833544  1
  S  S12  1  0.047205  0.512056  0.096077  1
  S  S13  1  0.572424  0.743774  0.144706  1
  S  S14  1  0.610471  0.254856  0.153670  1
  S  S15  1  0.117663  0.067597  0.222101  1
  S  S16  1  0.882337  0.567598  0.277899  1
  S  S17  1  0.389529  0.754855  0.346330  1
  S  S18  1  0.427576  0.243773  0.355295  1
  S  S19  1  0.952795  0.012055  0.403923  1
  S  S20  1  0.452796  0.487944  0.596077  1
  S  S21  1  0.927575  0.256227  0.644706  1
  S  S22  1  0.889530  0.745145  0.653670  1
  S  S23  1  0.382336  0.932403  0.722101  1
  S  S24  1  0.617664  0.432402  0.777899  1
  S  S25  1  0.110470  0.245145  0.846330  1
  S  S26  1  0.072425  0.756226  0.855295  1
  S  S27  1  0.547204  0.987944  0.903923  1
