# generated using pymatgen
data_Dy5GaBiPb
_symmetry_space_group_name_H-M   'P 1'
_cell_length_a   9.04134200
_cell_length_b   8.98328218
_cell_length_c   6.65596000
_cell_angle_alpha   90.00000000
_cell_angle_beta   90.00000000
_cell_angle_gamma   119.78780476
_symmetry_Int_Tables_number   1
_chemical_formula_structural   Dy5GaBiPb
_chemical_formula_sum   'Dy10 Ga2 Bi2 Pb2'
_cell_volume   469.17398757
_cell_formula_units_Z   2
loop_
 _symmetry_equiv_pos_site_id
 _symmetry_equiv_pos_as_xyz
  1  'x, y, z'
loop_
 _atom_site_type_symbol
 _atom_site_label
 _atom_site_symmetry_multiplicity
 _atom_site_fract_x
 _atom_site_fract_y
 _atom_site_fract_z
 _atom_site_occupancy
  Dy  Dy0  1  0.692901  0.347296  0.002320  1
  Dy  Dy1  1  0.307099  0.654396  0.002320  1
  Dy  Dy2  1  0.307099  0.654396  0.497680  1
  Dy  Dy3  1  0.692901  0.347296  0.497680  1
  Dy  Dy4  1  0.773879  0.756002  0.750000  1
  Dy  Dy5  1  0.226121  0.982122  0.750000  1
  Dy  Dy6  1  0.000000  0.245543  0.750000  1
  Dy  Dy7  1  0.229042  0.243431  0.250000  1
  Dy  Dy8  1  0.770958  0.014389  0.250000  1
  Dy  Dy9  1  0.000000  0.756899  0.250000  1
  Ga  Ga10  1  0.000000  0.600235  0.750000  1
  Ga  Ga11  1  0.000000  0.397062  0.250000  1
  Bi  Bi12  1  0.396667  0.389332  0.750000  1
  Bi  Bi13  1  0.603333  0.992665  0.750000  1
  Pb  Pb14  1  0.602428  0.610680  0.250000  1
  Pb  Pb15  1  0.397572  0.008252  0.250000  1
