# generated using pymatgen
data_CsP3I2O13
_symmetry_space_group_name_H-M   'P 1'
_cell_length_a   8.97915900
_cell_length_b   8.13834871
_cell_length_c   9.35067843
_cell_angle_alpha   77.67201975
_cell_angle_beta   90.00000000
_cell_angle_gamma   90.00000000
_symmetry_Int_Tables_number   1
_chemical_formula_structural   CsP3I2O13
_chemical_formula_sum   'Cs2 P6 I4 O26'
_cell_volume   667.54969714
_cell_formula_units_Z   2
loop_
 _symmetry_equiv_pos_site_id
 _symmetry_equiv_pos_as_xyz
  1  'x, y, z'
loop_
 _atom_site_type_symbol
 _atom_site_label
 _atom_site_symmetry_multiplicity
 _atom_site_fract_x
 _atom_site_fract_y
 _atom_site_fract_z
 _atom_site_occupancy
  Cs  Cs0  1  0.839814  0.500000  0.750000  1
  Cs  Cs1  1  0.160186  0.500000  0.250000  1
  P  P2  1  0.451032  0.833022  0.846894  1
  P  P3  1  0.548968  0.833022  0.346894  1
  P  P4  1  0.029232  0.000000  0.250000  1
  P  P5  1  0.970768  0.000000  0.750000  1
  P  P6  1  0.451032  0.166978  0.653106  1
  P  P7  1  0.548968  0.166978  0.153106  1
  I  I8  1  0.754803  0.806398  0.048962  1
  I  I9  1  0.754803  0.193602  0.451038  1
  I  I10  1  0.245197  0.806398  0.548962  1
  I  I11  1  0.245197  0.193602  0.951038  1
  O  O12  1  0.530761  0.000000  0.750000  1
  O  O13  1  0.164354  0.395752  0.918348  1
  O  O14  1  0.343316  0.118555  0.547204  1
  O  O15  1  0.656684  0.881445  0.452796  1
  O  O16  1  0.385206  0.731622  0.738075  1
  O  O17  1  0.614794  0.731622  0.238075  1
  O  O18  1  0.588014  0.274254  0.581469  1
  O  O19  1  0.939609  0.098552  0.343798  1
  O  O20  1  0.164354  0.604248  0.581652  1
  O  O21  1  0.835646  0.604248  0.081652  1
  O  O22  1  0.870510  0.136584  0.652964  1
  O  O23  1  0.939609  0.901448  0.156202  1
  O  O24  1  0.870510  0.863416  0.847036  1
  O  O25  1  0.129490  0.863416  0.347036  1
  O  O26  1  0.060391  0.901448  0.656202  1
  O  O27  1  0.656684  0.118555  0.047204  1
  O  O28  1  0.588014  0.725746  0.918531  1
  O  O29  1  0.129490  0.136584  0.152964  1
  O  O30  1  0.835646  0.395752  0.418348  1
  O  O31  1  0.469239  0.000000  0.250000  1
  O  O32  1  0.343316  0.881445  0.952796  1
  O  O33  1  0.411986  0.725746  0.418531  1
  O  O34  1  0.385206  0.268378  0.761925  1
  O  O35  1  0.411986  0.274254  0.081469  1
  O  O36  1  0.614794  0.268378  0.261925  1
  O  O37  1  0.060391  0.098552  0.843798  1
