# generated using pymatgen
data_Zr6Mn6Co16Mo
_symmetry_space_group_name_H-M   'P 1'
_cell_length_a   8.19134983
_cell_length_b   8.19135058
_cell_length_c   8.19134800
_cell_angle_alpha   60.00000234
_cell_angle_beta   59.99999933
_cell_angle_gamma   60.00000256
_symmetry_Int_Tables_number   1
_chemical_formula_structural   Zr6Mn6Co16Mo
_chemical_formula_sum   'Zr6 Mn6 Co16 Mo1'
_cell_volume   388.64347488
_cell_formula_units_Z   1
loop_
 _symmetry_equiv_pos_site_id
 _symmetry_equiv_pos_as_xyz
  1  'x, y, z'
loop_
 _atom_site_type_symbol
 _atom_site_label
 _atom_site_symmetry_multiplicity
 _atom_site_fract_x
 _atom_site_fract_y
 _atom_site_fract_z
 _atom_site_occupancy
  Zr  Zr0  1  0.708497  0.291503  0.291503  1
  Zr  Zr1  1  0.291503  0.291503  0.708497  1
  Zr  Zr2  1  0.291503  0.708497  0.708497  1
  Zr  Zr3  1  0.708497  0.708497  0.291503  1
  Zr  Zr4  1  0.291503  0.708497  0.291503  1
  Zr  Zr5  1  0.708497  0.291503  0.708497  1
  Mn  Mn6  1  0.000000  0.500000  0.000000  1
  Mn  Mn7  1  0.000000  0.000000  0.500000  1
  Mn  Mn8  1  0.500000  0.500000  0.000000  1
  Mn  Mn9  1  0.500000  0.000000  0.500000  1
  Mn  Mn10  1  0.500000  0.000000  0.000000  1
  Mn  Mn11  1  0.000000  0.500000  0.500000  1
  Co  Co12  1  0.122001  0.122001  0.633999  1
  Co  Co13  1  0.674338  0.976984  0.674338  1
  Co  Co14  1  0.366001  0.877999  0.877999  1
  Co  Co15  1  0.023016  0.325662  0.325662  1
  Co  Co16  1  0.976984  0.674338  0.674338  1
  Co  Co17  1  0.325662  0.325662  0.023016  1
  Co  Co18  1  0.674338  0.674338  0.976984  1
  Co  Co19  1  0.633999  0.122001  0.122001  1
  Co  Co20  1  0.674338  0.674338  0.674338  1
  Co  Co21  1  0.877999  0.877999  0.366001  1
  Co  Co22  1  0.122001  0.122001  0.122001  1
  Co  Co23  1  0.877999  0.366001  0.877999  1
  Co  Co24  1  0.877999  0.877999  0.877999  1
  Co  Co25  1  0.325662  0.325662  0.325662  1
  Co  Co26  1  0.122001  0.633999  0.122001  1
  Co  Co27  1  0.325662  0.023016  0.325662  1
  Mo  Mo28  1  0.000000  0.000000  0.000000  1
