# generated using pymatgen
data_ThCd3(IO6)2
_symmetry_space_group_name_H-M   'P 1'
_cell_length_a   5.05281756
_cell_length_b   5.05735250
_cell_length_c   10.09546300
_cell_angle_alpha   90.00000000
_cell_angle_beta   90.00000000
_cell_angle_gamma   89.83054081
_symmetry_Int_Tables_number   1
_chemical_formula_structural   ThCd3(IO6)2
_chemical_formula_sum   'Th1 Cd3 I2 O12'
_cell_volume   257.97711660
_cell_formula_units_Z   1
loop_
 _symmetry_equiv_pos_site_id
 _symmetry_equiv_pos_as_xyz
  1  'x, y, z'
loop_
 _atom_site_type_symbol
 _atom_site_label
 _atom_site_symmetry_multiplicity
 _atom_site_fract_x
 _atom_site_fract_y
 _atom_site_fract_z
 _atom_site_occupancy
  Th  Th0  1  0.000000  0.000000  0.335905  1
  Cd  Cd1  1  0.500000  0.500000  0.154343  1
  Cd  Cd2  1  0.000000  0.000000  0.672701  1
  Cd  Cd3  1  0.500000  0.500000  0.838164  1
  I  I4  1  0.500000  0.500000  0.506403  1
  I  I5  1  0.000000  0.000000  0.993257  1
  O  O6  1  0.681748  0.682057  0.639199  1
  O  O7  1  0.318252  0.317943  0.639199  1
  O  O8  1  0.816738  0.183435  0.857990  1
  O  O9  1  0.183262  0.816565  0.857990  1
  O  O10  1  0.320792  0.320794  0.361538  1
  O  O11  1  0.679208  0.679206  0.361538  1
  O  O12  1  0.178307  0.821542  0.144246  1
  O  O13  1  0.821693  0.178458  0.144246  1
  O  O14  1  0.736130  0.736062  0.000943  1
  O  O15  1  0.263870  0.263938  0.000943  1
  O  O16  1  0.769336  0.230735  0.495697  1
  O  O17  1  0.230664  0.769265  0.495697  1
