# generated using pymatgen
data_Pr2Nd10Ir2I17
_symmetry_space_group_name_H-M   'P 1'
_cell_length_a   10.09871004
_cell_length_b   12.10355367
_cell_length_c   12.07012129
_cell_angle_alpha   93.19633213
_cell_angle_beta   104.47313402
_cell_angle_gamma   114.99859980
_symmetry_Int_Tables_number   1
_chemical_formula_structural   Pr2Nd10Ir2I17
_chemical_formula_sum   'Pr2 Nd10 Ir2 I17'
_cell_volume   1272.60955918
_cell_formula_units_Z   1
loop_
 _symmetry_equiv_pos_site_id
 _symmetry_equiv_pos_as_xyz
  1  'x, y, z'
loop_
 _atom_site_type_symbol
 _atom_site_label
 _atom_site_symmetry_multiplicity
 _atom_site_fract_x
 _atom_site_fract_y
 _atom_site_fract_z
 _atom_site_occupancy
  Pr  Pr0  1  0.783047  0.336127  0.008252  1
  Pr  Pr1  1  0.845181  0.711125  0.851744  1
  Nd  Nd2  1  0.058746  0.512552  0.323606  1
  Nd  Nd3  1  0.989498  0.811143  0.580154  1
  Nd  Nd4  1  0.642420  0.238997  0.284019  1
  Nd  Nd5  1  0.010816  0.188808  0.419880  1
  Nd  Nd6  1  0.216305  0.663997  0.990625  1
  Nd  Nd7  1  0.263713  0.987034  0.894071  1
  Nd  Nd8  1  0.357694  0.760817  0.716089  1
  Nd  Nd9  1  0.941759  0.487314  0.676777  1
  Nd  Nd10  1  0.736844  0.013006  0.106214  1
  Nd  Nd11  1  0.153773  0.288981  0.149145  1
  Ir  Ir12  1  0.103344  0.738029  0.784347  1
  Ir  Ir13  1  0.897251  0.261898  0.216002  1
  I  I14  1  0.783241  0.527817  0.418365  1
  I  I15  1  0.637933  0.416597  0.757191  1
  I  I16  1  0.843403  0.895579  0.325275  1
  I  I17  1  0.325313  0.212577  0.367818  1
  I  I18  1  0.156643  0.104294  0.674794  1
  I  I19  1  0.589051  0.053766  0.841344  1
  I  I20  1  0.754523  0.183584  0.538879  1
  I  I21  1  0.547928  0.707669  0.954185  1
  I  I22  1  0.360717  0.582394  0.241079  1
  I  I23  1  0.216878  0.472129  0.581704  1
  I  I24  1  0.057881  0.362098  0.891821  1
  I  I25  1  0.450308  0.292136  0.046488  1
  I  I26  1  0.000698  0.000923  0.000396  1
  I  I27  1  0.245535  0.816412  0.461143  1
  I  I28  1  0.410633  0.945374  0.158228  1
  I  I29  1  0.674234  0.787880  0.630996  1
  I  I30  1  0.944688  0.638941  0.109368  1
