# generated using pymatgen
data_TbTm9Si5Sb
_symmetry_space_group_name_H-M   'P 1'
_cell_length_a   8.43416500
_cell_length_b   8.43416378
_cell_length_c   6.24529800
_cell_angle_alpha   90.00000000
_cell_angle_beta   90.00000000
_cell_angle_gamma   120.23975177
_symmetry_Int_Tables_number   1
_chemical_formula_structural   TbTm9Si5Sb
_chemical_formula_sum   'Tb1 Tm9 Si5 Sb1'
_cell_volume   383.80765475
_cell_formula_units_Z   1
loop_
 _symmetry_equiv_pos_site_id
 _symmetry_equiv_pos_as_xyz
  1  'x, y, z'
loop_
 _atom_site_type_symbol
 _atom_site_label
 _atom_site_symmetry_multiplicity
 _atom_site_fract_x
 _atom_site_fract_y
 _atom_site_fract_z
 _atom_site_occupancy
  Tb  Tb0  1  0.240964  0.240964  0.750000  1
  Tm  Tm1  1  0.674881  0.331307  0.503640  1
  Tm  Tm2  1  0.331307  0.674881  0.503640  1
  Tm  Tm3  1  0.331307  0.674881  0.996360  1
  Tm  Tm4  1  0.674881  0.331307  0.996360  1
  Tm  Tm5  1  0.765826  0.765826  0.250000  1
  Tm  Tm6  1  0.240175  0.987116  0.250000  1
  Tm  Tm7  1  0.987116  0.240175  0.250000  1
  Tm  Tm8  1  0.755266  0.998940  0.750000  1
  Tm  Tm9  1  0.998940  0.755266  0.750000  1
  Si  Si10  1  0.604222  0.998897  0.250000  1
  Si  Si11  1  0.998897  0.604222  0.250000  1
  Si  Si12  1  0.607902  0.607902  0.750000  1
  Si  Si13  1  0.394168  0.001122  0.750000  1
  Si  Si14  1  0.001122  0.394168  0.750000  1
  Sb  Sb15  1  0.393023  0.393023  0.250000  1
