# generated using pymatgen
data_Ho8InNi8Hg3
_symmetry_space_group_name_H-M   'P 1'
_cell_length_a   7.30503502
_cell_length_b   7.31976098
_cell_length_c   7.33028700
_cell_angle_alpha   90.00000000
_cell_angle_beta   90.00000000
_cell_angle_gamma   89.94012111
_symmetry_Int_Tables_number   1
_chemical_formula_structural   Ho8InNi8Hg3
_chemical_formula_sum   'Ho8 In1 Ni8 Hg3'
_cell_volume   391.95837046
_cell_formula_units_Z   1
loop_
 _symmetry_equiv_pos_site_id
 _symmetry_equiv_pos_as_xyz
  1  'x, y, z'
loop_
 _atom_site_type_symbol
 _atom_site_label
 _atom_site_symmetry_multiplicity
 _atom_site_fract_x
 _atom_site_fract_y
 _atom_site_fract_z
 _atom_site_occupancy
  Ho  Ho0  1  0.177563  0.820115  0.499827  1
  Ho  Ho1  1  0.320152  0.322650  0.000331  1
  Ho  Ho2  1  0.676265  0.674040  0.499651  1
  Ho  Ho3  1  0.822437  0.179885  0.499827  1
  Ho  Ho4  1  0.174179  0.823719  0.000234  1
  Ho  Ho5  1  0.323735  0.325960  0.499651  1
  Ho  Ho6  1  0.679848  0.677350  0.000331  1
  Ho  Ho7  1  0.825821  0.176281  0.000234  1
  In  In8  1  0.500000  0.000000  0.249914  1
  Ni  Ni9  1  0.122670  0.113142  0.254651  1
  Ni  Ni10  1  0.883906  0.883250  0.745241  1
  Ni  Ni11  1  0.877330  0.886858  0.254651  1
  Ni  Ni12  1  0.116094  0.116750  0.745241  1
  Ni  Ni13  1  0.386392  0.622887  0.245401  1
  Ni  Ni14  1  0.617014  0.383943  0.754641  1
  Ni  Ni15  1  0.382986  0.616057  0.754641  1
  Ni  Ni16  1  0.613608  0.377113  0.245401  1
  Hg  Hg17  1  0.500000  0.000000  0.750037  1
  Hg  Hg18  1  0.000000  0.500000  0.250044  1
  Hg  Hg19  1  0.000000  0.500000  0.750052  1
