# generated using pymatgen
data_Sm10In3Bi3Cl2
_symmetry_space_group_name_H-M   'P 1'
_cell_length_a   9.40568800
_cell_length_b   9.38106806
_cell_length_c   6.64060700
_cell_angle_alpha   90.00000000
_cell_angle_beta   90.00000000
_cell_angle_gamma   120.35745729
_symmetry_Int_Tables_number   1
_chemical_formula_structural   Sm10In3Bi3Cl2
_chemical_formula_sum   'Sm10 In3 Bi3 Cl2'
_cell_volume   505.59835316
_cell_formula_units_Z   1
loop_
 _symmetry_equiv_pos_site_id
 _symmetry_equiv_pos_as_xyz
  1  'x, y, z'
loop_
 _atom_site_type_symbol
 _atom_site_label
 _atom_site_symmetry_multiplicity
 _atom_site_fract_x
 _atom_site_fract_y
 _atom_site_fract_z
 _atom_site_occupancy
  Sm  Sm0  1  0.260131  0.994048  0.750000  1
  Sm  Sm1  1  0.737618  0.999732  0.250000  1
  Sm  Sm2  1  0.994787  0.258141  0.750000  1
  Sm  Sm3  1  0.005015  0.745056  0.250000  1
  Sm  Sm4  1  0.743840  0.743239  0.750000  1
  Sm  Sm5  1  0.259659  0.255312  0.250000  1
  Sm  Sm6  1  0.331811  0.673111  0.500402  1
  Sm  Sm7  1  0.667422  0.328311  0.500148  1
  Sm  Sm8  1  0.667422  0.328311  0.999852  1
  Sm  Sm9  1  0.331811  0.673111  0.999598  1
  In  In10  1  0.609062  0.998484  0.750000  1
  In  In11  1  0.392045  0.000930  0.250000  1
  In  In12  1  0.998391  0.611105  0.750000  1
  Bi  Bi13  1  0.001212  0.388624  0.250000  1
  Bi  Bi14  1  0.386453  0.386686  0.750000  1
  Bi  Bi15  1  0.613537  0.611944  0.250000  1
  Cl  Cl16  1  0.999893  0.001928  0.499072  1
  Cl  Cl17  1  0.999893  0.001928  0.000928  1
