# generated using pymatgen
data_Sm2Ta3Co9As7
_symmetry_space_group_name_H-M   'P 1'
_cell_length_a   3.84352800
_cell_length_b   9.56633514
_cell_length_c   9.56633500
_cell_angle_alpha   120.00000299
_cell_angle_beta   90.00000000
_cell_angle_gamma   90.00000000
_symmetry_Int_Tables_number   1
_chemical_formula_structural   Sm2Ta3Co9As7
_chemical_formula_sum   'Sm2 Ta3 Co9 As7'
_cell_volume   304.61539223
_cell_formula_units_Z   1
loop_
 _symmetry_equiv_pos_site_id
 _symmetry_equiv_pos_as_xyz
  1  'x, y, z'
loop_
 _atom_site_type_symbol
 _atom_site_label
 _atom_site_symmetry_multiplicity
 _atom_site_fract_x
 _atom_site_fract_y
 _atom_site_fract_z
 _atom_site_occupancy
  Sm  Sm0  1  0.000000  0.666667  0.333333  1
  Sm  Sm1  1  0.500000  0.333333  0.666667  1
  Ta  Ta2  1  0.500000  0.776652  0.895801  1
  Ta  Ta3  1  0.500000  0.119148  0.223348  1
  Ta  Ta4  1  0.500000  0.104199  0.880852  1
  Co  Co5  1  0.000000  0.573101  0.938059  1
  Co  Co6  1  0.000000  0.364959  0.426899  1
  Co  Co7  1  0.000000  0.061941  0.635041  1
  Co  Co8  1  0.000000  0.878346  0.157978  1
  Co  Co9  1  0.000000  0.279632  0.121654  1
  Co  Co10  1  0.000000  0.842022  0.720368  1
  Co  Co11  1  0.500000  0.949007  0.383296  1
  Co  Co12  1  0.500000  0.434288  0.050993  1
  Co  Co13  1  0.500000  0.616704  0.565712  1
  As  As14  1  0.000000  0.000000  0.000000  1
  As  As15  1  0.500000  0.707650  0.122014  1
  As  As16  1  0.500000  0.414365  0.292350  1
  As  As17  1  0.500000  0.877986  0.585635  1
  As  As18  1  0.000000  0.581951  0.691367  1
  As  As19  1  0.000000  0.109417  0.418049  1
  As  As20  1  0.000000  0.308633  0.890583  1
