# generated using pymatgen
data_Sc3Tc2P3Rh
_symmetry_space_group_name_H-M   'P 1'
_cell_length_a   6.74122091
_cell_length_b   6.74122113
_cell_length_c   3.51227400
_cell_angle_alpha   90.00000000
_cell_angle_beta   90.00000000
_cell_angle_gamma   120.57682252
_symmetry_Int_Tables_number   1
_chemical_formula_structural   Sc3Tc2P3Rh
_chemical_formula_sum   'Sc3 Tc2 P3 Rh1'
_cell_volume   137.41760659
_cell_formula_units_Z   1
loop_
 _symmetry_equiv_pos_site_id
 _symmetry_equiv_pos_as_xyz
  1  'x, y, z'
loop_
 _atom_site_type_symbol
 _atom_site_label
 _atom_site_symmetry_multiplicity
 _atom_site_fract_x
 _atom_site_fract_y
 _atom_site_fract_z
 _atom_site_occupancy
  Sc  Sc0  1  0.407262  0.407262  0.500000  1
  Sc  Sc1  1  0.594122  0.002652  0.500000  1
  Sc  Sc2  1  0.002652  0.594122  0.500000  1
  Tc  Tc3  1  0.998378  0.246487  0.000000  1
  Tc  Tc4  1  0.246487  0.998378  0.000000  1
  P  P5  1  0.665679  0.331667  0.000000  1
  P  P6  1  0.331667  0.665679  0.000000  1
  P  P7  1  0.000735  0.000735  0.500000  1
  Rh  Rh8  1  0.753018  0.753018  0.000000  1
