# generated using pymatgen
data_Pr2Th2Re16Si7P
_symmetry_space_group_name_H-M   'P 1'
_cell_length_a   4.14753900
_cell_length_b   7.34847046
_cell_length_c   15.59511849
_cell_angle_alpha   90.33952130
_cell_angle_beta   90.00000000
_cell_angle_gamma   90.00000000
_symmetry_Int_Tables_number   1
_chemical_formula_structural   Pr2Th2Re16Si7P
_chemical_formula_sum   'Pr2 Th2 Re16 Si7 P1'
_cell_volume   475.30073379
_cell_formula_units_Z   1
loop_
 _symmetry_equiv_pos_site_id
 _symmetry_equiv_pos_as_xyz
  1  'x, y, z'
loop_
 _atom_site_type_symbol
 _atom_site_label
 _atom_site_symmetry_multiplicity
 _atom_site_fract_x
 _atom_site_fract_y
 _atom_site_fract_z
 _atom_site_occupancy
  Pr  Pr0  1  0.000000  0.579373  0.116406  1
  Pr  Pr1  1  0.000000  0.418462  0.883911  1
  Th  Th2  1  0.500000  0.082685  0.379645  1
  Th  Th3  1  0.500000  0.916809  0.619460  1
  Re  Re4  1  0.000000  0.143788  0.052438  1
  Re  Re5  1  0.000000  0.863593  0.949299  1
  Re  Re6  1  0.500000  0.641029  0.448794  1
  Re  Re7  1  0.500000  0.359102  0.550790  1
  Re  Re8  1  0.000000  0.737323  0.321654  1
  Re  Re9  1  0.000000  0.262570  0.678739  1
  Re  Re10  1  0.500000  0.239873  0.175842  1
  Re  Re11  1  0.500000  0.766595  0.820979  1
  Re  Re12  1  0.000000  0.427489  0.418196  1
  Re  Re13  1  0.000000  0.570357  0.580544  1
  Re  Re14  1  0.500000  0.928409  0.082689  1
  Re  Re15  1  0.500000  0.072025  0.921642  1
  Re  Re16  1  0.000000  0.991146  0.205662  1
  Re  Re17  1  0.000000  0.004798  0.793865  1
  Re  Re18  1  0.500000  0.494353  0.293899  1
  Re  Re19  1  0.500000  0.502514  0.706862  1
  Si  Si20  1  0.000000  0.829073  0.475549  1
  Si  Si21  1  0.000000  0.170813  0.524358  1
  Si  Si22  1  0.500000  0.679200  0.974570  1
  Si  Si23  1  0.000000  0.298439  0.270164  1
  Si  Si24  1  0.000000  0.698954  0.727784  1
  Si  Si25  1  0.500000  0.792035  0.225758  1
  Si  Si26  1  0.500000  0.202864  0.775587  1
  P  P27  1  0.500000  0.326332  0.024913  1
