# generated using pymatgen
data_Li2Pr3MgAg2Ru
_symmetry_space_group_name_H-M   'P 1'
_cell_length_a   7.73668750
_cell_length_b   7.83603749
_cell_length_c   4.07934000
_cell_angle_alpha   90.00000000
_cell_angle_beta   90.00000000
_cell_angle_gamma   119.97573037
_symmetry_Int_Tables_number   1
_chemical_formula_structural   Li2Pr3MgAg2Ru
_chemical_formula_sum   'Li2 Pr3 Mg1 Ag2 Ru1'
_cell_volume   214.22899666
_cell_formula_units_Z   1
loop_
 _symmetry_equiv_pos_site_id
 _symmetry_equiv_pos_as_xyz
  1  'x, y, z'
loop_
 _atom_site_type_symbol
 _atom_site_label
 _atom_site_symmetry_multiplicity
 _atom_site_fract_x
 _atom_site_fract_y
 _atom_site_fract_z
 _atom_site_occupancy
  Li  Li0  1  0.759317  0.758161  0.000000  1
  Li  Li1  1  0.242167  0.002606  0.000000  1
  Pr  Pr2  1  0.431762  0.401811  0.500000  1
  Pr  Pr3  1  0.593088  0.027546  0.500000  1
  Pr  Pr4  1  0.970233  0.573451  0.500000  1
  Mg  Mg5  1  0.997524  0.243006  0.000000  1
  Ag  Ag6  1  0.334094  0.666925  0.000000  1
  Ag  Ag7  1  0.999443  0.995651  0.500000  1
  Ru  Ru8  1  0.672371  0.330844  0.000000  1
