# generated using pymatgen
data_Cu6SiMoSe8
_symmetry_space_group_name_H-M   'P 1'
_cell_length_a   7.88578200
_cell_length_b   7.88578190
_cell_length_c   12.94997200
_cell_angle_alpha   90.00000000
_cell_angle_beta   90.00000000
_cell_angle_gamma   119.99999204
_symmetry_Int_Tables_number   1
_chemical_formula_structural   Cu6SiMoSe8
_chemical_formula_sum   'Cu12 Si2 Mo2 Se16'
_cell_volume   697.41137124
_cell_formula_units_Z   2
loop_
 _symmetry_equiv_pos_site_id
 _symmetry_equiv_pos_as_xyz
  1  'x, y, z'
loop_
 _atom_site_type_symbol
 _atom_site_label
 _atom_site_symmetry_multiplicity
 _atom_site_fract_x
 _atom_site_fract_y
 _atom_site_fract_z
 _atom_site_occupancy
  Cu  Cu0  1  0.836195  0.672392  0.102117  1
  Cu  Cu1  1  0.500043  0.499957  0.356449  1
  Cu  Cu2  1  0.000086  0.500043  0.856449  1
  Cu  Cu3  1  0.836195  0.163805  0.102117  1
  Cu  Cu4  1  0.499957  0.500043  0.856449  1
  Cu  Cu5  1  0.163805  0.327608  0.602117  1
  Cu  Cu6  1  0.500043  0.000086  0.356449  1
  Cu  Cu7  1  0.999914  0.499957  0.356449  1
  Cu  Cu8  1  0.163805  0.836195  0.602117  1
  Cu  Cu9  1  0.499957  0.999914  0.856449  1
  Cu  Cu10  1  0.672392  0.836195  0.602117  1
  Cu  Cu11  1  0.327608  0.163805  0.102117  1
  Si  Si12  1  0.000000  0.000000  0.851111  1
  Si  Si13  1  0.000000  0.000000  0.351111  1
  Mo  Mo14  1  0.333333  0.666667  0.482032  1
  Mo  Mo15  1  0.666667  0.333333  0.982032  1
  Se  Se16  1  0.000000  0.000000  0.030171  1
  Se  Se17  1  0.323716  0.161859  0.290514  1
  Se  Se18  1  0.838141  0.161859  0.290514  1
  Se  Se19  1  0.999562  0.499781  0.543192  1
  Se  Se20  1  0.838141  0.676284  0.290514  1
  Se  Se21  1  0.666667  0.333333  0.795871  1
  Se  Se22  1  0.161859  0.323716  0.790514  1
  Se  Se23  1  0.500219  0.499781  0.543192  1
  Se  Se24  1  0.000000  0.000000  0.530171  1
  Se  Se25  1  0.333333  0.666667  0.295871  1
  Se  Se26  1  0.000438  0.500219  0.043192  1
  Se  Se27  1  0.500219  0.000438  0.543192  1
  Se  Se28  1  0.161859  0.838141  0.790514  1
  Se  Se29  1  0.676284  0.838141  0.790514  1
  Se  Se30  1  0.499781  0.999562  0.043192  1
  Se  Se31  1  0.499781  0.500219  0.043192  1
