# generated using pymatgen
data_Fe6Si2TcW3
_symmetry_space_group_name_H-M   'P 1'
_cell_length_a   4.73493900
_cell_length_b   4.73494008
_cell_length_c   7.61287800
_cell_angle_alpha   90.00000000
_cell_angle_beta   90.00000000
_cell_angle_gamma   119.99998544
_symmetry_Int_Tables_number   1
_chemical_formula_structural   Fe6Si2TcW3
_chemical_formula_sum   'Fe6 Si2 Tc1 W3'
_cell_volume   147.81157400
_cell_formula_units_Z   1
loop_
 _symmetry_equiv_pos_site_id
 _symmetry_equiv_pos_as_xyz
  1  'x, y, z'
loop_
 _atom_site_type_symbol
 _atom_site_label
 _atom_site_symmetry_multiplicity
 _atom_site_fract_x
 _atom_site_fract_y
 _atom_site_fract_z
 _atom_site_occupancy
  Fe  Fe0  1  0.829008  0.170992  0.749049  1
  Fe  Fe1  1  0.829008  0.658014  0.749049  1
  Fe  Fe2  1  0.341986  0.170992  0.749049  1
  Fe  Fe3  1  0.170547  0.829453  0.249662  1
  Fe  Fe4  1  0.170547  0.341095  0.249662  1
  Fe  Fe5  1  0.658905  0.829453  0.249662  1
  Si  Si6  1  0.000000  0.000000  0.998034  1
  Si  Si7  1  0.000000  0.000000  0.499451  1
  Tc  Tc8  1  0.333333  0.666667  0.937891  1
  W  W9  1  0.666667  0.333333  0.061569  1
  W  W10  1  0.666667  0.333333  0.433882  1
  W  W11  1  0.333333  0.666667  0.573039  1
