# generated using pymatgen
data_La20GeBi8Ru3
_symmetry_space_group_name_H-M   'P 1'
_cell_length_a   8.54067905
_cell_length_b   9.40760800
_cell_length_c   13.03694400
_cell_angle_alpha   90.00000000
_cell_angle_beta   90.07362662
_cell_angle_gamma   90.00000000
_symmetry_Int_Tables_number   1
_chemical_formula_structural   La20GeBi8Ru3
_chemical_formula_sum   'La20 Ge1 Bi8 Ru3'
_cell_volume   1047.48317546
_cell_formula_units_Z   1
loop_
 _symmetry_equiv_pos_site_id
 _symmetry_equiv_pos_as_xyz
  1  'x, y, z'
loop_
 _atom_site_type_symbol
 _atom_site_label
 _atom_site_symmetry_multiplicity
 _atom_site_fract_x
 _atom_site_fract_y
 _atom_site_fract_z
 _atom_site_occupancy
  La  La0  1  0.334481  0.750000  0.715231  1
  La  La1  1  0.649796  0.250000  0.294784  1
  La  La2  1  0.849395  0.250000  0.798915  1
  La  La3  1  0.147703  0.750000  0.199932  1
  La  La4  1  0.875909  0.750000  0.804737  1
  La  La5  1  0.121917  0.250000  0.193649  1
  La  La6  1  0.376042  0.250000  0.697012  1
  La  La7  1  0.634744  0.750000  0.293265  1
  La  La8  1  0.684001  0.522464  0.562407  1
  La  La9  1  0.316172  0.448663  0.437344  1
  La  La10  1  0.180342  0.464726  0.939181  1
  La  La11  1  0.316172  0.051337  0.437344  1
  La  La12  1  0.820681  0.536493  0.061792  1
  La  La13  1  0.684001  0.977536  0.562407  1
  La  La14  1  0.820681  0.963507  0.061792  1
  La  La15  1  0.180342  0.035274  0.939181  1
  La  La16  1  0.046370  0.750000  0.496975  1
  La  La17  1  0.953812  0.250000  0.502525  1
  La  La18  1  0.555880  0.250000  0.004455  1
  La  La19  1  0.455425  0.750000  0.997754  1
  Ge  Ge20  1  0.430071  0.750000  0.487160  1
  Bi  Bi21  1  0.571284  0.506869  0.826746  1
  Bi  Bi22  1  0.423280  0.494176  0.174778  1
  Bi  Bi23  1  0.073604  0.492510  0.672097  1
  Bi  Bi24  1  0.423280  0.005824  0.174778  1
  Bi  Bi25  1  0.925256  0.506547  0.327270  1
  Bi  Bi26  1  0.571284  0.993131  0.826746  1
  Bi  Bi27  1  0.925256  0.993453  0.327270  1
  Bi  Bi28  1  0.073604  0.007490  0.672097  1
  Ru  Ru29  1  0.081641  0.750000  0.981479  1
  Ru  Ru30  1  0.916472  0.250000  0.014579  1
  Ru  Ru31  1  0.581098  0.250000  0.514321  1
