# generated using pymatgen
data_NaPr5YPtBr12
_symmetry_space_group_name_H-M   'P 1'
_cell_length_a   9.58006622
_cell_length_b   9.61172397
_cell_length_c   9.65375578
_cell_angle_alpha   107.27407449
_cell_angle_beta   107.93956914
_cell_angle_gamma   106.77230877
_symmetry_Int_Tables_number   1
_chemical_formula_structural   NaPr5YPtBr12
_chemical_formula_sum   'Na1 Pr5 Y1 Pt1 Br12'
_cell_volume   733.50964881
_cell_formula_units_Z   1
loop_
 _symmetry_equiv_pos_site_id
 _symmetry_equiv_pos_as_xyz
  1  'x, y, z'
loop_
 _atom_site_type_symbol
 _atom_site_label
 _atom_site_symmetry_multiplicity
 _atom_site_fract_x
 _atom_site_fract_y
 _atom_site_fract_z
 _atom_site_occupancy
  Na  Na0  1  0.499939  0.500475  0.499504  1
  Pr  Pr1  1  0.317794  0.028920  0.113272  1
  Pr  Pr2  1  0.032118  0.120861  0.329110  1
  Pr  Pr3  1  0.969442  0.884535  0.673469  1
  Pr  Pr4  1  0.682482  0.970458  0.886805  1
  Pr  Pr5  1  0.883438  0.671335  0.968300  1
  Y  Y6  1  0.113961  0.320245  0.032234  1
  Pt  Pt7  1  0.000786  0.000873  0.001597  1
  Br  Br8  1  0.215138  0.674849  0.072000  1
  Br  Br9  1  0.444467  0.372243  0.152078  1
  Br  Br10  1  0.683167  0.073585  0.215831  1
  Br  Br11  1  0.927823  0.786346  0.315982  1
  Br  Br12  1  0.157289  0.457087  0.361550  1
  Br  Br13  1  0.373647  0.158906  0.457745  1
  Br  Br14  1  0.626621  0.842131  0.542538  1
  Br  Br15  1  0.841837  0.543405  0.626475  1
  Br  Br16  1  0.075546  0.222647  0.696343  1
  Br  Br17  1  0.317129  0.927366  0.784732  1
  Br  Br18  1  0.542522  0.627664  0.841006  1
  Br  Br19  1  0.794856  0.316071  0.929431  1
