# generated using pymatgen
data_YbSmY2Ni13C4
_symmetry_space_group_name_H-M   'P 1'
_cell_length_a   8.37620953
_cell_length_b   8.37267141
_cell_length_c   3.86779100
_cell_angle_alpha   90.00000000
_cell_angle_beta   90.00000000
_cell_angle_gamma   90.81328376
_symmetry_Int_Tables_number   1
_chemical_formula_structural   YbSmY2Ni13C4
_chemical_formula_sum   'Yb1 Sm1 Y2 Ni13 C4'
_cell_volume   271.22569153
_cell_formula_units_Z   1
loop_
 _symmetry_equiv_pos_site_id
 _symmetry_equiv_pos_as_xyz
  1  'x, y, z'
loop_
 _atom_site_type_symbol
 _atom_site_label
 _atom_site_symmetry_multiplicity
 _atom_site_fract_x
 _atom_site_fract_y
 _atom_site_fract_z
 _atom_site_occupancy
  Yb  Yb0  1  0.192253  0.807235  0.500000  1
  Sm  Sm1  1  0.345097  0.348920  0.500000  1
  Y  Y2  1  0.813362  0.186744  0.500000  1
  Y  Y3  1  0.650165  0.653787  0.500000  1
  Ni  Ni4  1  0.000732  0.997074  0.000000  1
  Ni  Ni5  1  0.215047  0.572776  0.000000  1
  Ni  Ni6  1  0.785569  0.431869  0.000000  1
  Ni  Ni7  1  0.428854  0.786991  0.000000  1
  Ni  Ni8  1  0.569337  0.216381  0.000000  1
  Ni  Ni9  1  0.993093  0.505895  0.500000  1
  Ni  Ni10  1  0.501790  0.999188  0.500000  1
  Ni  Ni11  1  0.071273  0.289120  0.000000  1
  Ni  Ni12  1  0.925401  0.709462  0.000000  1
  Ni  Ni13  1  0.709359  0.926735  0.000000  1
  Ni  Ni14  1  0.288985  0.071982  0.000000  1
  Ni  Ni15  1  0.123587  0.113066  0.500000  1
  Ni  Ni16  1  0.883460  0.873737  0.500000  1
  C  C17  1  0.001753  0.500771  0.000000  1
  C  C18  1  0.498920  0.001458  0.000000  1
  C  C19  1  0.443694  0.560742  0.000000  1
  C  C20  1  0.558272  0.446066  0.000000  1
