# generated using pymatgen
data_Zr6Ta4Ga12FeIr6
_symmetry_space_group_name_H-M   'P 1'
_cell_length_a   8.82204021
_cell_length_b   8.82204106
_cell_length_c   8.82204100
_cell_angle_alpha   60.00000397
_cell_angle_beta   60.00000080
_cell_angle_gamma   60.00000803
_symmetry_Int_Tables_number   1
_chemical_formula_structural   Zr6Ta4Ga12FeIr6
_chemical_formula_sum   'Zr6 Ta4 Ga12 Fe1 Ir6'
_cell_volume   485.50334205
_cell_formula_units_Z   1
loop_
 _symmetry_equiv_pos_site_id
 _symmetry_equiv_pos_as_xyz
  1  'x, y, z'
loop_
 _atom_site_type_symbol
 _atom_site_label
 _atom_site_symmetry_multiplicity
 _atom_site_fract_x
 _atom_site_fract_y
 _atom_site_fract_z
 _atom_site_occupancy
  Zr  Zr0  1  0.693033  0.693033  0.306967  1
  Zr  Zr1  1  0.306967  0.693033  0.306967  1
  Zr  Zr2  1  0.693033  0.306967  0.306967  1
  Zr  Zr3  1  0.306967  0.306967  0.693033  1
  Zr  Zr4  1  0.693033  0.306967  0.693033  1
  Zr  Zr5  1  0.306967  0.693033  0.693033  1
  Ta  Ta6  1  0.880464  0.880464  0.358611  1
  Ta  Ta7  1  0.880464  0.358611  0.880464  1
  Ta  Ta8  1  0.358611  0.880464  0.880464  1
  Ta  Ta9  1  0.880464  0.880464  0.880464  1
  Ga  Ga10  1  0.117751  0.117751  0.646743  1
  Ga  Ga11  1  0.117751  0.646743  0.117751  1
  Ga  Ga12  1  0.646743  0.117751  0.117751  1
  Ga  Ga13  1  0.117751  0.117751  0.117751  1
  Ga  Ga14  1  0.655962  0.655962  0.032116  1
  Ga  Ga15  1  0.655962  0.032116  0.655962  1
  Ga  Ga16  1  0.032116  0.655962  0.655962  1
  Ga  Ga17  1  0.655962  0.655962  0.655962  1
  Ga  Ga18  1  0.342175  0.342175  0.973475  1
  Ga  Ga19  1  0.342175  0.973475  0.342175  1
  Ga  Ga20  1  0.973475  0.342175  0.342175  1
  Ga  Ga21  1  0.342175  0.342175  0.342175  1
  Fe  Fe22  1  0.000000  0.000000  0.000000  1
  Ir  Ir23  1  0.996022  0.996022  0.503978  1
  Ir  Ir24  1  0.503978  0.996022  0.503978  1
  Ir  Ir25  1  0.996022  0.503978  0.503978  1
  Ir  Ir26  1  0.503978  0.503978  0.996022  1
  Ir  Ir27  1  0.996022  0.503978  0.996022  1
  Ir  Ir28  1  0.503978  0.996022  0.996022  1
