# generated using pymatgen
data_Ce2MnAl20FeRh2
_symmetry_space_group_name_H-M   'P 1'
_cell_length_a   6.81535344
_cell_length_b   6.84609740
_cell_length_c   9.09596408
_cell_angle_alpha   89.93005883
_cell_angle_beta   89.83741863
_cell_angle_gamma   97.50525605
_symmetry_Int_Tables_number   1
_chemical_formula_structural   Ce2MnAl20FeRh2
_chemical_formula_sum   'Ce2 Mn1 Al20 Fe1 Rh2'
_cell_volume   420.76654739
_cell_formula_units_Z   1
loop_
 _symmetry_equiv_pos_site_id
 _symmetry_equiv_pos_as_xyz
  1  'x, y, z'
loop_
 _atom_site_type_symbol
 _atom_site_label
 _atom_site_symmetry_multiplicity
 _atom_site_fract_x
 _atom_site_fract_y
 _atom_site_fract_z
 _atom_site_occupancy
  Ce  Ce0  1  0.870997  0.116427  0.750585  1
  Ce  Ce1  1  0.129003  0.883573  0.249415  1
  Mn  Mn2  1  0.500000  0.000000  0.000000  1
  Al  Al3  1  0.411248  0.133083  0.749727  1
  Al  Al4  1  0.138863  0.406947  0.250021  1
  Al  Al5  1  0.588752  0.866917  0.250273  1
  Al  Al6  1  0.861137  0.593053  0.749979  1
  Al  Al7  1  0.518689  0.778252  0.750624  1
  Al  Al8  1  0.773891  0.522996  0.250414  1
  Al  Al9  1  0.481311  0.221748  0.249376  1
  Al  Al10  1  0.226109  0.477004  0.749586  1
  Al  Al11  1  0.836619  0.156068  0.399193  1
  Al  Al12  1  0.163381  0.843932  0.600807  1
  Al  Al13  1  0.836917  0.156205  0.100648  1
  Al  Al14  1  0.163083  0.843795  0.899352  1
  Al  Al15  1  0.618419  0.371883  0.948905  1
  Al  Al16  1  0.381581  0.628117  0.051095  1
  Al  Al17  1  0.618778  0.372172  0.551383  1
  Al  Al18  1  0.381222  0.627828  0.448617  1
  Al  Al19  1  0.771542  0.780047  0.998883  1
  Al  Al20  1  0.771164  0.780210  0.501225  1
  Al  Al21  1  0.228458  0.219953  0.001117  1
  Al  Al22  1  0.228836  0.219790  0.498775  1
  Fe  Fe23  1  0.500000  0.000000  0.500000  1
  Rh  Rh24  1  0.000000  0.500000  0.000000  1
  Rh  Rh25  1  0.000000  0.500000  0.500000  1
