# generated using pymatgen
data_Ho3Bi(As4O9)2
_symmetry_space_group_name_H-M   'P 1'
_cell_length_a   6.79843501
_cell_length_b   7.54574671
_cell_length_c   9.90294720
_cell_angle_alpha   94.63156801
_cell_angle_beta   104.07417054
_cell_angle_gamma   104.71632013
_symmetry_Int_Tables_number   1
_chemical_formula_structural   Ho3Bi(As4O9)2
_chemical_formula_sum   'Ho3 Bi1 As8 O18'
_cell_volume   471.06751862
_cell_formula_units_Z   1
loop_
 _symmetry_equiv_pos_site_id
 _symmetry_equiv_pos_as_xyz
  1  'x, y, z'
loop_
 _atom_site_type_symbol
 _atom_site_label
 _atom_site_symmetry_multiplicity
 _atom_site_fract_x
 _atom_site_fract_y
 _atom_site_fract_z
 _atom_site_occupancy
  Ho  Ho0  1  0.756599  0.062792  0.383524  1
  Ho  Ho1  1  0.718731  0.528922  0.407507  1
  Ho  Ho2  1  0.279430  0.465000  0.589220  1
  Bi  Bi3  1  0.239973  0.930481  0.615562  1
  As  As4  1  0.681580  0.776259  0.080341  1
  As  As5  1  0.320352  0.230159  0.926420  1
  As  As6  1  0.173781  0.752551  0.914500  1
  As  As7  1  0.826712  0.249031  0.089032  1
  As  As8  1  0.745290  0.910936  0.705079  1
  As  As9  1  0.257608  0.086885  0.288525  1
  As  As10  1  0.810651  0.351051  0.698862  1
  As  As11  1  0.194071  0.648900  0.298467  1
  O  O12  1  0.719662  0.748499  0.258871  1
  O  O13  1  0.280748  0.265333  0.750129  1
  O  O14  1  0.319196  0.981622  0.879213  1
  O  O15  1  0.685128  0.022516  0.133606  1
  O  O16  1  0.608777  0.324726  0.986412  1
  O  O17  1  0.393643  0.676505  0.015623  1
  O  O18  1  0.132088  0.650096  0.738909  1
  O  O19  1  0.867088  0.355840  0.261205  1
  O  O20  1  0.829526  0.866128  0.549356  1
  O  O21  1  0.147794  0.133825  0.432188  1
  O  O22  1  0.486516  0.763092  0.668336  1
  O  O23  1  0.518320  0.231078  0.335674  1
  O  O24  1  0.375227  0.535114  0.380597  1
  O  O25  1  0.625967  0.462262  0.616371  1
  O  O26  1  0.087789  0.661221  0.451688  1
  O  O27  1  0.912476  0.330340  0.545728  1
  O  O28  1  0.373929  0.899022  0.357569  1
  O  O29  1  0.631348  0.099813  0.641486  1
