# generated using pymatgen
data_Ce2ZnCu(PO)2
_symmetry_space_group_name_H-M   'P 1'
_cell_length_a   3.90540600
_cell_length_b   3.90540600
_cell_length_c   8.41893000
_cell_angle_alpha   90.00000000
_cell_angle_beta   90.00000000
_cell_angle_gamma   90.00000000
_symmetry_Int_Tables_number   1
_chemical_formula_structural   Ce2ZnCu(PO)2
_chemical_formula_sum   'Ce2 Zn1 Cu1 P2 O2'
_cell_volume   128.40717068
_cell_formula_units_Z   1
loop_
 _symmetry_equiv_pos_site_id
 _symmetry_equiv_pos_as_xyz
  1  'x, y, z'
loop_
 _atom_site_type_symbol
 _atom_site_label
 _atom_site_symmetry_multiplicity
 _atom_site_fract_x
 _atom_site_fract_y
 _atom_site_fract_z
 _atom_site_occupancy
  Ce  Ce0  1  0.250001  0.250001  0.151539  1
  Ce  Ce1  1  0.750001  0.750001  0.848461  1
  Zn  Zn2  1  0.750001  0.250001  0.500000  1
  Cu  Cu3  1  0.250001  0.750001  0.500000  1
  P  P4  1  0.750001  0.750001  0.326153  1
  P  P5  1  0.250001  0.250001  0.673847  1
  O  O6  1  0.750001  0.250001  0.000000  1
  O  O7  1  0.250001  0.750001  0.000000  1
