# generated using pymatgen
data_Ba5Yb(PrSn2)4
_symmetry_space_group_name_H-M   'P 1'
_cell_length_a   8.46110226
_cell_length_b   9.02612433
_cell_length_c   17.17443500
_cell_angle_alpha   90.01252415
_cell_angle_beta   90.03125125
_cell_angle_gamma   90.28172108
_symmetry_Int_Tables_number   1
_chemical_formula_structural   Ba5Yb(PrSn2)4
_chemical_formula_sum   'Ba10 Yb2 Pr8 Sn16'
_cell_volume   1311.61202245
_cell_formula_units_Z   2
loop_
 _symmetry_equiv_pos_site_id
 _symmetry_equiv_pos_as_xyz
  1  'x, y, z'
loop_
 _atom_site_type_symbol
 _atom_site_label
 _atom_site_symmetry_multiplicity
 _atom_site_fract_x
 _atom_site_fract_y
 _atom_site_fract_z
 _atom_site_occupancy
  Ba  Ba0  1  0.181691  0.324728  0.616162  1
  Ba  Ba1  1  0.506963  0.676321  0.593035  1
  Ba  Ba2  1  0.005795  0.825619  0.911718  1
  Ba  Ba3  1  0.489392  0.320063  0.098575  1
  Ba  Ba4  1  0.991281  0.183106  0.400541  1
  Ba  Ba5  1  0.491328  0.318865  0.400063  1
  Ba  Ba6  1  0.990112  0.181973  0.098211  1
  Ba  Ba7  1  0.509154  0.677968  0.910020  1
  Ba  Ba8  1  0.006769  0.821632  0.588657  1
  Ba  Ba9  1  0.328476  0.976554  0.749872  1
  Yb  Yb10  1  0.157706  0.496522  0.248804  1
  Yb  Yb11  1  0.659855  0.003751  0.249832  1
  Pr  Pr12  1  0.676843  0.170499  0.621543  1
  Pr  Pr13  1  0.175434  0.325528  0.882381  1
  Pr  Pr14  1  0.324345  0.826811  0.123509  1
  Pr  Pr15  1  0.824658  0.671919  0.374164  1
  Pr  Pr16  1  0.327209  0.828244  0.374261  1
  Pr  Pr17  1  0.825460  0.672345  0.122828  1
  Pr  Pr18  1  0.673274  0.172229  0.882219  1
  Pr  Pr19  1  0.841254  0.519971  0.751189  1
  Sn  Sn20  1  0.663093  0.957702  0.456758  1
  Sn  Sn21  1  0.154247  0.540024  0.041596  1
  Sn  Sn22  1  0.346605  0.041233  0.965499  1
  Sn  Sn23  1  0.834145  0.466153  0.538184  1
  Sn  Sn24  1  0.359363  0.028902  0.533232  1
  Sn  Sn25  1  0.845354  0.463081  0.958287  1
  Sn  Sn26  1  0.655253  0.960440  0.043416  1
  Sn  Sn27  1  0.149764  0.547054  0.451024  1
  Sn  Sn28  1  0.482124  0.379289  0.757289  1
  Sn  Sn29  1  0.954154  0.140381  0.755154  1
  Sn  Sn30  1  0.529898  0.626355  0.248242  1
  Sn  Sn31  1  0.029776  0.873462  0.247891  1
  Sn  Sn32  1  0.733265  0.882170  0.751395  1
  Sn  Sn33  1  0.214122  0.598786  0.757018  1
  Sn  Sn34  1  0.281458  0.108912  0.248935  1
  Sn  Sn35  1  0.780381  0.391406  0.248499  1
