# generated using pymatgen
data_ErFe2CoB4Os
_symmetry_space_group_name_H-M   'P 1'
_cell_length_a   6.97835791
_cell_length_b   7.20305998
_cell_length_c   3.86467800
_cell_angle_alpha   90.00000000
_cell_angle_beta   90.00000000
_cell_angle_gamma   91.60531187
_symmetry_Int_Tables_number   1
_chemical_formula_structural   ErFe2CoB4Os
_chemical_formula_sum   'Er2 Fe4 Co2 B8 Os2'
_cell_volume   194.18384738
_cell_formula_units_Z   2
loop_
 _symmetry_equiv_pos_site_id
 _symmetry_equiv_pos_as_xyz
  1  'x, y, z'
loop_
 _atom_site_type_symbol
 _atom_site_label
 _atom_site_symmetry_multiplicity
 _atom_site_fract_x
 _atom_site_fract_y
 _atom_site_fract_z
 _atom_site_occupancy
  Er  Er0  1  0.000000  0.000000  0.918604  1
  Er  Er1  1  0.500000  0.500000  0.397729  1
  Fe  Fe2  1  0.378139  0.113911  0.623776  1
  Fe  Fe3  1  0.621861  0.886089  0.623776  1
  Fe  Fe4  1  0.622212  0.121236  0.122671  1
  Fe  Fe5  1  0.377788  0.878764  0.122671  1
  Co  Co6  1  0.888905  0.344329  0.398671  1
  Co  Co7  1  0.111095  0.655671  0.398671  1
  B  B8  1  0.660932  0.820422  0.122071  1
  B  B9  1  0.339068  0.179578  0.122071  1
  B  B10  1  0.315248  0.832902  0.620223  1
  B  B11  1  0.684752  0.167098  0.620223  1
  B  B12  1  0.827163  0.729500  0.403629  1
  B  B13  1  0.172837  0.270500  0.403629  1
  B  B14  1  0.211899  0.670328  0.904354  1
  B  B15  1  0.788101  0.329672  0.904354  1
  Os  Os16  1  0.147830  0.385768  0.896437  1
  Os  Os17  1  0.852170  0.614232  0.896437  1
