# generated using pymatgen
data_Sr3AcTi4O12
_symmetry_space_group_name_H-M   'P 1'
_cell_length_a   5.60730327
_cell_length_b   5.60730278
_cell_length_c   9.70518069
_cell_angle_alpha   73.23936115
_cell_angle_beta   73.23936124
_cell_angle_gamma   60.17332549
_symmetry_Int_Tables_number   1
_chemical_formula_structural   Sr3AcTi4O12
_chemical_formula_sum   'Sr3 Ac1 Ti4 O12'
_cell_volume   249.59223539
_cell_formula_units_Z   1
loop_
 _symmetry_equiv_pos_site_id
 _symmetry_equiv_pos_as_xyz
  1  'x, y, z'
loop_
 _atom_site_type_symbol
 _atom_site_label
 _atom_site_symmetry_multiplicity
 _atom_site_fract_x
 _atom_site_fract_y
 _atom_site_fract_z
 _atom_site_occupancy
  Sr  Sr0  1  0.123692  0.876308  0.500000  1
  Sr  Sr1  1  0.377072  0.124950  0.746793  1
  Sr  Sr2  1  0.875050  0.622928  0.253207  1
  Ac  Ac3  1  0.623830  0.376170  0.000000  1
  Ti  Ti4  1  0.248139  0.999484  0.128934  1
  Ti  Ti5  1  0.751664  0.500832  0.621230  1
  Ti  Ti6  1  0.000516  0.751861  0.871066  1
  Ti  Ti7  1  0.499168  0.248336  0.378770  1
  O  O8  1  0.910622  0.585334  0.752473  1
  O  O9  1  0.414666  0.089378  0.247527  1
  O  O10  1  0.086072  0.913928  0.000000  1
  O  O11  1  0.589347  0.410653  0.500000  1
  O  O12  1  0.634136  0.883580  0.508887  1
  O  O13  1  0.136260  0.384982  0.009714  1
  O  O14  1  0.615018  0.863740  0.990286  1
  O  O15  1  0.116420  0.365864  0.491113  1
  O  O16  1  0.386153  0.633406  0.761661  1
  O  O17  1  0.882680  0.137101  0.257110  1
  O  O18  1  0.366594  0.613847  0.238339  1
  O  O19  1  0.862899  0.117320  0.742890  1
