# generated using pymatgen
data_Tb3Lu7(SiHg)4
_symmetry_space_group_name_H-M   'P 1'
_cell_length_a   8.47228484
_cell_length_b   8.87543682
_cell_length_c   7.43798445
_cell_angle_alpha   90.06001526
_cell_angle_beta   89.85454157
_cell_angle_gamma   129.20012457
_symmetry_Int_Tables_number   1
_chemical_formula_structural   Tb3Lu7(SiHg)4
_chemical_formula_sum   'Tb3 Lu7 Si4 Hg4'
_cell_volume   433.42490623
_cell_formula_units_Z   1
loop_
 _symmetry_equiv_pos_site_id
 _symmetry_equiv_pos_as_xyz
  1  'x, y, z'
loop_
 _atom_site_type_symbol
 _atom_site_label
 _atom_site_symmetry_multiplicity
 _atom_site_fract_x
 _atom_site_fract_y
 _atom_site_fract_z
 _atom_site_occupancy
  Tb  Tb0  1  0.168613  0.435693  0.823327  1
  Tb  Tb1  1  0.668812  0.937692  0.677390  1
  Tb  Tb2  1  0.332331  0.063991  0.322232  1
  Lu  Lu3  1  0.042214  0.286521  0.324312  1
  Lu  Lu4  1  0.958670  0.712033  0.676754  1
  Lu  Lu5  1  0.460050  0.212857  0.823698  1
  Lu  Lu6  1  0.826349  0.562921  0.174583  1
  Lu  Lu7  1  0.542073  0.787954  0.176136  1
  Lu  Lu8  1  0.000753  0.999853  0.000102  1
  Lu  Lu9  1  0.501517  0.499681  0.499526  1
  Si  Si10  1  0.382381  0.379831  0.122734  1
  Si  Si11  1  0.619419  0.620910  0.877640  1
  Si  Si12  1  0.119768  0.120201  0.622780  1
  Si  Si13  1  0.881021  0.877158  0.375987  1
  Hg  Hg14  1  0.752634  0.192758  0.025253  1
  Hg  Hg15  1  0.241635  0.806861  0.983448  1
  Hg  Hg16  1  0.748901  0.314510  0.514856  1
  Hg  Hg17  1  0.252859  0.688578  0.479240  1
