# generated using pymatgen
data_Ho2TmSc3Bi2Ir
_symmetry_space_group_name_H-M   'P 1'
_cell_length_a   7.97656101
_cell_length_b   7.97656014
_cell_length_c   4.17761800
_cell_angle_alpha   90.00000000
_cell_angle_beta   90.00000000
_cell_angle_gamma   120.08128272
_symmetry_Int_Tables_number   1
_chemical_formula_structural   Ho2TmSc3Bi2Ir
_chemical_formula_sum   'Ho2 Tm1 Sc3 Bi2 Ir1'
_cell_volume   230.00347459
_cell_formula_units_Z   1
loop_
 _symmetry_equiv_pos_site_id
 _symmetry_equiv_pos_as_xyz
  1  'x, y, z'
loop_
 _atom_site_type_symbol
 _atom_site_label
 _atom_site_symmetry_multiplicity
 _atom_site_fract_x
 _atom_site_fract_y
 _atom_site_fract_z
 _atom_site_occupancy
  Ho  Ho0  1  0.616389  0.999901  0.000000  1
  Ho  Ho1  1  0.999901  0.616389  0.000000  1
  Tm  Tm2  1  0.382821  0.382821  0.000000  1
  Sc  Sc3  1  0.227731  0.000297  0.500000  1
  Sc  Sc4  1  0.000297  0.227731  0.500000  1
  Sc  Sc5  1  0.772324  0.772324  0.500000  1
  Bi  Bi6  1  0.333318  0.666196  0.500000  1
  Bi  Bi7  1  0.666196  0.333318  0.500000  1
  Ir  Ir8  1  0.001024  0.001024  0.000000  1
