# generated using pymatgen
data_TbPa3(GaOs)4
_symmetry_space_group_name_H-M   'P 1'
_cell_length_a   4.23382400
_cell_length_b   6.79303366
_cell_length_c   8.00971990
_cell_angle_alpha   89.50393491
_cell_angle_beta   90.00000000
_cell_angle_gamma   90.00000000
_symmetry_Int_Tables_number   1
_chemical_formula_structural   TbPa3(GaOs)4
_chemical_formula_sum   'Tb1 Pa3 Ga4 Os4'
_cell_volume   230.35498672
_cell_formula_units_Z   1
loop_
 _symmetry_equiv_pos_site_id
 _symmetry_equiv_pos_as_xyz
  1  'x, y, z'
loop_
 _atom_site_type_symbol
 _atom_site_label
 _atom_site_symmetry_multiplicity
 _atom_site_fract_x
 _atom_site_fract_y
 _atom_site_fract_z
 _atom_site_occupancy
  Tb  Tb0  1  0.750000  0.029977  0.690657  1
  Pa  Pa1  1  0.750000  0.534194  0.810414  1
  Pa  Pa2  1  0.250000  0.968699  0.314812  1
  Pa  Pa3  1  0.250000  0.471622  0.191234  1
  Ga  Ga4  1  0.750000  0.647393  0.438958  1
  Ga  Ga5  1  0.250000  0.340910  0.565950  1
  Ga  Ga6  1  0.750000  0.147590  0.057707  1
  Ga  Ga7  1  0.250000  0.859964  0.932015  1
  Os  Os8  1  0.250000  0.731319  0.617667  1
  Os  Os9  1  0.250000  0.265055  0.890753  1
  Os  Os10  1  0.750000  0.752607  0.120706  1
  Os  Os11  1  0.750000  0.250673  0.369128  1
