# generated using pymatgen
data_PrBi3(MoO6)2
_symmetry_space_group_name_H-M   'P 1'
_cell_length_a   10.50275231
_cell_length_b   10.59321850
_cell_length_c   5.61480191
_cell_angle_alpha   73.96626035
_cell_angle_beta   74.70756703
_cell_angle_gamma   69.08365700
_symmetry_Int_Tables_number   1
_chemical_formula_structural   PrBi3(MoO6)2
_chemical_formula_sum   'Pr2 Bi6 Mo4 O24'
_cell_volume   551.25656941
_cell_formula_units_Z   2
loop_
 _symmetry_equiv_pos_site_id
 _symmetry_equiv_pos_as_xyz
  1  'x, y, z'
loop_
 _atom_site_type_symbol
 _atom_site_label
 _atom_site_symmetry_multiplicity
 _atom_site_fract_x
 _atom_site_fract_y
 _atom_site_fract_z
 _atom_site_occupancy
  Pr  Pr0  1  0.045803  0.297326  0.606875  1
  Pr  Pr1  1  0.954197  0.702674  0.393125  1
  Bi  Bi2  1  0.654878  0.343049  0.764994  1
  Bi  Bi3  1  0.345122  0.656951  0.235006  1
  Bi  Bi4  1  0.102995  0.892240  0.753898  1
  Bi  Bi5  1  0.897005  0.107760  0.246102  1
  Bi  Bi6  1  0.733660  0.950209  0.878702  1
  Bi  Bi7  1  0.266340  0.049791  0.121298  1
  Mo  Mo8  1  0.533498  0.793781  0.582900  1
  Mo  Mo9  1  0.466502  0.206219  0.417100  1
  Mo  Mo10  1  0.199834  0.485855  0.928450  1
  Mo  Mo11  1  0.800166  0.514145  0.071550  1
  O  O12  1  0.754795  0.148133  0.650106  1
  O  O13  1  0.245205  0.851867  0.349894  1
  O  O14  1  0.835071  0.310649  0.933327  1
  O  O15  1  0.164929  0.689351  0.066673  1
  O  O16  1  0.397304  0.824478  0.866283  1
  O  O17  1  0.602696  0.175522  0.133717  1
  O  O18  1  0.172923  0.611583  0.623934  1
  O  O19  1  0.827077  0.388417  0.376066  1
  O  O20  1  0.703486  0.784006  0.620228  1
  O  O21  1  0.296514  0.215994  0.379772  1
  O  O22  1  0.198976  0.331001  0.849847  1
  O  O23  1  0.801024  0.668999  0.150153  1
  O  O24  1  0.506418  0.071683  0.684930  1
  O  O25  1  0.493582  0.928317  0.315070  1
  O  O26  1  0.928712  0.521501  0.769971  1
  O  O27  1  0.071288  0.478499  0.230029  1
  O  O28  1  0.533473  0.639393  0.515964  1
  O  O29  1  0.466527  0.360607  0.484036  1
  O  O30  1  0.369631  0.446844  0.982433  1
  O  O31  1  0.630369  0.553156  0.017567  1
  O  O32  1  0.900495  0.920032  0.081480  1
  O  O33  1  0.099505  0.079968  0.918520  1
  O  O34  1  0.073829  0.115526  0.401724  1
  O  O35  1  0.926171  0.884474  0.598276  1
