# generated using pymatgen
data_Pr16Cd3AgIrPt3
_symmetry_space_group_name_H-M   'P 1'
_cell_length_a   10.06982968
_cell_length_b   10.04957659
_cell_length_c   10.04957695
_cell_angle_alpha   60.14587512
_cell_angle_beta   60.22165149
_cell_angle_gamma   60.22164394
_symmetry_Int_Tables_number   1
_chemical_formula_structural   Pr16Cd3AgIrPt3
_chemical_formula_sum   'Pr16 Cd3 Ag1 Ir1 Pt3'
_cell_volume   722.31933898
_cell_formula_units_Z   1
loop_
 _symmetry_equiv_pos_site_id
 _symmetry_equiv_pos_as_xyz
  1  'x, y, z'
loop_
 _atom_site_type_symbol
 _atom_site_label
 _atom_site_symmetry_multiplicity
 _atom_site_fract_x
 _atom_site_fract_y
 _atom_site_fract_z
 _atom_site_occupancy
  Pr  Pr0  1  0.351579  0.347430  0.347430  1
  Pr  Pr1  1  0.353929  0.349389  0.948024  1
  Pr  Pr2  1  0.353929  0.948024  0.349389  1
  Pr  Pr3  1  0.943153  0.352984  0.352984  1
  Pr  Pr4  1  0.807548  0.190263  0.190263  1
  Pr  Pr5  1  0.190747  0.807849  0.807849  1
  Pr  Pr6  1  0.191453  0.810294  0.191113  1
  Pr  Pr7  1  0.805936  0.188733  0.812510  1
  Pr  Pr8  1  0.191453  0.191113  0.810294  1
  Pr  Pr9  1  0.805936  0.812510  0.188733  1
  Pr  Pr10  1  0.936814  0.562797  0.562797  1
  Pr  Pr11  1  0.561987  0.936930  0.936930  1
  Pr  Pr12  1  0.564662  0.936096  0.561643  1
  Pr  Pr13  1  0.937757  0.560165  0.936998  1
  Pr  Pr14  1  0.564662  0.561643  0.936096  1
  Pr  Pr15  1  0.937757  0.936998  0.560165  1
  Cd  Cd16  1  0.580541  0.581349  0.260061  1
  Cd  Cd17  1  0.580541  0.260061  0.581349  1
  Cd  Cd18  1  0.260522  0.580799  0.580799  1
  Ag  Ag19  1  0.582539  0.582220  0.582220  1
  Ir  Ir20  1  0.571788  0.142983  0.142983  1
  Pt  Pt21  1  0.142051  0.144706  0.144706  1
  Pt  Pt22  1  0.141358  0.143601  0.571061  1
  Pt  Pt23  1  0.141358  0.571061  0.143601  1
