# generated using pymatgen
data_La(YSi2)2
_symmetry_space_group_name_H-M   'P 1'
_cell_length_a   3.98894944
_cell_length_b   4.29487342
_cell_length_c   9.34310800
_cell_angle_alpha   76.71265918
_cell_angle_beta   77.67720411
_cell_angle_gamma   90.00008543
_symmetry_Int_Tables_number   1
_chemical_formula_structural   La(YSi2)2
_chemical_formula_sum   'La1 Y2 Si4'
_cell_volume   151.98964470
_cell_formula_units_Z   1
loop_
 _symmetry_equiv_pos_site_id
 _symmetry_equiv_pos_as_xyz
  1  'x, y, z'
loop_
 _atom_site_type_symbol
 _atom_site_label
 _atom_site_symmetry_multiplicity
 _atom_site_fract_x
 _atom_site_fract_y
 _atom_site_fract_z
 _atom_site_occupancy
  La  La0  1  0.000001  0.999999  0.999970  1
  Y  Y1  1  0.684128  0.184109  0.631947  1
  Y  Y2  1  0.315871  0.815889  0.368065  1
  Si  Si3  1  0.850927  0.350874  0.298572  1
  Si  Si4  1  0.149067  0.649122  0.701436  1
  Si  Si5  1  0.567473  0.567783  0.864756  1
  Si  Si6  1  0.432535  0.432223  0.135252  1
