# generated using pymatgen
data_HoCo(NiP)2
_symmetry_space_group_name_H-M   'P 1'
_cell_length_a   3.74585700
_cell_length_b   10.43407800
_cell_length_c   12.26277400
_cell_angle_alpha   90.00000000
_cell_angle_beta   90.00000000
_cell_angle_gamma   90.00000000
_symmetry_Int_Tables_number   1
_chemical_formula_structural   HoCo(NiP)2
_chemical_formula_sum   'Ho6 Co6 Ni12 P12'
_cell_volume   479.28517663
_cell_formula_units_Z   6
loop_
 _symmetry_equiv_pos_site_id
 _symmetry_equiv_pos_as_xyz
  1  'x, y, z'
loop_
 _atom_site_type_symbol
 _atom_site_label
 _atom_site_symmetry_multiplicity
 _atom_site_fract_x
 _atom_site_fract_y
 _atom_site_fract_z
 _atom_site_occupancy
  Ho  Ho0  1  0.000000  0.500000  0.519867  1
  Ho  Ho1  1  0.500000  0.000000  0.480133  1
  Ho  Ho2  1  0.500000  0.815154  0.205999  1
  Ho  Ho3  1  0.500000  0.184846  0.205999  1
  Ho  Ho4  1  0.000000  0.684846  0.794001  1
  Ho  Ho5  1  0.000000  0.315154  0.794001  1
  Co  Co6  1  0.000000  0.500000  0.983354  1
  Co  Co7  1  0.500000  0.000000  0.016646  1
  Co  Co8  1  0.500000  0.334388  0.994818  1
  Co  Co9  1  0.500000  0.665612  0.994818  1
  Co  Co10  1  0.000000  0.165612  0.005182  1
  Co  Co11  1  0.000000  0.834388  0.005182  1
  Ni  Ni12  1  0.500000  0.300324  0.429490  1
  Ni  Ni13  1  0.500000  0.699676  0.429490  1
  Ni  Ni14  1  0.000000  0.199676  0.570510  1
  Ni  Ni15  1  0.000000  0.800324  0.570510  1
  Ni  Ni16  1  0.500000  0.878801  0.713693  1
  Ni  Ni17  1  0.500000  0.121199  0.713693  1
  Ni  Ni18  1  0.000000  0.621199  0.286307  1
  Ni  Ni19  1  0.000000  0.378801  0.286307  1
  Ni  Ni20  1  0.500000  0.500000  0.157979  1
  Ni  Ni21  1  0.000000  0.000000  0.842021  1
  Ni  Ni22  1  0.500000  0.500000  0.702806  1
  Ni  Ni23  1  0.000000  0.000000  0.297194  1
  P  P24  1  0.500000  0.313580  0.616203  1
  P  P25  1  0.500000  0.686420  0.616203  1
  P  P26  1  0.000000  0.186420  0.383797  1
  P  P27  1  0.000000  0.813580  0.383797  1
  P  P28  1  0.500000  0.500000  0.880698  1
  P  P29  1  0.000000  0.000000  0.119302  1
  P  P30  1  0.500000  0.845931  0.897458  1
  P  P31  1  0.500000  0.154069  0.897458  1
  P  P32  1  0.000000  0.654069  0.102542  1
  P  P33  1  0.000000  0.345931  0.102542  1
  P  P34  1  0.500000  0.500000  0.343279  1
  P  P35  1  0.000000  0.000000  0.656721  1
