# generated using pymatgen
data_Ho5(RuO6)2
_symmetry_space_group_name_H-M   'P 1'
_cell_length_a   6.81906071
_cell_length_b   6.81905524
_cell_length_c   7.35290902
_cell_angle_alpha   74.25460571
_cell_angle_beta   74.25460419
_cell_angle_gamma   50.41702850
_symmetry_Int_Tables_number   1
_chemical_formula_structural   Ho5(RuO6)2
_chemical_formula_sum   'Ho5 Ru2 O12'
_cell_volume   251.37724189
_cell_formula_units_Z   1
loop_
 _symmetry_equiv_pos_site_id
 _symmetry_equiv_pos_as_xyz
  1  'x, y, z'
loop_
 _atom_site_type_symbol
 _atom_site_label
 _atom_site_symmetry_multiplicity
 _atom_site_fract_x
 _atom_site_fract_y
 _atom_site_fract_z
 _atom_site_occupancy
  Ho  Ho0  1  0.302801  0.302800  0.360698  1
  Ho  Ho1  1  0.697199  0.697200  0.639302  1
  Ho  Ho2  1  0.310564  0.310565  0.827422  1
  Ho  Ho3  1  0.689436  0.689435  0.172578  1
  Ho  Ho4  1  0.000000  0.000000  0.500000  1
  Ru  Ru5  1  0.764106  0.235895  0.999999  1
  Ru  Ru6  1  0.235894  0.764105  0.000001  1
  O  O7  1  0.906592  0.423798  0.915903  1
  O  O8  1  0.423797  0.906594  0.915902  1
  O  O9  1  0.093408  0.576202  0.084097  1
  O  O10  1  0.576203  0.093406  0.084098  1
  O  O11  1  0.097004  0.595185  0.574798  1
  O  O12  1  0.595185  0.097005  0.574797  1
  O  O13  1  0.902996  0.404815  0.425202  1
  O  O14  1  0.404815  0.902995  0.425203  1
  O  O15  1  0.999081  0.999081  0.804277  1
  O  O16  1  0.000919  0.000919  0.195723  1
  O  O17  1  0.500275  0.500275  0.813443  1
  O  O18  1  0.499725  0.499725  0.186557  1
