# generated using pymatgen
data_Er8SiPI12
_symmetry_space_group_name_H-M   'P 1'
_cell_length_a   4.16835700
_cell_length_b   13.79022609
_cell_length_c   14.56180933
_cell_angle_alpha   90.08831100
_cell_angle_beta   90.00000000
_cell_angle_gamma   90.00000000
_symmetry_Int_Tables_number   1
_chemical_formula_structural   Er8SiPI12
_chemical_formula_sum   'Er8 Si1 P1 I12'
_cell_volume   837.04945488
_cell_formula_units_Z   1
loop_
 _symmetry_equiv_pos_site_id
 _symmetry_equiv_pos_as_xyz
  1  'x, y, z'
loop_
 _atom_site_type_symbol
 _atom_site_label
 _atom_site_symmetry_multiplicity
 _atom_site_fract_x
 _atom_site_fract_y
 _atom_site_fract_z
 _atom_site_occupancy
  Er  Er0  1  0.500000  0.111660  0.351258  1
  Er  Er1  1  0.500000  0.888340  0.648742  1
  Er  Er2  1  0.500000  0.615033  0.153396  1
  Er  Er3  1  0.500000  0.384967  0.846604  1
  Er  Er4  1  0.000000  0.105552  0.570948  1
  Er  Er5  1  0.000000  0.894448  0.429052  1
  Er  Er6  1  0.000000  0.610642  0.925420  1
  Er  Er7  1  0.000000  0.389358  0.074580  1
  Si  Si8  1  0.500000  0.500000  0.000000  1
  P  P9  1  0.500000  0.000000  0.500000  1
  I  I10  1  0.500000  0.245936  0.163838  1
  I  I11  1  0.500000  0.754064  0.836162  1
  I  I12  1  0.500000  0.748774  0.338119  1
  I  I13  1  0.500000  0.251226  0.661881  1
  I  I14  1  0.000000  0.257997  0.416087  1
  I  I15  1  0.000000  0.742003  0.583913  1
  I  I16  1  0.000000  0.760527  0.084769  1
  I  I17  1  0.000000  0.239473  0.915231  1
  I  I18  1  0.000000  0.999108  0.241315  1
  I  I19  1  0.000000  0.000892  0.758685  1
  I  I20  1  0.000000  0.499444  0.261734  1
  I  I21  1  0.000000  0.500556  0.738266  1
