# generated using pymatgen
data_TmTh5(MgAu)6
_symmetry_space_group_name_H-M   'P 1'
_cell_length_a   7.61079400
_cell_length_b   7.61127660
_cell_length_c   8.55769300
_cell_angle_alpha   90.00000000
_cell_angle_beta   90.00000000
_cell_angle_gamma   120.17496264
_symmetry_Int_Tables_number   1
_chemical_formula_structural   TmTh5(MgAu)6
_chemical_formula_sum   'Tm1 Th5 Mg6 Au6'
_cell_volume   428.55486041
_cell_formula_units_Z   1
loop_
 _symmetry_equiv_pos_site_id
 _symmetry_equiv_pos_as_xyz
  1  'x, y, z'
loop_
 _atom_site_type_symbol
 _atom_site_label
 _atom_site_symmetry_multiplicity
 _atom_site_fract_x
 _atom_site_fract_y
 _atom_site_fract_z
 _atom_site_occupancy
  Tm  Tm0  1  0.408816  0.408866  0.250000  1
  Th  Th1  1  0.585882  0.001711  0.750000  1
  Th  Th2  1  0.001584  0.585813  0.750000  1
  Th  Th3  1  0.424938  0.424842  0.750000  1
  Th  Th4  1  0.998004  0.578524  0.250000  1
  Th  Th5  1  0.578479  0.997890  0.250000  1
  Mg  Mg6  1  0.755489  0.755517  0.008532  1
  Mg  Mg7  1  0.242180  0.005411  0.001498  1
  Mg  Mg8  1  0.005489  0.242201  0.001472  1
  Mg  Mg9  1  0.755489  0.755517  0.491468  1
  Mg  Mg10  1  0.242180  0.005411  0.498502  1
  Mg  Mg11  1  0.005489  0.242201  0.498528  1
  Au  Au12  1  0.997280  0.997227  0.750000  1
  Au  Au13  1  0.002415  0.002428  0.250000  1
  Au  Au14  1  0.664576  0.333572  0.003667  1
  Au  Au15  1  0.664576  0.333572  0.496333  1
  Au  Au16  1  0.333569  0.664647  0.496502  1
  Au  Au17  1  0.333569  0.664647  0.003498  1
