# generated using pymatgen
data_ZrSb27
_symmetry_space_group_name_H-M   'P 1'
_cell_length_a   4.25899700
_cell_length_b   13.40733567
_cell_length_c   15.56557363
_cell_angle_alpha   75.17320924
_cell_angle_beta   90.00000000
_cell_angle_gamma   90.00000000
_symmetry_Int_Tables_number   1
_chemical_formula_structural   ZrSb27
_chemical_formula_sum   'Zr1 Sb27'
_cell_volume   859.22793971
_cell_formula_units_Z   1
loop_
 _symmetry_equiv_pos_site_id
 _symmetry_equiv_pos_as_xyz
  1  'x, y, z'
loop_
 _atom_site_type_symbol
 _atom_site_label
 _atom_site_symmetry_multiplicity
 _atom_site_fract_x
 _atom_site_fract_y
 _atom_site_fract_z
 _atom_site_occupancy
  Zr  Zr0  1  0.250000  0.381782  0.762965  1
  Sb  Sb1  1  0.750000  0.673410  0.204272  1
  Sb  Sb2  1  0.250000  0.591438  0.844681  1
  Sb  Sb3  1  0.750000  0.414170  0.153744  1
  Sb  Sb4  1  0.250000  0.596519  0.574115  1
  Sb  Sb5  1  0.750000  0.282466  0.363722  1
  Sb  Sb6  1  0.250000  0.949988  0.431655  1
  Sb  Sb7  1  0.750000  0.042591  0.624569  1
  Sb  Sb8  1  0.250000  0.139432  0.797232  1
  Sb  Sb9  1  0.750000  0.890231  0.228644  1
  Sb  Sb10  1  0.250000  0.147573  0.491576  1
  Sb  Sb11  1  0.750000  0.852830  0.554550  1
  Sb  Sb12  1  0.250000  0.175088  0.156337  1
  Sb  Sb13  1  0.750000  0.845575  0.860247  1
  Sb  Sb14  1  0.250000  0.387071  0.974620  1
  Sb  Sb15  1  0.750000  0.621087  0.995001  1
  Sb  Sb16  1  0.750000  0.042697  0.923906  1
  Sb  Sb17  1  0.250000  0.977657  0.100798  1
  Sb  Sb18  1  0.750000  0.103571  0.286084  1
  Sb  Sb19  1  0.250000  0.859485  0.728314  1
  Sb  Sb20  1  0.750000  0.278748  0.905573  1
  Sb  Sb21  1  0.250000  0.743155  0.058985  1
  Sb  Sb22  1  0.750000  0.282478  0.662640  1
  Sb  Sb23  1  0.250000  0.741290  0.363423  1
  Sb  Sb24  1  0.750000  0.552628  0.721100  1
  Sb  Sb25  1  0.250000  0.461761  0.266446  1
  Sb  Sb26  1  0.750000  0.581169  0.422781  1
  Sb  Sb27  1  0.250000  0.384114  0.542020  1
