# generated using pymatgen
data_SrGd8Ho11Sn16
_symmetry_space_group_name_H-M   'P 1'
_cell_length_a   8.15100119
_cell_length_b   8.34436895
_cell_length_c   15.69334100
_cell_angle_alpha   89.99953308
_cell_angle_beta   89.98751597
_cell_angle_gamma   89.94425845
_symmetry_Int_Tables_number   1
_chemical_formula_structural   SrGd8Ho11Sn16
_chemical_formula_sum   'Sr1 Gd8 Ho11 Sn16'
_cell_volume   1067.38144971
_cell_formula_units_Z   1
loop_
 _symmetry_equiv_pos_site_id
 _symmetry_equiv_pos_as_xyz
  1  'x, y, z'
loop_
 _atom_site_type_symbol
 _atom_site_label
 _atom_site_symmetry_multiplicity
 _atom_site_fract_x
 _atom_site_fract_y
 _atom_site_fract_z
 _atom_site_occupancy
  Sr  Sr0  1  0.511856  0.322420  0.906689  1
  Gd  Gd1  1  0.011318  0.179608  0.595264  1
  Gd  Gd2  1  0.489015  0.678853  0.403872  1
  Gd  Gd3  1  0.987588  0.820221  0.096748  1
  Gd  Gd4  1  0.489363  0.681678  0.096865  1
  Gd  Gd5  1  0.989439  0.821104  0.403373  1
  Gd  Gd6  1  0.511463  0.320785  0.596211  1
  Gd  Gd7  1  0.011316  0.177793  0.903097  1
  Gd  Gd8  1  0.310825  0.999642  0.249814  1
  Ho  Ho9  1  0.355023  0.837990  0.876435  1
  Ho  Ho10  1  0.855423  0.662905  0.622529  1
  Ho  Ho11  1  0.643791  0.163719  0.376694  1
  Ho  Ho12  1  0.146888  0.334189  0.124490  1
  Ho  Ho13  1  0.645634  0.162396  0.123633  1
  Ho  Ho14  1  0.144341  0.336641  0.376805  1
  Ho  Ho15  1  0.355221  0.837215  0.622167  1
  Ho  Ho16  1  0.853577  0.662749  0.875342  1
  Ho  Ho17  1  0.189558  0.500828  0.749303  1
  Ho  Ho18  1  0.688739  0.999605  0.749155  1
  Ho  Ho19  1  0.811475  0.498938  0.250909  1
  Sn  Sn20  1  0.302676  0.033608  0.043705  1
  Sn  Sn21  1  0.803595  0.460898  0.457419  1
  Sn  Sn22  1  0.696415  0.961592  0.541718  1
  Sn  Sn23  1  0.184002  0.545657  0.960881  1
  Sn  Sn24  1  0.698165  0.954159  0.959894  1
  Sn  Sn25  1  0.196865  0.539133  0.541802  1
  Sn  Sn26  1  0.304096  0.039621  0.458430  1
  Sn  Sn27  1  0.815107  0.465070  0.045410  1
  Sn  Sn28  1  0.552492  0.626560  0.747663  1
  Sn  Sn29  1  0.051407  0.877922  0.749776  1
  Sn  Sn30  1  0.448245  0.380016  0.248844  1
  Sn  Sn31  1  0.944801  0.122646  0.250436  1
  Sn  Sn32  1  0.313953  0.142283  0.746842  1
  Sn  Sn33  1  0.825169  0.354698  0.747786  1
  Sn  Sn34  1  0.682206  0.854291  0.249698  1
  Sn  Sn35  1  0.178950  0.642569  0.250299  1
