# generated using pymatgen
data_Tb12GaSi10Ni
_symmetry_space_group_name_H-M   'P 1'
_cell_length_a   3.89328500
_cell_length_b   5.75252952
_cell_length_c   23.93174509
_cell_angle_alpha   82.70796368
_cell_angle_beta   90.00000000
_cell_angle_gamma   90.00000000
_symmetry_Int_Tables_number   1
_chemical_formula_structural   Tb12GaSi10Ni
_chemical_formula_sum   'Tb12 Ga1 Si10 Ni1'
_cell_volume   531.64606765
_cell_formula_units_Z   1
loop_
 _symmetry_equiv_pos_site_id
 _symmetry_equiv_pos_as_xyz
  1  'x, y, z'
loop_
 _atom_site_type_symbol
 _atom_site_label
 _atom_site_symmetry_multiplicity
 _atom_site_fract_x
 _atom_site_fract_y
 _atom_site_fract_z
 _atom_site_occupancy
  Tb  Tb0  1  0.750000  0.357995  0.068185  1
  Tb  Tb1  1  0.250000  0.662258  0.940782  1
  Tb  Tb2  1  0.750000  0.519509  0.221310  1
  Tb  Tb3  1  0.250000  0.470107  0.772878  1
  Tb  Tb4  1  0.750000  0.167549  0.392434  1
  Tb  Tb5  1  0.250000  0.828150  0.606350  1
  Tb  Tb6  1  0.750000  0.351921  0.559270  1
  Tb  Tb7  1  0.250000  0.643948  0.438887  1
  Tb  Tb8  1  0.750000  0.994976  0.726572  1
  Tb  Tb9  1  0.250000  0.996167  0.272380  1
  Tb  Tb10  1  0.750000  0.169139  0.892218  1
  Tb  Tb11  1  0.250000  0.836690  0.108923  1
  Ga  Ga12  1  0.250000  0.152741  0.989634  1
  Si  Si13  1  0.750000  0.874429  0.013669  1
  Si  Si14  1  0.750000  0.049771  0.179535  1
  Si  Si15  1  0.250000  0.953041  0.820910  1
  Si  Si16  1  0.750000  0.702163  0.344517  1
  Si  Si17  1  0.250000  0.291274  0.653960  1
  Si  Si18  1  0.750000  0.864309  0.511578  1
  Si  Si19  1  0.250000  0.132270  0.486704  1
  Si  Si20  1  0.750000  0.532807  0.678569  1
  Si  Si21  1  0.250000  0.463219  0.318746  1
  Si  Si22  1  0.750000  0.686111  0.845838  1
  Ni  Ni23  1  0.250000  0.299455  0.156147  1
