# generated using pymatgen
data_Rb14TaNb(In3P5)2
_symmetry_space_group_name_H-M   'P 1'
_cell_length_a   8.54778875
_cell_length_b   9.46166332
_cell_length_c   14.29973623
_cell_angle_alpha   85.62438390
_cell_angle_beta   83.78939767
_cell_angle_gamma   85.91836087
_symmetry_Int_Tables_number   1
_chemical_formula_structural   Rb14TaNb(In3P5)2
_chemical_formula_sum   'Rb14 Ta1 Nb1 In6 P10'
_cell_volume   1144.05892566
_cell_formula_units_Z   1
loop_
 _symmetry_equiv_pos_site_id
 _symmetry_equiv_pos_as_xyz
  1  'x, y, z'
loop_
 _atom_site_type_symbol
 _atom_site_label
 _atom_site_symmetry_multiplicity
 _atom_site_fract_x
 _atom_site_fract_y
 _atom_site_fract_z
 _atom_site_occupancy
  Rb  Rb0  1  0.842177  0.361275  0.651586  1
  Rb  Rb1  1  0.817962  0.804980  0.134898  1
  Rb  Rb2  1  0.237498  0.007426  0.466444  1
  Rb  Rb3  1  0.274442  0.255805  0.250744  1
  Rb  Rb4  1  0.740779  0.497457  0.972807  1
  Rb  Rb5  1  0.259530  0.502619  0.026891  1
  Rb  Rb6  1  0.678776  0.083816  0.887194  1
  Rb  Rb7  1  0.762199  0.992493  0.533607  1
  Rb  Rb8  1  0.725059  0.743899  0.749168  1
  Rb  Rb9  1  0.340308  0.344919  0.598281  1
  Rb  Rb10  1  0.158581  0.638318  0.348426  1
  Rb  Rb11  1  0.181772  0.194265  0.865370  1
  Rb  Rb12  1  0.321588  0.915532  0.113427  1
  Rb  Rb13  1  0.659836  0.655828  0.401612  1
  Ta  Ta14  1  0.648200  0.395276  0.226152  1
  Nb  Nb15  1  0.352438  0.604614  0.773725  1
  In  In16  1  0.052009  0.814887  0.870599  1
  In  In17  1  0.948772  0.184256  0.129282  1
  In  In18  1  0.360543  0.951834  0.701531  1
  In  In19  1  0.092700  0.719275  0.622584  1
  In  In20  1  0.907751  0.280495  0.377824  1
  In  In21  1  0.638607  0.047748  0.298698  1
  P  P22  1  0.921827  0.450271  0.210449  1
  P  P23  1  0.627380  0.200746  0.125627  1
  P  P24  1  0.077628  0.549971  0.789483  1
  P  P25  1  0.584725  0.299311  0.387803  1
  P  P26  1  0.414818  0.702369  0.611458  1
  P  P27  1  0.029763  0.989071  0.702608  1
  P  P28  1  0.514661  0.402631  0.810017  1
  P  P29  1  0.485744  0.596856  0.189716  1
  P  P30  1  0.372327  0.800842  0.874481  1
  P  P31  1  0.969601  0.010917  0.297512  1
