# generated using pymatgen
data_La2HoSn3Hg2
_symmetry_space_group_name_H-M   'P 1'
_cell_length_a   6.61542674
_cell_length_b   6.61542733
_cell_length_c   10.42763800
_cell_angle_alpha   90.00000000
_cell_angle_beta   90.00000000
_cell_angle_gamma   102.85470213
_symmetry_Int_Tables_number   1
_chemical_formula_structural   La2HoSn3Hg2
_chemical_formula_sum   'La4 Ho2 Sn6 Hg4'
_cell_volume   444.91642607
_cell_formula_units_Z   2
loop_
 _symmetry_equiv_pos_site_id
 _symmetry_equiv_pos_as_xyz
  1  'x, y, z'
loop_
 _atom_site_type_symbol
 _atom_site_label
 _atom_site_symmetry_multiplicity
 _atom_site_fract_x
 _atom_site_fract_y
 _atom_site_fract_z
 _atom_site_occupancy
  La  La0  1  0.204889  0.795111  0.500000  1
  La  La1  1  0.204889  0.795111  0.000000  1
  La  La2  1  0.795111  0.204889  0.500000  1
  La  La3  1  0.795111  0.204889  0.000000  1
  Ho  Ho4  1  0.632239  0.632239  0.250000  1
  Ho  Ho5  1  0.367761  0.367761  0.750000  1
  Sn  Sn6  1  0.016881  0.016881  0.250000  1
  Sn  Sn7  1  0.983119  0.983119  0.750000  1
  Sn  Sn8  1  0.490849  0.066032  0.250000  1
  Sn  Sn9  1  0.933968  0.509151  0.750000  1
  Sn  Sn10  1  0.509151  0.933968  0.750000  1
  Sn  Sn11  1  0.066032  0.490849  0.250000  1
  Hg  Hg12  1  0.316648  0.316648  0.042633  1
  Hg  Hg13  1  0.683352  0.683352  0.957367  1
  Hg  Hg14  1  0.316648  0.316648  0.457367  1
  Hg  Hg15  1  0.683352  0.683352  0.542633  1
