# generated using pymatgen
data_Te(OsCl6)5
_symmetry_space_group_name_H-M   'P 1'
_cell_length_a   13.56873753
_cell_length_b   13.56873773
_cell_length_c   6.44184994
_cell_angle_alpha   88.25035897
_cell_angle_beta   88.25035121
_cell_angle_gamma   86.51720692
_symmetry_Int_Tables_number   1
_chemical_formula_structural   Te(OsCl6)5
_chemical_formula_sum   'Te1 Os5 Cl30'
_cell_volume   1182.78181689
_cell_formula_units_Z   1
loop_
 _symmetry_equiv_pos_site_id
 _symmetry_equiv_pos_as_xyz
  1  'x, y, z'
loop_
 _atom_site_type_symbol
 _atom_site_label
 _atom_site_symmetry_multiplicity
 _atom_site_fract_x
 _atom_site_fract_y
 _atom_site_fract_z
 _atom_site_occupancy
  Te  Te0  1  0.888701  0.111299  0.000000  1
  Os  Os1  1  0.767498  0.567261  0.524794  1
  Os  Os2  1  0.432739  0.232502  0.475206  1
  Os  Os3  1  0.232394  0.433187  0.474711  1
  Os  Os4  1  0.566813  0.767606  0.525289  1
  Os  Os5  1  0.105398  0.894602  0.000000  1
  Cl  Cl6  1  0.667705  0.478203  0.742461  1
  Cl  Cl7  1  0.521797  0.332295  0.257539  1
  Cl  Cl8  1  0.332609  0.521958  0.257521  1
  Cl  Cl9  1  0.478042  0.667391  0.742479  1
  Cl  Cl10  1  0.797817  0.437775  0.317755  1
  Cl  Cl11  1  0.562225  0.202183  0.682245  1
  Cl  Cl12  1  0.964148  0.937073  0.211426  1
  Cl  Cl13  1  0.062927  0.035852  0.788574  1
  Cl  Cl14  1  0.752142  0.140176  0.229997  1
  Cl  Cl15  1  0.859824  0.247858  0.770003  1
  Cl  Cl16  1  0.240056  0.858257  0.791090  1
  Cl  Cl17  1  0.141743  0.759944  0.208910  1
  Cl  Cl18  1  0.792291  0.008389  0.787472  1
  Cl  Cl19  1  0.991611  0.207709  0.212528  1
  Cl  Cl20  1  0.194065  0.992149  0.200557  1
  Cl  Cl21  1  0.007851  0.805935  0.799443  1
  Cl  Cl22  1  0.714262  0.714315  0.721911  1
  Cl  Cl23  1  0.285685  0.285738  0.278089  1
  Cl  Cl24  1  0.537505  0.896443  0.733934  1
  Cl  Cl25  1  0.103557  0.462495  0.266066  1
  Cl  Cl26  1  0.462137  0.103368  0.266840  1
  Cl  Cl27  1  0.896632  0.537863  0.733160  1
  Cl  Cl28  1  0.666958  0.855769  0.307821  1
  Cl  Cl29  1  0.144231  0.333042  0.692179  1
  Cl  Cl30  1  0.332950  0.144128  0.693346  1
  Cl  Cl31  1  0.855872  0.667050  0.306654  1
  Cl  Cl32  1  0.619918  0.620077  0.328345  1
  Cl  Cl33  1  0.379923  0.380082  0.671655  1
  Cl  Cl34  1  0.437586  0.797607  0.317478  1
  Cl  Cl35  1  0.202393  0.562414  0.682522  1
