# generated using pymatgen
data_Yb4Ce4TlPt8Pb3
_symmetry_space_group_name_H-M   'P 1'
_cell_length_a   7.90655400
_cell_length_b   7.90655400
_cell_length_c   7.36293400
_cell_angle_alpha   90.00000000
_cell_angle_beta   90.00000000
_cell_angle_gamma   90.00000000
_symmetry_Int_Tables_number   1
_chemical_formula_structural   Yb4Ce4TlPt8Pb3
_chemical_formula_sum   'Yb4 Ce4 Tl1 Pt8 Pb3'
_cell_volume   460.28348259
_cell_formula_units_Z   1
loop_
 _symmetry_equiv_pos_site_id
 _symmetry_equiv_pos_as_xyz
  1  'x, y, z'
loop_
 _atom_site_type_symbol
 _atom_site_label
 _atom_site_symmetry_multiplicity
 _atom_site_fract_x
 _atom_site_fract_y
 _atom_site_fract_z
 _atom_site_occupancy
  Yb  Yb0  1  0.342042  0.340141  0.500226  1
  Yb  Yb1  1  0.657958  0.659859  0.500226  1
  Yb  Yb2  1  0.840141  0.157958  0.999774  1
  Yb  Yb3  1  0.159859  0.842042  0.999774  1
  Ce  Ce4  1  0.676813  0.678258  0.000468  1
  Ce  Ce5  1  0.821742  0.176813  0.499532  1
  Ce  Ce6  1  0.323187  0.321742  0.000468  1
  Ce  Ce7  1  0.178258  0.823187  0.499532  1
  Tl  Tl8  1  0.500000  0.000000  0.750000  1
  Pt  Pt9  1  0.869864  0.870484  0.733972  1
  Pt  Pt10  1  0.130136  0.129516  0.733972  1
  Pt  Pt11  1  0.629516  0.369864  0.766028  1
  Pt  Pt12  1  0.629852  0.370718  0.233225  1
  Pt  Pt13  1  0.370148  0.629282  0.233225  1
  Pt  Pt14  1  0.129282  0.129852  0.266775  1
  Pt  Pt15  1  0.870718  0.870148  0.266775  1
  Pt  Pt16  1  0.370484  0.630136  0.766028  1
  Pb  Pb17  1  0.500000  0.000000  0.250000  1
  Pb  Pb18  1  0.000000  0.500000  0.750000  1
  Pb  Pb19  1  0.000000  0.500000  0.250000  1
