# generated using pymatgen
data_Ce2Ho(CoSi)2
_symmetry_space_group_name_H-M   'P 1'
_cell_length_a   5.46482000
_cell_length_b   7.82873300
_cell_length_c   12.26438600
_cell_angle_alpha   90.00000000
_cell_angle_beta   90.00000000
_cell_angle_gamma   90.00000000
_symmetry_Int_Tables_number   1
_chemical_formula_structural   Ce2Ho(CoSi)2
_chemical_formula_sum   'Ce8 Ho4 Co8 Si8'
_cell_volume   524.70252497
_cell_formula_units_Z   4
loop_
 _symmetry_equiv_pos_site_id
 _symmetry_equiv_pos_as_xyz
  1  'x, y, z'
loop_
 _atom_site_type_symbol
 _atom_site_label
 _atom_site_symmetry_multiplicity
 _atom_site_fract_x
 _atom_site_fract_y
 _atom_site_fract_z
 _atom_site_occupancy
  Ce  Ce0  1  0.159964  0.399853  0.408902  1
  Ce  Ce1  1  0.159964  0.100147  0.591098  1
  Ce  Ce2  1  0.840036  0.899853  0.091098  1
  Ce  Ce3  1  0.840036  0.600147  0.908902  1
  Ce  Ce4  1  0.840036  0.600147  0.591098  1
  Ce  Ce5  1  0.840036  0.899853  0.408902  1
  Ce  Ce6  1  0.159964  0.100147  0.908902  1
  Ce  Ce7  1  0.159964  0.399853  0.091098  1
  Ho  Ho8  1  0.344857  0.745643  0.750000  1
  Ho  Ho9  1  0.344857  0.754357  0.250000  1
  Ho  Ho10  1  0.655143  0.245643  0.750000  1
  Ho  Ho11  1  0.655143  0.254357  0.250000  1
  Co  Co12  1  0.378084  0.042319  0.412364  1
  Co  Co13  1  0.378084  0.457681  0.587636  1
  Co  Co14  1  0.621916  0.542319  0.087636  1
  Co  Co15  1  0.621916  0.957681  0.912364  1
  Co  Co16  1  0.378084  0.042319  0.087636  1
  Co  Co17  1  0.378084  0.457681  0.912364  1
  Co  Co18  1  0.621916  0.542319  0.412364  1
  Co  Co19  1  0.621916  0.957681  0.587636  1
  Si  Si20  1  0.648188  0.250000  0.500000  1
  Si  Si21  1  0.351812  0.750000  0.000000  1
  Si  Si22  1  0.351812  0.750000  0.500000  1
  Si  Si23  1  0.648188  0.250000  0.000000  1
  Si  Si24  1  0.839447  0.896218  0.750000  1
  Si  Si25  1  0.839447  0.603782  0.250000  1
  Si  Si26  1  0.160553  0.396218  0.750000  1
  Si  Si27  1  0.160553  0.103782  0.250000  1
