# generated using pymatgen
data_Ce3Nd6Sm(Ga2Ru3)2
_symmetry_space_group_name_H-M   'P 1'
_cell_length_a   8.59169069
_cell_length_b   8.59608428
_cell_length_c   8.58000163
_cell_angle_alpha   110.25592443
_cell_angle_beta   110.19418536
_cell_angle_gamma   110.32508125
_symmetry_Int_Tables_number   1
_chemical_formula_structural   Ce3Nd6Sm(Ga2Ru3)2
_chemical_formula_sum   'Ce3 Nd6 Sm1 Ga4 Ru6'
_cell_volume   473.05274245
_cell_formula_units_Z   1
loop_
 _symmetry_equiv_pos_site_id
 _symmetry_equiv_pos_as_xyz
  1  'x, y, z'
loop_
 _atom_site_type_symbol
 _atom_site_label
 _atom_site_symmetry_multiplicity
 _atom_site_fract_x
 _atom_site_fract_y
 _atom_site_fract_z
 _atom_site_occupancy
  Ce  Ce0  1  0.251701  0.201694  0.945537  1
  Ce  Ce1  1  0.946664  0.251854  0.202103  1
  Ce  Ce2  1  0.201367  0.945617  0.251461  1
  Nd  Nd3  1  0.779341  0.779722  0.779321  1
  Nd  Nd4  1  0.309778  0.562710  0.754109  1
  Nd  Nd5  1  0.753244  0.308461  0.561844  1
  Nd  Nd6  1  0.562339  0.755193  0.310499  1
  Nd  Nd7  1  0.722744  0.503049  0.991497  1
  Nd  Nd8  1  0.993642  0.723347  0.504454  1
  Sm  Sm9  1  0.504895  0.992331  0.722686  1
  Ga  Ga10  1  0.405671  0.405497  0.406276  1
  Ga  Ga11  1  0.093804  0.497689  0.008079  1
  Ga  Ga12  1  0.007590  0.093674  0.497984  1
  Ga  Ga13  1  0.496944  0.007734  0.091731  1
  Ru  Ru14  1  0.914113  0.122513  0.758008  1
  Ru  Ru15  1  0.757330  0.916640  0.122403  1
  Ru  Ru16  1  0.122078  0.757482  0.915361  1
  Ru  Ru17  1  0.221526  0.591309  0.368794  1
  Ru  Ru18  1  0.366963  0.217095  0.589729  1
  Ru  Ru19  1  0.588268  0.366391  0.218122  1
