# generated using pymatgen
data_GdEr(ThH5)6
_symmetry_space_group_name_H-M   'P 1'
_cell_length_a   7.82924838
_cell_length_b   7.82873790
_cell_length_c   7.80286816
_cell_angle_alpha   109.48298286
_cell_angle_beta   109.52013686
_cell_angle_gamma   109.65154393
_symmetry_Int_Tables_number   1
_chemical_formula_structural   GdEr(ThH5)6
_chemical_formula_sum   'Gd1 Er1 Th6 H30'
_cell_volume   367.06667190
_cell_formula_units_Z   1
loop_
 _symmetry_equiv_pos_site_id
 _symmetry_equiv_pos_as_xyz
  1  'x, y, z'
loop_
 _atom_site_type_symbol
 _atom_site_label
 _atom_site_symmetry_multiplicity
 _atom_site_fract_x
 _atom_site_fract_y
 _atom_site_fract_z
 _atom_site_occupancy
  Gd  Gd0  1  0.498467  0.999409  0.083095  1
  Er  Er1  1  0.913537  0.914095  0.914869  1
  Th  Th2  1  0.995228  0.080362  0.495813  1
  Th  Th3  1  0.084590  0.503411  0.000711  1
  Th  Th4  1  0.998760  0.585183  0.505745  1
  Th  Th5  1  0.584851  0.504574  0.999026  1
  Th  Th6  1  0.504898  0.998556  0.587388  1
  Th  Th7  1  0.415255  0.410921  0.412033  1
  H  H8  1  0.651600  0.964927  0.371284  1
  H  H9  1  0.218434  0.316120  0.846242  1
  H  H10  1  0.186695  0.404278  0.534552  1
  H  H11  1  0.094836  0.278408  0.123802  1
  H  H12  1  0.277833  0.121527  0.092864  1
  H  H13  1  0.122646  0.093003  0.275286  1
  H  H14  1  0.469270  0.155162  0.871927  1
  H  H15  1  0.719624  0.350333  0.814057  1
  H  H16  1  0.626715  0.380591  0.251174  1
  H  H17  1  0.249446  0.623679  0.375479  1
  H  H18  1  0.751227  0.873636  0.127020  1
  H  H19  1  0.122428  0.745309  0.873339  1
  H  H20  1  0.374653  0.248983  0.623636  1
  H  H21  1  0.877188  0.128339  0.748592  1
  H  H22  1  0.780614  0.595854  0.630707  1
  H  H23  1  0.317523  0.848009  0.222434  1
  H  H24  1  0.372351  0.655692  0.966698  1
  H  H25  1  0.964918  0.369456  0.651767  1
  H  H26  1  0.535698  0.185539  0.406889  1
  H  H27  1  0.405320  0.535720  0.185755  1
  H  H28  1  0.843696  0.219513  0.314735  1
  H  H29  1  0.906526  0.691766  0.031494  1
  H  H30  1  0.813555  0.718234  0.348867  1
  H  H31  1  0.152869  0.869836  0.466856  1
  H  H32  1  0.692015  0.030201  0.906175  1
  H  H33  1  0.348081  0.814739  0.720770  1
  H  H34  1  0.871858  0.470385  0.154611  1
  H  H35  1  0.631229  0.779509  0.595264  1
  H  H36  1  0.597139  0.628815  0.779245  1
  H  H37  1  0.028429  0.905924  0.689798  1
