# generated using pymatgen
data_LiLu12InFe2Ru
_symmetry_space_group_name_H-M   'P 1'
_cell_length_a   8.16546462
_cell_length_b   8.16580946
_cell_length_c   8.16546520
_cell_angle_alpha   106.15423505
_cell_angle_beta   110.48796928
_cell_angle_gamma   111.82283916
_symmetry_Int_Tables_number   1
_chemical_formula_structural   LiLu12InFe2Ru
_chemical_formula_sum   'Li1 Lu12 In1 Fe2 Ru1'
_cell_volume   418.02362474
_cell_formula_units_Z   1
loop_
 _symmetry_equiv_pos_site_id
 _symmetry_equiv_pos_as_xyz
  1  'x, y, z'
loop_
 _atom_site_type_symbol
 _atom_site_label
 _atom_site_symmetry_multiplicity
 _atom_site_fract_x
 _atom_site_fract_y
 _atom_site_fract_z
 _atom_site_occupancy
  Li  Li0  1  0.500000  0.000000  0.500000  1
  Lu  Lu1  1  0.308012  0.311421  0.619461  1
  Lu  Lu2  1  0.691988  0.688579  0.380539  1
  Lu  Lu3  1  0.691960  0.311421  0.003409  1
  Lu  Lu4  1  0.308040  0.688579  0.996591  1
  Lu  Lu5  1  0.192162  0.423832  0.231669  1
  Lu  Lu6  1  0.807838  0.576168  0.768331  1
  Lu  Lu7  1  0.192154  0.960509  0.768356  1
  Lu  Lu8  1  0.949430  0.195824  0.753644  1
  Lu  Lu9  1  0.807846  0.039491  0.231644  1
  Lu  Lu10  1  0.050570  0.804176  0.246356  1
  Lu  Lu11  1  0.442181  0.195824  0.246392  1
  Lu  Lu12  1  0.557819  0.804176  0.753608  1
  In  In13  1  0.000000  0.500000  0.500000  1
  Fe  Fe14  1  0.381291  0.381218  0.999927  1
  Fe  Fe15  1  0.618709  0.618782  0.000073  1
  Ru  Ru16  1  0.000000  0.000000  0.000000  1
