# generated using pymatgen
data_KBeBiF6
_symmetry_space_group_name_H-M   'P 1'
_cell_length_a   6.02483900
_cell_length_b   6.54786065
_cell_length_c   7.27589563
_cell_angle_alpha   67.26283743
_cell_angle_beta   90.00000000
_cell_angle_gamma   90.00000000
_symmetry_Int_Tables_number   1
_chemical_formula_structural   KBeBiF6
_chemical_formula_sum   'K2 Be2 Bi2 F12'
_cell_volume   264.72667291
_cell_formula_units_Z   2
loop_
 _symmetry_equiv_pos_site_id
 _symmetry_equiv_pos_as_xyz
  1  'x, y, z'
loop_
 _atom_site_type_symbol
 _atom_site_label
 _atom_site_symmetry_multiplicity
 _atom_site_fract_x
 _atom_site_fract_y
 _atom_site_fract_z
 _atom_site_occupancy
  K  K0  1  0.250000  0.068964  0.794096  1
  K  K1  1  0.750000  0.931036  0.205904  1
  Be  Be2  1  0.250000  0.768425  0.462495  1
  Be  Be3  1  0.750000  0.231575  0.537505  1
  Bi  Bi4  1  0.250000  0.389361  0.184841  1
  Bi  Bi5  1  0.750000  0.610639  0.815159  1
  F  F6  1  0.460361  0.773450  0.587630  1
  F  F7  1  0.539639  0.226550  0.412370  1
  F  F8  1  0.960361  0.226550  0.412370  1
  F  F9  1  0.039639  0.773450  0.587630  1
  F  F10  1  0.250000  0.552401  0.420652  1
  F  F11  1  0.750000  0.447599  0.579348  1
  F  F12  1  0.494916  0.685327  0.035318  1
  F  F13  1  0.505084  0.314673  0.964682  1
  F  F14  1  0.994916  0.314673  0.964682  1
  F  F15  1  0.005084  0.685327  0.035318  1
  F  F16  1  0.250000  0.977498  0.262469  1
  F  F17  1  0.750000  0.022502  0.737531  1
