# generated using pymatgen
data_CaSiGeRuRh
_symmetry_space_group_name_H-M   'P 1'
_cell_length_a   5.81878747
_cell_length_b   5.81878716
_cell_length_c   5.81878792
_cell_angle_alpha   137.51007555
_cell_angle_beta   137.57917044
_cell_angle_gamma   61.60116547
_symmetry_Int_Tables_number   1
_chemical_formula_structural   CaSiGeRuRh
_chemical_formula_sum   'Ca1 Si1 Ge1 Ru1 Rh1'
_cell_volume   88.74107961
_cell_formula_units_Z   1
loop_
 _symmetry_equiv_pos_site_id
 _symmetry_equiv_pos_as_xyz
  1  'x, y, z'
loop_
 _atom_site_type_symbol
 _atom_site_label
 _atom_site_symmetry_multiplicity
 _atom_site_fract_x
 _atom_site_fract_y
 _atom_site_fract_z
 _atom_site_occupancy
  Ca  Ca0  1  0.999861  0.999861  0.000000  1
  Si  Si1  1  0.364514  0.364514  0.000000  1
  Ge  Ge2  1  0.625763  0.625763  0.000000  1
  Ru  Ru3  1  0.754658  0.254658  0.500000  1
  Rh  Rh4  1  0.255203  0.755203  0.500000  1
