# generated using pymatgen
data_Sc6Al5In(RhAu2)2
_symmetry_space_group_name_H-M   'P 1'
_cell_length_a   7.37302105
_cell_length_b   7.37302188
_cell_length_c   7.10125006
_cell_angle_alpha   89.98733722
_cell_angle_beta   90.01266619
_cell_angle_gamma   120.00050883
_symmetry_Int_Tables_number   1
_chemical_formula_structural   Sc6Al5In(RhAu2)2
_chemical_formula_sum   'Sc6 Al5 In1 Rh2 Au4'
_cell_volume   334.31371447
_cell_formula_units_Z   1
loop_
 _symmetry_equiv_pos_site_id
 _symmetry_equiv_pos_as_xyz
  1  'x, y, z'
loop_
 _atom_site_type_symbol
 _atom_site_label
 _atom_site_symmetry_multiplicity
 _atom_site_fract_x
 _atom_site_fract_y
 _atom_site_fract_z
 _atom_site_occupancy
  Sc  Sc0  1  0.604722  0.998697  0.746476  1
  Sc  Sc1  1  0.003056  0.606968  0.746686  1
  Sc  Sc2  1  0.388954  0.390946  0.747066  1
  Sc  Sc3  1  0.998697  0.604722  0.253524  1
  Sc  Sc4  1  0.606968  0.003056  0.253314  1
  Sc  Sc5  1  0.390946  0.388954  0.252934  1
  Al  Al6  1  0.242221  0.000967  0.000044  1
  Al  Al7  1  0.000967  0.242221  0.999956  1
  Al  Al8  1  0.736154  0.736154  0.500000  1
  Al  Al9  1  0.272040  0.999275  0.499894  1
  Al  Al10  1  0.999275  0.272040  0.500106  1
  In  In11  1  0.746919  0.746919  0.000000  1
  Rh  Rh12  1  0.011365  0.011155  0.720023  1
  Rh  Rh13  1  0.011155  0.011365  0.279977  1
  Au  Au14  1  0.663768  0.319464  0.996963  1
  Au  Au15  1  0.667571  0.335759  0.502346  1
  Au  Au16  1  0.335759  0.667571  0.497654  1
  Au  Au17  1  0.319464  0.663768  0.003037  1
