# generated using pymatgen
data_Tm4Ge2B4(RuRh)5
_symmetry_space_group_name_H-M   'P 1'
_cell_length_a   9.53056270
_cell_length_b   9.53890670
_cell_length_c   3.08836700
_cell_angle_alpha   90.00000000
_cell_angle_beta   90.00000000
_cell_angle_gamma   89.95604296
_symmetry_Int_Tables_number   1
_chemical_formula_structural   Tm4Ge2B4(RuRh)5
_chemical_formula_sum   'Tm4 Ge2 B4 Ru5 Rh5'
_cell_volume   280.76690809
_cell_formula_units_Z   1
loop_
 _symmetry_equiv_pos_site_id
 _symmetry_equiv_pos_as_xyz
  1  'x, y, z'
loop_
 _atom_site_type_symbol
 _atom_site_label
 _atom_site_symmetry_multiplicity
 _atom_site_fract_x
 _atom_site_fract_y
 _atom_site_fract_z
 _atom_site_occupancy
  Tm  Tm0  1  0.827512  0.320957  0.000000  1
  Tm  Tm1  1  0.322145  0.172492  0.000000  1
  Tm  Tm2  1  0.675472  0.827645  0.000000  1
  Tm  Tm3  1  0.175750  0.676428  0.000000  1
  Ge  Ge4  1  0.001221  0.004976  0.000000  1
  Ge  Ge5  1  0.499536  0.499789  0.000000  1
  B  B6  1  0.625544  0.116142  0.000000  1
  B  B7  1  0.117725  0.375398  0.000000  1
  B  B8  1  0.881004  0.621112  0.000000  1
  B  B9  1  0.373961  0.883240  0.000000  1
  Ru  Ru10  1  0.070476  0.217487  0.500000  1
  Ru  Ru11  1  0.213782  0.929189  0.500000  1
  Ru  Ru12  1  0.785181  0.068073  0.500000  1
  Ru  Ru13  1  0.499435  0.999933  0.500000  1
  Ru  Ru14  1  0.000118  0.501660  0.500000  1
  Rh  Rh15  1  0.929054  0.783595  0.500000  1
  Rh  Rh16  1  0.431536  0.715600  0.500000  1
  Rh  Rh17  1  0.569611  0.284335  0.500000  1
  Rh  Rh18  1  0.716093  0.570678  0.500000  1
  Rh  Rh19  1  0.284844  0.431270  0.500000  1
