# generated using pymatgen
data_Zr10Tl5FeSiPb
_symmetry_space_group_name_H-M   'P 1'
_cell_length_a   8.80527788
_cell_length_b   8.82664053
_cell_length_c   5.90166059
_cell_angle_alpha   90.05199255
_cell_angle_beta   89.97394457
_cell_angle_gamma   120.08028733
_symmetry_Int_Tables_number   1
_chemical_formula_structural   Zr10Tl5FeSiPb
_chemical_formula_sum   'Zr10 Tl5 Fe1 Si1 Pb1'
_cell_volume   396.90928880
_cell_formula_units_Z   1
loop_
 _symmetry_equiv_pos_site_id
 _symmetry_equiv_pos_as_xyz
  1  'x, y, z'
loop_
 _atom_site_type_symbol
 _atom_site_label
 _atom_site_symmetry_multiplicity
 _atom_site_fract_x
 _atom_site_fract_y
 _atom_site_fract_z
 _atom_site_occupancy
  Zr  Zr0  1  0.665921  0.333471  0.498877  1
  Zr  Zr1  1  0.334079  0.667550  0.498877  1
  Zr  Zr2  1  0.334641  0.668375  0.000890  1
  Zr  Zr3  1  0.665359  0.333732  0.000890  1
  Zr  Zr4  1  0.753431  0.754092  0.263949  1
  Zr  Zr5  1  0.246569  0.000661  0.263949  1
  Zr  Zr6  1  0.000000  0.245803  0.260928  1
  Zr  Zr7  1  0.244115  0.243927  0.735544  1
  Zr  Zr8  1  0.755885  0.999812  0.735544  1
  Zr  Zr9  1  0.000000  0.753173  0.739439  1
  Tl  Tl10  1  0.393063  0.394426  0.244109  1
  Tl  Tl11  1  0.606937  0.001363  0.244109  1
  Tl  Tl12  1  0.000000  0.607384  0.244286  1
  Tl  Tl13  1  0.605622  0.605867  0.756553  1
  Tl  Tl14  1  0.394378  0.000244  0.756553  1
  Fe  Fe15  1  0.000000  0.997490  0.498731  1
  Si  Si16  1  0.000000  0.998892  0.001197  1
  Pb  Pb17  1  0.000000  0.393737  0.755574  1
