# generated using pymatgen
data_TbZnSiIrRu
_symmetry_space_group_name_H-M   'P 1'
_cell_length_a   4.15403200
_cell_length_b   4.15403200
_cell_length_c   10.12694500
_cell_angle_alpha   90.00000000
_cell_angle_beta   90.00000000
_cell_angle_gamma   90.00000000
_symmetry_Int_Tables_number   1
_chemical_formula_structural   TbZnSiIrRu
_chemical_formula_sum   'Tb2 Zn2 Si2 Ir2 Ru2'
_cell_volume   174.75037919
_cell_formula_units_Z   2
loop_
 _symmetry_equiv_pos_site_id
 _symmetry_equiv_pos_as_xyz
  1  'x, y, z'
loop_
 _atom_site_type_symbol
 _atom_site_label
 _atom_site_symmetry_multiplicity
 _atom_site_fract_x
 _atom_site_fract_y
 _atom_site_fract_z
 _atom_site_occupancy
  Tb  Tb0  1  0.000000  0.500000  0.242246  1
  Tb  Tb1  1  0.500000  0.000000  0.757754  1
  Zn  Zn2  1  0.000000  0.000000  0.500000  1
  Zn  Zn3  1  0.500000  0.500000  0.500000  1
  Si  Si4  1  0.000000  0.500000  0.885720  1
  Si  Si5  1  0.500000  0.000000  0.114280  1
  Ir  Ir6  1  0.000000  0.500000  0.653214  1
  Ir  Ir7  1  0.500000  0.000000  0.346786  1
  Ru  Ru8  1  0.000000  0.000000  0.000000  1
  Ru  Ru9  1  0.500000  0.500000  0.000000  1
