# generated using pymatgen
data_Cs4CoO4
_symmetry_space_group_name_H-M   'P 1'
_cell_length_a   7.20453500
_cell_length_b   11.48108437
_cell_length_c   11.68869419
_cell_angle_alpha   69.02120277
_cell_angle_beta   90.00000000
_cell_angle_gamma   90.00000000
_symmetry_Int_Tables_number   1
_chemical_formula_structural   Cs4CoO4
_chemical_formula_sum   'Cs16 Co4 O16'
_cell_volume   902.75157875
_cell_formula_units_Z   4
loop_
 _symmetry_equiv_pos_site_id
 _symmetry_equiv_pos_as_xyz
  1  'x, y, z'
loop_
 _atom_site_type_symbol
 _atom_site_label
 _atom_site_symmetry_multiplicity
 _atom_site_fract_x
 _atom_site_fract_y
 _atom_site_fract_z
 _atom_site_occupancy
  Cs  Cs0  1  0.587810  0.302324  0.063303  1
  Cs  Cs1  1  0.114206  0.419296  0.155343  1
  Cs  Cs2  1  0.912190  0.802324  0.063303  1
  Cs  Cs3  1  0.329088  0.104690  0.370640  1
  Cs  Cs4  1  0.385794  0.919296  0.155343  1
  Cs  Cs5  1  0.818169  0.212105  0.412526  1
  Cs  Cs6  1  0.170912  0.604690  0.370640  1
  Cs  Cs7  1  0.318169  0.287895  0.587474  1
  Cs  Cs8  1  0.681831  0.712105  0.412526  1
  Cs  Cs9  1  0.829088  0.395310  0.629360  1
  Cs  Cs10  1  0.181831  0.787895  0.587474  1
  Cs  Cs11  1  0.614206  0.080704  0.844657  1
  Cs  Cs12  1  0.670912  0.895310  0.629360  1
  Cs  Cs13  1  0.087810  0.197676  0.936697  1
  Cs  Cs14  1  0.885794  0.580704  0.844657  1
  Cs  Cs15  1  0.412190  0.697676  0.936697  1
  Co  Co16  1  0.872665  0.009352  0.240155  1
  Co  Co17  1  0.627335  0.509352  0.240155  1
  Co  Co18  1  0.372665  0.490648  0.759845  1
  Co  Co19  1  0.127335  0.990648  0.759845  1
  O  O20  1  0.768454  0.022893  0.093783  1
  O  O21  1  0.005436  0.151753  0.217555  1
  O  O22  1  0.731546  0.522893  0.093783  1
  O  O23  1  0.479746  0.370081  0.296329  1
  O  O24  1  0.494564  0.651753  0.217555  1
  O  O25  1  0.815071  0.493261  0.350614  1
  O  O26  1  0.020254  0.870081  0.296329  1
  O  O27  1  0.315071  0.006739  0.649386  1
  O  O28  1  0.684929  0.993261  0.350614  1
  O  O29  1  0.979746  0.129919  0.703671  1
  O  O30  1  0.184929  0.506739  0.649386  1
  O  O31  1  0.505436  0.348247  0.782445  1
  O  O32  1  0.520254  0.629919  0.703671  1
  O  O33  1  0.268454  0.477107  0.906217  1
  O  O34  1  0.994564  0.848247  0.782445  1
  O  O35  1  0.231546  0.977107  0.906217  1
