# generated using pymatgen
data_TbYCo4(NiP)6
_symmetry_space_group_name_H-M   'P 1'
_cell_length_a   3.70047200
_cell_length_b   10.32252000
_cell_length_c   11.83375700
_cell_angle_alpha   89.99808592
_cell_angle_beta   90.00000000
_cell_angle_gamma   90.00000000
_symmetry_Int_Tables_number   1
_chemical_formula_structural   TbYCo4(NiP)6
_chemical_formula_sum   'Tb2 Y2 Co8 Ni12 P12'
_cell_volume   452.02817190
_cell_formula_units_Z   2
loop_
 _symmetry_equiv_pos_site_id
 _symmetry_equiv_pos_as_xyz
  1  'x, y, z'
loop_
 _atom_site_type_symbol
 _atom_site_label
 _atom_site_symmetry_multiplicity
 _atom_site_fract_x
 _atom_site_fract_y
 _atom_site_fract_z
 _atom_site_occupancy
  Tb  Tb0  1  0.250000  0.917968  0.203641  1
  Tb  Tb1  1  0.750000  0.082032  0.796359  1
  Y  Y2  1  0.750000  0.418064  0.296262  1
  Y  Y3  1  0.250000  0.581936  0.703738  1
  Co  Co4  1  0.250000  0.620121  0.197893  1
  Co  Co5  1  0.750000  0.379879  0.802107  1
  Co  Co6  1  0.750000  0.120297  0.302265  1
  Co  Co7  1  0.250000  0.879703  0.697735  1
  Co  Co8  1  0.250000  0.032699  0.433161  1
  Co  Co9  1  0.750000  0.967301  0.566839  1
  Co  Co10  1  0.750000  0.532304  0.066819  1
  Co  Co11  1  0.250000  0.467696  0.933181  1
  Ni  Ni12  1  0.250000  0.786651  0.490296  1
  Ni  Ni13  1  0.750000  0.213349  0.509704  1
  Ni  Ni14  1  0.750000  0.286587  0.009427  1
  Ni  Ni15  1  0.250000  0.713413  0.990573  1
  Ni  Ni16  1  0.250000  0.092400  0.987102  1
  Ni  Ni17  1  0.750000  0.907600  0.012898  1
  Ni  Ni18  1  0.750000  0.592559  0.512885  1
  Ni  Ni19  1  0.250000  0.407441  0.487115  1
  Ni  Ni20  1  0.250000  0.276683  0.676106  1
  Ni  Ni21  1  0.750000  0.723317  0.323894  1
  Ni  Ni22  1  0.750000  0.776302  0.823774  1
  Ni  Ni23  1  0.250000  0.223698  0.176226  1
  P  P24  1  0.250000  0.075532  0.613744  1
  P  P25  1  0.750000  0.924468  0.386256  1
  P  P26  1  0.750000  0.575665  0.886365  1
  P  P27  1  0.250000  0.424335  0.113635  1
  P  P28  1  0.250000  0.227601  0.367820  1
  P  P29  1  0.750000  0.772399  0.632180  1
  P  P30  1  0.750000  0.727327  0.132198  1
  P  P31  1  0.250000  0.272673  0.867802  1
  P  P32  1  0.250000  0.896665  0.889594  1
  P  P33  1  0.750000  0.103335  0.110406  1
  P  P34  1  0.750000  0.396975  0.610536  1
  P  P35  1  0.250000  0.603025  0.389464  1
