# generated using pymatgen
data_Cs5Rb(Ru2Br9)2
_symmetry_space_group_name_H-M   'P 1'
_cell_length_a   7.78333200
_cell_length_b   7.78327782
_cell_length_c   18.92634700
_cell_angle_alpha   90.00000000
_cell_angle_beta   90.00000000
_cell_angle_gamma   119.99972497
_symmetry_Int_Tables_number   1
_chemical_formula_structural   Cs5Rb(Ru2Br9)2
_chemical_formula_sum   'Cs5 Rb1 Ru4 Br18'
_cell_volume   992.94849561
_cell_formula_units_Z   1
loop_
 _symmetry_equiv_pos_site_id
 _symmetry_equiv_pos_as_xyz
  1  'x, y, z'
loop_
 _atom_site_type_symbol
 _atom_site_label
 _atom_site_symmetry_multiplicity
 _atom_site_fract_x
 _atom_site_fract_y
 _atom_site_fract_z
 _atom_site_occupancy
  Cs  Cs0  1  0.999992  0.999996  0.750000  1
  Cs  Cs1  1  0.333331  0.666665  0.068402  1
  Cs  Cs2  1  0.666663  0.333332  0.568145  1
  Cs  Cs3  1  0.666663  0.333332  0.931855  1
  Cs  Cs4  1  0.333331  0.666665  0.431598  1
  Rb  Rb5  1  0.000016  0.000007  0.250000  1
  Ru  Ru6  1  0.333335  0.666668  0.823321  1
  Ru  Ru7  1  0.666666  0.333332  0.323144  1
  Ru  Ru8  1  0.666666  0.333332  0.176856  1
  Ru  Ru9  1  0.333335  0.666668  0.676679  1
  Br  Br10  1  0.509557  0.019113  0.250000  1
  Br  Br11  1  0.490441  0.509555  0.750000  1
  Br  Br12  1  0.019113  0.509558  0.750000  1
  Br  Br13  1  0.980884  0.490442  0.250000  1
  Br  Br14  1  0.509556  0.490443  0.250000  1
  Br  Br15  1  0.490441  0.980886  0.750000  1
  Br  Br16  1  0.819450  0.638902  0.099080  1
  Br  Br17  1  0.181464  0.818549  0.598106  1
  Br  Br18  1  0.637081  0.818541  0.598106  1
  Br  Br19  1  0.361096  0.180548  0.099080  1
  Br  Br20  1  0.819450  0.180547  0.099080  1
  Br  Br21  1  0.181464  0.362916  0.901894  1
  Br  Br22  1  0.181464  0.818549  0.901894  1
  Br  Br23  1  0.181464  0.362916  0.598106  1
  Br  Br24  1  0.637081  0.818541  0.901894  1
  Br  Br25  1  0.361096  0.180548  0.400920  1
  Br  Br26  1  0.819450  0.638902  0.400920  1
  Br  Br27  1  0.819450  0.180547  0.400920  1
