# generated using pymatgen
data_Li2Dy3MgAu3
_symmetry_space_group_name_H-M   'P 1'
_cell_length_a   7.55607356
_cell_length_b   7.55607406
_cell_length_c   4.01952800
_cell_angle_alpha   90.00000000
_cell_angle_beta   90.00000000
_cell_angle_gamma   120.16213494
_symmetry_Int_Tables_number   1
_chemical_formula_structural   Li2Dy3MgAu3
_chemical_formula_sum   'Li2 Dy3 Mg1 Au3'
_cell_volume   198.42034997
_cell_formula_units_Z   1
loop_
 _symmetry_equiv_pos_site_id
 _symmetry_equiv_pos_as_xyz
  1  'x, y, z'
loop_
 _atom_site_type_symbol
 _atom_site_label
 _atom_site_symmetry_multiplicity
 _atom_site_fract_x
 _atom_site_fract_y
 _atom_site_fract_z
 _atom_site_occupancy
  Li  Li0  1  0.245793  0.999828  0.500000  1
  Li  Li1  1  0.999828  0.245793  0.500000  1
  Dy  Dy2  1  0.590378  0.001799  0.000000  1
  Dy  Dy3  1  0.001799  0.590378  0.000000  1
  Dy  Dy4  1  0.402809  0.402809  0.000000  1
  Mg  Mg5  1  0.755316  0.755316  0.500000  1
  Au  Au6  1  0.334148  0.666628  0.500000  1
  Au  Au7  1  0.666628  0.334148  0.500000  1
  Au  Au8  1  0.003300  0.003300  0.000000  1
