# generated using pymatgen
data_MgMn3(AlPd5)2
_symmetry_space_group_name_H-M   'P 1'
_cell_length_a   4.11908200
_cell_length_b   5.47383736
_cell_length_c   10.71709971
_cell_angle_alpha   89.95844056
_cell_angle_beta   90.00000000
_cell_angle_gamma   90.00000000
_symmetry_Int_Tables_number   1
_chemical_formula_structural   MgMn3(AlPd5)2
_chemical_formula_sum   'Mg1 Mn3 Al2 Pd10'
_cell_volume   241.64036550
_cell_formula_units_Z   1
loop_
 _symmetry_equiv_pos_site_id
 _symmetry_equiv_pos_as_xyz
  1  'x, y, z'
loop_
 _atom_site_type_symbol
 _atom_site_label
 _atom_site_symmetry_multiplicity
 _atom_site_fract_x
 _atom_site_fract_y
 _atom_site_fract_z
 _atom_site_occupancy
  Mg  Mg0  1  0.500000  0.172251  0.360277  1
  Mn  Mn1  1  0.500000  0.823129  0.638407  1
  Mn  Mn2  1  0.500000  0.677659  0.138377  1
  Mn  Mn3  1  0.500000  0.322306  0.861581  1
  Al  Al4  1  0.000000  0.999709  0.999893  1
  Al  Al5  1  0.000000  0.505234  0.501453  1
  Pd  Pd6  1  0.500000  0.186878  0.104811  1
  Pd  Pd7  1  0.500000  0.814196  0.892562  1
  Pd  Pd8  1  0.500000  0.681638  0.392562  1
  Pd  Pd9  1  0.500000  0.316922  0.609191  1
  Pd  Pd10  1  0.000000  0.999661  0.502095  1
  Pd  Pd11  1  0.000000  0.500363  0.999673  1
  Pd  Pd12  1  0.000000  0.919102  0.237585  1
  Pd  Pd13  1  0.000000  0.079336  0.761471  1
  Pd  Pd14  1  0.000000  0.421944  0.259971  1
  Pd  Pd15  1  0.000000  0.579672  0.740090  1
