# generated using pymatgen
data_Y3CdGa8Os3
_symmetry_space_group_name_H-M   'P 1'
_cell_length_a   6.46790600
_cell_length_b   6.46790600
_cell_length_c   6.46790600
_cell_angle_alpha   90.00000000
_cell_angle_beta   90.00000000
_cell_angle_gamma   90.00000000
_symmetry_Int_Tables_number   1
_chemical_formula_structural   Y3CdGa8Os3
_chemical_formula_sum   'Y3 Cd1 Ga8 Os3'
_cell_volume   270.57713793
_cell_formula_units_Z   1
loop_
 _symmetry_equiv_pos_site_id
 _symmetry_equiv_pos_as_xyz
  1  'x, y, z'
loop_
 _atom_site_type_symbol
 _atom_site_label
 _atom_site_symmetry_multiplicity
 _atom_site_fract_x
 _atom_site_fract_y
 _atom_site_fract_z
 _atom_site_occupancy
  Y  Y0  1  0.500000  0.000000  0.000000  1
  Y  Y1  1  0.000000  0.500000  0.000000  1
  Y  Y2  1  0.000000  0.000000  0.500000  1
  Cd  Cd3  1  0.000000  0.000000  0.000000  1
  Ga  Ga4  1  0.291358  0.291358  0.291358  1
  Ga  Ga5  1  0.708642  0.708642  0.708642  1
  Ga  Ga6  1  0.708642  0.708642  0.291358  1
  Ga  Ga7  1  0.708642  0.291358  0.708642  1
  Ga  Ga8  1  0.291358  0.291358  0.708642  1
  Ga  Ga9  1  0.291358  0.708642  0.291358  1
  Ga  Ga10  1  0.291358  0.708642  0.708642  1
  Ga  Ga11  1  0.708642  0.291358  0.291358  1
  Os  Os12  1  0.000000  0.500000  0.500000  1
  Os  Os13  1  0.500000  0.000000  0.500000  1
  Os  Os14  1  0.500000  0.500000  0.000000  1
