# generated using pymatgen
data_LiCa20Zn11
_symmetry_space_group_name_H-M   'P 1'
_cell_length_a   7.97531700
_cell_length_b   7.97531700
_cell_length_c   15.08397200
_cell_angle_alpha   90.00000000
_cell_angle_beta   90.00000000
_cell_angle_gamma   90.00000000
_symmetry_Int_Tables_number   1
_chemical_formula_structural   LiCa20Zn11
_chemical_formula_sum   'Li1 Ca20 Zn11'
_cell_volume   959.42631502
_cell_formula_units_Z   1
loop_
 _symmetry_equiv_pos_site_id
 _symmetry_equiv_pos_as_xyz
  1  'x, y, z'
loop_
 _atom_site_type_symbol
 _atom_site_label
 _atom_site_symmetry_multiplicity
 _atom_site_fract_x
 _atom_site_fract_y
 _atom_site_fract_z
 _atom_site_occupancy
  Li  Li0  1  0.000000  0.000000  0.000000  1
  Ca  Ca1  1  0.661400  0.174377  0.104938  1
  Ca  Ca2  1  0.170737  0.668140  0.602975  1
  Ca  Ca3  1  0.338600  0.825623  0.104938  1
  Ca  Ca4  1  0.829263  0.331860  0.602975  1
  Ca  Ca5  1  0.825623  0.661400  0.104938  1
  Ca  Ca6  1  0.331860  0.170737  0.602975  1
  Ca  Ca7  1  0.174377  0.338600  0.104938  1
  Ca  Ca8  1  0.668140  0.829263  0.602975  1
  Ca  Ca9  1  0.825623  0.338600  0.895062  1
  Ca  Ca10  1  0.331860  0.829263  0.397025  1
  Ca  Ca11  1  0.174377  0.661400  0.895062  1
  Ca  Ca12  1  0.668140  0.170737  0.397025  1
  Ca  Ca13  1  0.661400  0.825623  0.895062  1
  Ca  Ca14  1  0.170737  0.331860  0.397025  1
  Ca  Ca15  1  0.338600  0.174377  0.895062  1
  Ca  Ca16  1  0.829263  0.668140  0.397025  1
  Ca  Ca17  1  0.500000  0.500000  0.747931  1
  Ca  Ca18  1  0.000000  0.000000  0.252723  1
  Ca  Ca19  1  0.000000  0.000000  0.747277  1
  Ca  Ca20  1  0.500000  0.500000  0.252069  1
  Zn  Zn21  1  0.500000  0.500000  0.500000  1
  Zn  Zn22  1  0.500000  0.500000  0.000000  1
  Zn  Zn23  1  0.000000  0.000000  0.500000  1
  Zn  Zn24  1  0.620073  0.118753  0.750141  1
  Zn  Zn25  1  0.118753  0.620073  0.249859  1
  Zn  Zn26  1  0.881247  0.379927  0.249859  1
  Zn  Zn27  1  0.379927  0.881247  0.750141  1
  Zn  Zn28  1  0.881247  0.620073  0.750141  1
  Zn  Zn29  1  0.379927  0.118753  0.249859  1
  Zn  Zn30  1  0.118753  0.379927  0.750141  1
  Zn  Zn31  1  0.620073  0.881247  0.249859  1
