# generated using pymatgen
data_Nd4Zn3GaPt4
_symmetry_space_group_name_H-M   'P 1'
_cell_length_a   4.44013600
_cell_length_b   7.10468762
_cell_length_c   8.01396520
_cell_angle_alpha   90.30284418
_cell_angle_beta   90.00000000
_cell_angle_gamma   90.00000000
_symmetry_Int_Tables_number   1
_chemical_formula_structural   Nd4Zn3GaPt4
_chemical_formula_sum   'Nd4 Zn3 Ga1 Pt4'
_cell_volume   252.80324595
_cell_formula_units_Z   1
loop_
 _symmetry_equiv_pos_site_id
 _symmetry_equiv_pos_as_xyz
  1  'x, y, z'
loop_
 _atom_site_type_symbol
 _atom_site_label
 _atom_site_symmetry_multiplicity
 _atom_site_fract_x
 _atom_site_fract_y
 _atom_site_fract_z
 _atom_site_occupancy
  Nd  Nd0  1  0.250000  0.022310  0.691758  1
  Nd  Nd1  1  0.250000  0.523785  0.808278  1
  Nd  Nd2  1  0.750000  0.978520  0.307501  1
  Nd  Nd3  1  0.750000  0.475307  0.191872  1
  Zn  Zn4  1  0.250000  0.156065  0.071039  1
  Zn  Zn5  1  0.250000  0.657350  0.429392  1
  Zn  Zn6  1  0.750000  0.846705  0.930417  1
  Ga  Ga7  1  0.750000  0.344152  0.567370  1
  Pt  Pt8  1  0.250000  0.271004  0.396784  1
  Pt  Pt9  1  0.250000  0.769921  0.109249  1
  Pt  Pt10  1  0.750000  0.723746  0.607393  1
  Pt  Pt11  1  0.750000  0.231135  0.888947  1
