# generated using pymatgen
data_YHo2Er(Ga3Ir)6
_symmetry_space_group_name_H-M   'P 1'
_cell_length_a   7.59257000
_cell_length_b   7.59358960
_cell_length_c   9.48497600
_cell_angle_alpha   90.00000000
_cell_angle_beta   90.00000000
_cell_angle_gamma   119.98669531
_symmetry_Int_Tables_number   1
_chemical_formula_structural   YHo2Er(Ga3Ir)6
_chemical_formula_sum   'Y1 Ho2 Er1 Ga18 Ir6'
_cell_volume   473.65377519
_cell_formula_units_Z   1
loop_
 _symmetry_equiv_pos_site_id
 _symmetry_equiv_pos_as_xyz
  1  'x, y, z'
loop_
 _atom_site_type_symbol
 _atom_site_label
 _atom_site_symmetry_multiplicity
 _atom_site_fract_x
 _atom_site_fract_y
 _atom_site_fract_z
 _atom_site_occupancy
  Y  Y0  1  0.002921  0.332076  0.250000  1
  Ho  Ho1  1  0.997267  0.668125  0.750000  1
  Ho  Ho2  1  0.668100  0.997343  0.750000  1
  Er  Er3  1  0.332098  0.002820  0.250000  1
  Ga  Ga4  1  0.127029  0.127018  0.750000  1
  Ga  Ga5  1  0.873119  0.872932  0.250000  1
  Ga  Ga6  1  0.998933  0.333935  0.581125  1
  Ga  Ga7  1  0.001199  0.666420  0.419028  1
  Ga  Ga8  1  0.001199  0.666420  0.080972  1
  Ga  Ga9  1  0.333946  0.998927  0.919125  1
  Ga  Ga10  1  0.998933  0.333935  0.918875  1
  Ga  Ga11  1  0.665685  0.000857  0.080959  1
  Ga  Ga12  1  0.665685  0.000857  0.419041  1
  Ga  Ga13  1  0.333946  0.998927  0.580875  1
  Ga  Ga14  1  0.332481  0.332153  0.064793  1
  Ga  Ga15  1  0.667669  0.667677  0.934873  1
  Ga  Ga16  1  0.667669  0.667677  0.565127  1
  Ga  Ga17  1  0.332481  0.332153  0.435207  1
  Ga  Ga18  1  0.339459  0.546668  0.750000  1
  Ga  Ga19  1  0.660302  0.453242  0.250000  1
  Ga  Ga20  1  0.546567  0.339381  0.750000  1
  Ga  Ga21  1  0.453481  0.660737  0.250000  1
  Ir  Ir22  1  0.671440  0.328339  0.499796  1
  Ir  Ir23  1  0.328357  0.671544  0.499797  1
  Ir  Ir24  1  0.328357  0.671544  0.000203  1
  Ir  Ir25  1  0.671440  0.328339  0.000204  1
  Ir  Ir26  1  0.000119  0.999978  0.499846  1
  Ir  Ir27  1  0.000119  0.999978  0.000154  1
