# generated using pymatgen
data_Tb8Ta11NbSi15Ge
_symmetry_space_group_name_H-M   'P 1'
_cell_length_a   6.88365105
_cell_length_b   7.06863845
_cell_length_c   13.42945511
_cell_angle_alpha   90.03779168
_cell_angle_beta   89.93185844
_cell_angle_gamma   90.05573465
_symmetry_Int_Tables_number   1
_chemical_formula_structural   Tb8Ta11NbSi15Ge
_chemical_formula_sum   'Tb8 Ta11 Nb1 Si15 Ge1'
_cell_volume   653.45005789
_cell_formula_units_Z   1
loop_
 _symmetry_equiv_pos_site_id
 _symmetry_equiv_pos_as_xyz
  1  'x, y, z'
loop_
 _atom_site_type_symbol
 _atom_site_label
 _atom_site_symmetry_multiplicity
 _atom_site_fract_x
 _atom_site_fract_y
 _atom_site_fract_z
 _atom_site_occupancy
  Tb  Tb0  1  0.503320  0.329610  0.095889  1
  Tb  Tb1  1  0.002123  0.170063  0.403737  1
  Tb  Tb2  1  0.499909  0.672705  0.596497  1
  Tb  Tb3  1  0.996722  0.829329  0.904655  1
  Tb  Tb4  1  0.496666  0.670388  0.904509  1
  Tb  Tb5  1  0.996639  0.830122  0.596020  1
  Tb  Tb6  1  0.503644  0.328073  0.403342  1
  Tb  Tb7  1  0.003081  0.170893  0.095581  1
  Ta  Ta8  1  0.664620  0.009593  0.750337  1
  Ta  Ta9  1  0.163892  0.489792  0.752087  1
  Ta  Ta10  1  0.335454  0.990468  0.249711  1
  Ta  Ta11  1  0.835689  0.509919  0.249847  1
  Ta  Ta12  1  0.836431  0.324208  0.625745  1
  Ta  Ta13  1  0.337916  0.175311  0.874961  1
  Ta  Ta14  1  0.162011  0.675427  0.125074  1
  Ta  Ta15  1  0.661606  0.824943  0.374280  1
  Ta  Ta16  1  0.160435  0.678065  0.373041  1
  Ta  Ta17  1  0.661149  0.824416  0.125129  1
  Ta  Ta18  1  0.838019  0.324475  0.874958  1
  Nb  Nb19  1  0.340403  0.171610  0.626396  1
  Si  Si20  1  0.797432  0.624573  0.750238  1
  Si  Si21  1  0.296373  0.874008  0.750720  1
  Si  Si22  1  0.202965  0.375319  0.249748  1
  Si  Si23  1  0.703091  0.124741  0.249534  1
  Si  Si24  1  0.542767  0.375557  0.750267  1
  Si  Si25  1  0.042711  0.124733  0.750122  1
  Si  Si26  1  0.456856  0.624501  0.249883  1
  Si  Si27  1  0.956195  0.876052  0.249050  1
  Si  Si28  1  0.664008  0.037772  0.540354  1
  Si  Si29  1  0.163009  0.462685  0.959289  1
  Si  Si30  1  0.336525  0.962777  0.040881  1
  Si  Si31  1  0.833002  0.538183  0.458377  1
  Si  Si32  1  0.336362  0.962017  0.459074  1
  Si  Si33  1  0.836950  0.537378  0.041050  1
  Si  Si34  1  0.663163  0.037326  0.959243  1
  Ge  Ge35  1  0.168867  0.462971  0.540377  1
