# generated using pymatgen
data_YTm2CdRu2
_symmetry_space_group_name_H-M   'P 1'
_cell_length_a   3.40313800
_cell_length_b   3.40313800
_cell_length_c   11.19515500
_cell_angle_alpha   90.00000000
_cell_angle_beta   90.00000000
_cell_angle_gamma   90.00000000
_symmetry_Int_Tables_number   1
_chemical_formula_structural   YTm2CdRu2
_chemical_formula_sum   'Y1 Tm2 Cd1 Ru2'
_cell_volume   129.65498873
_cell_formula_units_Z   1
loop_
 _symmetry_equiv_pos_site_id
 _symmetry_equiv_pos_as_xyz
  1  'x, y, z'
loop_
 _atom_site_type_symbol
 _atom_site_label
 _atom_site_symmetry_multiplicity
 _atom_site_fract_x
 _atom_site_fract_y
 _atom_site_fract_z
 _atom_site_occupancy
  Y  Y0  1  0.499999  0.499999  0.296647  1
  Tm  Tm1  1  0.499999  0.499999  0.998761  1
  Tm  Tm2  1  0.499999  0.499999  0.705392  1
  Cd  Cd3  1  0.000000  0.000000  0.504720  1
  Ru  Ru4  1  0.000000  0.000000  0.150865  1
  Ru  Ru5  1  0.000000  0.000000  0.843615  1
