# generated using pymatgen
data_Pr3In2Pt3Pb
_symmetry_space_group_name_H-M   'P 1'
_cell_length_a   7.87255500
_cell_length_b   7.82597853
_cell_length_c   4.07223100
_cell_angle_alpha   90.00000000
_cell_angle_beta   90.00000000
_cell_angle_gamma   120.19707501
_symmetry_Int_Tables_number   1
_chemical_formula_structural   Pr3In2Pt3Pb
_chemical_formula_sum   'Pr3 In2 Pt3 Pb1'
_cell_volume   216.84604991
_cell_formula_units_Z   1
loop_
 _symmetry_equiv_pos_site_id
 _symmetry_equiv_pos_as_xyz
  1  'x, y, z'
loop_
 _atom_site_type_symbol
 _atom_site_label
 _atom_site_symmetry_multiplicity
 _atom_site_fract_x
 _atom_site_fract_y
 _atom_site_fract_z
 _atom_site_occupancy
  Pr  Pr0  1  0.594141  0.000000  0.000000  1
  Pr  Pr1  1  0.996890  0.587553  0.000000  1
  Pr  Pr2  1  0.409337  0.412447  0.000000  1
  In  In3  1  0.999756  0.254587  0.500000  1
  In  In4  1  0.745169  0.745413  0.500000  1
  Pt  Pt5  1  0.335839  0.659713  0.500000  1
  Pt  Pt6  1  0.676127  0.340287  0.500000  1
  Pt  Pt7  1  0.988689  0.000000  0.000000  1
  Pb  Pb8  1  0.254051  0.000000  0.500000  1
