# generated using pymatgen
data_Tb5ErAl19Si5Os8
_symmetry_space_group_name_H-M   'P 1'
_cell_length_a   8.71080408
_cell_length_b   8.69525168
_cell_length_c   9.59858000
_cell_angle_alpha   90.00000000
_cell_angle_beta   90.00000000
_cell_angle_gamma   120.07433026
_symmetry_Int_Tables_number   1
_chemical_formula_structural   Tb5ErAl19Si5Os8
_chemical_formula_sum   'Tb5 Er1 Al19 Si5 Os8'
_cell_volume   629.14717184
_cell_formula_units_Z   1
loop_
 _symmetry_equiv_pos_site_id
 _symmetry_equiv_pos_as_xyz
  1  'x, y, z'
loop_
 _atom_site_type_symbol
 _atom_site_label
 _atom_site_symmetry_multiplicity
 _atom_site_fract_x
 _atom_site_fract_y
 _atom_site_fract_z
 _atom_site_occupancy
  Tb  Tb0  1  0.194294  0.388550  0.250000  1
  Tb  Tb1  1  0.806317  0.612268  0.750000  1
  Tb  Tb2  1  0.609325  0.806888  0.250000  1
  Tb  Tb3  1  0.388812  0.194486  0.750000  1
  Tb  Tb4  1  0.197707  0.806809  0.250000  1
  Er  Er5  1  0.804977  0.195980  0.750000  1
  Al  Al6  1  0.164350  0.329221  0.578233  1
  Al  Al7  1  0.834668  0.669250  0.422300  1
  Al  Al8  1  0.670076  0.835716  0.576993  1
  Al  Al9  1  0.834668  0.669250  0.077700  1
  Al  Al10  1  0.329264  0.165550  0.422499  1
  Al  Al11  1  0.164350  0.329221  0.921767  1
  Al  Al12  1  0.165485  0.835242  0.576807  1
  Al  Al13  1  0.329264  0.165550  0.077501  1
  Al  Al14  1  0.836345  0.165512  0.422880  1
  Al  Al15  1  0.670076  0.835716  0.923007  1
  Al  Al16  1  0.836345  0.165512  0.077120  1
  Al  Al17  1  0.165485  0.835242  0.923193  1
  Al  Al18  1  0.437512  0.874257  0.750000  1
  Al  Al19  1  0.872366  0.433060  0.250000  1
  Al  Al20  1  0.127704  0.564112  0.750000  1
  Al  Al21  1  0.560861  0.433131  0.250000  1
  Al  Al22  1  0.436491  0.564715  0.750000  1
  Al  Al23  1  0.999871  0.999626  0.250000  1
  Al  Al24  1  0.999594  0.001583  0.750000  1
  Si  Si25  1  0.332658  0.665059  0.036589  1
  Si  Si26  1  0.667543  0.334252  0.961253  1
  Si  Si27  1  0.667543  0.334252  0.538747  1
  Si  Si28  1  0.332658  0.665059  0.463411  1
  Si  Si29  1  0.564050  0.127944  0.250000  1
  Os  Os30  1  0.501166  0.001771  0.005807  1
  Os  Os31  1  0.998756  0.498567  0.000090  1
  Os  Os32  1  0.501166  0.001771  0.494193  1
  Os  Os33  1  0.500136  0.498951  0.000389  1
  Os  Os34  1  0.998756  0.498567  0.499910  1
  Os  Os35  1  0.500136  0.498951  0.499611  1
  Os  Os36  1  0.999615  0.999203  0.999968  1
  Os  Os37  1  0.999615  0.999203  0.500032  1
