# generated using pymatgen
data_Gd7Er(Si3Au)4
_symmetry_space_group_name_H-M   'P 1'
_cell_length_a   8.21915700
_cell_length_b   8.20362796
_cell_length_c   8.24518800
_cell_angle_alpha   90.00000000
_cell_angle_beta   90.00000000
_cell_angle_gamma   120.06263395
_symmetry_Int_Tables_number   1
_chemical_formula_structural   Gd7Er(Si3Au)4
_chemical_formula_sum   'Gd7 Er1 Si12 Au4'
_cell_volume   481.16051378
_cell_formula_units_Z   1
loop_
 _symmetry_equiv_pos_site_id
 _symmetry_equiv_pos_as_xyz
  1  'x, y, z'
loop_
 _atom_site_type_symbol
 _atom_site_label
 _atom_site_symmetry_multiplicity
 _atom_site_fract_x
 _atom_site_fract_y
 _atom_site_fract_z
 _atom_site_occupancy
  Gd  Gd0  1  0.500175  0.000352  0.750000  1
  Gd  Gd1  1  0.999117  0.499627  0.250000  1
  Gd  Gd2  1  0.999314  0.499470  0.750000  1
  Gd  Gd3  1  0.500512  0.499627  0.250000  1
  Gd  Gd4  1  0.500154  0.499470  0.750000  1
  Gd  Gd5  1  0.000135  0.000270  0.250000  1
  Gd  Gd6  1  0.000083  0.000168  0.750000  1
  Er  Er7  1  0.500207  0.000413  0.250000  1
  Si  Si8  1  0.164366  0.328732  0.000018  1
  Si  Si9  1  0.835803  0.671606  0.000712  1
  Si  Si10  1  0.673318  0.836416  0.000361  1
  Si  Si11  1  0.835803  0.671606  0.499288  1
  Si  Si12  1  0.326725  0.163579  0.001202  1
  Si  Si13  1  0.164366  0.328732  0.499982  1
  Si  Si14  1  0.163099  0.836416  0.000361  1
  Si  Si15  1  0.326725  0.163579  0.498798  1
  Si  Si16  1  0.836854  0.163579  0.001202  1
  Si  Si17  1  0.673318  0.836416  0.499639  1
  Si  Si18  1  0.836854  0.163579  0.498798  1
  Si  Si19  1  0.163099  0.836416  0.499639  1
  Au  Au20  1  0.334735  0.669470  0.004195  1
  Au  Au21  1  0.665252  0.330504  0.002799  1
  Au  Au22  1  0.665252  0.330504  0.497201  1
  Au  Au23  1  0.334735  0.669470  0.495805  1
