# generated using pymatgen
data_Ho4Tm4B24IrRu3
_symmetry_space_group_name_H-M   'P 1'
_cell_length_a   3.63351100
_cell_length_b   9.09698891
_cell_length_c   11.45360302
_cell_angle_alpha   90.02254156
_cell_angle_beta   90.00000000
_cell_angle_gamma   90.00000000
_symmetry_Int_Tables_number   1
_chemical_formula_structural   Ho4Tm4B24IrRu3
_chemical_formula_sum   'Ho4 Tm4 B24 Ir1 Ru3'
_cell_volume   378.58747109
_cell_formula_units_Z   1
loop_
 _symmetry_equiv_pos_site_id
 _symmetry_equiv_pos_as_xyz
  1  'x, y, z'
loop_
 _atom_site_type_symbol
 _atom_site_label
 _atom_site_symmetry_multiplicity
 _atom_site_fract_x
 _atom_site_fract_y
 _atom_site_fract_z
 _atom_site_occupancy
  Ho  Ho0  1  0.000000  0.318697  0.414443  1
  Ho  Ho1  1  0.000000  0.679299  0.589033  1
  Ho  Ho2  1  0.000000  0.823085  0.084187  1
  Ho  Ho3  1  0.000000  0.178875  0.913140  1
  Tm  Tm4  1  0.000000  0.945761  0.373334  1
  Tm  Tm5  1  0.000000  0.055937  0.626846  1
  Tm  Tm6  1  0.000000  0.441851  0.125482  1
  Tm  Tm7  1  0.000000  0.555882  0.873385  1
  B  B8  1  0.500000  0.553929  0.433876  1
  B  B9  1  0.500000  0.445915  0.566854  1
  B  B10  1  0.500000  0.054321  0.066822  1
  B  B11  1  0.500000  0.946083  0.932828  1
  B  B12  1  0.500000  0.750112  0.421213  1
  B  B13  1  0.500000  0.250815  0.580069  1
  B  B14  1  0.500000  0.248580  0.079806  1
  B  B15  1  0.500000  0.751375  0.920003  1
  B  B16  1  0.500000  0.792618  0.265477  1
  B  B17  1  0.500000  0.208421  0.733821  1
  B  B18  1  0.500000  0.291891  0.234367  1
  B  B19  1  0.500000  0.708216  0.766150  1
  B  B20  1  0.500000  0.631495  0.183409  1
  B  B21  1  0.500000  0.368844  0.815092  1
  B  B22  1  0.500000  0.131374  0.315356  1
  B  B23  1  0.500000  0.868479  0.684967  1
  B  B24  1  0.500000  0.982660  0.213194  1
  B  B25  1  0.500000  0.017267  0.786589  1
  B  B26  1  0.500000  0.481582  0.286346  1
  B  B27  1  0.500000  0.517201  0.713514  1
  B  B28  1  0.500000  0.607962  0.029897  1
  B  B29  1  0.500000  0.392120  0.970361  1
  B  B30  1  0.500000  0.107304  0.470527  1
  B  B31  1  0.500000  0.892034  0.529332  1
  Ir  Ir32  1  0.000000  0.637730  0.321327  1
  Ru  Ru33  1  0.000000  0.362193  0.678713  1
  Ru  Ru34  1  0.000000  0.138213  0.179559  1
  Ru  Ru35  1  0.000000  0.861879  0.820684  1
