# generated using pymatgen
data_Mg3Nb(InRh2)4
_symmetry_space_group_name_H-M   'P 1'
_cell_length_a   6.31953700
_cell_length_b   6.31910800
_cell_length_c   6.52087700
_cell_angle_alpha   90.00000000
_cell_angle_beta   89.99864345
_cell_angle_gamma   90.00000000
_symmetry_Int_Tables_number   1
_chemical_formula_structural   Mg3Nb(InRh2)4
_chemical_formula_sum   'Mg3 Nb1 In4 Rh8'
_cell_volume   260.40363796
_cell_formula_units_Z   1
loop_
 _symmetry_equiv_pos_site_id
 _symmetry_equiv_pos_as_xyz
  1  'x, y, z'
loop_
 _atom_site_type_symbol
 _atom_site_label
 _atom_site_symmetry_multiplicity
 _atom_site_fract_x
 _atom_site_fract_y
 _atom_site_fract_z
 _atom_site_occupancy
  Mg  Mg0  1  0.250047  0.750001  0.000004  1
  Mg  Mg1  1  0.250045  0.750001  0.499993  1
  Mg  Mg2  1  0.749949  0.250000  0.499984  1
  Nb  Nb3  1  0.749957  0.250000  0.999989  1
  In  In4  1  0.250024  0.250000  0.999999  1
  In  In5  1  0.750071  0.750001  0.000009  1
  In  In6  1  0.750087  0.750001  0.500006  1
  In  In7  1  0.249836  0.250000  0.500009  1
  Rh  Rh8  1  0.995187  0.004849  0.248291  1
  Rh  Rh9  1  0.995187  0.495152  0.248291  1
  Rh  Rh10  1  0.504815  0.004791  0.248425  1
  Rh  Rh11  1  0.504815  0.495208  0.248425  1
  Rh  Rh12  1  0.504803  0.004788  0.751579  1
  Rh  Rh13  1  0.504803  0.495213  0.751579  1
  Rh  Rh14  1  0.995188  0.004850  0.751710  1
  Rh  Rh15  1  0.995188  0.495149  0.751710  1
