# generated using pymatgen
data_V3B4W
_symmetry_space_group_name_H-M   'P 1'
_cell_length_a   3.00939500
_cell_length_b   3.09772700
_cell_length_c   8.15647800
_cell_angle_alpha   90.00000000
_cell_angle_beta   90.00000000
_cell_angle_gamma   90.00000000
_symmetry_Int_Tables_number   1
_chemical_formula_structural   V3B4W
_chemical_formula_sum   'V3 B4 W1'
_cell_volume   76.03700554
_cell_formula_units_Z   1
loop_
 _symmetry_equiv_pos_site_id
 _symmetry_equiv_pos_as_xyz
  1  'x, y, z'
loop_
 _atom_site_type_symbol
 _atom_site_label
 _atom_site_symmetry_multiplicity
 _atom_site_fract_x
 _atom_site_fract_y
 _atom_site_fract_z
 _atom_site_occupancy
  V  V0  1  0.000000  0.500000  0.646571  1
  V  V1  1  0.500000  0.500000  0.359738  1
  V  V2  1  0.500000  0.000000  0.850260  1
  B  B3  1  0.000000  0.000000  0.442747  1
  B  B4  1  0.000000  0.500000  0.930397  1
  B  B5  1  0.500000  0.500000  0.055395  1
  B  B6  1  0.500000  0.000000  0.565275  1
  W  W7  1  0.000000  0.000000  0.149617  1
