# generated using pymatgen
data_SmYSBr2
_symmetry_space_group_name_H-M   'P 1'
_cell_length_a   11.16723569
_cell_length_b   11.16723673
_cell_length_c   11.16723700
_cell_angle_alpha   20.65508655
_cell_angle_beta   20.65508691
_cell_angle_gamma   20.65508330
_symmetry_Int_Tables_number   1
_chemical_formula_structural   SmYSBr2
_chemical_formula_sum   'Sm1 Y1 S1 Br2'
_cell_volume   151.69014671
_cell_formula_units_Z   1
loop_
 _symmetry_equiv_pos_site_id
 _symmetry_equiv_pos_as_xyz
  1  'x, y, z'
loop_
 _atom_site_type_symbol
 _atom_site_label
 _atom_site_symmetry_multiplicity
 _atom_site_fract_x
 _atom_site_fract_y
 _atom_site_fract_z
 _atom_site_occupancy
  Sm  Sm0  1  0.122251  0.122251  0.122251  1
  Y  Y1  1  0.877666  0.877666  0.877666  1
  S  S2  1  0.501969  0.501969  0.501969  1
  Br  Br3  1  0.267216  0.267216  0.267216  1
  Br  Br4  1  0.730900  0.730900  0.730900  1
