# generated using pymatgen
data_Nd3Ho3Al24Os7Pd
_symmetry_space_group_name_H-M   'P 1'
_cell_length_a   8.86256407
_cell_length_b   8.85065015
_cell_length_c   9.64709484
_cell_angle_alpha   89.81127783
_cell_angle_beta   90.18060280
_cell_angle_gamma   119.69264971
_symmetry_Int_Tables_number   1
_chemical_formula_structural   Nd3Ho3Al24Os7Pd
_chemical_formula_sum   'Nd3 Ho3 Al24 Os7 Pd1'
_cell_volume   657.34814900
_cell_formula_units_Z   1
loop_
 _symmetry_equiv_pos_site_id
 _symmetry_equiv_pos_as_xyz
  1  'x, y, z'
loop_
 _atom_site_type_symbol
 _atom_site_label
 _atom_site_symmetry_multiplicity
 _atom_site_fract_x
 _atom_site_fract_y
 _atom_site_fract_z
 _atom_site_occupancy
  Nd  Nd0  1  0.186381  0.381517  0.250718  1
  Nd  Nd1  1  0.812832  0.619364  0.749438  1
  Nd  Nd2  1  0.617801  0.812191  0.250667  1
  Ho  Ho3  1  0.388426  0.189333  0.747800  1
  Ho  Ho4  1  0.195058  0.804130  0.251291  1
  Ho  Ho5  1  0.804276  0.194433  0.748416  1
  Al  Al6  1  0.330121  0.669605  0.020846  1
  Al  Al7  1  0.668890  0.330325  0.975120  1
  Al  Al8  1  0.666645  0.333004  0.521752  1
  Al  Al9  1  0.332777  0.666951  0.481271  1
  Al  Al10  1  0.164649  0.326719  0.576118  1
  Al  Al11  1  0.836181  0.671954  0.425913  1
  Al  Al12  1  0.671773  0.836030  0.575379  1
  Al  Al13  1  0.843551  0.674776  0.077404  1
  Al  Al14  1  0.327486  0.163680  0.428047  1
  Al  Al15  1  0.156871  0.324122  0.921148  1
  Al  Al16  1  0.165381  0.836589  0.572632  1
  Al  Al17  1  0.324721  0.156715  0.074847  1
  Al  Al18  1  0.834646  0.164918  0.428840  1
  Al  Al19  1  0.674714  0.843790  0.921698  1
  Al  Al20  1  0.834452  0.165055  0.071132  1
  Al  Al21  1  0.165452  0.836946  0.927236  1
  Al  Al22  1  0.560283  0.124404  0.249450  1
  Al  Al23  1  0.438240  0.876706  0.750651  1
  Al  Al24  1  0.874534  0.438331  0.249552  1
  Al  Al25  1  0.124294  0.560775  0.750652  1
  Al  Al26  1  0.562538  0.435731  0.253192  1
  Al  Al27  1  0.436169  0.560942  0.747640  1
  Al  Al28  1  0.001960  0.997291  0.250499  1
  Al  Al29  1  0.004749  0.006104  0.749974  1
  Os  Os30  1  0.498975  0.001135  0.998491  1
  Os  Os31  1  0.999463  0.499809  0.999752  1
  Os  Os32  1  0.499101  0.000930  0.501665  1
  Os  Os33  1  0.999738  0.499776  0.500381  1
  Os  Os34  1  0.499305  0.498643  0.501237  1
  Os  Os35  1  0.999412  0.999938  0.999802  1
  Os  Os36  1  0.999477  0.999851  0.500643  1
  Pd  Pd37  1  0.498678  0.497483  0.998705  1
