# generated using pymatgen
data_Ga6Pt3Rh7
_symmetry_space_group_name_H-M   'P 1'
_cell_length_a   4.20460700
_cell_length_b   5.36887256
_cell_length_c   10.31016008
_cell_angle_alpha   89.56565560
_cell_angle_beta   90.00000000
_cell_angle_gamma   90.00000000
_symmetry_Int_Tables_number   1
_chemical_formula_structural   Ga6Pt3Rh7
_chemical_formula_sum   'Ga6 Pt3 Rh7'
_cell_volume   232.73485725
_cell_formula_units_Z   1
loop_
 _symmetry_equiv_pos_site_id
 _symmetry_equiv_pos_as_xyz
  1  'x, y, z'
loop_
 _atom_site_type_symbol
 _atom_site_label
 _atom_site_symmetry_multiplicity
 _atom_site_fract_x
 _atom_site_fract_y
 _atom_site_fract_z
 _atom_site_occupancy
  Ga  Ga0  1  0.500000  0.363094  0.363603  1
  Ga  Ga1  1  0.500000  0.644085  0.632012  1
  Ga  Ga2  1  0.500000  0.143869  0.868481  1
  Ga  Ga3  1  0.500000  0.850366  0.135054  1
  Ga  Ga4  1  0.000000  0.999052  0.498766  1
  Ga  Ga5  1  0.000000  0.500262  0.003045  1
  Pt  Pt6  1  0.000000  0.857275  0.730969  1
  Pt  Pt7  1  0.000000  0.143937  0.267422  1
  Pt  Pt8  1  0.000000  0.355966  0.770138  1
  Rh  Rh9  1  0.500000  0.330125  0.110326  1
  Rh  Rh10  1  0.500000  0.667711  0.888801  1
  Rh  Rh11  1  0.500000  0.834844  0.389270  1
  Rh  Rh12  1  0.500000  0.168309  0.611214  1
  Rh  Rh13  1  0.000000  0.645653  0.230458  1
  Rh  Rh14  1  0.000000  0.498506  0.499342  1
  Rh  Rh15  1  0.000000  0.996945  0.001101  1
