# generated using pymatgen
data_TmU(TlCl3)4
_symmetry_space_group_name_H-M   'P 1'
_cell_length_a   7.20362000
_cell_length_b   7.20362000
_cell_length_c   10.77887300
_cell_angle_alpha   90.00000000
_cell_angle_beta   90.00000000
_cell_angle_gamma   90.00000000
_symmetry_Int_Tables_number   1
_chemical_formula_structural   TmU(TlCl3)4
_chemical_formula_sum   'Tm1 U1 Tl4 Cl12'
_cell_volume   559.33879866
_cell_formula_units_Z   1
loop_
 _symmetry_equiv_pos_site_id
 _symmetry_equiv_pos_as_xyz
  1  'x, y, z'
loop_
 _atom_site_type_symbol
 _atom_site_label
 _atom_site_symmetry_multiplicity
 _atom_site_fract_x
 _atom_site_fract_y
 _atom_site_fract_z
 _atom_site_occupancy
  Tm  Tm0  1  0.000000  0.000000  0.000000  1
  U  U1  1  0.500000  0.500000  0.500000  1
  Tl  Tl2  1  0.500000  0.000000  0.795520  1
  Tl  Tl3  1  0.500000  0.000000  0.204480  1
  Tl  Tl4  1  0.000000  0.500000  0.204480  1
  Tl  Tl5  1  0.000000  0.500000  0.795520  1
  Cl  Cl6  1  0.744801  0.254316  0.000000  1
  Cl  Cl7  1  0.255199  0.745684  0.000000  1
  Cl  Cl8  1  0.500000  0.500000  0.262991  1
  Cl  Cl9  1  0.317100  0.201619  0.500000  1
  Cl  Cl10  1  0.254316  0.255199  0.000000  1
  Cl  Cl11  1  0.798381  0.317100  0.500000  1
  Cl  Cl12  1  0.000000  0.000000  0.240291  1
  Cl  Cl13  1  0.682900  0.798381  0.500000  1
  Cl  Cl14  1  0.201619  0.682900  0.500000  1
  Cl  Cl15  1  0.500000  0.500000  0.737009  1
  Cl  Cl16  1  0.745684  0.744801  0.000000  1
  Cl  Cl17  1  0.000000  0.000000  0.759709  1
