# generated using pymatgen
data_MnNb6Al4CoC2
_symmetry_space_group_name_H-M   'P 1'
_cell_length_a   8.24194228
_cell_length_b   8.26946926
_cell_length_c   8.24234564
_cell_angle_alpha   59.87034340
_cell_angle_beta   59.81018959
_cell_angle_gamma   59.86778877
_symmetry_Int_Tables_number   1
_chemical_formula_structural   MnNb6Al4CoC2
_chemical_formula_sum   'Mn2 Nb12 Al8 Co2 C4'
_cell_volume   395.87337592
_cell_formula_units_Z   2
loop_
 _symmetry_equiv_pos_site_id
 _symmetry_equiv_pos_as_xyz
  1  'x, y, z'
loop_
 _atom_site_type_symbol
 _atom_site_label
 _atom_site_symmetry_multiplicity
 _atom_site_fract_x
 _atom_site_fract_y
 _atom_site_fract_z
 _atom_site_occupancy
  Mn  Mn0  1  0.625000  0.125000  0.625000  1
  Mn  Mn1  1  0.625000  0.625000  0.625000  1
  Nb  Nb2  1  0.805088  0.806000  0.200378  1
  Nb  Nb3  1  0.200451  0.188573  0.805006  1
  Nb  Nb4  1  0.801504  0.198502  0.801501  1
  Nb  Nb5  1  0.190837  0.809176  0.190822  1
  Nb  Nb6  1  0.200376  0.806011  0.805096  1
  Nb  Nb7  1  0.804998  0.188589  0.200454  1
  Nb  Nb8  1  0.444912  0.444000  0.049622  1
  Nb  Nb9  1  0.049549  0.061427  0.444994  1
  Nb  Nb10  1  0.448496  0.051498  0.448499  1
  Nb  Nb11  1  0.059163  0.440824  0.059178  1
  Nb  Nb12  1  0.049624  0.443989  0.444904  1
  Nb  Nb13  1  0.445002  0.061411  0.049546  1
  Al  Al14  1  0.743570  0.421322  0.414354  1
  Al  Al15  1  0.414786  0.749880  0.414822  1
  Al  Al16  1  0.414325  0.421329  0.743584  1
  Al  Al17  1  0.414576  0.420851  0.414608  1
  Al  Al18  1  0.506430  0.828678  0.835646  1
  Al  Al19  1  0.835214  0.500120  0.835178  1
  Al  Al20  1  0.835675  0.828671  0.506416  1
  Al  Al21  1  0.835424  0.829149  0.835392  1
  Co  Co22  1  0.125000  0.625000  0.625000  1
  Co  Co23  1  0.625000  0.625000  0.125000  1
  C  C24  1  0.625000  0.125000  0.125000  1
  C  C25  1  0.125000  0.625000  0.125000  1
  C  C26  1  0.125000  0.125000  0.625000  1
  C  C27  1  0.125000  0.125000  0.125000  1
