# generated using pymatgen
data_Tb3CeZr4F28
_symmetry_space_group_name_H-M   'P 1'
_cell_length_a   5.81103447
_cell_length_b   9.22333596
_cell_length_c   12.39798933
_cell_angle_alpha   62.27292993
_cell_angle_beta   89.97280702
_cell_angle_gamma   90.00867072
_symmetry_Int_Tables_number   1
_chemical_formula_structural   Tb3CeZr4F28
_chemical_formula_sum   'Tb3 Ce1 Zr4 F28'
_cell_volume   588.19489908
_cell_formula_units_Z   1
loop_
 _symmetry_equiv_pos_site_id
 _symmetry_equiv_pos_as_xyz
  1  'x, y, z'
loop_
 _atom_site_type_symbol
 _atom_site_label
 _atom_site_symmetry_multiplicity
 _atom_site_fract_x
 _atom_site_fract_y
 _atom_site_fract_z
 _atom_site_occupancy
  Tb  Tb0  1  0.743576  0.817536  0.266066  1
  Tb  Tb1  1  0.243514  0.185672  0.233730  1
  Tb  Tb2  1  0.257237  0.189940  0.733236  1
  Ce  Ce3  1  0.755830  0.817093  0.765897  1
  Zr  Zr4  1  0.743818  0.278939  0.452131  1
  Zr  Zr5  1  0.244232  0.725226  0.050020  1
  Zr  Zr6  1  0.254384  0.725885  0.539637  1
  Zr  Zr7  1  0.755153  0.269277  0.957584  1
  F  F8  1  0.459550  0.708179  0.927219  1
  F  F9  1  0.965777  0.288304  0.576336  1
  F  F10  1  0.531910  0.285314  0.078507  1
  F  F11  1  0.031561  0.711193  0.418602  1
  F  F12  1  0.458412  0.281697  0.549660  1
  F  F13  1  0.956912  0.715572  0.958448  1
  F  F14  1  0.545218  0.719045  0.447790  1
  F  F15  1  0.041905  0.277554  0.052203  1
  F  F16  1  0.769809  0.516740  0.861324  1
  F  F17  1  0.266974  0.476041  0.638137  1
  F  F18  1  0.235490  0.474960  0.144095  1
  F  F19  1  0.733046  0.527415  0.356664  1
  F  F20  1  0.759284  0.021088  0.059913  1
  F  F21  1  0.258651  0.974450  0.439371  1
  F  F22  1  0.240663  0.972780  0.942739  1
  F  F23  1  0.740062  0.030468  0.551861  1
  F  F24  1  0.986252  0.730780  0.643320  1
  F  F25  1  0.486470  0.264740  0.852303  1
  F  F26  1  0.010198  0.265804  0.348933  1
  F  F27  1  0.512571  0.735671  0.152794  1
  F  F28  1  0.033442  0.747378  0.174881  1
  F  F29  1  0.530205  0.254962  0.328370  1
  F  F30  1  0.967261  0.249907  0.831076  1
  F  F31  1  0.457670  0.744153  0.668049  1
  F  F32  1  0.433495  0.976527  0.236051  1
  F  F33  1  0.934465  0.025414  0.264224  1
  F  F34  1  0.570100  0.035653  0.765995  1
  F  F35  1  0.084901  0.978638  0.732834  1
