# generated using pymatgen
data_Zr3In3Pd2Rh
_symmetry_space_group_name_H-M   'P 1'
_cell_length_a   7.61577700
_cell_length_b   7.61577731
_cell_length_c   3.52889800
_cell_angle_alpha   90.00000000
_cell_angle_beta   90.00000000
_cell_angle_gamma   119.99999430
_symmetry_Int_Tables_number   1
_chemical_formula_structural   Zr3In3Pd2Rh
_chemical_formula_sum   'Zr3 In3 Pd2 Rh1'
_cell_volume   177.25488699
_cell_formula_units_Z   1
loop_
 _symmetry_equiv_pos_site_id
 _symmetry_equiv_pos_as_xyz
  1  'x, y, z'
loop_
 _atom_site_type_symbol
 _atom_site_label
 _atom_site_symmetry_multiplicity
 _atom_site_fract_x
 _atom_site_fract_y
 _atom_site_fract_z
 _atom_site_occupancy
  Zr  Zr0  1  0.985489  0.392838  0.500000  1
  Zr  Zr1  1  0.607162  0.592651  0.500000  1
  Zr  Zr2  1  0.407349  0.014511  0.500000  1
  In  In3  1  0.007044  0.732446  0.000000  1
  In  In4  1  0.267554  0.274598  0.000000  1
  In  In5  1  0.725402  0.992956  0.000000  1
  Pd  Pd6  1  0.333333  0.666667  0.000000  1
  Pd  Pd7  1  0.000000  0.000000  0.500000  1
  Rh  Rh8  1  0.666667  0.333333  0.000000  1
