# generated using pymatgen
data_Er6Ni9B4Ir5
_symmetry_space_group_name_H-M   'P 1'
_cell_length_a   5.13537458
_cell_length_b   5.26773289
_cell_length_c   14.54342508
_cell_angle_alpha   90.49819149
_cell_angle_beta   89.68276036
_cell_angle_gamma   120.90191132
_symmetry_Int_Tables_number   1
_chemical_formula_structural   Er6Ni9B4Ir5
_chemical_formula_sum   'Er6 Ni9 B4 Ir5'
_cell_volume   337.56490048
_cell_formula_units_Z   1
loop_
 _symmetry_equiv_pos_site_id
 _symmetry_equiv_pos_as_xyz
  1  'x, y, z'
loop_
 _atom_site_type_symbol
 _atom_site_label
 _atom_site_symmetry_multiplicity
 _atom_site_fract_x
 _atom_site_fract_y
 _atom_site_fract_z
 _atom_site_occupancy
  Er  Er0  1  0.334117  0.665279  0.465425  1
  Er  Er1  1  0.661482  0.327303  0.968077  1
  Er  Er2  1  0.663771  0.330223  0.536676  1
  Er  Er3  1  0.332932  0.662349  0.031069  1
  Er  Er4  1  0.668164  0.334659  0.751398  1
  Er  Er5  1  0.332320  0.666046  0.249219  1
  Ni  Ni6  1  0.001221  0.003307  0.503293  1
  Ni  Ni7  1  0.667968  0.833867  0.650923  1
  Ni  Ni8  1  0.333133  0.166409  0.148590  1
  Ni  Ni9  1  0.835660  0.164545  0.149796  1
  Ni  Ni10  1  0.166391  0.332159  0.845409  1
  Ni  Ni11  1  0.165919  0.837175  0.847307  1
  Ni  Ni12  1  0.166217  0.330950  0.651177  1
  Ni  Ni13  1  0.668933  0.835507  0.846825  1
  Ni  Ni14  1  0.332132  0.167393  0.353614  1
  B  B15  1  0.656755  0.323048  0.250007  1
  B  B16  1  0.335445  0.664336  0.749772  1
  B  B17  1  0.999716  0.004127  0.749567  1
  B  B18  1  0.007084  0.005704  0.250539  1
  Ir  Ir19  1  0.832837  0.166121  0.355624  1
  Ir  Ir20  1  0.833605  0.668186  0.356308  1
  Ir  Ir21  1  0.003057  0.010189  0.994926  1
  Ir  Ir22  1  0.834712  0.667561  0.146435  1
  Ir  Ir23  1  0.166430  0.833559  0.648023  1
