# generated using pymatgen
data_Dy3Lu(CuSi3)2
_symmetry_space_group_name_H-M   'P 1'
_cell_length_a   7.98051690
_cell_length_b   7.96031235
_cell_length_c   5.65872300
_cell_angle_alpha   69.39897079
_cell_angle_beta   69.01647257
_cell_angle_gamma   41.58455553
_symmetry_Int_Tables_number   1
_chemical_formula_structural   Dy3Lu(CuSi3)2
_chemical_formula_sum   'Dy3 Lu1 Cu2 Si6'
_cell_volume   220.71891649
_cell_formula_units_Z   1
loop_
 _symmetry_equiv_pos_site_id
 _symmetry_equiv_pos_as_xyz
  1  'x, y, z'
loop_
 _atom_site_type_symbol
 _atom_site_label
 _atom_site_symmetry_multiplicity
 _atom_site_fract_x
 _atom_site_fract_y
 _atom_site_fract_z
 _atom_site_occupancy
  Dy  Dy0  1  0.256436  0.743564  0.256437  1
  Dy  Dy1  1  0.743563  0.256437  0.743564  1
  Dy  Dy2  1  0.749999  0.750001  0.750000  1
  Lu  Lu3  1  0.249999  0.250001  0.250000  1
  Cu  Cu4  1  0.833252  0.833252  0.166748  1
  Cu  Cu5  1  0.166748  0.166748  0.833252  1
  Si  Si6  1  0.840120  0.328911  0.160014  1
  Si  Si7  1  0.670955  0.160014  0.328911  1
  Si  Si8  1  0.668649  0.668650  0.331351  1
  Si  Si9  1  0.331350  0.331351  0.668650  1
  Si  Si10  1  0.328911  0.840119  0.670955  1
  Si  Si11  1  0.160014  0.670955  0.840119  1
