# generated using pymatgen
data_Pu(ThB8)3
_symmetry_space_group_name_H-M   'P 1'
_cell_length_a   4.10501800
_cell_length_b   4.10501800
_cell_length_c   16.42200900
_cell_angle_alpha   90.00000000
_cell_angle_beta   90.00000000
_cell_angle_gamma   90.00000000
_symmetry_Int_Tables_number   1
_chemical_formula_structural   Pu(ThB8)3
_chemical_formula_sum   'Pu1 Th3 B24'
_cell_volume   276.73011106
_cell_formula_units_Z   1
loop_
 _symmetry_equiv_pos_site_id
 _symmetry_equiv_pos_as_xyz
  1  'x, y, z'
loop_
 _atom_site_type_symbol
 _atom_site_label
 _atom_site_symmetry_multiplicity
 _atom_site_fract_x
 _atom_site_fract_y
 _atom_site_fract_z
 _atom_site_occupancy
  Pu  Pu0  1  0.000000  0.000000  0.000000  1
  Th  Th1  1  0.000000  0.000000  0.251076  1
  Th  Th2  1  0.000000  0.000000  0.500000  1
  Th  Th3  1  0.000000  0.000000  0.748924  1
  B  B4  1  0.500000  0.500000  0.200455  1
  B  B5  1  0.500000  0.500000  0.450731  1
  B  B6  1  0.500000  0.500000  0.700630  1
  B  B7  1  0.500000  0.500000  0.950647  1
  B  B8  1  0.500000  0.197942  0.124955  1
  B  B9  1  0.500000  0.197440  0.375031  1
  B  B10  1  0.500000  0.197440  0.624969  1
  B  B11  1  0.500000  0.197942  0.875045  1
  B  B12  1  0.197942  0.500000  0.124955  1
  B  B13  1  0.197440  0.500000  0.375031  1
  B  B14  1  0.197440  0.500000  0.624969  1
  B  B15  1  0.197942  0.500000  0.875045  1
  B  B16  1  0.500000  0.500000  0.049353  1
  B  B17  1  0.500000  0.500000  0.299370  1
  B  B18  1  0.500000  0.500000  0.549269  1
  B  B19  1  0.500000  0.500000  0.799545  1
  B  B20  1  0.500000  0.802058  0.124955  1
  B  B21  1  0.500000  0.802560  0.375031  1
  B  B22  1  0.500000  0.802560  0.624969  1
  B  B23  1  0.500000  0.802058  0.875045  1
  B  B24  1  0.802058  0.500000  0.124955  1
  B  B25  1  0.802560  0.500000  0.375031  1
  B  B26  1  0.802560  0.500000  0.624969  1
  B  B27  1  0.802058  0.500000  0.875045  1
