# generated using pymatgen
data_Ce3Er7OsRu3
_symmetry_space_group_name_H-M   'P 1'
_cell_length_a   6.36130592
_cell_length_b   7.12036237
_cell_length_c   8.63840372
_cell_angle_alpha   96.73872752
_cell_angle_beta   111.25058658
_cell_angle_gamma   88.65439772
_symmetry_Int_Tables_number   1
_chemical_formula_structural   Ce3Er7OsRu3
_chemical_formula_sum   'Ce3 Er7 Os1 Ru3'
_cell_volume   362.07374683
_cell_formula_units_Z   1
loop_
 _symmetry_equiv_pos_site_id
 _symmetry_equiv_pos_as_xyz
  1  'x, y, z'
loop_
 _atom_site_type_symbol
 _atom_site_label
 _atom_site_symmetry_multiplicity
 _atom_site_fract_x
 _atom_site_fract_y
 _atom_site_fract_z
 _atom_site_occupancy
  Ce  Ce0  1  0.803620  0.591220  0.807336  1
  Ce  Ce1  1  0.980630  0.904385  0.189605  1
  Ce  Ce2  1  0.205804  0.401456  0.189306  1
  Er  Er3  1  0.022429  0.079175  0.812526  1
  Er  Er4  1  0.211869  0.685321  0.570094  1
  Er  Er5  1  0.640572  0.818120  0.437738  1
  Er  Er6  1  0.794447  0.313573  0.435034  1
  Er  Er7  1  0.356216  0.185453  0.569961  1
  Er  Er8  1  0.425975  0.746647  0.999211  1
  Er  Er9  1  0.578738  0.245908  0.996919  1
  Os  Os10  1  0.606794  0.913709  0.778291  1
  Ru  Ru11  1  0.852135  0.592679  0.219584  1
  Ru  Ru12  1  0.372183  0.091421  0.216354  1
  Ru  Ru13  1  0.148587  0.430932  0.778042  1
