# generated using pymatgen
data_Tb8Er7Sc5Si15Tc
_symmetry_space_group_name_H-M   'P 1'
_cell_length_a   7.21492294
_cell_length_b   7.65400705
_cell_length_c   14.31533431
_cell_angle_alpha   90.09642796
_cell_angle_beta   90.04645556
_cell_angle_gamma   90.36913091
_symmetry_Int_Tables_number   1
_chemical_formula_structural   Tb8Er7Sc5Si15Tc
_chemical_formula_sum   'Tb8 Er7 Sc5 Si15 Tc1'
_cell_volume   790.51893119
_cell_formula_units_Z   1
loop_
 _symmetry_equiv_pos_site_id
 _symmetry_equiv_pos_as_xyz
  1  'x, y, z'
loop_
 _atom_site_type_symbol
 _atom_site_label
 _atom_site_symmetry_multiplicity
 _atom_site_fract_x
 _atom_site_fract_y
 _atom_site_fract_z
 _atom_site_occupancy
  Tb  Tb0  1  0.017404  0.181971  0.097014  1
  Tb  Tb1  1  0.986375  0.824733  0.906597  1
  Tb  Tb2  1  0.482748  0.681770  0.903774  1
  Tb  Tb3  1  0.984940  0.825293  0.595424  1
  Tb  Tb4  1  0.515262  0.319808  0.095892  1
  Tb  Tb5  1  0.017641  0.183266  0.401200  1
  Tb  Tb6  1  0.516149  0.319444  0.401910  1
  Tb  Tb7  1  0.483678  0.680922  0.596435  1
  Er  Er8  1  0.310173  0.172794  0.628816  1
  Er  Er9  1  0.677800  0.824855  0.372741  1
  Er  Er10  1  0.177537  0.678011  0.372644  1
  Er  Er11  1  0.676552  0.824223  0.125491  1
  Er  Er12  1  0.831727  0.318009  0.627831  1
  Er  Er13  1  0.310007  0.173252  0.872688  1
  Er  Er14  1  0.831770  0.320308  0.874439  1
  Sc  Sc15  1  0.154101  0.513785  0.750235  1
  Sc  Sc16  1  0.843795  0.487465  0.248313  1
  Sc  Sc17  1  0.343416  0.013267  0.248363  1
  Sc  Sc18  1  0.668235  0.989167  0.750475  1
  Sc  Sc19  1  0.178612  0.678157  0.127564  1
  Si  Si20  1  0.981538  0.896051  0.247172  1
  Si  Si21  1  0.477024  0.598727  0.247144  1
  Si  Si22  1  0.519947  0.402563  0.750754  1
  Si  Si23  1  0.279276  0.860143  0.750523  1
  Si  Si24  1  0.717681  0.135217  0.248835  1
  Si  Si25  1  0.219625  0.367702  0.248089  1
  Si  Si26  1  0.775498  0.632883  0.750538  1
  Si  Si27  1  0.156323  0.472233  0.538089  1
  Si  Si28  1  0.846823  0.531400  0.460052  1
  Si  Si29  1  0.346531  0.970237  0.458900  1
  Si  Si30  1  0.855508  0.532512  0.042893  1
  Si  Si31  1  0.649025  0.031327  0.538978  1
  Si  Si32  1  0.160168  0.474416  0.966554  1
  Si  Si33  1  0.648401  0.030666  0.960874  1
  Si  Si34  1  0.341476  0.964228  0.041756  1
  Tc  Tc35  1  0.017230  0.089194  0.751001  1
