# generated using pymatgen
data_CsZnH6Ir
_symmetry_space_group_name_H-M   'P 1'
_cell_length_a   7.18424020
_cell_length_b   7.19540646
_cell_length_c   7.21069664
_cell_angle_alpha   38.46556411
_cell_angle_beta   38.50183959
_cell_angle_gamma   38.54000906
_symmetry_Int_Tables_number   1
_chemical_formula_structural   CsZnH6Ir
_chemical_formula_sum   'Cs1 Zn1 H6 Ir1'
_cell_volume   129.79766619
_cell_formula_units_Z   1
loop_
 _symmetry_equiv_pos_site_id
 _symmetry_equiv_pos_as_xyz
  1  'x, y, z'
loop_
 _atom_site_type_symbol
 _atom_site_label
 _atom_site_symmetry_multiplicity
 _atom_site_fract_x
 _atom_site_fract_y
 _atom_site_fract_z
 _atom_site_occupancy
  Cs  Cs0  1  0.794165  0.792614  0.790634  1
  Zn  Zn1  1  0.313195  0.315766  0.317885  1
  H  H2  1  0.770896  0.769948  0.253740  1
  H  H3  1  0.191675  0.727515  0.194507  1
  H  H4  1  0.725906  0.192271  0.193897  1
  H  H5  1  0.192630  0.193816  0.728937  1
  H  H6  1  0.771393  0.256365  0.769540  1
  H  H7  1  0.258954  0.770734  0.770002  1
  Ir  Ir8  1  0.981187  0.980969  0.980858  1
