# generated using pymatgen
data_DyY(Er3Sb10)2
_symmetry_space_group_name_H-M   'P 1'
_cell_length_a   4.21056700
_cell_length_b   13.18434001
_cell_length_c   14.62303346
_cell_angle_alpha   78.29681008
_cell_angle_beta   90.00000000
_cell_angle_gamma   90.00000000
_symmetry_Int_Tables_number   1
_chemical_formula_structural   DyY(Er3Sb10)2
_chemical_formula_sum   'Dy1 Y1 Er6 Sb20'
_cell_volume   794.90085533
_cell_formula_units_Z   1
loop_
 _symmetry_equiv_pos_site_id
 _symmetry_equiv_pos_as_xyz
  1  'x, y, z'
loop_
 _atom_site_type_symbol
 _atom_site_label
 _atom_site_symmetry_multiplicity
 _atom_site_fract_x
 _atom_site_fract_y
 _atom_site_fract_z
 _atom_site_occupancy
  Dy  Dy0  1  0.750000  0.046529  0.640937  1
  Y  Y1  1  0.250000  0.953483  0.359371  1
  Er  Er2  1  0.250000  0.394937  0.770565  1
  Er  Er3  1  0.750000  0.605035  0.229353  1
  Er  Er4  1  0.250000  0.661989  0.856023  1
  Er  Er5  1  0.750000  0.338056  0.143934  1
  Er  Er6  1  0.250000  0.668688  0.576375  1
  Er  Er7  1  0.750000  0.331372  0.423565  1
  Sb  Sb8  1  0.250000  0.144270  0.778865  1
  Sb  Sb9  1  0.750000  0.855500  0.220873  1
  Sb  Sb10  1  0.250000  0.144624  0.482486  1
  Sb  Sb11  1  0.750000  0.855254  0.517944  1
  Sb  Sb12  1  0.250000  0.153032  0.171035  1
  Sb  Sb13  1  0.750000  0.847002  0.828891  1
  Sb  Sb14  1  0.250000  0.420578  0.975360  1
  Sb  Sb15  1  0.750000  0.579436  0.024633  1
  Sb  Sb16  1  0.750000  0.029022  0.909104  1
  Sb  Sb17  1  0.250000  0.970978  0.090749  1
  Sb  Sb18  1  0.750000  0.140467  0.322226  1
  Sb  Sb19  1  0.250000  0.859838  0.677790  1
  Sb  Sb20  1  0.750000  0.279520  0.936926  1
  Sb  Sb21  1  0.250000  0.720478  0.063007  1
  Sb  Sb22  1  0.750000  0.285679  0.652888  1
  Sb  Sb23  1  0.250000  0.714226  0.347067  1
  Sb  Sb24  1  0.750000  0.576485  0.734290  1
  Sb  Sb25  1  0.250000  0.423538  0.265704  1
  Sb  Sb26  1  0.750000  0.572282  0.447359  1
  Sb  Sb27  1  0.250000  0.427700  0.552680  1
