# generated using pymatgen
data_PrNd5(CoO6)2
_symmetry_space_group_name_H-M   'P 1'
_cell_length_a   7.44597476
_cell_length_b   7.43095490
_cell_length_c   5.64641436
_cell_angle_alpha   89.96408561
_cell_angle_beta   90.02754783
_cell_angle_gamma   102.96544689
_symmetry_Int_Tables_number   1
_chemical_formula_structural   PrNd5(CoO6)2
_chemical_formula_sum   'Pr1 Nd5 Co2 O12'
_cell_volume   304.45501719
_cell_formula_units_Z   1
loop_
 _symmetry_equiv_pos_site_id
 _symmetry_equiv_pos_as_xyz
  1  'x, y, z'
loop_
 _atom_site_type_symbol
 _atom_site_label
 _atom_site_symmetry_multiplicity
 _atom_site_fract_x
 _atom_site_fract_y
 _atom_site_fract_z
 _atom_site_occupancy
  Pr  Pr0  1  0.412871  0.203438  0.535356  1
  Nd  Nd1  1  0.798390  0.587852  0.535467  1
  Nd  Nd2  1  0.587307  0.796296  0.035828  1
  Nd  Nd3  1  0.201079  0.412998  0.035573  1
  Nd  Nd4  1  0.102850  0.895691  0.077868  1
  Nd  Nd5  1  0.896108  0.103848  0.578035  1
  Co  Co6  1  0.303785  0.695612  0.501593  1
  Co  Co7  1  0.696678  0.304301  0.001618  1
  O  O8  1  0.170224  0.146150  0.805334  1
  O  O9  1  0.853773  0.827504  0.804145  1
  O  O10  1  0.827770  0.853464  0.304048  1
  O  O11  1  0.143987  0.171769  0.303573  1
  O  O12  1  0.610554  0.085397  0.827972  1
  O  O13  1  0.914730  0.391719  0.825536  1
  O  O14  1  0.390637  0.912884  0.323671  1
  O  O15  1  0.085445  0.608706  0.326504  1
  O  O16  1  0.542502  0.458272  0.871809  1
  O  O17  1  0.458268  0.542823  0.369793  1
  O  O18  1  0.287237  0.713058  0.828347  1
  O  O19  1  0.715806  0.288219  0.328173  1
