# generated using pymatgen
data_Ca3LaSi7Hg
_symmetry_space_group_name_H-M   'P 1'
_cell_length_a   4.21733800
_cell_length_b   4.36732100
_cell_length_c   14.17675600
_cell_angle_alpha   90.00000000
_cell_angle_beta   90.00000000
_cell_angle_gamma   90.00000000
_symmetry_Int_Tables_number   1
_chemical_formula_structural   Ca3LaSi7Hg
_chemical_formula_sum   'Ca3 La1 Si7 Hg1'
_cell_volume   261.11413823
_cell_formula_units_Z   1
loop_
 _symmetry_equiv_pos_site_id
 _symmetry_equiv_pos_as_xyz
  1  'x, y, z'
loop_
 _atom_site_type_symbol
 _atom_site_label
 _atom_site_symmetry_multiplicity
 _atom_site_fract_x
 _atom_site_fract_y
 _atom_site_fract_z
 _atom_site_occupancy
  Ca  Ca0  1  0.000000  0.000000  0.507550  1
  Ca  Ca1  1  0.500000  0.000000  0.752446  1
  Ca  Ca2  1  0.000000  0.500000  0.240124  1
  La  La3  1  0.500000  0.500000  0.000602  1
  Si  Si4  1  0.000000  0.000000  0.915362  1
  Si  Si5  1  0.000000  0.500000  0.836483  1
  Si  Si6  1  0.500000  0.000000  0.323753  1
  Si  Si7  1  0.000000  0.000000  0.078564  1
  Si  Si8  1  0.500000  0.500000  0.594427  1
  Si  Si9  1  0.500000  0.000000  0.162034  1
  Si  Si10  1  0.000000  0.500000  0.672693  1
  Hg  Hg11  1  0.500000  0.500000  0.415960  1
