# generated using pymatgen
data_TbY7(ErRu2)2
_symmetry_space_group_name_H-M   'P 1'
_cell_length_a   6.35007437
_cell_length_b   7.30537468
_cell_length_c   8.49574033
_cell_angle_alpha   96.74943283
_cell_angle_beta   111.96930035
_cell_angle_gamma   89.88056898
_symmetry_Int_Tables_number   1
_chemical_formula_structural   TbY7(ErRu2)2
_chemical_formula_sum   'Tb1 Y7 Er2 Ru4'
_cell_volume   362.58718325
_cell_formula_units_Z   1
loop_
 _symmetry_equiv_pos_site_id
 _symmetry_equiv_pos_as_xyz
  1  'x, y, z'
loop_
 _atom_site_type_symbol
 _atom_site_label
 _atom_site_symmetry_multiplicity
 _atom_site_fract_x
 _atom_site_fract_y
 _atom_site_fract_z
 _atom_site_occupancy
  Tb  Tb0  1  0.360246  0.184420  0.566127  1
  Y  Y1  1  0.791916  0.584360  0.813970  1
  Y  Y2  1  0.977316  0.915527  0.185956  1
  Y  Y3  1  0.208284  0.415541  0.186353  1
  Y  Y4  1  0.022842  0.084469  0.814224  1
  Y  Y5  1  0.205884  0.684795  0.565849  1
  Y  Y6  1  0.639934  0.815300  0.434395  1
  Y  Y7  1  0.794320  0.315046  0.434021  1
  Er  Er8  1  0.420556  0.749632  0.999920  1
  Er  Er9  1  0.579259  0.250353  0.000245  1
  Ru  Ru10  1  0.600630  0.926054  0.780963  1
  Ru  Ru11  1  0.819419  0.575787  0.217577  1
  Ru  Ru12  1  0.398150  0.075210  0.219034  1
  Ru  Ru13  1  0.181243  0.423508  0.781367  1
