# generated using pymatgen
data_Sb12Ir2OsPd
_symmetry_space_group_name_H-M   'P 1'
_cell_length_a   8.14687578
_cell_length_b   8.14440685
_cell_length_c   8.16029045
_cell_angle_alpha   109.45836067
_cell_angle_beta   109.45443088
_cell_angle_gamma   109.36067154
_symmetry_Int_Tables_number   1
_chemical_formula_structural   Sb12Ir2OsPd
_chemical_formula_sum   'Sb12 Ir2 Os1 Pd1'
_cell_volume   417.52563297
_cell_formula_units_Z   1
loop_
 _symmetry_equiv_pos_site_id
 _symmetry_equiv_pos_as_xyz
  1  'x, y, z'
loop_
 _atom_site_type_symbol
 _atom_site_label
 _atom_site_symmetry_multiplicity
 _atom_site_fract_x
 _atom_site_fract_y
 _atom_site_fract_z
 _atom_site_occupancy
  Sb  Sb0  1  0.845300  0.660196  0.505844  1
  Sb  Sb1  1  0.850125  0.345246  0.187695  1
  Sb  Sb2  1  0.149875  0.654754  0.812305  1
  Sb  Sb3  1  0.335315  0.491520  0.154047  1
  Sb  Sb4  1  0.154700  0.339804  0.494156  1
  Sb  Sb5  1  0.658551  0.809010  0.156174  1
  Sb  Sb6  1  0.181215  0.843609  0.334816  1
  Sb  Sb7  1  0.664685  0.508480  0.845953  1
  Sb  Sb8  1  0.818785  0.156391  0.665184  1
  Sb  Sb9  1  0.341449  0.190990  0.843826  1
  Sb  Sb10  1  0.502593  0.844801  0.653435  1
  Sb  Sb11  1  0.497407  0.155199  0.346565  1
  Ir  Ir12  1  0.000000  0.000000  0.500000  1
  Ir  Ir13  1  0.500000  0.500000  0.500000  1
  Os  Os14  1  0.000000  0.500000  0.000000  1
  Pd  Pd15  1  0.500000  0.000000  0.000000  1
