# generated using pymatgen
data_Pr2As4Ir3Ru
_symmetry_space_group_name_H-M   'P 1'
_cell_length_a   4.34293600
_cell_length_b   4.34293600
_cell_length_c   9.95921100
_cell_angle_alpha   90.00000000
_cell_angle_beta   90.00000000
_cell_angle_gamma   90.00000000
_symmetry_Int_Tables_number   1
_chemical_formula_structural   Pr2As4Ir3Ru
_chemical_formula_sum   'Pr2 As4 Ir3 Ru1'
_cell_volume   187.84160587
_cell_formula_units_Z   1
loop_
 _symmetry_equiv_pos_site_id
 _symmetry_equiv_pos_as_xyz
  1  'x, y, z'
loop_
 _atom_site_type_symbol
 _atom_site_label
 _atom_site_symmetry_multiplicity
 _atom_site_fract_x
 _atom_site_fract_y
 _atom_site_fract_z
 _atom_site_occupancy
  Pr  Pr0  1  0.000000  0.500000  0.256867  1
  Pr  Pr1  1  0.500000  0.000000  0.743133  1
  As  As2  1  0.000000  0.000000  0.500000  1
  As  As3  1  0.500000  0.500000  0.500000  1
  As  As4  1  0.000000  0.500000  0.867674  1
  As  As5  1  0.500000  0.000000  0.132326  1
  Ir  Ir6  1  0.500000  0.500000  0.000000  1
  Ir  Ir7  1  0.000000  0.500000  0.620294  1
  Ir  Ir8  1  0.500000  0.000000  0.379706  1
  Ru  Ru9  1  0.000000  0.000000  0.000000  1
