# generated using pymatgen
data_Ce2Pr9PaS20
_symmetry_space_group_name_H-M   'P 1'
_cell_length_a   7.57524815
_cell_length_b   8.17070700
_cell_length_c   12.03663700
_cell_angle_alpha   90.00000000
_cell_angle_beta   89.91094671
_cell_angle_gamma   90.00000000
_symmetry_Int_Tables_number   1
_chemical_formula_structural   Ce2Pr9PaS20
_chemical_formula_sum   'Ce2 Pr9 Pa1 S20'
_cell_volume   745.00834914
_cell_formula_units_Z   1
loop_
 _symmetry_equiv_pos_site_id
 _symmetry_equiv_pos_as_xyz
  1  'x, y, z'
loop_
 _atom_site_type_symbol
 _atom_site_label
 _atom_site_symmetry_multiplicity
 _atom_site_fract_x
 _atom_site_fract_y
 _atom_site_fract_z
 _atom_site_occupancy
  Ce  Ce0  1  0.431977  0.249998  0.008989  1
  Ce  Ce1  1  0.573502  0.749999  0.989278  1
  Pr  Pr2  1  0.924401  0.750000  0.492331  1
  Pr  Pr3  1  0.476508  0.998002  0.321595  1
  Pr  Pr4  1  0.979195  0.998981  0.176985  1
  Pr  Pr5  1  0.522174  0.500457  0.677612  1
  Pr  Pr6  1  0.024241  0.500387  0.824341  1
  Pr  Pr7  1  0.522173  0.999543  0.677612  1
  Pr  Pr8  1  0.024243  0.999614  0.824341  1
  Pr  Pr9  1  0.476509  0.501998  0.321595  1
  Pr  Pr10  1  0.979193  0.501019  0.176986  1
  Pa  Pa11  1  0.063744  0.250001  0.505285  1
  S  S12  1  0.174859  0.750002  0.308397  1
  S  S13  1  0.669337  0.250000  0.187187  1
  S  S14  1  0.831994  0.250001  0.683063  1
  S  S15  1  0.328126  0.750000  0.811876  1
  S  S16  1  0.537789  0.750000  0.498839  1
  S  S17  1  0.045793  0.250000  0.002712  1
  S  S18  1  0.447305  0.250000  0.500286  1
  S  S19  1  0.956405  0.750000  0.999427  1
  S  S20  1  0.801017  0.750001  0.720288  1
  S  S21  1  0.306990  0.250000  0.789322  1
  S  S22  1  0.194634  0.249999  0.288278  1
  S  S23  1  0.697835  0.750000  0.214784  1
  S  S24  1  0.162764  0.527724  0.598514  1
  S  S25  1  0.664115  0.457140  0.903219  1
  S  S26  1  0.838393  0.051608  0.402899  1
  S  S27  1  0.339755  0.958338  0.094662  1
  S  S28  1  0.838394  0.448392  0.402900  1
  S  S29  1  0.339754  0.541661  0.094663  1
  S  S30  1  0.162765  0.972276  0.598514  1
  S  S31  1  0.664115  0.042859  0.903220  1
