# generated using pymatgen
data_Tb8Ta12Si15Ge
_symmetry_space_group_name_H-M   'P 1'
_cell_length_a   6.88111394
_cell_length_b   7.07191097
_cell_length_c   13.41982779
_cell_angle_alpha   90.04133788
_cell_angle_beta   89.92431665
_cell_angle_gamma   90.02409748
_symmetry_Int_Tables_number   1
_chemical_formula_structural   Tb8Ta12Si15Ge
_chemical_formula_sum   'Tb8 Ta12 Si15 Ge1'
_cell_volume   653.04325244
_cell_formula_units_Z   1
loop_
 _symmetry_equiv_pos_site_id
 _symmetry_equiv_pos_as_xyz
  1  'x, y, z'
loop_
 _atom_site_type_symbol
 _atom_site_label
 _atom_site_symmetry_multiplicity
 _atom_site_fract_x
 _atom_site_fract_y
 _atom_site_fract_z
 _atom_site_occupancy
  Tb  Tb0  1  0.996488  0.170484  0.404386  1
  Tb  Tb1  1  0.497456  0.329931  0.096070  1
  Tb  Tb2  1  0.503828  0.670533  0.595118  1
  Tb  Tb3  1  0.000470  0.827522  0.903582  1
  Tb  Tb4  1  0.003692  0.829536  0.595226  1
  Tb  Tb5  1  0.503449  0.670105  0.904158  1
  Tb  Tb6  1  0.496495  0.329056  0.404624  1
  Tb  Tb7  1  0.995948  0.171898  0.096496  1
  Ta  Ta8  1  0.338332  0.822013  0.127001  1
  Ta  Ta9  1  0.837545  0.675489  0.374933  1
  Ta  Ta10  1  0.663094  0.175511  0.625113  1
  Ta  Ta11  1  0.160352  0.328576  0.873413  1
  Ta  Ta12  1  0.163684  0.324741  0.624999  1
  Ta  Ta13  1  0.665412  0.175779  0.874336  1
  Ta  Ta14  1  0.337664  0.011179  0.747937  1
  Ta  Ta15  1  0.837005  0.674876  0.125779  1
  Ta  Ta16  1  0.662503  0.989357  0.250182  1
  Ta  Ta17  1  0.162699  0.510121  0.250239  1
  Ta  Ta18  1  0.837600  0.489759  0.749802  1
  Ta  Ta19  1  0.336716  0.824538  0.374858  1
  Si  Si20  1  0.337194  0.036465  0.540727  1
  Si  Si21  1  0.835959  0.463138  0.959587  1
  Si  Si22  1  0.666891  0.962582  0.041708  1
  Si  Si23  1  0.163387  0.536362  0.459007  1
  Si  Si24  1  0.163539  0.537099  0.040798  1
  Si  Si25  1  0.662870  0.963390  0.458846  1
  Si  Si26  1  0.837296  0.463283  0.540977  1
  Si  Si27  1  0.795524  0.374618  0.250513  1
  Si  Si28  1  0.295724  0.125253  0.250281  1
  Si  Si29  1  0.703799  0.874735  0.749783  1
  Si  Si30  1  0.204989  0.626467  0.749239  1
  Si  Si31  1  0.041373  0.875560  0.250180  1
  Si  Si32  1  0.542045  0.623747  0.250998  1
  Si  Si33  1  0.459067  0.375507  0.750083  1
  Si  Si34  1  0.959056  0.124235  0.749454  1
  Ge  Ge35  1  0.330853  0.036555  0.959561  1
