# generated using pymatgen
data_Er4BeB14
_symmetry_space_group_name_H-M   'P 1'
_cell_length_a   7.17475600
_cell_length_b   7.17475600
_cell_length_c   7.33552500
_cell_angle_alpha   90.00000000
_cell_angle_beta   90.00000000
_cell_angle_gamma   90.00000000
_symmetry_Int_Tables_number   1
_chemical_formula_structural   Er4BeB14
_chemical_formula_sum   'Er8 Be2 B28'
_cell_volume   377.61172753
_cell_formula_units_Z   2
loop_
 _symmetry_equiv_pos_site_id
 _symmetry_equiv_pos_as_xyz
  1  'x, y, z'
loop_
 _atom_site_type_symbol
 _atom_site_label
 _atom_site_symmetry_multiplicity
 _atom_site_fract_x
 _atom_site_fract_y
 _atom_site_fract_z
 _atom_site_occupancy
  Er  Er0  1  0.194948  0.329229  0.000000  1
  Er  Er1  1  0.670771  0.194948  0.000000  1
  Er  Er2  1  0.329229  0.805052  0.000000  1
  Er  Er3  1  0.694948  0.170771  0.500000  1
  Er  Er4  1  0.305052  0.829229  0.500000  1
  Er  Er5  1  0.805052  0.670771  0.000000  1
  Er  Er6  1  0.829229  0.694948  0.500000  1
  Er  Er7  1  0.170771  0.305052  0.500000  1
  Be  Be8  1  0.000000  0.000000  0.000000  1
  Be  Be9  1  0.500000  0.500000  0.500000  1
  B  B10  1  0.174387  0.038947  0.227373  1
  B  B11  1  0.961053  0.174387  0.227373  1
  B  B12  1  0.038947  0.825613  0.227373  1
  B  B13  1  0.674387  0.461053  0.272627  1
  B  B14  1  0.325613  0.538947  0.272627  1
  B  B15  1  0.825613  0.961053  0.227373  1
  B  B16  1  0.538947  0.674387  0.272627  1
  B  B17  1  0.461053  0.325613  0.272627  1
  B  B18  1  0.825613  0.961053  0.772627  1
  B  B19  1  0.038947  0.825613  0.772627  1
  B  B20  1  0.961053  0.174387  0.772627  1
  B  B21  1  0.325613  0.538947  0.727373  1
  B  B22  1  0.674387  0.461053  0.727373  1
  B  B23  1  0.174387  0.038947  0.772627  1
  B  B24  1  0.461053  0.325613  0.727373  1
  B  B25  1  0.538947  0.674387  0.727373  1
  B  B26  1  0.088145  0.588145  0.250000  1
  B  B27  1  0.411855  0.088145  0.250000  1
  B  B28  1  0.588145  0.911855  0.250000  1
  B  B29  1  0.911855  0.411855  0.250000  1
  B  B30  1  0.911855  0.411855  0.750000  1
  B  B31  1  0.588145  0.911855  0.750000  1
  B  B32  1  0.411855  0.088145  0.750000  1
  B  B33  1  0.088145  0.588145  0.750000  1
  B  B34  1  0.000000  0.000000  0.387943  1
  B  B35  1  0.500000  0.500000  0.112057  1
  B  B36  1  0.000000  0.000000  0.612057  1
  B  B37  1  0.500000  0.500000  0.887943  1
