# generated using pymatgen
data_Ce3Al12Tc2NiRu
_symmetry_space_group_name_H-M   'P 1'
_cell_length_a   8.88118462
_cell_length_b   8.96479767
_cell_length_c   9.54153900
_cell_angle_alpha   90.00000000
_cell_angle_beta   90.00000000
_cell_angle_gamma   120.31192543
_symmetry_Int_Tables_number   1
_chemical_formula_structural   Ce3Al12Tc2NiRu
_chemical_formula_sum   'Ce6 Al24 Tc4 Ni2 Ru2'
_cell_volume   655.82322426
_cell_formula_units_Z   2
loop_
 _symmetry_equiv_pos_site_id
 _symmetry_equiv_pos_as_xyz
  1  'x, y, z'
loop_
 _atom_site_type_symbol
 _atom_site_label
 _atom_site_symmetry_multiplicity
 _atom_site_fract_x
 _atom_site_fract_y
 _atom_site_fract_z
 _atom_site_occupancy
  Ce  Ce0  1  0.795628  0.613676  0.750000  1
  Ce  Ce1  1  0.204372  0.818048  0.250000  1
  Ce  Ce2  1  0.604795  0.802397  0.250000  1
  Ce  Ce3  1  0.395205  0.197603  0.750000  1
  Ce  Ce4  1  0.795628  0.181952  0.750000  1
  Ce  Ce5  1  0.204372  0.386324  0.250000  1
  Al  Al6  1  0.326499  0.663250  0.490120  1
  Al  Al7  1  0.673501  0.336750  0.990120  1
  Al  Al8  1  0.673501  0.336750  0.509880  1
  Al  Al9  1  0.326499  0.663250  0.009880  1
  Al  Al10  1  0.159040  0.322136  0.578688  1
  Al  Al11  1  0.672906  0.836454  0.578508  1
  Al  Al12  1  0.159040  0.836904  0.578688  1
  Al  Al13  1  0.840960  0.163096  0.078688  1
  Al  Al14  1  0.840960  0.163096  0.421312  1
  Al  Al15  1  0.840960  0.677864  0.078688  1
  Al  Al16  1  0.327094  0.163546  0.078508  1
  Al  Al17  1  0.672906  0.836454  0.921492  1
  Al  Al18  1  0.159040  0.322136  0.921312  1
  Al  Al19  1  0.840960  0.677864  0.421312  1
  Al  Al20  1  0.001352  0.000676  0.250000  1
  Al  Al21  1  0.998648  0.999324  0.750000  1
  Al  Al22  1  0.570273  0.130594  0.250000  1
  Al  Al23  1  0.429727  0.560322  0.750000  1
  Al  Al24  1  0.109666  0.554833  0.750000  1
  Al  Al25  1  0.890334  0.445167  0.250000  1
  Al  Al26  1  0.570273  0.439678  0.250000  1
  Al  Al27  1  0.429727  0.869406  0.750000  1
  Al  Al28  1  0.159040  0.836904  0.921312  1
  Al  Al29  1  0.327094  0.163546  0.421492  1
  Tc  Tc30  1  0.500000  0.000000  0.500000  1
  Tc  Tc31  1  0.500000  0.500000  0.000000  1
  Tc  Tc32  1  0.500000  0.500000  0.500000  1
  Tc  Tc33  1  0.500000  0.000000  0.000000  1
  Ni  Ni34  1  0.000000  0.500000  0.000000  1
  Ni  Ni35  1  0.000000  0.500000  0.500000  1
  Ru  Ru36  1  0.000000  0.000000  0.500000  1
  Ru  Ru37  1  0.000000  0.000000  0.000000  1
