# generated using pymatgen
data_Be8Pd3Rh4Au
_symmetry_space_group_name_H-M   'P 1'
_cell_length_a   5.64295800
_cell_length_b   3.98586200
_cell_length_c   7.97777000
_cell_angle_alpha   90.00000000
_cell_angle_beta   89.99965502
_cell_angle_gamma   90.00000000
_symmetry_Int_Tables_number   1
_chemical_formula_structural   Be8Pd3Rh4Au
_chemical_formula_sum   'Be8 Pd3 Rh4 Au1'
_cell_volume   179.43641656
_cell_formula_units_Z   1
loop_
 _symmetry_equiv_pos_site_id
 _symmetry_equiv_pos_as_xyz
  1  'x, y, z'
loop_
 _atom_site_type_symbol
 _atom_site_label
 _atom_site_symmetry_multiplicity
 _atom_site_fract_x
 _atom_site_fract_y
 _atom_site_fract_z
 _atom_site_occupancy
  Be  Be0  1  0.005140  0.750000  0.131004  1
  Be  Be1  1  0.494904  0.750000  0.131039  1
  Be  Be2  1  0.998973  0.249999  0.375020  1
  Be  Be3  1  0.501057  0.249999  0.375036  1
  Be  Be4  1  0.494870  0.750000  0.618901  1
  Be  Be5  1  0.005101  0.750000  0.618932  1
  Be  Be6  1  0.488046  0.249999  0.875026  1
  Be  Be7  1  0.011921  0.249999  0.875045  1
  Pd  Pd8  1  0.250046  0.249999  0.125646  1
  Pd  Pd9  1  0.750015  0.750000  0.374981  1
  Pd  Pd10  1  0.249969  0.249999  0.624403  1
  Rh  Rh11  1  0.750036  0.249999  0.124063  1
  Rh  Rh12  1  0.249981  0.750000  0.375004  1
  Rh  Rh13  1  0.749974  0.249999  0.625928  1
  Rh  Rh14  1  0.249975  0.750000  0.875003  1
  Au  Au15  1  0.749991  0.750000  0.874971  1
