# generated using pymatgen
data_Tb7YNb12Si15Ge
_symmetry_space_group_name_H-M   'P 1'
_cell_length_a   6.90226516
_cell_length_b   7.10083077
_cell_length_c   13.48418902
_cell_angle_alpha   90.04137004
_cell_angle_beta   89.92153529
_cell_angle_gamma   90.02370325
_symmetry_Int_Tables_number   1
_chemical_formula_structural   Tb7YNb12Si15Ge
_chemical_formula_sum   'Tb7 Y1 Nb12 Si15 Ge1'
_cell_volume   660.88375408
_cell_formula_units_Z   1
loop_
 _symmetry_equiv_pos_site_id
 _symmetry_equiv_pos_as_xyz
  1  'x, y, z'
loop_
 _atom_site_type_symbol
 _atom_site_label
 _atom_site_symmetry_multiplicity
 _atom_site_fract_x
 _atom_site_fract_y
 _atom_site_fract_z
 _atom_site_occupancy
  Tb  Tb0  1  0.503473  0.328961  0.095952  1
  Tb  Tb1  1  0.002362  0.170658  0.403637  1
  Tb  Tb2  1  0.499788  0.673158  0.596699  1
  Tb  Tb3  1  0.996451  0.828702  0.904509  1
  Tb  Tb4  1  0.496396  0.670964  0.904352  1
  Tb  Tb5  1  0.996467  0.829618  0.596156  1
  Tb  Tb6  1  0.503940  0.327541  0.403146  1
  Y  Y7  1  0.003382  0.171532  0.095716  1
  Nb  Nb8  1  0.664164  0.008869  0.750209  1
  Nb  Nb9  1  0.164156  0.490294  0.751904  1
  Nb  Nb10  1  0.335451  0.991191  0.249723  1
  Nb  Nb11  1  0.835778  0.509161  0.249846  1
  Nb  Nb12  1  0.836132  0.324079  0.625917  1
  Nb  Nb13  1  0.337711  0.175364  0.874799  1
  Nb  Nb14  1  0.162206  0.675638  0.125273  1
  Nb  Nb15  1  0.661808  0.824971  0.374073  1
  Nb  Nb16  1  0.160529  0.678052  0.372880  1
  Nb  Nb17  1  0.661329  0.824234  0.125247  1
  Nb  Nb18  1  0.837707  0.324277  0.874783  1
  Nb  Nb19  1  0.340399  0.171841  0.626737  1
  Si  Si20  1  0.797138  0.624461  0.750260  1
  Si  Si21  1  0.295903  0.874368  0.750633  1
  Si  Si22  1  0.203327  0.375461  0.249682  1
  Si  Si23  1  0.703561  0.124532  0.249476  1
  Si  Si24  1  0.542799  0.375657  0.750406  1
  Si  Si25  1  0.042728  0.124589  0.750109  1
  Si  Si26  1  0.456846  0.624455  0.249890  1
  Si  Si27  1  0.956205  0.876082  0.248977  1
  Si  Si28  1  0.663113  0.037690  0.540130  1
  Si  Si29  1  0.162185  0.462799  0.959534  1
  Si  Si30  1  0.337251  0.963117  0.040589  1
  Si  Si31  1  0.833646  0.538010  0.458660  1
  Si  Si32  1  0.337071  0.962408  0.459554  1
  Si  Si33  1  0.837775  0.537059  0.040781  1
  Si  Si34  1  0.662348  0.037101  0.959496  1
  Ge  Ge35  1  0.168474  0.463109  0.540264  1
