# generated using pymatgen
data_Tb11Y5(AlCo)4
_symmetry_space_group_name_H-M   'P 1'
_cell_length_a   9.42939168
_cell_length_b   9.42941377
_cell_length_c   9.42941308
_cell_angle_alpha   59.98643032
_cell_angle_beta   60.00022825
_cell_angle_gamma   60.00022838
_symmetry_Int_Tables_number   1
_chemical_formula_structural   Tb11Y5(AlCo)4
_chemical_formula_sum   'Tb11 Y5 Al4 Co4'
_cell_volume   592.78195325
_cell_formula_units_Z   1
loop_
 _symmetry_equiv_pos_site_id
 _symmetry_equiv_pos_as_xyz
  1  'x, y, z'
loop_
 _atom_site_type_symbol
 _atom_site_label
 _atom_site_symmetry_multiplicity
 _atom_site_fract_x
 _atom_site_fract_y
 _atom_site_fract_z
 _atom_site_occupancy
  Tb  Tb0  1  0.349079  0.349126  0.349126  1
  Tb  Tb1  1  0.349088  0.349127  0.952696  1
  Tb  Tb2  1  0.349088  0.952696  0.349127  1
  Tb  Tb3  1  0.952664  0.349128  0.349128  1
  Tb  Tb4  1  0.808148  0.191853  0.191853  1
  Tb  Tb5  1  0.191826  0.808173  0.808173  1
  Tb  Tb6  1  0.191808  0.808189  0.191782  1
  Tb  Tb7  1  0.808227  0.191777  0.808189  1
  Tb  Tb8  1  0.191808  0.191782  0.808189  1
  Tb  Tb9  1  0.808227  0.808189  0.191777  1
  Tb  Tb10  1  0.938131  0.561871  0.561871  1
  Y  Y11  1  0.561827  0.938178  0.938178  1
  Y  Y12  1  0.561911  0.938139  0.561883  1
  Y  Y13  1  0.938066  0.561890  0.938136  1
  Y  Y14  1  0.561911  0.561883  0.938139  1
  Y  Y15  1  0.938066  0.938136  0.561890  1
  Al  Al16  1  0.577058  0.577148  0.577148  1
  Al  Al17  1  0.577185  0.577144  0.268488  1
  Al  Al18  1  0.577185  0.268488  0.577144  1
  Al  Al19  1  0.268641  0.577150  0.577150  1
  Co  Co20  1  0.140739  0.140713  0.140713  1
  Co  Co21  1  0.140746  0.140659  0.577846  1
  Co  Co22  1  0.140746  0.577846  0.140659  1
  Co  Co23  1  0.577828  0.140715  0.140715  1
