# generated using pymatgen
data_CaSmEu2Al4O12
_symmetry_space_group_name_H-M   'P 1'
_cell_length_a   5.32324119
_cell_length_b   5.33310479
_cell_length_c   7.54290800
_cell_angle_alpha   90.00000000
_cell_angle_beta   90.00000000
_cell_angle_gamma   89.88520287
_symmetry_Int_Tables_number   1
_chemical_formula_structural   CaSmEu2Al4O12
_chemical_formula_sum   'Ca1 Sm1 Eu2 Al4 O12'
_cell_volume   214.13822595
_cell_formula_units_Z   1
loop_
 _symmetry_equiv_pos_site_id
 _symmetry_equiv_pos_as_xyz
  1  'x, y, z'
loop_
 _atom_site_type_symbol
 _atom_site_label
 _atom_site_symmetry_multiplicity
 _atom_site_fract_x
 _atom_site_fract_y
 _atom_site_fract_z
 _atom_site_occupancy
  Ca  Ca0  1  0.003655  0.978569  0.750000  1
  Sm  Sm1  1  0.995072  0.029417  0.250000  1
  Eu  Eu2  1  0.495997  0.473485  0.750000  1
  Eu  Eu3  1  0.501243  0.523410  0.250000  1
  Al  Al4  1  0.000108  0.502032  0.502092  1
  Al  Al5  1  0.499529  0.998828  0.997967  1
  Al  Al6  1  0.499529  0.998828  0.502033  1
  Al  Al7  1  0.000108  0.502032  0.997908  1
  O  O8  1  0.719742  0.280983  0.468379  1
  O  O9  1  0.780766  0.780747  0.035353  1
  O  O10  1  0.219795  0.219821  0.528477  1
  O  O11  1  0.286112  0.713926  0.975644  1
  O  O12  1  0.286112  0.713926  0.524356  1
  O  O13  1  0.219795  0.219821  0.971523  1
  O  O14  1  0.780766  0.780747  0.464647  1
  O  O15  1  0.719742  0.280983  0.031621  1
  O  O16  1  0.055417  0.487317  0.250000  1
  O  O17  1  0.437666  0.993706  0.250000  1
  O  O18  1  0.556474  0.008470  0.750000  1
  O  O19  1  0.942375  0.512956  0.750000  1
