# generated using pymatgen
data_NaLi3VNi9P7
_symmetry_space_group_name_H-M   'P 1'
_cell_length_a   9.09398853
_cell_length_b   9.04504718
_cell_length_c   3.61915900
_cell_angle_alpha   90.00000000
_cell_angle_beta   90.00000000
_cell_angle_gamma   119.94002507
_symmetry_Int_Tables_number   1
_chemical_formula_structural   NaLi3VNi9P7
_chemical_formula_sum   'Na1 Li3 V1 Ni9 P7'
_cell_volume   257.96790745
_cell_formula_units_Z   1
loop_
 _symmetry_equiv_pos_site_id
 _symmetry_equiv_pos_as_xyz
  1  'x, y, z'
loop_
 _atom_site_type_symbol
 _atom_site_label
 _atom_site_symmetry_multiplicity
 _atom_site_fract_x
 _atom_site_fract_y
 _atom_site_fract_z
 _atom_site_occupancy
  Na  Na0  1  0.335345  0.665828  0.000000  1
  Li  Li1  1  0.896116  0.117321  0.500000  1
  Li  Li2  1  0.217711  0.101019  0.500000  1
  Li  Li3  1  0.666085  0.334258  0.500000  1
  V  V4  1  0.879473  0.784070  0.500000  1
  Ni  Ni5  1  0.715349  0.883524  0.000000  1
  Ni  Ni6  1  0.162857  0.280229  0.000000  1
  Ni  Ni7  1  0.123354  0.835480  0.000000  1
  Ni  Ni8  1  0.629915  0.568694  0.000000  1
  Ni  Ni9  1  0.939317  0.371660  0.000000  1
  Ni  Ni10  1  0.429793  0.059224  0.000000  1
  Ni  Ni11  1  0.565577  0.956941  0.500000  1
  Ni  Ni12  1  0.391675  0.434193  0.500000  1
  Ni  Ni13  1  0.047311  0.609304  0.500000  1
  P  P14  1  0.594743  0.713182  0.500000  1
  P  P15  1  0.122303  0.409618  0.500000  1
  P  P16  1  0.288702  0.877115  0.500000  1
  P  P17  1  0.996793  0.992164  0.000000  1
  P  P18  1  0.879883  0.582275  0.000000  1
  P  P19  1  0.696756  0.123584  0.000000  1
  P  P20  1  0.420942  0.300321  0.000000  1
