# generated using pymatgen
data_TbDy7Re2(TcB12)2
_symmetry_space_group_name_H-M   'P 1'
_cell_length_a   3.69018300
_cell_length_b   9.17628996
_cell_length_c   11.56218201
_cell_angle_alpha   90.05038824
_cell_angle_beta   90.00000000
_cell_angle_gamma   90.00000000
_symmetry_Int_Tables_number   1
_chemical_formula_structural   TbDy7Re2(TcB12)2
_chemical_formula_sum   'Tb1 Dy7 Re2 Tc2 B24'
_cell_volume   391.52064347
_cell_formula_units_Z   1
loop_
 _symmetry_equiv_pos_site_id
 _symmetry_equiv_pos_as_xyz
  1  'x, y, z'
loop_
 _atom_site_type_symbol
 _atom_site_label
 _atom_site_symmetry_multiplicity
 _atom_site_fract_x
 _atom_site_fract_y
 _atom_site_fract_z
 _atom_site_occupancy
  Tb  Tb0  1  0.000000  0.323968  0.413982  1
  Dy  Dy1  1  0.000000  0.675982  0.586036  1
  Dy  Dy2  1  0.000000  0.823698  0.085908  1
  Dy  Dy3  1  0.000000  0.176299  0.914065  1
  Dy  Dy4  1  0.000000  0.941924  0.369708  1
  Dy  Dy5  1  0.000000  0.057975  0.630334  1
  Dy  Dy6  1  0.000000  0.443529  0.130639  1
  Dy  Dy7  1  0.000000  0.556497  0.869322  1
  Re  Re8  1  0.000000  0.138528  0.179151  1
  Re  Re9  1  0.000000  0.861364  0.820730  1
  Tc  Tc10  1  0.000000  0.638793  0.320719  1
  Tc  Tc11  1  0.000000  0.361368  0.679373  1
  B  B12  1  0.500000  0.553646  0.432777  1
  B  B13  1  0.500000  0.446611  0.567374  1
  B  B14  1  0.500000  0.053348  0.067069  1
  B  B15  1  0.500000  0.946645  0.932917  1
  B  B16  1  0.500000  0.748449  0.418418  1
  B  B17  1  0.500000  0.251571  0.581844  1
  B  B18  1  0.500000  0.248874  0.081562  1
  B  B19  1  0.500000  0.751115  0.918392  1
  B  B20  1  0.500000  0.791586  0.265550  1
  B  B21  1  0.500000  0.208411  0.734481  1
  B  B22  1  0.500000  0.291809  0.234381  1
  B  B23  1  0.500000  0.708086  0.765446  1
  B  B24  1  0.500000  0.631113  0.185914  1
  B  B25  1  0.500000  0.368949  0.814077  1
  B  B26  1  0.500000  0.130571  0.314189  1
  B  B27  1  0.500000  0.869278  0.685674  1
  B  B28  1  0.500000  0.982310  0.211771  1
  B  B29  1  0.500000  0.017660  0.788215  1
  B  B30  1  0.500000  0.482934  0.288186  1
  B  B31  1  0.500000  0.517330  0.711743  1
  B  B32  1  0.500000  0.600570  0.028001  1
  B  B33  1  0.500000  0.399447  0.971967  1
  B  B34  1  0.500000  0.099979  0.471867  1
  B  B35  1  0.500000  0.899782  0.528215  1
