# generated using pymatgen
data_LiY6Al17(Re3Os4)2
_symmetry_space_group_name_H-M   'P 1'
_cell_length_a   8.84750912
_cell_length_b   8.84751039
_cell_length_c   9.56331900
_cell_angle_alpha   90.00000000
_cell_angle_beta   90.00000000
_cell_angle_gamma   119.98129956
_symmetry_Int_Tables_number   1
_chemical_formula_structural   LiY6Al17(Re3Os4)2
_chemical_formula_sum   'Li1 Y6 Al17 Re6 Os8'
_cell_volume   648.43012204
_cell_formula_units_Z   1
loop_
 _symmetry_equiv_pos_site_id
 _symmetry_equiv_pos_as_xyz
  1  'x, y, z'
loop_
 _atom_site_type_symbol
 _atom_site_label
 _atom_site_symmetry_multiplicity
 _atom_site_fract_x
 _atom_site_fract_y
 _atom_site_fract_z
 _atom_site_occupancy
  Li  Li0  1  0.000073  0.999927  0.250000  1
  Y  Y1  1  0.192042  0.384089  0.250000  1
  Y  Y2  1  0.801941  0.603903  0.750000  1
  Y  Y3  1  0.615911  0.807958  0.250000  1
  Y  Y4  1  0.396097  0.198059  0.750000  1
  Y  Y5  1  0.192162  0.807838  0.250000  1
  Y  Y6  1  0.801985  0.198015  0.750000  1
  Al  Al7  1  0.333354  0.666646  0.008222  1
  Al  Al8  1  0.666661  0.333339  0.992875  1
  Al  Al9  1  0.666661  0.333339  0.507125  1
  Al  Al10  1  0.333354  0.666646  0.491778  1
  Al  Al11  1  0.163950  0.327957  0.577856  1
  Al  Al12  1  0.837553  0.675011  0.421892  1
  Al  Al13  1  0.672043  0.836050  0.577856  1
  Al  Al14  1  0.837553  0.675011  0.078108  1
  Al  Al15  1  0.324989  0.162447  0.421892  1
  Al  Al16  1  0.163950  0.327957  0.922144  1
  Al  Al17  1  0.163981  0.836019  0.577768  1
  Al  Al18  1  0.324989  0.162447  0.078108  1
  Al  Al19  1  0.837509  0.162491  0.421956  1
  Al  Al20  1  0.672043  0.836050  0.922144  1
  Al  Al21  1  0.837509  0.162491  0.078044  1
  Al  Al22  1  0.163981  0.836019  0.922232  1
  Al  Al23  1  0.000029  0.999971  0.750000  1
  Re  Re24  1  0.570791  0.141592  0.250000  1
  Re  Re25  1  0.429102  0.858451  0.750000  1
  Re  Re26  1  0.858408  0.429209  0.250000  1
  Re  Re27  1  0.141549  0.570898  0.750000  1
  Re  Re28  1  0.570653  0.429347  0.250000  1
  Re  Re29  1  0.429156  0.570844  0.750000  1
  Os  Os30  1  0.499693  0.999382  0.001280  1
  Os  Os31  1  0.000618  0.500307  0.001280  1
  Os  Os32  1  0.499693  0.999382  0.498720  1
  Os  Os33  1  0.499690  0.500310  0.001168  1
  Os  Os34  1  0.000618  0.500307  0.498720  1
  Os  Os35  1  0.499690  0.500310  0.498832  1
  Os  Os36  1  0.000011  0.999989  0.996397  1
  Os  Os37  1  0.000011  0.999989  0.503603  1
