# generated using pymatgen
data_HoTm9(Zn2Bi)2
_symmetry_space_group_name_H-M   'P 1'
_cell_length_a   8.53384325
_cell_length_b   8.53384300
_cell_length_c   8.53373016
_cell_angle_alpha   123.70052168
_cell_angle_beta   123.70052334
_cell_angle_gamma   83.66455990
_symmetry_Int_Tables_number   1
_chemical_formula_structural   HoTm9(Zn2Bi)2
_chemical_formula_sum   'Ho1 Tm9 Zn4 Bi2'
_cell_volume   412.26569039
_cell_formula_units_Z   1
loop_
 _symmetry_equiv_pos_site_id
 _symmetry_equiv_pos_as_xyz
  1  'x, y, z'
loop_
 _atom_site_type_symbol
 _atom_site_label
 _atom_site_symmetry_multiplicity
 _atom_site_fract_x
 _atom_site_fract_y
 _atom_site_fract_z
 _atom_site_occupancy
  Ho  Ho0  1  0.795668  0.295668  0.804976  1
  Tm  Tm1  1  0.000230  0.999646  0.000279  1
  Tm  Tm2  1  0.499646  0.500230  0.000279  1
  Tm  Tm3  1  0.206015  0.706015  0.196323  1
  Tm  Tm4  1  0.489890  0.989890  0.194717  1
  Tm  Tm5  1  0.294651  0.490185  0.499860  1
  Tm  Tm6  1  0.010051  0.205444  0.499854  1
  Tm  Tm7  1  0.509681  0.009681  0.804459  1
  Tm  Tm8  1  0.705444  0.510051  0.499854  1
  Tm  Tm9  1  0.990185  0.794651  0.499860  1
  Zn  Zn10  1  0.138703  0.638703  0.777537  1
  Zn  Zn11  1  0.861432  0.361432  0.223327  1
  Zn  Zn12  1  0.638397  0.860106  0.499392  1
  Zn  Zn13  1  0.360106  0.138397  0.499392  1
  Bi  Bi14  1  0.250238  0.249660  0.999946  1
  Bi  Bi15  1  0.749660  0.750238  0.999946  1
