# generated using pymatgen
data_Ac2Ga10Ag
_symmetry_space_group_name_H-M   'P 1'
_cell_length_a   4.60723777
_cell_length_b   4.60723908
_cell_length_c   13.52266297
_cell_angle_alpha   99.80832415
_cell_angle_beta   99.80832527
_cell_angle_gamma   90.00000334
_symmetry_Int_Tables_number   1
_chemical_formula_structural   Ac2Ga10Ag
_chemical_formula_sum   'Ac2 Ga10 Ag1'
_cell_volume   278.58633759
_cell_formula_units_Z   1
loop_
 _symmetry_equiv_pos_site_id
 _symmetry_equiv_pos_as_xyz
  1  'x, y, z'
loop_
 _atom_site_type_symbol
 _atom_site_label
 _atom_site_symmetry_multiplicity
 _atom_site_fract_x
 _atom_site_fract_y
 _atom_site_fract_z
 _atom_site_occupancy
  Ac  Ac0  1  0.647383  0.647383  0.294767  1
  Ac  Ac1  1  0.352617  0.352617  0.705233  1
  Ga  Ga2  1  0.552169  0.052169  0.104339  1
  Ga  Ga3  1  0.052169  0.552169  0.104339  1
  Ga  Ga4  1  0.101928  0.101928  0.203856  1
  Ga  Ga5  1  0.199237  0.199237  0.398475  1
  Ga  Ga6  1  0.750000  0.250000  0.500000  1
  Ga  Ga7  1  0.250000  0.750000  0.500000  1
  Ga  Ga8  1  0.800763  0.800763  0.601525  1
  Ga  Ga9  1  0.898072  0.898072  0.796143  1
  Ga  Ga10  1  0.947831  0.447831  0.895660  1
  Ga  Ga11  1  0.447831  0.947831  0.895660  1
  Ag  Ag12  1  0.500000  0.500000  0.000000  1
