# generated using pymatgen
data_ScNb(CoAs)2
_symmetry_space_group_name_H-M   'P 1'
_cell_length_a   3.79710900
_cell_length_b   6.36812200
_cell_length_c   7.20640600
_cell_angle_alpha   90.00000000
_cell_angle_beta   90.00000000
_cell_angle_gamma   90.00000000
_symmetry_Int_Tables_number   1
_chemical_formula_structural   ScNb(CoAs)2
_chemical_formula_sum   'Sc2 Nb2 Co4 As4'
_cell_volume   174.25416417
_cell_formula_units_Z   2
loop_
 _symmetry_equiv_pos_site_id
 _symmetry_equiv_pos_as_xyz
  1  'x, y, z'
loop_
 _atom_site_type_symbol
 _atom_site_label
 _atom_site_symmetry_multiplicity
 _atom_site_fract_x
 _atom_site_fract_y
 _atom_site_fract_z
 _atom_site_occupancy
  Sc  Sc0  1  0.250000  0.022104  0.315737  1
  Sc  Sc1  1  0.250000  0.522104  0.184263  1
  Nb  Nb2  1  0.750000  0.977635  0.686428  1
  Nb  Nb3  1  0.750000  0.477635  0.813572  1
  Co  Co4  1  0.250000  0.138183  0.936532  1
  Co  Co5  1  0.250000  0.638183  0.563468  1
  Co  Co6  1  0.750000  0.860512  0.060543  1
  Co  Co7  1  0.750000  0.360512  0.439457  1
  As  As8  1  0.250000  0.268018  0.619744  1
  As  As9  1  0.250000  0.768018  0.880256  1
  As  As10  1  0.750000  0.733548  0.385713  1
  As  As11  1  0.750000  0.233548  0.114287  1
