# generated using pymatgen
data_Nd2HoSn6Ru
_symmetry_space_group_name_H-M   'P 1'
_cell_length_a   8.58924611
_cell_length_b   8.58924651
_cell_length_c   13.43255500
_cell_angle_alpha   90.00000000
_cell_angle_beta   90.00000000
_cell_angle_gamma   148.32679624
_symmetry_Int_Tables_number   1
_chemical_formula_structural   Nd2HoSn6Ru
_chemical_formula_sum   'Nd4 Ho2 Sn12 Ru2'
_cell_volume   520.34213461
_cell_formula_units_Z   2
loop_
 _symmetry_equiv_pos_site_id
 _symmetry_equiv_pos_as_xyz
  1  'x, y, z'
loop_
 _atom_site_type_symbol
 _atom_site_label
 _atom_site_symmetry_multiplicity
 _atom_site_fract_x
 _atom_site_fract_y
 _atom_site_fract_z
 _atom_site_occupancy
  Nd  Nd0  1  0.400193  0.599807  0.404546  1
  Nd  Nd1  1  0.599807  0.400193  0.595454  1
  Nd  Nd2  1  0.400193  0.599807  0.095454  1
  Nd  Nd3  1  0.599807  0.400193  0.904546  1
  Ho  Ho4  1  0.602966  0.397034  0.250000  1
  Ho  Ho5  1  0.397034  0.602966  0.750000  1
  Sn  Sn6  1  0.926046  0.073954  0.922375  1
  Sn  Sn7  1  0.073954  0.926046  0.077625  1
  Sn  Sn8  1  0.926046  0.073954  0.577625  1
  Sn  Sn9  1  0.073954  0.926046  0.422375  1
  Sn  Sn10  1  0.960681  0.039319  0.250000  1
  Sn  Sn11  1  0.039319  0.960681  0.750000  1
  Sn  Sn12  1  0.744608  0.255393  0.432544  1
  Sn  Sn13  1  0.255393  0.744607  0.567456  1
  Sn  Sn14  1  0.744608  0.255393  0.067456  1
  Sn  Sn15  1  0.255393  0.744607  0.932544  1
  Sn  Sn16  1  0.230826  0.769174  0.250000  1
  Sn  Sn17  1  0.769174  0.230826  0.750000  1
  Ru  Ru18  1  0.800215  0.199785  0.250000  1
  Ru  Ru19  1  0.199785  0.800215  0.750000  1
