# generated using pymatgen
data_Ho2Si2IrRu
_symmetry_space_group_name_H-M   'P 1'
_cell_length_a   4.29852300
_cell_length_b   6.92046300
_cell_length_c   7.21718700
_cell_angle_alpha   90.00000000
_cell_angle_beta   90.00000000
_cell_angle_gamma   90.00000000
_symmetry_Int_Tables_number   1
_chemical_formula_structural   Ho2Si2IrRu
_chemical_formula_sum   'Ho4 Si4 Ir2 Ru2'
_cell_volume   214.69521442
_cell_formula_units_Z   2
loop_
 _symmetry_equiv_pos_site_id
 _symmetry_equiv_pos_as_xyz
  1  'x, y, z'
loop_
 _atom_site_type_symbol
 _atom_site_label
 _atom_site_symmetry_multiplicity
 _atom_site_fract_x
 _atom_site_fract_y
 _atom_site_fract_z
 _atom_site_occupancy
  Ho  Ho0  1  0.750000  0.509589  0.813039  1
  Ho  Ho1  1  0.250000  0.990148  0.314969  1
  Ho  Ho2  1  0.750000  0.009589  0.686961  1
  Ho  Ho3  1  0.250000  0.490148  0.185031  1
  Si  Si4  1  0.250000  0.801943  0.888847  1
  Si  Si5  1  0.250000  0.301943  0.611153  1
  Si  Si6  1  0.750000  0.199600  0.106394  1
  Si  Si7  1  0.750000  0.699600  0.393606  1
  Ir  Ir8  1  0.750000  0.844669  0.067935  1
  Ir  Ir9  1  0.750000  0.344669  0.432065  1
  Ru  Ru10  1  0.250000  0.654052  0.564843  1
  Ru  Ru11  1  0.250000  0.154052  0.935157  1
