# generated using pymatgen
data_Ta9Ti3B12(Os2Ru)4
_symmetry_space_group_name_H-M   'P 1'
_cell_length_a   3.10479000
_cell_length_b   9.04142608
_cell_length_c   15.65306589
_cell_angle_alpha   89.94384586
_cell_angle_beta   90.00000000
_cell_angle_gamma   90.00000000
_symmetry_Int_Tables_number   1
_chemical_formula_structural   Ta9Ti3B12(Os2Ru)4
_chemical_formula_sum   'Ta9 Ti3 B12 Os8 Ru4'
_cell_volume   439.40841699
_cell_formula_units_Z   1
loop_
 _symmetry_equiv_pos_site_id
 _symmetry_equiv_pos_as_xyz
  1  'x, y, z'
loop_
 _atom_site_type_symbol
 _atom_site_label
 _atom_site_symmetry_multiplicity
 _atom_site_fract_x
 _atom_site_fract_y
 _atom_site_fract_z
 _atom_site_occupancy
  Ta  Ta0  1  0.000000  0.699029  0.994965  1
  Ta  Ta1  1  0.000000  0.516446  0.593214  1
  Ta  Ta2  1  0.000000  0.483105  0.406469  1
  Ta  Ta3  1  0.000000  0.017547  0.905748  1
  Ta  Ta4  1  0.000000  0.984640  0.094421  1
  Ta  Ta5  1  0.000000  0.687393  0.204301  1
  Ta  Ta6  1  0.000000  0.311249  0.795463  1
  Ta  Ta7  1  0.000000  0.186684  0.297042  1
  Ta  Ta8  1  0.000000  0.812167  0.701683  1
  Ti  Ti9  1  0.000000  0.802325  0.493927  1
  Ti  Ti10  1  0.000000  0.197284  0.505740  1
  Ti  Ti11  1  0.000000  0.301557  0.005820  1
  B  B12  1  0.500000  0.608984  0.495342  1
  B  B13  1  0.500000  0.390611  0.504341  1
  B  B14  1  0.500000  0.109424  0.003981  1
  B  B15  1  0.500000  0.895153  0.996626  1
  B  B16  1  0.000000  0.606432  0.833962  1
  B  B17  1  0.000000  0.389697  0.166459  1
  B  B18  1  0.000000  0.106986  0.663713  1
  B  B19  1  0.000000  0.893075  0.336100  1
  B  B20  1  0.500000  0.717414  0.595474  1
  B  B21  1  0.500000  0.282172  0.403820  1
  B  B22  1  0.500000  0.219246  0.903828  1
  B  B23  1  0.500000  0.784804  0.098566  1
  Os  Os24  1  0.500000  0.719454  0.357467  1
  Os  Os25  1  0.500000  0.280367  0.642413  1
  Os  Os26  1  0.500000  0.219469  0.143263  1
  Os  Os27  1  0.500000  0.781354  0.854692  1
  Os  Os28  1  0.500000  0.516780  0.094909  1
  Os  Os29  1  0.500000  0.480812  0.906193  1
  Os  Os30  1  0.500000  0.019608  0.407064  1
  Os  Os31  1  0.500000  0.980124  0.592954  1
  Ru  Ru32  1  0.500000  0.562544  0.733602  1
  Ru  Ru33  1  0.500000  0.436332  0.266280  1
  Ru  Ru34  1  0.500000  0.062026  0.765163  1
  Ru  Ru35  1  0.500000  0.937705  0.234994  1
