# generated using pymatgen
data_AlCo20(B3W)2
_symmetry_space_group_name_H-M   'P 1'
_cell_length_a   7.40095500
_cell_length_b   7.40095417
_cell_length_c   7.40095500
_cell_angle_alpha   119.99999924
_cell_angle_beta   90.00000000
_cell_angle_gamma   119.99999924
_symmetry_Int_Tables_number   1
_chemical_formula_structural   AlCo20(B3W)2
_chemical_formula_sum   'Al1 Co20 B6 W2'
_cell_volume   286.64756314
_cell_formula_units_Z   1
loop_
 _symmetry_equiv_pos_site_id
 _symmetry_equiv_pos_as_xyz
  1  'x, y, z'
loop_
 _atom_site_type_symbol
 _atom_site_label
 _atom_site_symmetry_multiplicity
 _atom_site_fract_x
 _atom_site_fract_y
 _atom_site_fract_z
 _atom_site_occupancy
  Al  Al0  1  0.000000  0.000000  0.000000  1
  Co  Co1  1  0.342104  0.000000  0.000000  1
  Co  Co2  1  0.657895  0.000000  0.000000  1
  Co  Co3  1  0.000000  0.342104  0.000000  1
  Co  Co4  1  0.342104  0.342104  0.000000  1
  Co  Co5  1  0.000000  0.657895  0.000000  1
  Co  Co6  1  0.657895  0.657895  0.000000  1
  Co  Co7  1  0.382230  0.764459  0.146689  1
  Co  Co8  1  0.000000  0.000000  0.342104  1
  Co  Co9  1  0.000000  0.342104  0.342104  1
  Co  Co10  1  0.342104  0.342104  0.342104  1
  Co  Co11  1  0.617770  0.235540  0.382230  1
  Co  Co12  1  0.146689  0.764459  0.382230  1
  Co  Co13  1  0.617770  0.764459  0.382230  1
  Co  Co14  1  0.382230  0.235540  0.617770  1
  Co  Co15  1  0.853311  0.235540  0.617770  1
  Co  Co16  1  0.382230  0.764459  0.617770  1
  Co  Co17  1  0.000000  0.000000  0.657895  1
  Co  Co18  1  0.000000  0.657895  0.657895  1
  Co  Co19  1  0.657895  0.657895  0.657895  1
  Co  Co20  1  0.617770  0.235540  0.853311  1
  B  B21  1  0.724547  0.000000  0.275453  1
  B  B22  1  0.275453  0.000000  0.275453  1
  B  B23  1  0.275453  0.550906  0.275453  1
  B  B24  1  0.275453  0.000000  0.724547  1
  B  B25  1  0.724547  0.000000  0.724547  1
  B  B26  1  0.724547  0.449094  0.724547  1
  W  W27  1  0.750000  0.500000  0.250000  1
  W  W28  1  0.250000  0.500000  0.750000  1
