# generated using pymatgen
data_YHoTc3Ru
_symmetry_space_group_name_H-M   'P 1'
_cell_length_a   5.26116600
_cell_length_b   5.26127575
_cell_length_c   9.19793000
_cell_angle_alpha   90.00030471
_cell_angle_beta   89.99891355
_cell_angle_gamma   119.99773374
_symmetry_Int_Tables_number   1
_chemical_formula_structural   YHoTc3Ru
_chemical_formula_sum   'Y2 Ho2 Tc6 Ru2'
_cell_volume   220.49752467
_cell_formula_units_Z   2
loop_
 _symmetry_equiv_pos_site_id
 _symmetry_equiv_pos_as_xyz
  1  'x, y, z'
loop_
 _atom_site_type_symbol
 _atom_site_label
 _atom_site_symmetry_multiplicity
 _atom_site_fract_x
 _atom_site_fract_y
 _atom_site_fract_z
 _atom_site_occupancy
  Y  Y0  1  0.666689  0.333307  0.562803  1
  Y  Y1  1  0.333311  0.666693  0.437197  1
  Ho  Ho2  1  0.333311  0.666688  0.062437  1
  Ho  Ho3  1  0.666689  0.333312  0.937563  1
  Tc  Tc4  1  0.171133  0.342178  0.750506  1
  Tc  Tc5  1  0.171084  0.828911  0.750506  1
  Tc  Tc6  1  0.657827  0.828878  0.750506  1
  Tc  Tc7  1  0.828867  0.657822  0.249494  1
  Tc  Tc8  1  0.828916  0.171089  0.249494  1
  Tc  Tc9  1  0.342173  0.171122  0.249494  1
  Ru  Ru10  1  0.000000  0.000000  0.500000  1
  Ru  Ru11  1  0.000000  0.000000  0.000000  1
