# generated using pymatgen
data_Na12Ga2As5P
_symmetry_space_group_name_H-M   'P 1'
_cell_length_a   8.22046036
_cell_length_b   8.22842747
_cell_length_c   8.93003044
_cell_angle_alpha   81.15304146
_cell_angle_beta   107.65992936
_cell_angle_gamma   119.19360044
_symmetry_Int_Tables_number   1
_chemical_formula_structural   Na12Ga2As5P
_chemical_formula_sum   'Na12 Ga2 As5 P1'
_cell_volume   502.45049802
_cell_formula_units_Z   1
loop_
 _symmetry_equiv_pos_site_id
 _symmetry_equiv_pos_as_xyz
  1  'x, y, z'
loop_
 _atom_site_type_symbol
 _atom_site_label
 _atom_site_symmetry_multiplicity
 _atom_site_fract_x
 _atom_site_fract_y
 _atom_site_fract_z
 _atom_site_occupancy
  Na  Na0  1  0.733345  0.125925  0.618005  1
  Na  Na1  1  0.262530  0.859592  0.394004  1
  Na  Na2  1  0.972146  0.822915  0.627579  1
  Na  Na3  1  0.021619  0.193080  0.395222  1
  Na  Na4  1  0.624663  0.452266  0.400511  1
  Na  Na5  1  0.392122  0.554626  0.593182  1
  Na  Na6  1  0.873258  0.487547  0.139459  1
  Na  Na7  1  0.113928  0.497977  0.845631  1
  Na  Na8  1  0.744734  0.090533  0.988544  1
  Na  Na9  1  0.241516  0.873806  0.004084  1
  Na  Na10  1  0.578254  0.630057  0.946135  1
  Na  Na11  1  0.245234  0.209513  0.105684  1
  Ga  Ga12  1  0.586227  0.827837  0.257689  1
  Ga  Ga13  1  0.413426  0.176341  0.750632  1
  As  As14  1  0.277687  0.542512  0.232016  1
  As  As15  1  0.724474  0.453301  0.764956  1
  As  As16  1  0.596074  0.129510  0.259142  1
  As  As17  1  0.386438  0.864185  0.740119  1
  As  As18  1  0.876761  0.825936  0.242170  1
  P  P19  1  0.144945  0.199283  0.756618  1
