# generated using pymatgen
data_Tb2HoTmIn4
_symmetry_space_group_name_H-M   'P 1'
_cell_length_a   6.49968507
_cell_length_b   6.49968636
_cell_length_c   10.32963800
_cell_angle_alpha   90.00000000
_cell_angle_beta   90.00000000
_cell_angle_gamma   103.99903755
_symmetry_Int_Tables_number   1
_chemical_formula_structural   Tb2HoTmIn4
_chemical_formula_sum   'Tb4 Ho2 Tm2 In8'
_cell_volume   423.42427678
_cell_formula_units_Z   2
loop_
 _symmetry_equiv_pos_site_id
 _symmetry_equiv_pos_as_xyz
  1  'x, y, z'
loop_
 _atom_site_type_symbol
 _atom_site_label
 _atom_site_symmetry_multiplicity
 _atom_site_fract_x
 _atom_site_fract_y
 _atom_site_fract_z
 _atom_site_occupancy
  Tb  Tb0  1  0.247887  0.752113  0.500000  1
  Tb  Tb1  1  0.247887  0.752113  0.000000  1
  Tb  Tb2  1  0.752113  0.247887  0.500000  1
  Tb  Tb3  1  0.752113  0.247887  0.000000  1
  Ho  Ho4  1  0.524178  0.524178  0.250000  1
  Ho  Ho5  1  0.475822  0.475822  0.750000  1
  Tm  Tm6  1  0.982153  0.982153  0.250000  1
  Tm  Tm7  1  0.017847  0.017847  0.750000  1
  In  In8  1  0.250765  0.250765  0.013275  1
  In  In9  1  0.749235  0.749235  0.986725  1
  In  In10  1  0.250765  0.250765  0.486725  1
  In  In11  1  0.749235  0.749235  0.513275  1
  In  In12  1  0.486621  0.014594  0.250000  1
  In  In13  1  0.985406  0.513379  0.750000  1
  In  In14  1  0.513379  0.985406  0.750000  1
  In  In15  1  0.014594  0.486621  0.250000  1
