# generated using pymatgen
data_Yb4Al3Si2Ni9
_symmetry_space_group_name_H-M   'P 1'
_cell_length_a   5.14850777
_cell_length_b   5.14850747
_cell_length_c   11.74337924
_cell_angle_alpha   77.33743201
_cell_angle_beta   77.33743521
_cell_angle_gamma   59.99998593
_symmetry_Int_Tables_number   1
_chemical_formula_structural   Yb4Al3Si2Ni9
_chemical_formula_sum   'Yb4 Al3 Si2 Ni9'
_cell_volume   260.80028556
_cell_formula_units_Z   1
loop_
 _symmetry_equiv_pos_site_id
 _symmetry_equiv_pos_as_xyz
  1  'x, y, z'
loop_
 _atom_site_type_symbol
 _atom_site_label
 _atom_site_symmetry_multiplicity
 _atom_site_fract_x
 _atom_site_fract_y
 _atom_site_fract_z
 _atom_site_occupancy
  Yb  Yb0  1  0.952603  0.952603  0.142192  1
  Yb  Yb1  1  0.048336  0.048336  0.854989  1
  Yb  Yb2  1  0.855392  0.855392  0.433823  1
  Yb  Yb3  1  0.144466  0.144466  0.566603  1
  Al  Al4  1  0.277349  0.277349  0.167956  1
  Al  Al5  1  0.609958  0.609958  0.170127  1
  Al  Al6  1  0.390175  0.390175  0.829476  1
  Si  Si7  1  0.498965  0.498965  0.503105  1
  Si  Si8  1  0.723501  0.723501  0.829496  1
  Ni  Ni9  1  0.997856  0.503239  0.995665  1
  Ni  Ni10  1  0.503239  0.997856  0.995665  1
  Ni  Ni11  1  0.503239  0.503239  0.995665  1
  Ni  Ni12  1  0.385661  0.385661  0.339507  1
  Ni  Ni13  1  0.889172  0.385661  0.339507  1
  Ni  Ni14  1  0.385661  0.889172  0.339507  1
  Ni  Ni15  1  0.614201  0.614201  0.665573  1
  Ni  Ni16  1  0.106025  0.614201  0.665573  1
  Ni  Ni17  1  0.614201  0.106025  0.665573  1
