# generated using pymatgen
data_Ba5Sr(InSb3)2
_symmetry_space_group_name_H-M   'P 1'
_cell_length_a   4.93709700
_cell_length_b   14.65566100
_cell_length_c   15.48715300
_cell_angle_alpha   90.00000000
_cell_angle_beta   90.00000000
_cell_angle_gamma   90.00000000
_symmetry_Int_Tables_number   1
_chemical_formula_structural   Ba5Sr(InSb3)2
_chemical_formula_sum   'Ba10 Sr2 In4 Sb12'
_cell_volume   1120.59494639
_cell_formula_units_Z   2
loop_
 _symmetry_equiv_pos_site_id
 _symmetry_equiv_pos_as_xyz
  1  'x, y, z'
loop_
 _atom_site_type_symbol
 _atom_site_label
 _atom_site_symmetry_multiplicity
 _atom_site_fract_x
 _atom_site_fract_y
 _atom_site_fract_z
 _atom_site_occupancy
  Ba  Ba0  1  0.750000  0.130110  0.994975  1
  Ba  Ba1  1  0.250000  0.280504  0.204861  1
  Ba  Ba2  1  0.250000  0.369890  0.494975  1
  Ba  Ba3  1  0.750000  0.645188  0.501850  1
  Ba  Ba4  1  0.750000  0.426411  0.889204  1
  Ba  Ba5  1  0.250000  0.854812  0.001850  1
  Ba  Ba6  1  0.750000  0.219496  0.704861  1
  Ba  Ba7  1  0.750000  0.921840  0.612562  1
  Ba  Ba8  1  0.250000  0.073589  0.389204  1
  Ba  Ba9  1  0.250000  0.578160  0.112562  1
  Sr  Sr10  1  0.250000  0.784641  0.290472  1
  Sr  Sr11  1  0.750000  0.715359  0.790472  1
  In  In12  1  0.750000  0.942425  0.203181  1
  In  In13  1  0.750000  0.449204  0.297729  1
  In  In14  1  0.250000  0.557575  0.703181  1
  In  In15  1  0.250000  0.050796  0.797729  1
  Sb  Sb16  1  0.750000  0.756886  0.133810  1
  Sb  Sb17  1  0.250000  0.088890  0.612338  1
  Sb  Sb18  1  0.250000  0.599135  0.887247  1
  Sb  Sb19  1  0.750000  0.900865  0.387247  1
  Sb  Sb20  1  0.250000  0.743114  0.633810  1
  Sb  Sb21  1  0.250000  0.043188  0.149488  1
  Sb  Sb22  1  0.750000  0.945488  0.848861  1
  Sb  Sb23  1  0.750000  0.456812  0.649488  1
  Sb  Sb24  1  0.250000  0.554512  0.348861  1
  Sb  Sb25  1  0.750000  0.262705  0.373423  1
  Sb  Sb26  1  0.750000  0.411110  0.112338  1
  Sb  Sb27  1  0.250000  0.237295  0.873423  1
