# generated using pymatgen
data_Th3AlPd5
_symmetry_space_group_name_H-M   'P 1'
_cell_length_a   8.54914984
_cell_length_b   8.54914903
_cell_length_c   8.54914847
_cell_angle_alpha   128.88347463
_cell_angle_beta   126.61061164
_cell_angle_gamma   77.04932406
_symmetry_Int_Tables_number   1
_chemical_formula_structural   Th3AlPd5
_chemical_formula_sum   'Th6 Al2 Pd10'
_cell_volume   378.97286077
_cell_formula_units_Z   2
loop_
 _symmetry_equiv_pos_site_id
 _symmetry_equiv_pos_as_xyz
  1  'x, y, z'
loop_
 _atom_site_type_symbol
 _atom_site_label
 _atom_site_symmetry_multiplicity
 _atom_site_fract_x
 _atom_site_fract_y
 _atom_site_fract_z
 _atom_site_occupancy
  Th  Th0  1  0.817982  0.046699  0.771283  1
  Th  Th1  1  0.224583  0.453301  0.771283  1
  Th  Th2  1  0.182018  0.953301  0.228717  1
  Th  Th3  1  0.368081  0.250000  0.118081  1
  Th  Th4  1  0.775417  0.546699  0.228717  1
  Th  Th5  1  0.631919  0.750000  0.881919  1
  Al  Al6  1  0.223975  0.750000  0.473975  1
  Al  Al7  1  0.776025  0.250000  0.526025  1
  Pd  Pd8  1  0.835409  0.604929  0.644743  1
  Pd  Pd9  1  0.539814  0.309333  0.644743  1
  Pd  Pd10  1  0.460186  0.104929  0.769519  1
  Pd  Pd11  1  0.835409  0.190667  0.230481  1
  Pd  Pd12  1  0.164591  0.395071  0.355257  1
  Pd  Pd13  1  0.460186  0.690667  0.355257  1
  Pd  Pd14  1  0.539814  0.895071  0.230481  1
  Pd  Pd15  1  0.164591  0.809333  0.769519  1
  Pd  Pd16  1  0.000000  0.000000  0.500000  1
  Pd  Pd17  1  0.000000  0.500000  0.000000  1
