# generated using pymatgen
data_Na2Ga9Ir2Pt
_symmetry_space_group_name_H-M   'P 1'
_cell_length_a   7.55964322
_cell_length_b   7.55964110
_cell_length_c   9.75743800
_cell_angle_alpha   90.00000000
_cell_angle_beta   90.00000000
_cell_angle_gamma   119.63971182
_symmetry_Int_Tables_number   1
_chemical_formula_structural   Na2Ga9Ir2Pt
_chemical_formula_sum   'Na4 Ga18 Ir4 Pt2'
_cell_volume   484.65667182
_cell_formula_units_Z   2
loop_
 _symmetry_equiv_pos_site_id
 _symmetry_equiv_pos_as_xyz
  1  'x, y, z'
loop_
 _atom_site_type_symbol
 _atom_site_label
 _atom_site_symmetry_multiplicity
 _atom_site_fract_x
 _atom_site_fract_y
 _atom_site_fract_z
 _atom_site_occupancy
  Na  Na0  1  0.999620  0.327310  0.750000  1
  Na  Na1  1  0.000380  0.672690  0.250000  1
  Na  Na2  1  0.327310  0.999620  0.750000  1
  Na  Na3  1  0.672690  0.000380  0.250000  1
  Ga  Ga4  1  0.660401  0.660401  0.434212  1
  Ga  Ga5  1  0.339599  0.339599  0.934212  1
  Ga  Ga6  1  0.660401  0.660401  0.065788  1
  Ga  Ga7  1  0.339599  0.339599  0.565788  1
  Ga  Ga8  1  0.000563  0.337555  0.425343  1
  Ga  Ga9  1  0.999437  0.662445  0.925343  1
  Ga  Ga10  1  0.337555  0.000563  0.074657  1
  Ga  Ga11  1  0.662445  0.999437  0.574657  1
  Ga  Ga12  1  0.999437  0.662445  0.574657  1
  Ga  Ga13  1  0.000563  0.337555  0.074657  1
  Ga  Ga14  1  0.662445  0.999437  0.925343  1
  Ga  Ga15  1  0.337555  0.000563  0.425343  1
  Ga  Ga16  1  0.133665  0.133665  0.250000  1
  Ga  Ga17  1  0.866335  0.866335  0.750000  1
  Ga  Ga18  1  0.662686  0.446117  0.750000  1
  Ga  Ga19  1  0.337314  0.553883  0.250000  1
  Ga  Ga20  1  0.446117  0.662686  0.750000  1
  Ga  Ga21  1  0.553883  0.337314  0.250000  1
  Ir  Ir22  1  0.672340  0.327660  0.500000  1
  Ir  Ir23  1  0.327660  0.672340  0.000000  1
  Ir  Ir24  1  0.327660  0.672340  0.500000  1
  Ir  Ir25  1  0.672340  0.327660  0.000000  1
  Pt  Pt26  1  0.000000  0.000000  0.500000  1
  Pt  Pt27  1  0.000000  0.000000  0.000000  1
