# generated using pymatgen
data_SmThSi3Rh
_symmetry_space_group_name_H-M   'P 1'
_cell_length_a   8.30224100
_cell_length_b   8.19006571
_cell_length_c   4.16998400
_cell_angle_alpha   90.00000000
_cell_angle_beta   90.00000000
_cell_angle_gamma   120.45411650
_symmetry_Int_Tables_number   1
_chemical_formula_structural   SmThSi3Rh
_chemical_formula_sum   'Sm2 Th2 Si6 Rh2'
_cell_volume   244.42305981
_cell_formula_units_Z   2
loop_
 _symmetry_equiv_pos_site_id
 _symmetry_equiv_pos_as_xyz
  1  'x, y, z'
loop_
 _atom_site_type_symbol
 _atom_site_label
 _atom_site_symmetry_multiplicity
 _atom_site_fract_x
 _atom_site_fract_y
 _atom_site_fract_z
 _atom_site_occupancy
  Sm  Sm0  1  0.000000  0.500000  0.500000  1
  Sm  Sm1  1  0.500000  0.500000  0.500000  1
  Th  Th2  1  0.000000  0.000000  0.500000  1
  Th  Th3  1  0.500000  0.000000  0.500000  1
  Si  Si4  1  0.330904  0.168573  0.000000  1
  Si  Si5  1  0.837669  0.168573  0.000000  1
  Si  Si6  1  0.830729  0.661457  0.000000  1
  Si  Si7  1  0.169271  0.338543  0.000000  1
  Si  Si8  1  0.162331  0.831427  0.000000  1
  Si  Si9  1  0.669096  0.831427  0.000000  1
  Rh  Rh10  1  0.662159  0.324317  0.000000  1
  Rh  Rh11  1  0.337841  0.675683  0.000000  1
