# generated using pymatgen
data_Dy2Tm6B24Ru3W
_symmetry_space_group_name_H-M   'P 1'
_cell_length_a   3.61919600
_cell_length_b   9.12606378
_cell_length_c   11.51802800
_cell_angle_alpha   89.85745784
_cell_angle_beta   90.00000000
_cell_angle_gamma   90.00000000
_symmetry_Int_Tables_number   1
_chemical_formula_structural   Dy2Tm6B24Ru3W
_chemical_formula_sum   'Dy2 Tm6 B24 Ru3 W1'
_cell_volume   380.42792530
_cell_formula_units_Z   1
loop_
 _symmetry_equiv_pos_site_id
 _symmetry_equiv_pos_as_xyz
  1  'x, y, z'
loop_
 _atom_site_type_symbol
 _atom_site_label
 _atom_site_symmetry_multiplicity
 _atom_site_fract_x
 _atom_site_fract_y
 _atom_site_fract_z
 _atom_site_occupancy
  Dy  Dy0  1  0.000000  0.321012  0.413545  1
  Dy  Dy1  1  0.000000  0.678166  0.585626  1
  Tm  Tm2  1  0.000000  0.820029  0.086549  1
  Tm  Tm3  1  0.000000  0.177073  0.914838  1
  Tm  Tm4  1  0.000000  0.946353  0.372809  1
  Tm  Tm5  1  0.000000  0.057786  0.629332  1
  Tm  Tm6  1  0.000000  0.442332  0.125392  1
  Tm  Tm7  1  0.000000  0.556812  0.871313  1
  B  B8  1  0.500000  0.550258  0.436263  1
  B  B9  1  0.500000  0.445456  0.569056  1
  B  B10  1  0.500000  0.053546  0.066126  1
  B  B11  1  0.500000  0.946461  0.933777  1
  B  B12  1  0.500000  0.753114  0.421946  1
  B  B13  1  0.500000  0.250986  0.582091  1
  B  B14  1  0.500000  0.248256  0.079122  1
  B  B15  1  0.500000  0.751317  0.919543  1
  B  B16  1  0.500000  0.796453  0.263037  1
  B  B17  1  0.500000  0.207966  0.735435  1
  B  B18  1  0.500000  0.290208  0.231782  1
  B  B19  1  0.500000  0.709600  0.766336  1
  B  B20  1  0.500000  0.632091  0.180908  1
  B  B21  1  0.500000  0.367896  0.815969  1
  B  B22  1  0.500000  0.131143  0.313907  1
  B  B23  1  0.500000  0.870279  0.685805  1
  B  B24  1  0.500000  0.983310  0.212131  1
  B  B25  1  0.500000  0.017967  0.788757  1
  B  B26  1  0.500000  0.476851  0.285373  1
  B  B27  1  0.500000  0.516285  0.713858  1
  B  B28  1  0.500000  0.605892  0.027229  1
  B  B29  1  0.500000  0.392550  0.969470  1
  B  B30  1  0.500000  0.105776  0.471860  1
  B  B31  1  0.500000  0.898365  0.530321  1
  Ru  Ru32  1  0.000000  0.360640  0.681234  1
  Ru  Ru33  1  0.000000  0.137162  0.177518  1
  Ru  Ru34  1  0.000000  0.862604  0.821150  1
  W  W35  1  0.000000  0.638006  0.320589  1
