# generated using pymatgen
data_TbPr16Tm3Pb16
_symmetry_space_group_name_H-M   'P 1'
_cell_length_a   8.42239531
_cell_length_b   16.28434800
_cell_length_c   8.54538700
_cell_angle_alpha   90.00000000
_cell_angle_beta   89.98448284
_cell_angle_gamma   90.00000000
_symmetry_Int_Tables_number   1
_chemical_formula_structural   TbPr16Tm3Pb16
_chemical_formula_sum   'Tb1 Pr16 Tm3 Pb16'
_cell_volume   1172.02726777
_cell_formula_units_Z   1
loop_
 _symmetry_equiv_pos_site_id
 _symmetry_equiv_pos_as_xyz
  1  'x, y, z'
loop_
 _atom_site_type_symbol
 _atom_site_label
 _atom_site_symmetry_multiplicity
 _atom_site_fract_x
 _atom_site_fract_y
 _atom_site_fract_z
 _atom_site_occupancy
  Tb  Tb0  1  0.791429  0.750000  0.497469  1
  Pr  Pr1  1  0.622352  0.618466  0.158316  1
  Pr  Pr2  1  0.123277  0.881374  0.341709  1
  Pr  Pr3  1  0.376653  0.119174  0.841868  1
  Pr  Pr4  1  0.877052  0.380153  0.658205  1
  Pr  Pr5  1  0.376653  0.380826  0.841868  1
  Pr  Pr6  1  0.877052  0.119847  0.658205  1
  Pr  Pr7  1  0.622352  0.881534  0.158316  1
  Pr  Pr8  1  0.123277  0.618626  0.341709  1
  Pr  Pr9  1  0.468113  0.600287  0.678999  1
  Pr  Pr10  1  0.967464  0.899377  0.822447  1
  Pr  Pr11  1  0.532990  0.101443  0.321752  1
  Pr  Pr12  1  0.032668  0.399337  0.177998  1
  Pr  Pr13  1  0.532990  0.398557  0.321752  1
  Pr  Pr14  1  0.032668  0.100663  0.177998  1
  Pr  Pr15  1  0.468113  0.899713  0.678999  1
  Pr  Pr16  1  0.967464  0.600623  0.822447  1
  Tm  Tm17  1  0.291173  0.750000  0.004146  1
  Tm  Tm18  1  0.209010  0.250000  0.503105  1
  Tm  Tm19  1  0.708714  0.250000  0.996252  1
  Pb  Pb20  1  0.718577  0.453464  0.968857  1
  Pb  Pb21  1  0.218651  0.046570  0.530449  1
  Pb  Pb22  1  0.280820  0.953796  0.030365  1
  Pb  Pb23  1  0.781588  0.544909  0.468360  1
  Pb  Pb24  1  0.280820  0.546204  0.030365  1
  Pb  Pb25  1  0.781588  0.955091  0.468360  1
  Pb  Pb26  1  0.718577  0.046536  0.968857  1
  Pb  Pb27  1  0.218651  0.453430  0.530449  1
  Pb  Pb28  1  0.427490  0.750000  0.373083  1
  Pb  Pb29  1  0.929383  0.750000  0.124555  1
  Pb  Pb30  1  0.570285  0.250000  0.625304  1
  Pb  Pb31  1  0.070987  0.250000  0.875024  1
  Pb  Pb32  1  0.656972  0.750000  0.849847  1
  Pb  Pb33  1  0.159659  0.750000  0.653667  1
  Pb  Pb34  1  0.342042  0.250000  0.152741  1
  Pb  Pb35  1  0.842451  0.250000  0.346161  1
