# generated using pymatgen
data_Er4Co17(As4Ru)3
_symmetry_space_group_name_H-M   'P 1'
_cell_length_a   3.79529900
_cell_length_b   10.72527416
_cell_length_c   12.21155188
_cell_angle_alpha   89.90679277
_cell_angle_beta   90.00000000
_cell_angle_gamma   90.00000000
_symmetry_Int_Tables_number   1
_chemical_formula_structural   Er4Co17(As4Ru)3
_chemical_formula_sum   'Er4 Co17 As12 Ru3'
_cell_volume   497.07816075
_cell_formula_units_Z   1
loop_
 _symmetry_equiv_pos_site_id
 _symmetry_equiv_pos_as_xyz
  1  'x, y, z'
loop_
 _atom_site_type_symbol
 _atom_site_label
 _atom_site_symmetry_multiplicity
 _atom_site_fract_x
 _atom_site_fract_y
 _atom_site_fract_z
 _atom_site_occupancy
  Er  Er0  1  0.250000  0.580108  0.701118  1
  Er  Er1  1  0.250000  0.915898  0.203566  1
  Er  Er2  1  0.750000  0.415456  0.295874  1
  Er  Er3  1  0.750000  0.084132  0.796052  1
  Co  Co4  1  0.750000  0.213677  0.507697  1
  Co  Co5  1  0.250000  0.406318  0.487070  1
  Co  Co6  1  0.250000  0.092940  0.987590  1
  Co  Co7  1  0.750000  0.592424  0.511972  1
  Co  Co8  1  0.750000  0.907556  0.012898  1
  Co  Co9  1  0.250000  0.215306  0.177381  1
  Co  Co10  1  0.250000  0.284605  0.676166  1
  Co  Co11  1  0.750000  0.784670  0.823560  1
  Co  Co12  1  0.750000  0.716211  0.324351  1
  Co  Co13  1  0.250000  0.888006  0.699392  1
  Co  Co14  1  0.250000  0.613177  0.200466  1
  Co  Co15  1  0.750000  0.115596  0.302625  1
  Co  Co16  1  0.750000  0.386478  0.799513  1
  Co  Co17  1  0.250000  0.466168  0.930887  1
  Co  Co18  1  0.250000  0.033016  0.431468  1
  Co  Co19  1  0.750000  0.534390  0.068917  1
  Co  Co20  1  0.750000  0.968046  0.568728  1
  As  As21  1  0.250000  0.416196  0.114578  1
  As  As22  1  0.250000  0.085781  0.613100  1
  As  As23  1  0.750000  0.583504  0.884826  1
  As  As24  1  0.750000  0.916993  0.385687  1
  As  As25  1  0.250000  0.268239  0.866687  1
  As  As26  1  0.250000  0.231435  0.369733  1
  As  As27  1  0.750000  0.731861  0.133664  1
  As  As28  1  0.750000  0.768551  0.633223  1
  As  As29  1  0.250000  0.594305  0.389662  1
  As  As30  1  0.250000  0.905592  0.889405  1
  As  As31  1  0.750000  0.399636  0.607750  1
  As  As32  1  0.750000  0.095308  0.111795  1
  Ru  Ru33  1  0.250000  0.711958  0.991068  1
  Ru  Ru34  1  0.250000  0.787335  0.491754  1
  Ru  Ru35  1  0.750000  0.289127  0.009780  1
