# generated using pymatgen
data_YEr2(P2Ir3)3
_symmetry_space_group_name_H-M   'P 1'
_cell_length_a   3.96834300
_cell_length_b   11.16900800
_cell_length_c   12.81481400
_cell_angle_alpha   90.00000000
_cell_angle_beta   90.00000000
_cell_angle_gamma   90.00000000
_symmetry_Int_Tables_number   1
_chemical_formula_structural   YEr2(P2Ir3)3
_chemical_formula_sum   'Y2 Er4 P12 Ir18'
_cell_volume   567.98401318
_cell_formula_units_Z   2
loop_
 _symmetry_equiv_pos_site_id
 _symmetry_equiv_pos_as_xyz
  1  'x, y, z'
loop_
 _atom_site_type_symbol
 _atom_site_label
 _atom_site_symmetry_multiplicity
 _atom_site_fract_x
 _atom_site_fract_y
 _atom_site_fract_z
 _atom_site_occupancy
  Y  Y0  1  0.750000  0.250000  0.477585  1
  Y  Y1  1  0.250000  0.750000  0.522415  1
  Er  Er2  1  0.250000  0.934822  0.795954  1
  Er  Er3  1  0.250000  0.565178  0.795954  1
  Er  Er4  1  0.750000  0.065178  0.204046  1
  Er  Er5  1  0.750000  0.434822  0.204046  1
  P  P6  1  0.250000  0.250000  0.124417  1
  P  P7  1  0.750000  0.750000  0.875583  1
  P  P8  1  0.250000  0.250000  0.640764  1
  P  P9  1  0.750000  0.750000  0.359236  1
  P  P10  1  0.250000  0.434859  0.381718  1
  P  P11  1  0.250000  0.065141  0.381718  1
  P  P12  1  0.750000  0.565141  0.618282  1
  P  P13  1  0.750000  0.934859  0.618282  1
  P  P14  1  0.250000  0.905103  0.106310  1
  P  P15  1  0.250000  0.594897  0.106310  1
  P  P16  1  0.750000  0.094897  0.893690  1
  P  P17  1  0.750000  0.405103  0.893690  1
  Ir  Ir18  1  0.250000  0.250000  0.818862  1
  Ir  Ir19  1  0.750000  0.750000  0.181138  1
  Ir  Ir20  1  0.250000  0.250000  0.299892  1
  Ir  Ir21  1  0.750000  0.750000  0.700108  1
  Ir  Ir22  1  0.750000  0.250000  0.029470  1
  Ir  Ir23  1  0.250000  0.750000  0.970530  1
  Ir  Ir24  1  0.250000  0.413501  0.998510  1
  Ir  Ir25  1  0.250000  0.086499  0.998510  1
  Ir  Ir26  1  0.750000  0.586499  0.001490  1
  Ir  Ir27  1  0.750000  0.913501  0.001490  1
  Ir  Ir28  1  0.250000  0.455922  0.570222  1
  Ir  Ir29  1  0.250000  0.044078  0.570222  1
  Ir  Ir30  1  0.750000  0.544078  0.429778  1
  Ir  Ir31  1  0.750000  0.955922  0.429778  1
  Ir  Ir32  1  0.250000  0.881078  0.285544  1
  Ir  Ir33  1  0.250000  0.618922  0.285544  1
  Ir  Ir34  1  0.750000  0.118922  0.714456  1
  Ir  Ir35  1  0.750000  0.381078  0.714456  1
