# generated using pymatgen
data_Ho3ThMn2(Co2B)6
_symmetry_space_group_name_H-M   'P 1'
_cell_length_a   5.06904975
_cell_length_b   5.06778781
_cell_length_c   12.70324000
_cell_angle_alpha   90.00047683
_cell_angle_beta   90.00012219
_cell_angle_gamma   119.98460500
_symmetry_Int_Tables_number   1
_chemical_formula_structural   Ho3ThMn2(Co2B)6
_chemical_formula_sum   'Ho3 Th1 Mn2 Co12 B6'
_cell_volume   282.65551414
_cell_formula_units_Z   1
loop_
 _symmetry_equiv_pos_site_id
 _symmetry_equiv_pos_as_xyz
  1  'x, y, z'
loop_
 _atom_site_type_symbol
 _atom_site_label
 _atom_site_symmetry_multiplicity
 _atom_site_fract_x
 _atom_site_fract_y
 _atom_site_fract_z
 _atom_site_occupancy
  Ho  Ho0  1  0.999984  0.999983  0.500030  1
  Ho  Ho1  1  0.999984  0.999975  0.263367  1
  Ho  Ho2  1  0.000004  0.000021  0.736689  1
  Th  Th3  1  0.999997  0.000011  0.000098  1
  Mn  Mn4  1  0.333092  0.666762  0.999856  1
  Mn  Mn5  1  0.666941  0.333268  0.999823  1
  Co  Co6  1  0.499963  0.999940  0.385873  1
  Co  Co7  1  0.000027  0.500001  0.385859  1
  Co  Co8  1  0.499959  0.500002  0.385895  1
  Co  Co9  1  0.500034  0.000078  0.614150  1
  Co  Co10  1  0.500035  0.499964  0.614124  1
  Co  Co11  1  0.999917  0.499963  0.614164  1
  Co  Co12  1  0.500001  0.000012  0.159586  1
  Co  Co13  1  0.999946  0.499956  0.159557  1
  Co  Co14  1  0.500001  0.499956  0.159599  1
  Co  Co15  1  0.499999  0.000003  0.840429  1
  Co  Co16  1  0.499996  0.500051  0.840457  1
  Co  Co17  1  0.000050  0.500051  0.840437  1
  B  B18  1  0.333370  0.666612  0.270241  1
  B  B19  1  0.666595  0.333343  0.270240  1
  B  B20  1  0.666661  0.333386  0.729744  1
  B  B21  1  0.333362  0.666671  0.729753  1
  B  B22  1  0.333244  0.666644  0.500008  1
  B  B23  1  0.666737  0.333344  0.500019  1
