# generated using pymatgen
data_BaMg2(H6Rh)2
_symmetry_space_group_name_H-M   'P 1'
_cell_length_a   4.81726000
_cell_length_b   4.81726127
_cell_length_c   8.25852200
_cell_angle_alpha   90.00000000
_cell_angle_beta   90.00000000
_cell_angle_gamma   119.99999130
_symmetry_Int_Tables_number   1
_chemical_formula_structural   BaMg2(H6Rh)2
_chemical_formula_sum   'Ba1 Mg2 H12 Rh2'
_cell_volume   165.97141170
_cell_formula_units_Z   1
loop_
 _symmetry_equiv_pos_site_id
 _symmetry_equiv_pos_as_xyz
  1  'x, y, z'
loop_
 _atom_site_type_symbol
 _atom_site_label
 _atom_site_symmetry_multiplicity
 _atom_site_fract_x
 _atom_site_fract_y
 _atom_site_fract_z
 _atom_site_occupancy
  Ba  Ba0  1  0.000000  0.000000  0.000000  1
  Mg  Mg1  1  0.666667  0.333333  0.372631  1
  Mg  Mg2  1  0.333333  0.666667  0.627369  1
  H  H3  1  0.169716  0.830284  0.393670  1
  H  H4  1  0.660567  0.830284  0.393670  1
  H  H5  1  0.169716  0.339433  0.393670  1
  H  H6  1  0.830284  0.169716  0.606330  1
  H  H7  1  0.339433  0.169716  0.606330  1
  H  H8  1  0.830284  0.660567  0.606330  1
  H  H9  1  0.502200  0.004400  0.832005  1
  H  H10  1  0.502200  0.497800  0.832005  1
  H  H11  1  0.995600  0.497800  0.832005  1
  H  H12  1  0.497800  0.995600  0.167995  1
  H  H13  1  0.497800  0.502200  0.167995  1
  H  H14  1  0.004400  0.502200  0.167995  1
  Rh  Rh15  1  0.666667  0.333333  0.716004  1
  Rh  Rh16  1  0.333333  0.666667  0.283996  1
