# generated using pymatgen
data_Cs2Li2PrPaTe6
_symmetry_space_group_name_H-M   'P 1'
_cell_length_a   8.82777204
_cell_length_b   8.82777215
_cell_length_c   11.85935764
_cell_angle_alpha   90.47431730
_cell_angle_beta   89.52568359
_cell_angle_gamma   149.58417109
_symmetry_Int_Tables_number   1
_chemical_formula_structural   Cs2Li2PrPaTe6
_chemical_formula_sum   'Cs2 Li2 Pr1 Pa1 Te6'
_cell_volume   467.87661902
_cell_formula_units_Z   1
loop_
 _symmetry_equiv_pos_site_id
 _symmetry_equiv_pos_as_xyz
  1  'x, y, z'
loop_
 _atom_site_type_symbol
 _atom_site_label
 _atom_site_symmetry_multiplicity
 _atom_site_fract_x
 _atom_site_fract_y
 _atom_site_fract_z
 _atom_site_occupancy
  Cs  Cs0  1  0.744041  0.255961  0.270954  1
  Cs  Cs1  1  0.255961  0.744041  0.729046  1
  Li  Li2  1  0.469876  0.530125  0.250558  1
  Li  Li3  1  0.530125  0.469876  0.749442  1
  Pr  Pr4  1  0.000000  0.000000  0.500000  1
  Pa  Pa5  1  0.000000  0.000000  0.000000  1
  Te  Te6  1  0.387189  0.612812  0.049073  1
  Te  Te7  1  0.059025  0.940976  0.235021  1
  Te  Te8  1  0.378982  0.621019  0.440540  1
  Te  Te9  1  0.621019  0.378982  0.559460  1
  Te  Te10  1  0.940976  0.059025  0.764979  1
  Te  Te11  1  0.612812  0.387189  0.950926  1
