# generated using pymatgen
data_SmY2TaO7
_symmetry_space_group_name_H-M   'P 1'
_cell_length_a   6.50085989
_cell_length_b   6.50085938
_cell_length_c   7.59172700
_cell_angle_alpha   90.00000000
_cell_angle_beta   90.00000000
_cell_angle_gamma   109.46310151
_symmetry_Int_Tables_number   1
_chemical_formula_structural   SmY2TaO7
_chemical_formula_sum   'Sm2 Y4 Ta2 O14'
_cell_volume   302.50158367
_cell_formula_units_Z   2
loop_
 _symmetry_equiv_pos_site_id
 _symmetry_equiv_pos_as_xyz
  1  'x, y, z'
loop_
 _atom_site_type_symbol
 _atom_site_label
 _atom_site_symmetry_multiplicity
 _atom_site_fract_x
 _atom_site_fract_y
 _atom_site_fract_z
 _atom_site_occupancy
  Sm  Sm0  1  0.500000  0.500000  0.500000  1
  Sm  Sm1  1  0.500000  0.500000  0.000000  1
  Y  Y2  1  0.533257  0.000281  0.750000  1
  Y  Y3  1  0.000281  0.533257  0.250000  1
  Y  Y4  1  0.466743  0.999719  0.250000  1
  Y  Y5  1  0.999719  0.466743  0.750000  1
  Ta  Ta6  1  0.000000  0.000000  0.500000  1
  Ta  Ta7  1  0.000000  0.000000  0.000000  1
  O  O8  1  0.679273  0.929291  0.468535  1
  O  O9  1  0.929291  0.679273  0.531465  1
  O  O10  1  0.679273  0.929291  0.031465  1
  O  O11  1  0.929291  0.679273  0.968535  1
  O  O12  1  0.320727  0.070709  0.531465  1
  O  O13  1  0.070709  0.320727  0.468535  1
  O  O14  1  0.320727  0.070709  0.968535  1
  O  O15  1  0.070709  0.320727  0.031465  1
  O  O16  1  0.936516  0.063484  0.750000  1
  O  O17  1  0.063484  0.936516  0.250000  1
  O  O18  1  0.366829  0.633170  0.750000  1
  O  O19  1  0.633170  0.366829  0.250000  1
  O  O20  1  0.639951  0.360049  0.750000  1
  O  O21  1  0.360049  0.639951  0.250000  1
