# generated using pymatgen
data_HoSeBrO3
_symmetry_space_group_name_H-M   'P 1'
_cell_length_a   6.97369600
_cell_length_b   7.57661100
_cell_length_c   9.00558100
_cell_angle_alpha   90.00000000
_cell_angle_beta   90.00000000
_cell_angle_gamma   90.00000000
_symmetry_Int_Tables_number   1
_chemical_formula_structural   HoSeBrO3
_chemical_formula_sum   'Ho4 Se4 Br4 O12'
_cell_volume   475.82771961
_cell_formula_units_Z   4
loop_
 _symmetry_equiv_pos_site_id
 _symmetry_equiv_pos_as_xyz
  1  'x, y, z'
loop_
 _atom_site_type_symbol
 _atom_site_label
 _atom_site_symmetry_multiplicity
 _atom_site_fract_x
 _atom_site_fract_y
 _atom_site_fract_z
 _atom_site_occupancy
  Ho  Ho0  1  0.250000  0.896653  0.027655  1
  Ho  Ho1  1  0.750000  0.103347  0.972345  1
  Ho  Ho2  1  0.750000  0.603347  0.527655  1
  Ho  Ho3  1  0.250000  0.396653  0.472345  1
  Se  Se4  1  0.250000  0.784330  0.628470  1
  Se  Se5  1  0.750000  0.215670  0.371530  1
  Se  Se6  1  0.750000  0.715670  0.128470  1
  Se  Se7  1  0.250000  0.284330  0.871530  1
  Br  Br8  1  0.250000  0.556943  0.179257  1
  Br  Br9  1  0.750000  0.443057  0.820743  1
  Br  Br10  1  0.750000  0.943057  0.679257  1
  Br  Br11  1  0.250000  0.056943  0.320743  1
  O  O12  1  0.072112  0.636877  0.567159  1
  O  O13  1  0.927888  0.363123  0.432841  1
  O  O14  1  0.927888  0.863123  0.067159  1
  O  O15  1  0.572112  0.363123  0.432841  1
  O  O16  1  0.072112  0.136877  0.932841  1
  O  O17  1  0.427888  0.636877  0.567159  1
  O  O18  1  0.427888  0.136877  0.932841  1
  O  O19  1  0.572112  0.863123  0.067159  1
  O  O20  1  0.250000  0.753953  0.815848  1
  O  O21  1  0.750000  0.246047  0.184152  1
  O  O22  1  0.750000  0.746047  0.315848  1
  O  O23  1  0.250000  0.253953  0.684152  1
