# generated using pymatgen
data_Tm2B2MoRu5
_symmetry_space_group_name_H-M   'P 1'
_cell_length_a   9.55459400
_cell_length_b   9.55459400
_cell_length_c   3.11388600
_cell_angle_alpha   90.00000000
_cell_angle_beta   90.00000000
_cell_angle_gamma   90.00000000
_symmetry_Int_Tables_number   1
_chemical_formula_structural   Tm2B2MoRu5
_chemical_formula_sum   'Tm4 B4 Mo2 Ru10'
_cell_volume   284.26748281
_cell_formula_units_Z   2
loop_
 _symmetry_equiv_pos_site_id
 _symmetry_equiv_pos_as_xyz
  1  'x, y, z'
loop_
 _atom_site_type_symbol
 _atom_site_label
 _atom_site_symmetry_multiplicity
 _atom_site_fract_x
 _atom_site_fract_y
 _atom_site_fract_z
 _atom_site_occupancy
  Tm  Tm0  1  0.675373  0.175373  0.000000  1
  Tm  Tm1  1  0.324627  0.824627  0.000000  1
  Tm  Tm2  1  0.175373  0.324627  0.000000  1
  Tm  Tm3  1  0.824627  0.675373  0.000000  1
  B  B4  1  0.120505  0.620505  0.000000  1
  B  B5  1  0.879495  0.379495  0.000000  1
  B  B6  1  0.620505  0.879495  0.000000  1
  B  B7  1  0.379495  0.120505  0.000000  1
  Mo  Mo8  1  0.000000  0.000000  0.000000  1
  Mo  Mo9  1  0.500000  0.500000  0.000000  1
  Ru  Ru10  1  0.216318  0.069984  0.500000  1
  Ru  Ru11  1  0.783682  0.930016  0.500000  1
  Ru  Ru12  1  0.069984  0.783682  0.500000  1
  Ru  Ru13  1  0.716318  0.430016  0.500000  1
  Ru  Ru14  1  0.930016  0.216318  0.500000  1
  Ru  Ru15  1  0.283682  0.569984  0.500000  1
  Ru  Ru16  1  0.569984  0.716318  0.500000  1
  Ru  Ru17  1  0.430016  0.283682  0.500000  1
  Ru  Ru18  1  0.500000  0.000000  0.500000  1
  Ru  Ru19  1  0.000000  0.500000  0.500000  1
