# generated using pymatgen
data_TaTi4(Nb3Al2)5
_symmetry_space_group_name_H-M   'P 1'
_cell_length_a   9.97732281
_cell_length_b   9.95959158
_cell_length_c   5.16552048
_cell_angle_alpha   90.02077851
_cell_angle_beta   90.01289409
_cell_angle_gamma   90.06525192
_symmetry_Int_Tables_number   1
_chemical_formula_structural   TaTi4(Nb3Al2)5
_chemical_formula_sum   'Ta1 Ti4 Nb15 Al10'
_cell_volume   513.29770164
_cell_formula_units_Z   1
loop_
 _symmetry_equiv_pos_site_id
 _symmetry_equiv_pos_as_xyz
  1  'x, y, z'
loop_
 _atom_site_type_symbol
 _atom_site_label
 _atom_site_symmetry_multiplicity
 _atom_site_fract_x
 _atom_site_fract_y
 _atom_site_fract_z
 _atom_site_occupancy
  Ta  Ta0  1  0.129827  0.464749  0.999094  1
  Ti  Ti1  1  0.180947  0.181500  0.252692  1
  Ti  Ti2  1  0.680739  0.318665  0.752553  1
  Ti  Ti3  1  0.318902  0.680279  0.752645  1
  Ti  Ti4  1  0.819096  0.819281  0.252535  1
  Nb  Nb5  1  0.398519  0.396934  0.001367  1
  Nb  Nb6  1  0.896976  0.103006  0.501476  1
  Nb  Nb7  1  0.102595  0.897458  0.501357  1
  Nb  Nb8  1  0.603501  0.602873  0.001144  1
  Nb  Nb9  1  0.965429  0.371287  0.499237  1
  Nb  Nb10  1  0.035474  0.628678  0.498117  1
  Nb  Nb11  1  0.869374  0.535534  0.999056  1
  Nb  Nb12  1  0.370219  0.964564  0.499026  1
  Nb  Nb13  1  0.629204  0.035270  0.498981  1
  Nb  Nb14  1  0.464984  0.128955  0.998916  1
  Nb  Nb15  1  0.534691  0.870774  0.998926  1
  Nb  Nb16  1  0.318550  0.679947  0.246133  1
  Nb  Nb17  1  0.681091  0.318665  0.247126  1
  Nb  Nb18  1  0.180855  0.182227  0.747917  1
  Nb  Nb19  1  0.819151  0.819322  0.746772  1
  Al  Al20  1  0.000075  0.000255  0.001780  1
  Al  Al21  1  0.500099  0.499869  0.501637  1
  Al  Al22  1  0.261208  0.933113  0.000172  1
  Al  Al23  1  0.433224  0.238295  0.500377  1
  Al  Al24  1  0.566685  0.761564  0.500056  1
  Al  Al25  1  0.738694  0.066638  0.000234  1
  Al  Al26  1  0.238812  0.433193  0.500333  1
  Al  Al27  1  0.761228  0.566854  0.500272  1
  Al  Al28  1  0.933340  0.262040  0.000623  1
  Al  Al29  1  0.066509  0.738211  0.999448  1
