# generated using pymatgen
data_Nd10AgBi6Sb
_symmetry_space_group_name_H-M   'P 1'
_cell_length_a   9.73087100
_cell_length_b   9.73087156
_cell_length_c   6.66840200
_cell_angle_alpha   90.00000000
_cell_angle_beta   90.00000000
_cell_angle_gamma   119.99998790
_symmetry_Int_Tables_number   1
_chemical_formula_structural   Nd10AgBi6Sb
_chemical_formula_sum   'Nd10 Ag1 Bi6 Sb1'
_cell_volume   546.83450842
_cell_formula_units_Z   1
loop_
 _symmetry_equiv_pos_site_id
 _symmetry_equiv_pos_as_xyz
  1  'x, y, z'
loop_
 _atom_site_type_symbol
 _atom_site_label
 _atom_site_symmetry_multiplicity
 _atom_site_fract_x
 _atom_site_fract_y
 _atom_site_fract_z
 _atom_site_occupancy
  Nd  Nd0  1  0.666667  0.333333  0.000000  1
  Nd  Nd1  1  0.333333  0.666667  0.000000  1
  Nd  Nd2  1  0.333333  0.666667  0.500000  1
  Nd  Nd3  1  0.666667  0.333333  0.500000  1
  Nd  Nd4  1  0.732544  0.732544  0.750344  1
  Nd  Nd5  1  0.267456  0.000000  0.750344  1
  Nd  Nd6  1  0.000000  0.267456  0.750344  1
  Nd  Nd7  1  0.267456  0.267456  0.249656  1
  Nd  Nd8  1  0.732544  0.000000  0.249656  1
  Nd  Nd9  1  0.000000  0.732544  0.249656  1
  Ag  Ag10  1  0.000000  0.000000  0.500000  1
  Bi  Bi11  1  0.384118  0.384118  0.749293  1
  Bi  Bi12  1  0.615882  0.000000  0.749293  1
  Bi  Bi13  1  0.000000  0.615882  0.749293  1
  Bi  Bi14  1  0.615882  0.615882  0.250707  1
  Bi  Bi15  1  0.384118  0.000000  0.250707  1
  Bi  Bi16  1  0.000000  0.384118  0.250707  1
  Sb  Sb17  1  0.000000  0.000000  0.000000  1
