# generated using pymatgen
data_Th6Al24Fe5Co3
_symmetry_space_group_name_H-M   'P 1'
_cell_length_a   8.83979230
_cell_length_b   8.85102368
_cell_length_c   9.38447221
_cell_angle_alpha   90.00945904
_cell_angle_beta   89.91352563
_cell_angle_gamma   119.86723228
_symmetry_Int_Tables_number   1
_chemical_formula_structural   Th6Al24Fe5Co3
_chemical_formula_sum   'Th6 Al24 Fe5 Co3'
_cell_volume   636.72942995
_cell_formula_units_Z   1
loop_
 _symmetry_equiv_pos_site_id
 _symmetry_equiv_pos_as_xyz
  1  'x, y, z'
loop_
 _atom_site_type_symbol
 _atom_site_label
 _atom_site_symmetry_multiplicity
 _atom_site_fract_x
 _atom_site_fract_y
 _atom_site_fract_z
 _atom_site_occupancy
  Th  Th0  1  0.802871  0.193967  0.749087  1
  Th  Th1  1  0.197129  0.806033  0.250913  1
  Th  Th2  1  0.390761  0.192197  0.749596  1
  Th  Th3  1  0.609239  0.807803  0.250404  1
  Th  Th4  1  0.806533  0.609913  0.749157  1
  Th  Th5  1  0.193467  0.390087  0.250843  1
  Al  Al6  1  0.666041  0.332500  0.993066  1
  Al  Al7  1  0.333959  0.667500  0.006934  1
  Al  Al8  1  0.332666  0.666831  0.494129  1
  Al  Al9  1  0.667334  0.333169  0.505871  1
  Al  Al10  1  0.839135  0.161361  0.423303  1
  Al  Al11  1  0.160865  0.838639  0.576697  1
  Al  Al12  1  0.321413  0.160080  0.423630  1
  Al  Al13  1  0.161766  0.839978  0.923466  1
  Al  Al14  1  0.678587  0.839920  0.576370  1
  Al  Al15  1  0.838234  0.160022  0.076534  1
  Al  Al16  1  0.840444  0.678944  0.423421  1
  Al  Al17  1  0.678599  0.839954  0.923307  1
  Al  Al18  1  0.159556  0.321056  0.576579  1
  Al  Al19  1  0.321401  0.160046  0.076693  1
  Al  Al20  1  0.160643  0.320607  0.923410  1
  Al  Al21  1  0.839357  0.679393  0.076590  1
  Al  Al22  1  0.438120  0.561161  0.750314  1
  Al  Al23  1  0.561880  0.438839  0.249686  1
  Al  Al24  1  0.124290  0.561366  0.749613  1
  Al  Al25  1  0.875710  0.438634  0.250387  1
  Al  Al26  1  0.437613  0.874318  0.750310  1
  Al  Al27  1  0.562387  0.125682  0.249690  1
  Al  Al28  1  0.000050  0.999360  0.749875  1
  Al  Al29  1  0.999950  0.000640  0.250125  1
  Fe  Fe30  1  0.500000  0.000000  0.000000  1
  Fe  Fe31  1  0.000000  0.500000  0.500000  1
  Fe  Fe32  1  0.500000  0.000000  0.500000  1
  Fe  Fe33  1  0.000000  0.000000  0.000000  1
  Fe  Fe34  1  0.000000  0.000000  0.500000  1
  Co  Co35  1  0.500000  0.500000  0.000000  1
  Co  Co36  1  0.000000  0.500000  0.000000  1
  Co  Co37  1  0.500000  0.500000  0.500000  1
