# generated using pymatgen
data_UTc(PO5)2
_symmetry_space_group_name_H-M   'P 1'
_cell_length_a   5.69405434
_cell_length_b   5.30407951
_cell_length_c   7.62319297
_cell_angle_alpha   107.37773934
_cell_angle_beta   110.51938823
_cell_angle_gamma   94.19649267
_symmetry_Int_Tables_number   1
_chemical_formula_structural   UTc(PO5)2
_chemical_formula_sum   'U1 Tc1 P2 O10'
_cell_volume   201.66826822
_cell_formula_units_Z   1
loop_
 _symmetry_equiv_pos_site_id
 _symmetry_equiv_pos_as_xyz
  1  'x, y, z'
loop_
 _atom_site_type_symbol
 _atom_site_label
 _atom_site_symmetry_multiplicity
 _atom_site_fract_x
 _atom_site_fract_y
 _atom_site_fract_z
 _atom_site_occupancy
  U  U0  1  0.000000  0.500000  0.000000  1
  Tc  Tc1  1  0.000000  0.500000  0.500000  1
  P  P2  1  0.330851  0.119310  0.737068  1
  P  P3  1  0.669149  0.880690  0.262932  1
  O  O4  1  0.189207  0.184594  0.882656  1
  O  O5  1  0.301646  0.811596  0.644269  1
  O  O6  1  0.943932  0.567913  0.754282  1
  O  O7  1  0.226691  0.244065  0.572495  1
  O  O8  1  0.773309  0.755935  0.427505  1
  O  O9  1  0.619994  0.238419  0.857124  1
  O  O10  1  0.380006  0.761581  0.142876  1
  O  O11  1  0.056068  0.432087  0.245718  1
  O  O12  1  0.698354  0.188404  0.355731  1
  O  O13  1  0.810793  0.815406  0.117344  1
