# generated using pymatgen
data_HoAg6NO11
_symmetry_space_group_name_H-M   'P 1'
_cell_length_a   7.06925895
_cell_length_b   7.06925941
_cell_length_c   7.06925861
_cell_angle_alpha   61.90214619
_cell_angle_beta   61.90214407
_cell_angle_gamma   61.90213872
_symmetry_Int_Tables_number   1
_chemical_formula_structural   HoAg6NO11
_chemical_formula_sum   'Ho1 Ag6 N1 O11'
_cell_volume   260.44413078
_cell_formula_units_Z   1
loop_
 _symmetry_equiv_pos_site_id
 _symmetry_equiv_pos_as_xyz
  1  'x, y, z'
loop_
 _atom_site_type_symbol
 _atom_site_label
 _atom_site_symmetry_multiplicity
 _atom_site_fract_x
 _atom_site_fract_y
 _atom_site_fract_z
 _atom_site_occupancy
  Ho  Ho0  1  0.999005  0.999005  0.999005  1
  Ag  Ag1  1  0.497983  0.001136  0.001136  1
  Ag  Ag2  1  0.500284  0.500284  0.000227  1
  Ag  Ag3  1  0.500284  0.000227  0.500284  1
  Ag  Ag4  1  0.001136  0.001136  0.497983  1
  Ag  Ag5  1  0.000227  0.500284  0.500284  1
  Ag  Ag6  1  0.001136  0.497983  0.001136  1
  N  N7  1  0.500123  0.500123  0.500123  1
  O  O8  1  0.589670  0.141974  0.141974  1
  O  O9  1  0.141974  0.589670  0.141974  1
  O  O10  1  0.137526  0.137526  0.137526  1
  O  O11  1  0.141974  0.141974  0.589670  1
  O  O12  1  0.600565  0.600565  0.299102  1
  O  O13  1  0.600565  0.299102  0.600565  1
  O  O14  1  0.299102  0.600565  0.600565  1
  O  O15  1  0.859116  0.859116  0.408295  1
  O  O16  1  0.859116  0.408295  0.859116  1
  O  O17  1  0.861915  0.861915  0.861915  1
  O  O18  1  0.408295  0.859116  0.859116  1
