# generated using pymatgen
data_DyHoGa9Co2Pt
_symmetry_space_group_name_H-M   'P 1'
_cell_length_a   7.47949066
_cell_length_b   7.47948897
_cell_length_c   9.40896500
_cell_angle_alpha   90.00000000
_cell_angle_beta   90.00000000
_cell_angle_gamma   119.62978685
_symmetry_Int_Tables_number   1
_chemical_formula_structural   DyHoGa9Co2Pt
_chemical_formula_sum   'Dy2 Ho2 Ga18 Co4 Pt2'
_cell_volume   457.53520704
_cell_formula_units_Z   2
loop_
 _symmetry_equiv_pos_site_id
 _symmetry_equiv_pos_as_xyz
  1  'x, y, z'
loop_
 _atom_site_type_symbol
 _atom_site_label
 _atom_site_symmetry_multiplicity
 _atom_site_fract_x
 _atom_site_fract_y
 _atom_site_fract_z
 _atom_site_occupancy
  Dy  Dy0  1  0.322117  0.003722  0.750000  1
  Dy  Dy1  1  0.003722  0.322117  0.750000  1
  Ho  Ho2  1  0.677941  0.996278  0.250000  1
  Ho  Ho3  1  0.996278  0.677941  0.250000  1
  Ga  Ga4  1  0.654329  0.002828  0.923570  1
  Ga  Ga5  1  0.345679  0.997110  0.423529  1
  Ga  Ga6  1  0.997110  0.345679  0.423528  1
  Ga  Ga7  1  0.345679  0.997110  0.076471  1
  Ga  Ga8  1  0.002828  0.654329  0.923570  1
  Ga  Ga9  1  0.997110  0.345679  0.076471  1
  Ga  Ga10  1  0.344139  0.344139  0.565019  1
  Ga  Ga11  1  0.344139  0.344139  0.934981  1
  Ga  Ga12  1  0.655941  0.655941  0.065023  1
  Ga  Ga13  1  0.655941  0.655941  0.434977  1
  Ga  Ga14  1  0.854980  0.854980  0.750000  1
  Ga  Ga15  1  0.144920  0.144920  0.250000  1
  Ga  Ga16  1  0.333444  0.558149  0.250000  1
  Ga  Ga17  1  0.558149  0.333444  0.250000  1
  Ga  Ga18  1  0.666540  0.441974  0.750000  1
  Ga  Ga19  1  0.441974  0.666540  0.750000  1
  Ga  Ga20  1  0.654329  0.002828  0.576431  1
  Ga  Ga21  1  0.002828  0.654329  0.576430  1
  Co  Co22  1  0.329678  0.670331  0.000130  1
  Co  Co23  1  0.670331  0.329678  0.499870  1
  Co  Co24  1  0.670331  0.329678  0.000130  1
  Co  Co25  1  0.329678  0.670331  0.499870  1
  Pt  Pt26  1  0.999933  0.999933  0.000158  1
  Pt  Pt27  1  0.999933  0.999933  0.499842  1
