# generated using pymatgen
data_RbV(CO3)2
_symmetry_space_group_name_H-M   'P 1'
_cell_length_a   6.34708658
_cell_length_b   6.34446352
_cell_length_c   7.06813741
_cell_angle_alpha   104.57151492
_cell_angle_beta   104.20499777
_cell_angle_gamma   95.36492361
_symmetry_Int_Tables_number   1
_chemical_formula_structural   RbV(CO3)2
_chemical_formula_sum   'Rb2 V2 C4 O12'
_cell_volume   263.36723898
_cell_formula_units_Z   2
loop_
 _symmetry_equiv_pos_site_id
 _symmetry_equiv_pos_as_xyz
  1  'x, y, z'
loop_
 _atom_site_type_symbol
 _atom_site_label
 _atom_site_symmetry_multiplicity
 _atom_site_fract_x
 _atom_site_fract_y
 _atom_site_fract_z
 _atom_site_occupancy
  Rb  Rb0  1  0.895274  0.104979  0.250223  1
  Rb  Rb1  1  0.104726  0.895021  0.749778  1
  V  V2  1  0.340364  0.658453  0.250760  1
  V  V3  1  0.659637  0.341547  0.749241  1
  C  C4  1  0.403991  0.192505  0.300626  1
  C  C5  1  0.807219  0.595338  0.200742  1
  C  C6  1  0.192781  0.404662  0.799257  1
  C  C7  1  0.596009  0.807496  0.699375  1
  O  O8  1  0.728328  0.416471  0.050389  1
  O  O9  1  0.295489  0.321210  0.212559  1
  O  O10  1  0.331143  0.983263  0.232829  1
  O  O11  1  0.016265  0.666372  0.273456  1
  O  O12  1  0.676340  0.704393  0.286192  1
  O  O13  1  0.583682  0.274592  0.448494  1
  O  O14  1  0.416318  0.725408  0.551506  1
  O  O15  1  0.323660  0.295608  0.713808  1
  O  O16  1  0.983735  0.333629  0.726545  1
  O  O17  1  0.668858  0.016737  0.767171  1
  O  O18  1  0.704512  0.678791  0.787442  1
  O  O19  1  0.271672  0.583530  0.949611  1
