# generated using pymatgen
data_Ho2Fe5Co5Mo2P7
_symmetry_space_group_name_H-M   'P 1'
_cell_length_a   9.02783111
_cell_length_b   9.00823393
_cell_length_c   3.67629600
_cell_angle_alpha   90.00000000
_cell_angle_beta   90.00000000
_cell_angle_gamma   120.17325738
_symmetry_Int_Tables_number   1
_chemical_formula_structural   Ho2Fe5Co5Mo2P7
_chemical_formula_sum   'Ho2 Fe5 Co5 Mo2 P7'
_cell_volume   258.46593841
_cell_formula_units_Z   1
loop_
 _symmetry_equiv_pos_site_id
 _symmetry_equiv_pos_as_xyz
  1  'x, y, z'
loop_
 _atom_site_type_symbol
 _atom_site_label
 _atom_site_symmetry_multiplicity
 _atom_site_fract_x
 _atom_site_fract_y
 _atom_site_fract_z
 _atom_site_occupancy
  Ho  Ho0  1  0.000593  0.002371  0.000000  1
  Ho  Ho1  1  0.332445  0.665569  0.500000  1
  Fe  Fe2  1  0.092650  0.391041  0.000000  1
  Fe  Fe3  1  0.788357  0.179232  0.000000  1
  Fe  Fe4  1  0.387211  0.213845  0.000000  1
  Fe  Fe5  1  0.828464  0.611455  0.000000  1
  Fe  Fe6  1  0.883382  0.427088  0.500000  1
  Co  Co7  1  0.294918  0.899410  0.000000  1
  Co  Co8  1  0.607539  0.705296  0.000000  1
  Co  Co9  1  0.721944  0.949739  0.500000  1
  Co  Co10  1  0.225139  0.281148  0.500000  1
  Co  Co11  1  0.053771  0.767885  0.500000  1
  Mo  Mo12  1  0.549388  0.114981  0.500000  1
  Mo  Mo13  1  0.566540  0.453069  0.500000  1
  P  P14  1  0.556118  0.919017  0.000000  1
  P  P15  1  0.362412  0.445002  0.000000  1
  P  P16  1  0.076601  0.628291  0.000000  1
  P  P17  1  0.954967  0.222495  0.500000  1
  P  P18  1  0.257466  0.043267  0.500000  1
  P  P19  1  0.788711  0.742437  0.500000  1
  P  P20  1  0.671385  0.337361  0.000000  1
