# generated using pymatgen
data_Pr3Nd13Cd4IrRu3
_symmetry_space_group_name_H-M   'P 1'
_cell_length_a   9.97249752
_cell_length_b   9.98535055
_cell_length_c   9.98829758
_cell_angle_alpha   59.82879388
_cell_angle_beta   59.76857681
_cell_angle_gamma   59.77756494
_symmetry_Int_Tables_number   1
_chemical_formula_structural   Pr3Nd13Cd4IrRu3
_chemical_formula_sum   'Pr3 Nd13 Cd4 Ir1 Ru3'
_cell_volume   699.97789688
_cell_formula_units_Z   1
loop_
 _symmetry_equiv_pos_site_id
 _symmetry_equiv_pos_as_xyz
  1  'x, y, z'
loop_
 _atom_site_type_symbol
 _atom_site_label
 _atom_site_symmetry_multiplicity
 _atom_site_fract_x
 _atom_site_fract_y
 _atom_site_fract_z
 _atom_site_occupancy
  Pr  Pr0  1  0.939414  0.560686  0.939733  1
  Pr  Pr1  1  0.560784  0.562564  0.938348  1
  Pr  Pr2  1  0.939174  0.939720  0.560667  1
  Nd  Nd3  1  0.345219  0.347182  0.347480  1
  Nd  Nd4  1  0.344573  0.346600  0.960240  1
  Nd  Nd5  1  0.344737  0.960133  0.346736  1
  Nd  Nd6  1  0.961382  0.345727  0.345679  1
  Nd  Nd7  1  0.811178  0.190204  0.190664  1
  Nd  Nd8  1  0.190598  0.810418  0.810291  1
  Nd  Nd9  1  0.190875  0.809433  0.189760  1
  Nd  Nd10  1  0.811867  0.190438  0.808269  1
  Nd  Nd11  1  0.191185  0.189555  0.809326  1
  Nd  Nd12  1  0.811712  0.808243  0.190732  1
  Nd  Nd13  1  0.938890  0.561437  0.561186  1
  Nd  Nd14  1  0.559569  0.939947  0.939636  1
  Nd  Nd15  1  0.560646  0.938761  0.562107  1
  Cd  Cd16  1  0.579708  0.579602  0.579202  1
  Cd  Cd17  1  0.579327  0.579992  0.260909  1
  Cd  Cd18  1  0.579296  0.260576  0.579995  1
  Cd  Cd19  1  0.261330  0.579212  0.579237  1
  Ir  Ir20  1  0.579486  0.139693  0.140096  1
  Ru  Ru21  1  0.139780  0.137521  0.137352  1
  Ru  Ru22  1  0.139781  0.138020  0.584281  1
  Ru  Ru23  1  0.139485  0.584336  0.138074  1
