# generated using pymatgen
data_HoLu15In6CoPt
_symmetry_space_group_name_H-M   'P 1'
_cell_length_a   10.23581700
_cell_length_b   10.23581851
_cell_length_c   6.85734000
_cell_angle_alpha   90.00000000
_cell_angle_beta   90.00000000
_cell_angle_gamma   119.99999837
_symmetry_Int_Tables_number   1
_chemical_formula_structural   HoLu15In6CoPt
_chemical_formula_sum   'Ho1 Lu15 In6 Co1 Pt1'
_cell_volume   622.20201244
_cell_formula_units_Z   1
loop_
 _symmetry_equiv_pos_site_id
 _symmetry_equiv_pos_as_xyz
  1  'x, y, z'
loop_
 _atom_site_type_symbol
 _atom_site_label
 _atom_site_symmetry_multiplicity
 _atom_site_fract_x
 _atom_site_fract_y
 _atom_site_fract_z
 _atom_site_occupancy
  Ho  Ho0  1  0.000000  0.000000  0.991115  1
  Lu  Lu1  1  0.530399  0.060798  0.508682  1
  Lu  Lu2  1  0.939202  0.469601  0.508682  1
  Lu  Lu3  1  0.530399  0.469601  0.508682  1
  Lu  Lu4  1  0.464527  0.929056  0.005815  1
  Lu  Lu5  1  0.070944  0.535473  0.005815  1
  Lu  Lu6  1  0.464527  0.535473  0.005815  1
  Lu  Lu7  1  0.178665  0.357330  0.713593  1
  Lu  Lu8  1  0.642670  0.821335  0.713593  1
  Lu  Lu9  1  0.178665  0.821335  0.713593  1
  Lu  Lu10  1  0.824170  0.648339  0.213153  1
  Lu  Lu11  1  0.351661  0.175830  0.213153  1
  Lu  Lu12  1  0.824170  0.175830  0.213153  1
  Lu  Lu13  1  0.666667  0.333333  0.883616  1
  Lu  Lu14  1  0.333333  0.666667  0.396336  1
  Lu  Lu15  1  0.000000  0.000000  0.492278  1
  In  In16  1  0.837554  0.675110  0.750037  1
  In  In17  1  0.324890  0.162446  0.750037  1
  In  In18  1  0.837554  0.162446  0.750037  1
  In  In19  1  0.163148  0.326295  0.252346  1
  In  In20  1  0.673705  0.836852  0.252346  1
  In  In21  1  0.163148  0.836852  0.252346  1
  Co  Co22  1  0.333333  0.666667  0.781749  1
  Pt  Pt23  1  0.666667  0.333333  0.282063  1
