# generated using pymatgen
data_Ta3TiCrCo3P4
_symmetry_space_group_name_H-M   'P 1'
_cell_length_a   3.56698700
_cell_length_b   6.14464719
_cell_length_c   7.01805211
_cell_angle_alpha   90.11135402
_cell_angle_beta   90.00000000
_cell_angle_gamma   90.00000000
_symmetry_Int_Tables_number   1
_chemical_formula_structural   Ta3TiCrCo3P4
_chemical_formula_sum   'Ta3 Ti1 Cr1 Co3 P4'
_cell_volume   153.82051014
_cell_formula_units_Z   1
loop_
 _symmetry_equiv_pos_site_id
 _symmetry_equiv_pos_as_xyz
  1  'x, y, z'
loop_
 _atom_site_type_symbol
 _atom_site_label
 _atom_site_symmetry_multiplicity
 _atom_site_fract_x
 _atom_site_fract_y
 _atom_site_fract_z
 _atom_site_occupancy
  Ta  Ta0  1  0.250000  0.527569  0.673833  1
  Ta  Ta1  1  0.750000  0.977820  0.172854  1
  Ta  Ta2  1  0.750000  0.470990  0.330379  1
  Ti  Ti3  1  0.250000  0.023793  0.822118  1
  Cr  Cr4  1  0.250000  0.140949  0.435702  1
  Co  Co5  1  0.250000  0.639736  0.061325  1
  Co  Co6  1  0.750000  0.856199  0.564585  1
  Co  Co7  1  0.750000  0.358637  0.937995  1
  P  P8  1  0.250000  0.273935  0.116933  1
  P  P9  1  0.250000  0.772969  0.376189  1
  P  P10  1  0.750000  0.731940  0.876724  1
  P  P11  1  0.750000  0.225464  0.631360  1
