# generated using pymatgen
data_U2PaF12
_symmetry_space_group_name_H-M   'P 1'
_cell_length_a   8.47767975
_cell_length_b   8.47768028
_cell_length_c   8.44080185
_cell_angle_alpha   63.21706992
_cell_angle_beta   63.21706790
_cell_angle_gamma   80.33718995
_symmetry_Int_Tables_number   1
_chemical_formula_structural   U2PaF12
_chemical_formula_sum   'U4 Pa2 F24'
_cell_volume   482.99685732
_cell_formula_units_Z   2
loop_
 _symmetry_equiv_pos_site_id
 _symmetry_equiv_pos_as_xyz
  1  'x, y, z'
loop_
 _atom_site_type_symbol
 _atom_site_label
 _atom_site_symmetry_multiplicity
 _atom_site_fract_x
 _atom_site_fract_y
 _atom_site_fract_z
 _atom_site_occupancy
  U  U0  1  0.223873  0.369141  0.330752  1
  U  U1  1  0.630859  0.776127  0.169248  1
  U  U2  1  0.776127  0.630859  0.669248  1
  U  U3  1  0.369141  0.223873  0.830752  1
  Pa  Pa4  1  0.213301  0.786699  0.750000  1
  Pa  Pa5  1  0.786699  0.213301  0.250000  1
  F  F6  1  0.726167  0.028004  0.155547  1
  F  F7  1  0.971996  0.273833  0.344453  1
  F  F8  1  0.273833  0.971996  0.844453  1
  F  F9  1  0.028004  0.726167  0.655547  1
  F  F10  1  0.506099  0.252896  0.289941  1
  F  F11  1  0.747104  0.493901  0.210059  1
  F  F12  1  0.500000  0.000000  0.000000  1
  F  F13  1  0.000000  0.500000  0.500000  1
  F  F14  1  0.399062  0.600938  0.250000  1
  F  F15  1  0.600938  0.399062  0.750000  1
  F  F16  1  0.812899  0.394272  0.933804  1
  F  F17  1  0.605728  0.187101  0.566196  1
  F  F18  1  0.187101  0.605728  0.066196  1
  F  F19  1  0.394272  0.812899  0.433804  1
  F  F20  1  0.062097  0.177998  0.047036  1
  F  F21  1  0.822002  0.937903  0.452964  1
  F  F22  1  0.937903  0.822002  0.952964  1
  F  F23  1  0.177998  0.062097  0.547036  1
  F  F24  1  0.678858  0.737384  0.895102  1
  F  F25  1  0.262616  0.321142  0.604898  1
  F  F26  1  0.321142  0.262616  0.104898  1
  F  F27  1  0.737384  0.678858  0.395102  1
  F  F28  1  0.252896  0.506099  0.789941  1
  F  F29  1  0.493901  0.747104  0.710059  1
