# generated using pymatgen
data_DyTaP7Ru12
_symmetry_space_group_name_H-M   'P 1'
_cell_length_a   9.38762000
_cell_length_b   9.38761915
_cell_length_c   3.89650100
_cell_angle_alpha   90.00000000
_cell_angle_beta   90.00000000
_cell_angle_gamma   119.99999594
_symmetry_Int_Tables_number   1
_chemical_formula_structural   DyTaP7Ru12
_chemical_formula_sum   'Dy1 Ta1 P7 Ru12'
_cell_volume   297.38318289
_cell_formula_units_Z   1
loop_
 _symmetry_equiv_pos_site_id
 _symmetry_equiv_pos_as_xyz
  1  'x, y, z'
loop_
 _atom_site_type_symbol
 _atom_site_label
 _atom_site_symmetry_multiplicity
 _atom_site_fract_x
 _atom_site_fract_y
 _atom_site_fract_z
 _atom_site_occupancy
  Dy  Dy0  1  0.333333  0.666667  0.000000  1
  Ta  Ta1  1  0.666667  0.333333  0.500000  1
  P  P2  1  0.598065  0.719317  0.500000  1
  P  P3  1  0.000000  0.000000  0.000000  1
  P  P4  1  0.280683  0.878749  0.500000  1
  P  P5  1  0.121251  0.401935  0.500000  1
  P  P6  1  0.886359  0.574551  0.000000  1
  P  P7  1  0.425449  0.311809  0.000000  1
  P  P8  1  0.688191  0.113641  0.000000  1
  Ru  Ru9  1  0.558500  0.957240  0.500000  1
  Ru  Ru10  1  0.398741  0.441500  0.500000  1
  Ru  Ru11  1  0.912638  0.124357  0.500000  1
  Ru  Ru12  1  0.211719  0.087362  0.500000  1
  Ru  Ru13  1  0.875643  0.788281  0.500000  1
  Ru  Ru14  1  0.725539  0.887613  0.000000  1
  Ru  Ru15  1  0.112387  0.837926  0.000000  1
  Ru  Ru16  1  0.162074  0.274461  0.000000  1
  Ru  Ru17  1  0.432731  0.079611  0.000000  1
  Ru  Ru18  1  0.920389  0.353120  0.000000  1
  Ru  Ru19  1  0.646880  0.567269  0.000000  1
  Ru  Ru20  1  0.042760  0.601259  0.500000  1
