# generated using pymatgen
data_Pr6Al24Re3Pt5
_symmetry_space_group_name_H-M   'P 1'
_cell_length_a   8.97638600
_cell_length_b   9.02100769
_cell_length_c   9.72254295
_cell_angle_alpha   90.28750680
_cell_angle_beta   90.00000000
_cell_angle_gamma   119.83650820
_symmetry_Int_Tables_number   1
_chemical_formula_structural   Pr6Al24Re3Pt5
_chemical_formula_sum   'Pr6 Al24 Re3 Pt5'
_cell_volume   682.92487653
_cell_formula_units_Z   1
loop_
 _symmetry_equiv_pos_site_id
 _symmetry_equiv_pos_as_xyz
  1  'x, y, z'
loop_
 _atom_site_type_symbol
 _atom_site_label
 _atom_site_symmetry_multiplicity
 _atom_site_fract_x
 _atom_site_fract_y
 _atom_site_fract_z
 _atom_site_occupancy
  Pr  Pr0  1  0.189418  0.378836  0.250988  1
  Pr  Pr1  1  0.810582  0.621164  0.749012  1
  Pr  Pr2  1  0.620585  0.812280  0.250171  1
  Pr  Pr3  1  0.379415  0.187720  0.749829  1
  Pr  Pr4  1  0.191696  0.812280  0.250171  1
  Pr  Pr5  1  0.808304  0.187720  0.749829  1
  Al  Al6  1  0.333184  0.666370  0.023989  1
  Al  Al7  1  0.666816  0.333630  0.976011  1
  Al  Al8  1  0.664238  0.328475  0.523595  1
  Al  Al9  1  0.335762  0.671525  0.476405  1
  Al  Al10  1  0.162324  0.324647  0.573897  1
  Al  Al11  1  0.837676  0.675353  0.426103  1
  Al  Al12  1  0.674299  0.842456  0.574183  1
  Al  Al13  1  0.838383  0.676767  0.074964  1
  Al  Al14  1  0.325701  0.157544  0.425817  1
  Al  Al15  1  0.161617  0.323233  0.925036  1
  Al  Al16  1  0.168158  0.842456  0.574183  1
  Al  Al17  1  0.324229  0.162813  0.077766  1
  Al  Al18  1  0.831842  0.157544  0.425817  1
  Al  Al19  1  0.675771  0.837187  0.922234  1
  Al  Al20  1  0.838583  0.162813  0.077766  1
  Al  Al21  1  0.161417  0.837187  0.922234  1
  Al  Al22  1  0.564406  0.128811  0.252971  1
  Al  Al23  1  0.435594  0.871189  0.747029  1
  Al  Al24  1  0.870828  0.434642  0.249583  1
  Al  Al25  1  0.129172  0.565358  0.750417  1
  Al  Al26  1  0.563814  0.434642  0.249583  1
  Al  Al27  1  0.436186  0.565358  0.750417  1
  Al  Al28  1  0.001424  0.002848  0.250226  1
  Al  Al29  1  0.998576  0.997152  0.749774  1
  Re  Re30  1  0.500000  0.000000  0.500000  1
  Re  Re31  1  0.000000  0.000000  0.000000  1
  Re  Re32  1  0.000000  0.000000  0.500000  1
  Pt  Pt33  1  0.500000  0.000000  0.000000  1
  Pt  Pt34  1  0.000000  0.500000  0.000000  1
  Pt  Pt35  1  0.500000  0.500000  0.000000  1
  Pt  Pt36  1  0.000000  0.500000  0.500000  1
  Pt  Pt37  1  0.500000  0.500000  0.500000  1
