# generated using pymatgen
data_Ho16Tm4Sn3Pb13
_symmetry_space_group_name_H-M   'P 1'
_cell_length_a   8.14746174
_cell_length_b   15.53368100
_cell_length_c   8.19442044
_cell_angle_alpha   90.00000000
_cell_angle_beta   89.89721131
_cell_angle_gamma   90.00000000
_symmetry_Int_Tables_number   1
_chemical_formula_structural   Ho16Tm4Sn3Pb13
_chemical_formula_sum   'Ho16 Tm4 Sn3 Pb13'
_cell_volume   1037.08476978
_cell_formula_units_Z   1
loop_
 _symmetry_equiv_pos_site_id
 _symmetry_equiv_pos_as_xyz
  1  'x, y, z'
loop_
 _atom_site_type_symbol
 _atom_site_label
 _atom_site_symmetry_multiplicity
 _atom_site_fract_x
 _atom_site_fract_y
 _atom_site_fract_z
 _atom_site_occupancy
  Ho  Ho0  1  0.620728  0.623169  0.161474  1
  Ho  Ho1  1  0.121484  0.877026  0.338279  1
  Ho  Ho2  1  0.381153  0.122227  0.838075  1
  Ho  Ho3  1  0.876740  0.378834  0.659369  1
  Ho  Ho4  1  0.381153  0.377773  0.838075  1
  Ho  Ho5  1  0.876740  0.121166  0.659369  1
  Ho  Ho6  1  0.620728  0.876831  0.161474  1
  Ho  Ho7  1  0.121484  0.622974  0.338279  1
  Ho  Ho8  1  0.462781  0.601552  0.672613  1
  Ho  Ho9  1  0.963202  0.898447  0.827728  1
  Ho  Ho10  1  0.537000  0.100762  0.327423  1
  Ho  Ho11  1  0.036651  0.400163  0.175895  1
  Ho  Ho12  1  0.537000  0.399238  0.327423  1
  Ho  Ho13  1  0.036651  0.099837  0.175895  1
  Ho  Ho14  1  0.462781  0.898448  0.672613  1
  Ho  Ho15  1  0.963202  0.601553  0.827728  1
  Tm  Tm16  1  0.788734  0.750000  0.492718  1
  Tm  Tm17  1  0.288445  0.750000  0.007269  1
  Tm  Tm18  1  0.212234  0.250000  0.505521  1
  Tm  Tm19  1  0.709115  0.250000  0.993455  1
  Sn  Sn20  1  0.425149  0.750000  0.376165  1
  Sn  Sn21  1  0.925310  0.750000  0.124514  1
  Sn  Sn22  1  0.575172  0.250000  0.623771  1
  Pb  Pb23  1  0.717941  0.458228  0.967913  1
  Pb  Pb24  1  0.218236  0.041751  0.532856  1
  Pb  Pb25  1  0.282568  0.957825  0.031861  1
  Pb  Pb26  1  0.781887  0.542436  0.466467  1
  Pb  Pb27  1  0.282568  0.542175  0.031861  1
  Pb  Pb28  1  0.781887  0.957564  0.466467  1
  Pb  Pb29  1  0.717941  0.041772  0.967913  1
  Pb  Pb30  1  0.218236  0.458249  0.532856  1
  Pb  Pb31  1  0.073294  0.250000  0.875444  1
  Pb  Pb32  1  0.652097  0.750000  0.847225  1
  Pb  Pb33  1  0.152277  0.750000  0.652999  1
  Pb  Pb34  1  0.349364  0.250000  0.153978  1
  Pb  Pb35  1  0.848072  0.250000  0.347034  1
