# generated using pymatgen
data_Er4Cd2Pd3Au
_symmetry_space_group_name_H-M   'P 1'
_cell_length_a   7.84080196
_cell_length_b   7.84080196
_cell_length_c   3.60577000
_cell_angle_alpha   90.00000000
_cell_angle_beta   90.00000000
_cell_angle_gamma   89.46341656
_symmetry_Int_Tables_number   1
_chemical_formula_structural   Er4Cd2Pd3Au
_chemical_formula_sum   'Er4 Cd2 Pd3 Au1'
_cell_volume   221.66643936
_cell_formula_units_Z   1
loop_
 _symmetry_equiv_pos_site_id
 _symmetry_equiv_pos_as_xyz
  1  'x, y, z'
loop_
 _atom_site_type_symbol
 _atom_site_label
 _atom_site_symmetry_multiplicity
 _atom_site_fract_x
 _atom_site_fract_y
 _atom_site_fract_z
 _atom_site_occupancy
  Er  Er0  1  0.671257  0.171257  0.500000  1
  Er  Er1  1  0.337147  0.837147  0.500000  1
  Er  Er2  1  0.168373  0.321270  0.500000  1
  Er  Er3  1  0.821270  0.668373  0.500000  1
  Cd  Cd4  1  0.998373  0.002243  0.000000  1
  Cd  Cd5  1  0.502243  0.498373  0.000000  1
  Pd  Pd6  1  0.871016  0.371016  0.000000  1
  Pd  Pd7  1  0.629479  0.873811  0.000000  1
  Pd  Pd8  1  0.373811  0.129479  0.000000  1
  Au  Au9  1  0.127032  0.627032  0.000000  1
