# generated using pymatgen
data_YbTm3Al5Tc3
_symmetry_space_group_name_H-M   'P 1'
_cell_length_a   5.50415746
_cell_length_b   5.53963807
_cell_length_c   8.68569687
_cell_angle_alpha   89.99999954
_cell_angle_beta   89.95601748
_cell_angle_gamma   120.21348509
_symmetry_Int_Tables_number   1
_chemical_formula_structural   YbTm3Al5Tc3
_chemical_formula_sum   'Yb1 Tm3 Al5 Tc3'
_cell_volume   228.85957246
_cell_formula_units_Z   1
loop_
 _symmetry_equiv_pos_site_id
 _symmetry_equiv_pos_as_xyz
  1  'x, y, z'
loop_
 _atom_site_type_symbol
 _atom_site_label
 _atom_site_symmetry_multiplicity
 _atom_site_fract_x
 _atom_site_fract_y
 _atom_site_fract_z
 _atom_site_occupancy
  Yb  Yb0  1  0.335111  0.667556  0.442201  1
  Tm  Tm1  1  0.667097  0.333549  0.553154  1
  Tm  Tm2  1  0.663865  0.331933  0.945731  1
  Tm  Tm3  1  0.336614  0.668308  0.056110  1
  Al  Al4  1  0.836289  0.161821  0.248570  1
  Al  Al5  1  0.836289  0.674468  0.248570  1
  Al  Al6  1  0.322004  0.161002  0.247060  1
  Al  Al7  1  0.187554  0.846184  0.751754  1
  Al  Al8  1  0.187554  0.341370  0.751754  1
  Tc  Tc9  1  0.972592  0.986295  0.512967  1
  Tc  Tc10  1  0.976428  0.988213  0.989760  1
  Tc  Tc11  1  0.678603  0.839302  0.752368  1
