# generated using pymatgen
data_Ce3Cu3(SnSb)2
_symmetry_space_group_name_H-M   'P 1'
_cell_length_a   8.38970104
_cell_length_b   8.38970168
_cell_length_c   8.38970100
_cell_angle_alpha   109.47121900
_cell_angle_beta   109.47122054
_cell_angle_gamma   109.47121918
_symmetry_Int_Tables_number   1
_chemical_formula_structural   Ce3Cu3(SnSb)2
_chemical_formula_sum   'Ce6 Cu6 Sn4 Sb4'
_cell_volume   454.58762955
_cell_formula_units_Z   2
loop_
 _symmetry_equiv_pos_site_id
 _symmetry_equiv_pos_as_xyz
  1  'x, y, z'
loop_
 _atom_site_type_symbol
 _atom_site_label
 _atom_site_symmetry_multiplicity
 _atom_site_fract_x
 _atom_site_fract_y
 _atom_site_fract_z
 _atom_site_occupancy
  Ce  Ce0  1  0.873696  0.250000  0.123696  1
  Ce  Ce1  1  0.626304  0.750000  0.376304  1
  Ce  Ce2  1  0.250000  0.123696  0.873696  1
  Ce  Ce3  1  0.750000  0.376304  0.626304  1
  Ce  Ce4  1  0.123696  0.873696  0.250000  1
  Ce  Ce5  1  0.376304  0.626304  0.750000  1
  Cu  Cu6  1  0.375266  0.250000  0.625266  1
  Cu  Cu7  1  0.124734  0.750000  0.874734  1
  Cu  Cu8  1  0.250000  0.625266  0.375266  1
  Cu  Cu9  1  0.750000  0.874734  0.124734  1
  Cu  Cu10  1  0.625266  0.375266  0.250000  1
  Cu  Cu11  1  0.874734  0.124734  0.750000  1
  Sn  Sn12  1  0.664858  0.500000  0.000000  1
  Sn  Sn13  1  0.500000  0.000000  0.664858  1
  Sn  Sn14  1  0.000000  0.664858  0.500000  1
  Sn  Sn15  1  0.835142  0.835142  0.835142  1
  Sb  Sb16  1  0.500000  0.000000  0.161549  1
  Sb  Sb17  1  0.161549  0.500000  0.000000  1
  Sb  Sb18  1  0.000000  0.161549  0.500000  1
  Sb  Sb19  1  0.338451  0.338451  0.338451  1
