# generated using pymatgen
data_Tb3Ho3Th2(MgRh)2
_symmetry_space_group_name_H-M   'P 1'
_cell_length_a   9.78496365
_cell_length_b   9.78496353
_cell_length_c   9.78496300
_cell_angle_alpha   59.99999840
_cell_angle_beta   59.99999883
_cell_angle_gamma   59.99999684
_symmetry_Int_Tables_number   1
_chemical_formula_structural   Tb3Ho3Th2(MgRh)2
_chemical_formula_sum   'Tb6 Ho6 Th4 Mg4 Rh4'
_cell_volume   662.46448192
_cell_formula_units_Z   2
loop_
 _symmetry_equiv_pos_site_id
 _symmetry_equiv_pos_as_xyz
  1  'x, y, z'
loop_
 _atom_site_type_symbol
 _atom_site_label
 _atom_site_symmetry_multiplicity
 _atom_site_fract_x
 _atom_site_fract_y
 _atom_site_fract_z
 _atom_site_occupancy
  Tb  Tb0  1  0.934265  0.565735  0.565735  1
  Tb  Tb1  1  0.565735  0.934265  0.934265  1
  Tb  Tb2  1  0.565735  0.934265  0.565735  1
  Tb  Tb3  1  0.934265  0.565735  0.934265  1
  Tb  Tb4  1  0.565735  0.565735  0.934265  1
  Tb  Tb5  1  0.934265  0.934265  0.565735  1
  Ho  Ho6  1  0.813278  0.186722  0.186722  1
  Ho  Ho7  1  0.186722  0.813278  0.813278  1
  Ho  Ho8  1  0.186722  0.813278  0.186722  1
  Ho  Ho9  1  0.813278  0.186722  0.813278  1
  Ho  Ho10  1  0.186722  0.186722  0.813278  1
  Ho  Ho11  1  0.813278  0.813278  0.186722  1
  Th  Th12  1  0.348104  0.348104  0.348104  1
  Th  Th13  1  0.348104  0.348104  0.955689  1
  Th  Th14  1  0.348104  0.955689  0.348104  1
  Th  Th15  1  0.955689  0.348104  0.348104  1
  Mg  Mg16  1  0.580504  0.580504  0.580504  1
  Mg  Mg17  1  0.580504  0.580504  0.258489  1
  Mg  Mg18  1  0.580504  0.258489  0.580504  1
  Mg  Mg19  1  0.258489  0.580504  0.580504  1
  Rh  Rh20  1  0.143830  0.143830  0.143830  1
  Rh  Rh21  1  0.143830  0.143830  0.568507  1
  Rh  Rh22  1  0.143830  0.568507  0.143830  1
  Rh  Rh23  1  0.568507  0.143830  0.143830  1
