# generated using pymatgen
data_TaBe2B2W3
_symmetry_space_group_name_H-M   'P 1'
_cell_length_a   3.21355700
_cell_length_b   3.22767300
_cell_length_c   8.65570000
_cell_angle_alpha   90.00000000
_cell_angle_beta   90.00000000
_cell_angle_gamma   90.00000000
_symmetry_Int_Tables_number   1
_chemical_formula_structural   TaBe2B2W3
_chemical_formula_sum   'Ta1 Be2 B2 W3'
_cell_volume   89.77961373
_cell_formula_units_Z   1
loop_
 _symmetry_equiv_pos_site_id
 _symmetry_equiv_pos_as_xyz
  1  'x, y, z'
loop_
 _atom_site_type_symbol
 _atom_site_label
 _atom_site_symmetry_multiplicity
 _atom_site_fract_x
 _atom_site_fract_y
 _atom_site_fract_z
 _atom_site_occupancy
  Ta  Ta0  1  0.000000  0.000000  0.147737  1
  Be  Be1  1  0.000000  0.000000  0.437533  1
  Be  Be2  1  0.000000  0.500000  0.933286  1
  B  B3  1  0.500000  0.500000  0.063083  1
  B  B4  1  0.500000  0.000000  0.566435  1
  W  W5  1  0.000000  0.500000  0.648699  1
  W  W6  1  0.500000  0.500000  0.354364  1
  W  W7  1  0.500000  0.000000  0.848864  1
