# generated using pymatgen
data_Tm10In8Co3Ni
_symmetry_space_group_name_H-M   'P 1'
_cell_length_a   3.52238800
_cell_length_b   7.90819044
_cell_length_c   17.78272423
_cell_angle_alpha   89.93685327
_cell_angle_beta   90.00000000
_cell_angle_gamma   90.00000000
_symmetry_Int_Tables_number   1
_chemical_formula_structural   Tm10In8Co3Ni
_chemical_formula_sum   'Tm10 In8 Co3 Ni1'
_cell_volume   495.35019945
_cell_formula_units_Z   1
loop_
 _symmetry_equiv_pos_site_id
 _symmetry_equiv_pos_as_xyz
  1  'x, y, z'
loop_
 _atom_site_type_symbol
 _atom_site_label
 _atom_site_symmetry_multiplicity
 _atom_site_fract_x
 _atom_site_fract_y
 _atom_site_fract_z
 _atom_site_occupancy
  Tm  Tm0  1  0.000000  0.113510  0.411062  1
  Tm  Tm1  1  0.000000  0.885161  0.591622  1
  Tm  Tm2  1  0.000000  0.384538  0.908081  1
  Tm  Tm3  1  0.000000  0.616044  0.087154  1
  Tm  Tm4  1  0.000000  0.237211  0.223253  1
  Tm  Tm5  1  0.000000  0.754674  0.777648  1
  Tm  Tm6  1  0.000000  0.253850  0.721933  1
  Tm  Tm7  1  0.000000  0.754859  0.279570  1
  Tm  Tm8  1  0.000000  0.999656  0.998696  1
  Tm  Tm9  1  0.000000  0.500267  0.501458  1
  In  In10  1  0.500000  0.425713  0.350665  1
  In  In11  1  0.500000  0.570503  0.652331  1
  In  In12  1  0.500000  0.071429  0.847492  1
  In  In13  1  0.500000  0.928709  0.150427  1
  In  In14  1  0.500000  0.293991  0.066295  1
  In  In15  1  0.500000  0.704705  0.929243  1
  In  In16  1  0.500000  0.204643  0.569090  1
  In  In17  1  0.500000  0.794825  0.433253  1
  Co  Co18  1  0.500000  0.022103  0.304915  1
  Co  Co19  1  0.500000  0.980292  0.696343  1
  Co  Co20  1  0.500000  0.479393  0.803383  1
  Ni  Ni21  1  0.500000  0.523925  0.196088  1
