# generated using pymatgen
data_Yb10Sb6SBr
_symmetry_space_group_name_H-M   'P 1'
_cell_length_a   9.07541400
_cell_length_b   9.07541394
_cell_length_c   7.04557500
_cell_angle_alpha   90.00000000
_cell_angle_beta   90.00000000
_cell_angle_gamma   120.00000023
_symmetry_Int_Tables_number   1
_chemical_formula_structural   Yb10Sb6SBr
_chemical_formula_sum   'Yb10 Sb6 S1 Br1'
_cell_volume   502.55079151
_cell_formula_units_Z   1
loop_
 _symmetry_equiv_pos_site_id
 _symmetry_equiv_pos_as_xyz
  1  'x, y, z'
loop_
 _atom_site_type_symbol
 _atom_site_label
 _atom_site_symmetry_multiplicity
 _atom_site_fract_x
 _atom_site_fract_y
 _atom_site_fract_z
 _atom_site_occupancy
  Yb  Yb0  1  0.248615  0.000000  0.229671  1
  Yb  Yb1  1  0.751385  0.000000  0.770329  1
  Yb  Yb2  1  0.000000  0.248615  0.229671  1
  Yb  Yb3  1  0.000000  0.751385  0.770329  1
  Yb  Yb4  1  0.751385  0.751385  0.229671  1
  Yb  Yb5  1  0.248615  0.248615  0.770329  1
  Yb  Yb6  1  0.333333  0.666667  0.000000  1
  Yb  Yb7  1  0.666667  0.333333  0.000000  1
  Yb  Yb8  1  0.666667  0.333333  0.500000  1
  Yb  Yb9  1  0.333333  0.666667  0.500000  1
  Sb  Sb10  1  0.599310  0.000000  0.250010  1
  Sb  Sb11  1  0.400690  0.000000  0.749990  1
  Sb  Sb12  1  0.000000  0.599310  0.250010  1
  Sb  Sb13  1  0.000000  0.400690  0.749990  1
  Sb  Sb14  1  0.400690  0.400690  0.250010  1
  Sb  Sb15  1  0.599310  0.599310  0.749990  1
  S  S16  1  0.000000  0.000000  0.000000  1
  Br  Br17  1  0.000000  0.000000  0.500000  1
