# generated using pymatgen
data_Y6Er10CdHg3Ir4
_symmetry_space_group_name_H-M   'P 1'
_cell_length_a   9.57350333
_cell_length_b   9.56604997
_cell_length_c   9.56605100
_cell_angle_alpha   59.99999990
_cell_angle_beta   60.02575046
_cell_angle_gamma   60.02574776
_symmetry_Int_Tables_number   1
_chemical_formula_structural   Y6Er10CdHg3Ir4
_chemical_formula_sum   'Y6 Er10 Cd1 Hg3 Ir4'
_cell_volume   619.71234589
_cell_formula_units_Z   1
loop_
 _symmetry_equiv_pos_site_id
 _symmetry_equiv_pos_as_xyz
  1  'x, y, z'
loop_
 _atom_site_type_symbol
 _atom_site_label
 _atom_site_symmetry_multiplicity
 _atom_site_fract_x
 _atom_site_fract_y
 _atom_site_fract_z
 _atom_site_occupancy
  Y  Y0  1  0.938038  0.561539  0.561539  1
  Y  Y1  1  0.561084  0.938561  0.938561  1
  Y  Y2  1  0.561084  0.938561  0.561794  1
  Y  Y3  1  0.938038  0.561539  0.938884  1
  Y  Y4  1  0.561084  0.561794  0.938561  1
  Y  Y5  1  0.938038  0.938884  0.561539  1
  Er  Er6  1  0.350263  0.349761  0.349761  1
  Er  Er7  1  0.350263  0.349761  0.950215  1
  Er  Er8  1  0.350263  0.950215  0.349761  1
  Er  Er9  1  0.946182  0.351273  0.351273  1
  Er  Er10  1  0.810932  0.188964  0.188964  1
  Er  Er11  1  0.187839  0.811893  0.811893  1
  Er  Er12  1  0.187839  0.811893  0.188376  1
  Er  Er13  1  0.810932  0.188964  0.811141  1
  Er  Er14  1  0.187839  0.188376  0.811893  1
  Er  Er15  1  0.810932  0.811141  0.188964  1
  Cd  Cd16  1  0.264010  0.578664  0.578664  1
  Hg  Hg17  1  0.582789  0.584098  0.584098  1
  Hg  Hg18  1  0.582789  0.584098  0.249017  1
  Hg  Hg19  1  0.582789  0.249017  0.584098  1
  Ir  Ir20  1  0.141173  0.142776  0.142776  1
  Ir  Ir21  1  0.141173  0.142776  0.573275  1
  Ir  Ir22  1  0.141173  0.573275  0.142776  1
  Ir  Ir23  1  0.573459  0.142180  0.142180  1
