# generated using pymatgen
data_DyHo5Al24Os7Pt
_symmetry_space_group_name_H-M   'P 1'
_cell_length_a   8.81466000
_cell_length_b   8.82380568
_cell_length_c   9.58162308
_cell_angle_alpha   90.21306853
_cell_angle_beta   90.00000000
_cell_angle_gamma   119.96571951
_symmetry_Int_Tables_number   1
_chemical_formula_structural   DyHo5Al24Os7Pt
_chemical_formula_sum   'Dy1 Ho5 Al24 Os7 Pt1'
_cell_volume   645.62022955
_cell_formula_units_Z   1
loop_
 _symmetry_equiv_pos_site_id
 _symmetry_equiv_pos_as_xyz
  1  'x, y, z'
loop_
 _atom_site_type_symbol
 _atom_site_label
 _atom_site_symmetry_multiplicity
 _atom_site_fract_x
 _atom_site_fract_y
 _atom_site_fract_z
 _atom_site_occupancy
  Dy  Dy0  1  0.194277  0.388555  0.251726  1
  Ho  Ho1  1  0.805474  0.610948  0.748224  1
  Ho  Ho2  1  0.613947  0.805380  0.251338  1
  Ho  Ho3  1  0.386121  0.194693  0.748648  1
  Ho  Ho4  1  0.191433  0.805380  0.251338  1
  Ho  Ho5  1  0.808572  0.194693  0.748648  1
  Al  Al6  1  0.331429  0.662859  0.021606  1
  Al  Al7  1  0.668655  0.337310  0.978240  1
  Al  Al8  1  0.666355  0.332710  0.520059  1
  Al  Al9  1  0.333719  0.667437  0.480091  1
  Al  Al10  1  0.163812  0.327626  0.575988  1
  Al  Al11  1  0.836194  0.672387  0.424217  1
  Al  Al12  1  0.673048  0.836897  0.575900  1
  Al  Al13  1  0.836598  0.673195  0.076433  1
  Al  Al14  1  0.327021  0.163048  0.424195  1
  Al  Al15  1  0.163406  0.326812  0.923361  1
  Al  Al16  1  0.163849  0.836897  0.575900  1
  Al  Al17  1  0.325672  0.167601  0.077279  1
  Al  Al18  1  0.836027  0.163048  0.424195  1
  Al  Al19  1  0.674406  0.832326  0.922623  1
  Al  Al20  1  0.841929  0.167601  0.077279  1
  Al  Al21  1  0.157920  0.832326  0.922623  1
  Al  Al22  1  0.562037  0.124073  0.252267  1
  Al  Al23  1  0.437946  0.875892  0.747748  1
  Al  Al24  1  0.876887  0.438700  0.249462  1
  Al  Al25  1  0.122934  0.561356  0.750537  1
  Al  Al26  1  0.561812  0.438700  0.249462  1
  Al  Al27  1  0.438424  0.561356  0.750537  1
  Al  Al28  1  0.999829  0.999656  0.250090  1
  Al  Al29  1  0.000028  0.000057  0.749926  1
  Os  Os30  1  0.999903  0.500072  0.999869  1
  Os  Os31  1  0.500034  0.000068  0.500049  1
  Os  Os32  1  0.500168  0.500072  0.999869  1
  Os  Os33  1  0.999900  0.500087  0.500141  1
  Os  Os34  1  0.500187  0.500087  0.500141  1
  Os  Os35  1  0.000001  0.000003  0.999993  1
  Os  Os36  1  0.000005  0.000009  0.500012  1
  Pt  Pt37  1  0.500042  0.000084  0.999983  1
