# generated using pymatgen
data_Hf18Ti2Re6OsS
_symmetry_space_group_name_H-M   'P 1'
_cell_length_a   8.65793200
_cell_length_b   8.65793195
_cell_length_c   8.50616100
_cell_angle_alpha   90.00000000
_cell_angle_beta   90.00000000
_cell_angle_gamma   120.00000019
_symmetry_Int_Tables_number   1
_chemical_formula_structural   Hf18Ti2Re6OsS
_chemical_formula_sum   'Hf18 Ti2 Re6 Os1 S1'
_cell_volume   552.19512476
_cell_formula_units_Z   1
loop_
 _symmetry_equiv_pos_site_id
 _symmetry_equiv_pos_as_xyz
  1  'x, y, z'
loop_
 _atom_site_type_symbol
 _atom_site_label
 _atom_site_symmetry_multiplicity
 _atom_site_fract_x
 _atom_site_fract_y
 _atom_site_fract_z
 _atom_site_occupancy
  Hf  Hf0  1  0.196859  0.803141  0.445805  1
  Hf  Hf1  1  0.196859  0.393717  0.445805  1
  Hf  Hf2  1  0.606283  0.803141  0.445805  1
  Hf  Hf3  1  0.804535  0.195465  0.551090  1
  Hf  Hf4  1  0.804535  0.609069  0.551090  1
  Hf  Hf5  1  0.390931  0.195465  0.551090  1
  Hf  Hf6  1  0.804535  0.195465  0.948910  1
  Hf  Hf7  1  0.804535  0.609069  0.948910  1
  Hf  Hf8  1  0.390931  0.195465  0.948910  1
  Hf  Hf9  1  0.196859  0.803141  0.054195  1
  Hf  Hf10  1  0.196859  0.393717  0.054195  1
  Hf  Hf11  1  0.606283  0.803141  0.054195  1
  Hf  Hf12  1  0.541712  0.458288  0.250000  1
  Hf  Hf13  1  0.541712  0.083424  0.250000  1
  Hf  Hf14  1  0.916576  0.458288  0.250000  1
  Hf  Hf15  1  0.455289  0.544711  0.750000  1
  Hf  Hf16  1  0.455289  0.910577  0.750000  1
  Hf  Hf17  1  0.089423  0.544711  0.750000  1
  Ti  Ti18  1  0.000000  0.000000  0.498716  1
  Ti  Ti19  1  0.000000  0.000000  0.001284  1
  Re  Re20  1  0.886170  0.113830  0.250000  1
  Re  Re21  1  0.886170  0.772340  0.250000  1
  Re  Re22  1  0.227660  0.113830  0.250000  1
  Re  Re23  1  0.112499  0.887501  0.750000  1
  Re  Re24  1  0.112499  0.224997  0.750000  1
  Re  Re25  1  0.775003  0.887501  0.750000  1
  Os  Os26  1  0.333333  0.666667  0.250000  1
  S  S27  1  0.666667  0.333333  0.750000  1
