# generated using pymatgen
data_La4Er6Sn7Hg
_symmetry_space_group_name_H-M   'P 1'
_cell_length_a   8.01110000
_cell_length_b   8.43824700
_cell_length_c   15.68104700
_cell_angle_alpha   90.00000000
_cell_angle_beta   90.00000000
_cell_angle_gamma   90.00000000
_symmetry_Int_Tables_number   1
_chemical_formula_structural   La4Er6Sn7Hg
_chemical_formula_sum   'La8 Er12 Sn14 Hg2'
_cell_volume   1060.03314052
_cell_formula_units_Z   2
loop_
 _symmetry_equiv_pos_site_id
 _symmetry_equiv_pos_as_xyz
  1  'x, y, z'
loop_
 _atom_site_type_symbol
 _atom_site_label
 _atom_site_symmetry_multiplicity
 _atom_site_fract_x
 _atom_site_fract_y
 _atom_site_fract_z
 _atom_site_occupancy
  La  La0  1  0.500074  0.315751  0.907211  1
  La  La1  1  0.000074  0.184249  0.592789  1
  La  La2  1  0.498192  0.678676  0.405381  1
  La  La3  1  0.998192  0.821324  0.094619  1
  La  La4  1  0.498192  0.678676  0.094619  1
  La  La5  1  0.998192  0.821324  0.405381  1
  La  La6  1  0.500074  0.315751  0.592789  1
  La  La7  1  0.000074  0.184249  0.907211  1
  Er  Er8  1  0.334541  0.833311  0.873167  1
  Er  Er9  1  0.834541  0.666689  0.626833  1
  Er  Er10  1  0.664616  0.164796  0.373894  1
  Er  Er11  1  0.164616  0.335204  0.126106  1
  Er  Er12  1  0.664616  0.164796  0.126106  1
  Er  Er13  1  0.164616  0.335204  0.373894  1
  Er  Er14  1  0.334541  0.833311  0.626833  1
  Er  Er15  1  0.834541  0.666689  0.873167  1
  Er  Er16  1  0.177728  0.498130  0.750000  1
  Er  Er17  1  0.677728  0.001870  0.750000  1
  Er  Er18  1  0.829321  0.501563  0.250000  1
  Er  Er19  1  0.329321  0.998437  0.250000  1
  Sn  Sn20  1  0.323357  0.039622  0.040928  1
  Sn  Sn21  1  0.823357  0.460378  0.459072  1
  Sn  Sn22  1  0.680208  0.960248  0.542440  1
  Sn  Sn23  1  0.180208  0.539752  0.957560  1
  Sn  Sn24  1  0.680208  0.960248  0.957560  1
  Sn  Sn25  1  0.180208  0.539752  0.542440  1
  Sn  Sn26  1  0.323357  0.039622  0.459072  1
  Sn  Sn27  1  0.823357  0.460378  0.040928  1
  Sn  Sn28  1  0.468859  0.376622  0.250000  1
  Sn  Sn29  1  0.968859  0.123378  0.250000  1
  Sn  Sn30  1  0.296155  0.134282  0.750000  1
  Sn  Sn31  1  0.796155  0.365718  0.750000  1
  Sn  Sn32  1  0.693088  0.855190  0.250000  1
  Sn  Sn33  1  0.193088  0.644810  0.250000  1
  Hg  Hg34  1  0.532877  0.623282  0.750000  1
  Hg  Hg35  1  0.032877  0.876718  0.750000  1
