# generated using pymatgen
data_Tb4ErLu15(CoSb2)4
_symmetry_space_group_name_H-M   'P 1'
_cell_length_a   7.73668149
_cell_length_b   8.75623800
_cell_length_c   11.99701632
_cell_angle_alpha   90.00000000
_cell_angle_beta   90.07114874
_cell_angle_gamma   90.00000000
_symmetry_Int_Tables_number   1
_chemical_formula_structural   Tb4ErLu15(CoSb2)4
_chemical_formula_sum   'Tb4 Er1 Lu15 Co4 Sb8'
_cell_volume   812.72793939
_cell_formula_units_Z   1
loop_
 _symmetry_equiv_pos_site_id
 _symmetry_equiv_pos_as_xyz
  1  'x, y, z'
loop_
 _atom_site_type_symbol
 _atom_site_label
 _atom_site_symmetry_multiplicity
 _atom_site_fract_x
 _atom_site_fract_y
 _atom_site_fract_z
 _atom_site_occupancy
  Tb  Tb0  1  0.623515  0.750000  0.307164  1
  Tb  Tb1  1  0.122928  0.250000  0.192689  1
  Tb  Tb2  1  0.377031  0.250000  0.692812  1
  Tb  Tb3  1  0.877272  0.750000  0.807359  1
  Er  Er4  1  0.155620  0.750000  0.205285  1
  Lu  Lu5  1  0.655326  0.250000  0.296170  1
  Lu  Lu6  1  0.844464  0.250000  0.795922  1
  Lu  Lu7  1  0.344823  0.750000  0.703907  1
  Lu  Lu8  1  0.446429  0.750000  0.997036  1
  Lu  Lu9  1  0.945356  0.250000  0.502706  1
  Lu  Lu10  1  0.554867  0.250000  0.002351  1
  Lu  Lu11  1  0.054532  0.750000  0.497906  1
  Lu  Lu12  1  0.823688  0.963154  0.065108  1
  Lu  Lu13  1  0.324310  0.037723  0.434665  1
  Lu  Lu14  1  0.175695  0.462217  0.934259  1
  Lu  Lu15  1  0.675725  0.537502  0.565507  1
  Lu  Lu16  1  0.175695  0.037783  0.934259  1
  Lu  Lu17  1  0.675725  0.962498  0.565507  1
  Lu  Lu18  1  0.823688  0.536846  0.065108  1
  Lu  Lu19  1  0.324310  0.462277  0.434665  1
  Co  Co20  1  0.431202  0.750000  0.491534  1
  Co  Co21  1  0.931308  0.250000  0.008280  1
  Co  Co22  1  0.568449  0.250000  0.508357  1
  Co  Co23  1  0.068297  0.750000  0.990967  1
  Sb  Sb24  1  0.930291  0.992393  0.329885  1
  Sb  Sb25  1  0.432138  0.009193  0.170310  1
  Sb  Sb26  1  0.068719  0.491462  0.670685  1
  Sb  Sb27  1  0.568723  0.508469  0.829359  1
  Sb  Sb28  1  0.068719  0.008538  0.670685  1
  Sb  Sb29  1  0.568723  0.991531  0.829359  1
  Sb  Sb30  1  0.930291  0.507607  0.329885  1
  Sb  Sb31  1  0.432138  0.490807  0.170310  1
