# generated using pymatgen
data_Sm3Mg3SiGeAu
_symmetry_space_group_name_H-M   'P 1'
_cell_length_a   7.36281300
_cell_length_b   7.36281266
_cell_length_c   4.39597900
_cell_angle_alpha   90.00000000
_cell_angle_beta   90.00000000
_cell_angle_gamma   119.99999702
_symmetry_Int_Tables_number   1
_chemical_formula_structural   Sm3Mg3SiGeAu
_chemical_formula_sum   'Sm3 Mg3 Si1 Ge1 Au1'
_cell_volume   206.38293047
_cell_formula_units_Z   1
loop_
 _symmetry_equiv_pos_site_id
 _symmetry_equiv_pos_as_xyz
  1  'x, y, z'
loop_
 _atom_site_type_symbol
 _atom_site_label
 _atom_site_symmetry_multiplicity
 _atom_site_fract_x
 _atom_site_fract_y
 _atom_site_fract_z
 _atom_site_occupancy
  Sm  Sm0  1  0.583845  0.001889  0.000000  1
  Sm  Sm1  1  0.998111  0.581956  0.000000  1
  Sm  Sm2  1  0.418044  0.416155  0.000000  1
  Mg  Mg3  1  0.244904  0.001195  0.500000  1
  Mg  Mg4  1  0.998805  0.243709  0.500000  1
  Mg  Mg5  1  0.756291  0.755096  0.500000  1
  Si  Si6  1  0.666667  0.333333  0.500000  1
  Ge  Ge7  1  0.333333  0.666667  0.500000  1
  Au  Au8  1  0.000000  0.000000  0.000000  1
