# generated using pymatgen
data_LiTm2Cu3O8
_symmetry_space_group_name_H-M   'P 1'
_cell_length_a   6.33890652
_cell_length_b   6.20545067
_cell_length_c   6.24815775
_cell_angle_alpha   125.82360957
_cell_angle_beta   127.14933307
_cell_angle_gamma   81.40468992
_symmetry_Int_Tables_number   1
_chemical_formula_structural   LiTm2Cu3O8
_chemical_formula_sum   'Li1 Tm2 Cu3 O8'
_cell_volume   150.71886821
_cell_formula_units_Z   1
loop_
 _symmetry_equiv_pos_site_id
 _symmetry_equiv_pos_as_xyz
  1  'x, y, z'
loop_
 _atom_site_type_symbol
 _atom_site_label
 _atom_site_symmetry_multiplicity
 _atom_site_fract_x
 _atom_site_fract_y
 _atom_site_fract_z
 _atom_site_occupancy
  Li  Li0  1  0.375000  0.625000  0.750000  1
  Tm  Tm1  1  0.738117  0.259168  0.499945  1
  Tm  Tm2  1  0.011883  0.990832  0.000055  1
  Cu  Cu3  1  0.375000  0.625000  0.250000  1
  Cu  Cu4  1  0.875000  0.625000  0.250000  1
  Cu  Cu5  1  0.375000  0.125000  0.750000  1
  O  O6  1  0.140659  0.598481  0.861262  1
  O  O7  1  0.749060  0.296467  0.145243  1
  O  O8  1  0.334267  0.008205  0.940546  1
  O  O9  1  0.695223  0.832877  0.416295  1
  O  O10  1  0.054777  0.417123  0.083705  1
  O  O11  1  0.415733  0.241795  0.559454  1
  O  O12  1  0.000940  0.953533  0.354757  1
  O  O13  1  0.609341  0.651519  0.638738  1
