# generated using pymatgen
data_Tb2Th(ZnPt)4
_symmetry_space_group_name_H-M   'P 1'
_cell_length_a   8.27973951
_cell_length_b   8.27973957
_cell_length_c   8.27973956
_cell_angle_alpha   151.62052895
_cell_angle_beta   126.78983281
_cell_angle_gamma   61.39944333
_symmetry_Int_Tables_number   1
_chemical_formula_structural   Tb2Th(ZnPt)4
_chemical_formula_sum   'Tb2 Th1 Zn4 Pt4'
_cell_volume   214.31841837
_cell_formula_units_Z   1
loop_
 _symmetry_equiv_pos_site_id
 _symmetry_equiv_pos_as_xyz
  1  'x, y, z'
loop_
 _atom_site_type_symbol
 _atom_site_label
 _atom_site_symmetry_multiplicity
 _atom_site_fract_x
 _atom_site_fract_y
 _atom_site_fract_z
 _atom_site_occupancy
  Tb  Tb0  1  0.873852  0.873852  0.000000  1
  Tb  Tb1  1  0.126148  0.126148  0.000000  1
  Th  Th2  1  0.500000  0.000000  0.500000  1
  Zn  Zn3  1  0.477336  0.675049  0.802287  1
  Zn  Zn4  1  0.872762  0.675049  0.197713  1
  Zn  Zn5  1  0.127238  0.324951  0.802287  1
  Zn  Zn6  1  0.522664  0.324951  0.197713  1
  Pt  Pt7  1  0.280457  0.780457  0.500000  1
  Pt  Pt8  1  0.719543  0.219543  0.500000  1
  Pt  Pt9  1  0.799885  0.500000  0.299885  1
  Pt  Pt10  1  0.200115  0.500000  0.700115  1
