# generated using pymatgen
data_Tb11Pr8HoPb16
_symmetry_space_group_name_H-M   'P 1'
_cell_length_a   8.34450914
_cell_length_b   8.41236714
_cell_length_c   15.93709400
_cell_angle_alpha   90.00000000
_cell_angle_beta   90.00000000
_cell_angle_gamma   90.02093235
_symmetry_Int_Tables_number   1
_chemical_formula_structural   Tb11Pr8HoPb16
_chemical_formula_sum   'Tb11 Pr8 Ho1 Pb16'
_cell_volume   1118.73729993
_cell_formula_units_Z   1
loop_
 _symmetry_equiv_pos_site_id
 _symmetry_equiv_pos_as_xyz
  1  'x, y, z'
loop_
 _atom_site_type_symbol
 _atom_site_label
 _atom_site_symmetry_multiplicity
 _atom_site_fract_x
 _atom_site_fract_y
 _atom_site_fract_z
 _atom_site_occupancy
  Tb  Tb0  1  0.633081  0.158361  0.622087  1
  Tb  Tb1  1  0.133105  0.341688  0.877859  1
  Tb  Tb2  1  0.367111  0.841828  0.122187  1
  Tb  Tb3  1  0.866724  0.658425  0.377824  1
  Tb  Tb4  1  0.367111  0.841828  0.377813  1
  Tb  Tb5  1  0.866724  0.658425  0.122176  1
  Tb  Tb6  1  0.633081  0.158361  0.877913  1
  Tb  Tb7  1  0.133105  0.341688  0.622141  1
  Tb  Tb8  1  0.798789  0.495252  0.750000  1
  Tb  Tb9  1  0.298843  0.004701  0.750000  1
  Tb  Tb10  1  0.201183  0.504638  0.250000  1
  Pr  Pr11  1  0.476140  0.677770  0.597546  1
  Pr  Pr12  1  0.976202  0.822226  0.902525  1
  Pr  Pr13  1  0.523887  0.322070  0.097550  1
  Pr  Pr14  1  0.023642  0.177664  0.402402  1
  Pr  Pr15  1  0.523887  0.322070  0.402450  1
  Pr  Pr16  1  0.023642  0.177664  0.097598  1
  Pr  Pr17  1  0.476140  0.677770  0.902454  1
  Pr  Pr18  1  0.976202  0.822226  0.597475  1
  Ho  Ho19  1  0.701414  0.995080  0.250000  1
  Pb  Pb20  1  0.706150  0.959781  0.456371  1
  Pb  Pb21  1  0.206057  0.540297  0.043394  1
  Pb  Pb22  1  0.293939  0.040300  0.956640  1
  Pb  Pb23  1  0.793909  0.459746  0.543348  1
  Pb  Pb24  1  0.293939  0.040300  0.543360  1
  Pb  Pb25  1  0.793909  0.459746  0.956652  1
  Pb  Pb26  1  0.706150  0.959781  0.043629  1
  Pb  Pb27  1  0.206057  0.540297  0.456606  1
  Pb  Pb28  1  0.437068  0.371059  0.750000  1
  Pb  Pb29  1  0.937085  0.128833  0.750000  1
  Pb  Pb30  1  0.563131  0.629323  0.250000  1
  Pb  Pb31  1  0.062412  0.871327  0.250000  1
  Pb  Pb32  1  0.663991  0.850546  0.750000  1
  Pb  Pb33  1  0.164027  0.649569  0.750000  1
  Pb  Pb34  1  0.336163  0.149469  0.250000  1
  Pb  Pb35  1  0.836001  0.349889  0.250000  1
