# generated using pymatgen
data_Ba6Lu2MnNiO12
_symmetry_space_group_name_H-M   'P 1'
_cell_length_a   7.11699303
_cell_length_b   7.11699336
_cell_length_c   7.11699303
_cell_angle_alpha   93.88717339
_cell_angle_beta   93.88717934
_cell_angle_gamma   93.88717284
_symmetry_Int_Tables_number   1
_chemical_formula_structural   Ba6Lu2MnNiO12
_chemical_formula_sum   'Ba6 Lu2 Mn1 Ni1 O12'
_cell_volume   357.88022822
_cell_formula_units_Z   1
loop_
 _symmetry_equiv_pos_site_id
 _symmetry_equiv_pos_as_xyz
  1  'x, y, z'
loop_
 _atom_site_type_symbol
 _atom_site_label
 _atom_site_symmetry_multiplicity
 _atom_site_fract_x
 _atom_site_fract_y
 _atom_site_fract_z
 _atom_site_occupancy
  Ba  Ba0  1  0.377083  0.111837  0.750958  1
  Ba  Ba1  1  0.750958  0.377084  0.111838  1
  Ba  Ba2  1  0.249041  0.622917  0.888163  1
  Ba  Ba3  1  0.622916  0.888162  0.249043  1
  Ba  Ba4  1  0.111838  0.750958  0.377084  1
  Ba  Ba5  1  0.888162  0.249042  0.622917  1
  Lu  Lu6  1  0.755295  0.755296  0.755295  1
  Lu  Lu7  1  0.244706  0.244705  0.244705  1
  Mn  Mn8  1  0.500000  0.500000  0.500000  1
  Ni  Ni9  1  0.000000  0.000000  0.000000  1
  O  O10  1  0.766617  0.587090  0.467968  1
  O  O11  1  0.587091  0.467967  0.766617  1
  O  O12  1  0.467967  0.766617  0.587091  1
  O  O13  1  0.029215  0.896582  0.709403  1
  O  O14  1  0.896581  0.709402  0.029215  1
  O  O15  1  0.709403  0.029215  0.896581  1
  O  O16  1  0.233384  0.412909  0.532033  1
  O  O17  1  0.412909  0.532032  0.233384  1
  O  O18  1  0.532032  0.233384  0.412908  1
  O  O19  1  0.970785  0.103419  0.290598  1
  O  O20  1  0.290598  0.970784  0.103418  1
  O  O21  1  0.103418  0.290597  0.970784  1
