# generated using pymatgen
data_Sc8Nb9Si16MoW2
_symmetry_space_group_name_H-M   'P 1'
_cell_length_a   6.64166811
_cell_length_b   6.87746413
_cell_length_c   13.09239600
_cell_angle_alpha   90.00000000
_cell_angle_beta   90.00000000
_cell_angle_gamma   90.02178207
_symmetry_Int_Tables_number   1
_chemical_formula_structural   Sc8Nb9Si16MoW2
_chemical_formula_sum   'Sc8 Nb9 Si16 Mo1 W2'
_cell_volume   598.03225084
_cell_formula_units_Z   1
loop_
 _symmetry_equiv_pos_site_id
 _symmetry_equiv_pos_as_xyz
  1  'x, y, z'
loop_
 _atom_site_type_symbol
 _atom_site_label
 _atom_site_symmetry_multiplicity
 _atom_site_fract_x
 _atom_site_fract_y
 _atom_site_fract_z
 _atom_site_occupancy
  Sc  Sc0  1  0.500069  0.325447  0.093581  1
  Sc  Sc1  1  0.000396  0.174478  0.406324  1
  Sc  Sc2  1  0.499350  0.674486  0.594061  1
  Sc  Sc3  1  0.998388  0.825841  0.906102  1
  Sc  Sc4  1  0.499350  0.674486  0.905939  1
  Sc  Sc5  1  0.998388  0.825841  0.593898  1
  Sc  Sc6  1  0.500069  0.325447  0.406419  1
  Sc  Sc7  1  0.000396  0.174478  0.093676  1
  Nb  Nb8  1  0.834119  0.330296  0.624980  1
  Nb  Nb9  1  0.333452  0.170565  0.875381  1
  Nb  Nb10  1  0.166482  0.669033  0.125909  1
  Nb  Nb11  1  0.667047  0.830917  0.373692  1
  Nb  Nb12  1  0.166482  0.669033  0.374091  1
  Nb  Nb13  1  0.667047  0.830917  0.126308  1
  Nb  Nb14  1  0.834119  0.330296  0.875020  1
  Nb  Nb15  1  0.333452  0.170565  0.624619  1
  Nb  Nb16  1  0.659332  0.005191  0.750000  1
  Si  Si17  1  0.668969  0.033967  0.539739  1
  Si  Si18  1  0.168807  0.466232  0.958492  1
  Si  Si19  1  0.331308  0.965759  0.042091  1
  Si  Si20  1  0.831133  0.534345  0.458330  1
  Si  Si21  1  0.331308  0.965759  0.457909  1
  Si  Si22  1  0.831133  0.534345  0.041670  1
  Si  Si23  1  0.668969  0.033967  0.960261  1
  Si  Si24  1  0.168807  0.466232  0.541508  1
  Si  Si25  1  0.532129  0.389923  0.750000  1
  Si  Si26  1  0.036633  0.112942  0.750000  1
  Si  Si27  1  0.467781  0.610457  0.250000  1
  Si  Si28  1  0.967764  0.889725  0.250000  1
  Si  Si29  1  0.796412  0.639087  0.750000  1
  Si  Si30  1  0.290873  0.855556  0.750000  1
  Si  Si31  1  0.204317  0.356438  0.250000  1
  Si  Si32  1  0.704517  0.144049  0.250000  1
  Mo  Mo33  1  0.840863  0.504218  0.250000  1
  W  W34  1  0.159125  0.494531  0.750000  1
  W  W35  1  0.341215  0.995154  0.250000  1
