# generated using pymatgen
data_DyHoAl6Ge4Pt
_symmetry_space_group_name_H-M   'P 1'
_cell_length_a   4.21591024
_cell_length_b   4.21591412
_cell_length_c   17.20866433
_cell_angle_alpha   96.65707758
_cell_angle_beta   83.34179335
_cell_angle_gamma   120.20077205
_symmetry_Int_Tables_number   1
_chemical_formula_structural   DyHoAl6Ge4Pt
_chemical_formula_sum   'Dy1 Ho1 Al6 Ge4 Pt1'
_cell_volume   261.97495427
_cell_formula_units_Z   1
loop_
 _symmetry_equiv_pos_site_id
 _symmetry_equiv_pos_as_xyz
  1  'x, y, z'
loop_
 _atom_site_type_symbol
 _atom_site_label
 _atom_site_symmetry_multiplicity
 _atom_site_fract_x
 _atom_site_fract_y
 _atom_site_fract_z
 _atom_site_occupancy
  Dy  Dy0  1  0.433953  0.566074  0.699907  1
  Ho  Ho1  1  0.565692  0.434276  0.300968  1
  Al  Al2  1  0.319404  0.680633  0.041948  1
  Al  Al3  1  0.949166  0.050812  0.147074  1
  Al  Al4  1  0.185727  0.814241  0.445809  1
  Al  Al5  1  0.813447  0.186555  0.556759  1
  Al  Al6  1  0.051425  0.948615  0.851143  1
  Al  Al7  1  0.681513  0.318485  0.955638  1
  Ge  Ge8  1  0.264208  0.735751  0.203358  1
  Ge  Ge9  1  0.865247  0.134711  0.404323  1
  Ge  Ge10  1  0.133848  0.866172  0.598046  1
  Ge  Ge11  1  0.735976  0.264054  0.796116  1
  Pt  Pt12  1  0.000391  0.999622  0.998911  1
