# generated using pymatgen
data_HoEr6Co6Sn22Au
_symmetry_space_group_name_H-M   'P 1'
_cell_length_a   9.63137400
_cell_length_b   9.63137252
_cell_length_c   9.92681200
_cell_angle_alpha   90.00000000
_cell_angle_beta   90.00000000
_cell_angle_gamma   119.99999135
_symmetry_Int_Tables_number   1
_chemical_formula_structural   HoEr6Co6Sn22Au
_chemical_formula_sum   'Ho1 Er6 Co6 Sn22 Au1'
_cell_volume   797.47466462
_cell_formula_units_Z   1
loop_
 _symmetry_equiv_pos_site_id
 _symmetry_equiv_pos_as_xyz
  1  'x, y, z'
loop_
 _atom_site_type_symbol
 _atom_site_label
 _atom_site_symmetry_multiplicity
 _atom_site_fract_x
 _atom_site_fract_y
 _atom_site_fract_z
 _atom_site_occupancy
  Ho  Ho0  1  0.000000  0.000000  0.000000  1
  Er  Er1  1  0.520806  0.479194  0.693198  1
  Er  Er2  1  0.520806  0.041610  0.693198  1
  Er  Er3  1  0.958390  0.479194  0.693198  1
  Er  Er4  1  0.041610  0.520806  0.306802  1
  Er  Er5  1  0.479194  0.958390  0.306802  1
  Er  Er6  1  0.479194  0.520806  0.306802  1
  Co  Co7  1  0.168019  0.831981  0.803004  1
  Co  Co8  1  0.168019  0.336036  0.803004  1
  Co  Co9  1  0.663964  0.831981  0.803004  1
  Co  Co10  1  0.336036  0.168019  0.196996  1
  Co  Co11  1  0.831981  0.663964  0.196996  1
  Co  Co12  1  0.831981  0.168019  0.196996  1
  Sn  Sn13  1  0.666667  0.333333  0.182428  1
  Sn  Sn14  1  0.666667  0.333333  0.879729  1
  Sn  Sn15  1  0.333333  0.666667  0.120271  1
  Sn  Sn16  1  0.346266  0.346266  0.000000  1
  Sn  Sn17  1  0.000000  0.653734  0.000000  1
  Sn  Sn18  1  0.653734  0.000000  0.000000  1
  Sn  Sn19  1  0.653734  0.653734  0.000000  1
  Sn  Sn20  1  0.333333  0.666667  0.817572  1
  Sn  Sn21  1  0.434188  0.217095  0.453328  1
  Sn  Sn22  1  0.217095  0.782905  0.546672  1
  Sn  Sn23  1  0.217095  0.434188  0.546672  1
  Sn  Sn24  1  0.565812  0.782905  0.546672  1
  Sn  Sn25  1  0.114031  0.885969  0.277296  1
  Sn  Sn26  1  0.782905  0.565812  0.453328  1
  Sn  Sn27  1  0.782905  0.217095  0.453328  1
  Sn  Sn28  1  0.346266  0.000000  0.000000  1
  Sn  Sn29  1  0.114031  0.228062  0.277296  1
  Sn  Sn30  1  0.771938  0.885969  0.277296  1
  Sn  Sn31  1  0.228062  0.114031  0.722704  1
  Sn  Sn32  1  0.885969  0.771938  0.722704  1
  Sn  Sn33  1  0.885969  0.114031  0.722704  1
  Sn  Sn34  1  0.000000  0.346266  0.000000  1
  Au  Au35  1  0.000000  0.000000  0.500000  1
