# generated using pymatgen
data_Er6Co17Si4P8Ru
_symmetry_space_group_name_H-M   'P 1'
_cell_length_a   3.69515300
_cell_length_b   10.54267400
_cell_length_c   12.21763000
_cell_angle_alpha   90.00000000
_cell_angle_beta   90.00000000
_cell_angle_gamma   90.00000000
_symmetry_Int_Tables_number   1
_chemical_formula_structural   Er6Co17Si4P8Ru
_chemical_formula_sum   'Er6 Co17 Si4 P8 Ru1'
_cell_volume   475.95968847
_cell_formula_units_Z   1
loop_
 _symmetry_equiv_pos_site_id
 _symmetry_equiv_pos_as_xyz
  1  'x, y, z'
loop_
 _atom_site_type_symbol
 _atom_site_label
 _atom_site_symmetry_multiplicity
 _atom_site_fract_x
 _atom_site_fract_y
 _atom_site_fract_z
 _atom_site_occupancy
  Er  Er0  1  0.750000  0.250000  0.473362  1
  Er  Er1  1  0.250000  0.750000  0.521188  1
  Er  Er2  1  0.250000  0.930186  0.795292  1
  Er  Er3  1  0.250000  0.569814  0.795292  1
  Er  Er4  1  0.750000  0.067764  0.204356  1
  Er  Er5  1  0.750000  0.432236  0.204356  1
  Co  Co6  1  0.750000  0.750000  0.159433  1
  Co  Co7  1  0.250000  0.250000  0.300554  1
  Co  Co8  1  0.750000  0.750000  0.704925  1
  Co  Co9  1  0.750000  0.250000  0.021446  1
  Co  Co10  1  0.250000  0.750000  0.987402  1
  Co  Co11  1  0.250000  0.418705  0.013193  1
  Co  Co12  1  0.250000  0.081295  0.013193  1
  Co  Co13  1  0.750000  0.585422  0.996732  1
  Co  Co14  1  0.750000  0.914578  0.996732  1
  Co  Co15  1  0.250000  0.447287  0.564995  1
  Co  Co16  1  0.250000  0.052713  0.564995  1
  Co  Co17  1  0.750000  0.547188  0.426148  1
  Co  Co18  1  0.750000  0.952812  0.426148  1
  Co  Co19  1  0.250000  0.870611  0.289990  1
  Co  Co20  1  0.250000  0.629389  0.289990  1
  Co  Co21  1  0.750000  0.131766  0.704357  1
  Co  Co22  1  0.750000  0.368234  0.704357  1
  Si  Si23  1  0.750000  0.559162  0.614045  1
  Si  Si24  1  0.750000  0.940838  0.614045  1
  Si  Si25  1  0.750000  0.098310  0.894532  1
  Si  Si26  1  0.750000  0.401690  0.894532  1
  P  P27  1  0.250000  0.250000  0.120772  1
  P  P28  1  0.750000  0.750000  0.884313  1
  P  P29  1  0.250000  0.250000  0.651756  1
  P  P30  1  0.750000  0.750000  0.343154  1
  P  P31  1  0.250000  0.440862  0.382109  1
  P  P32  1  0.250000  0.059138  0.382109  1
  P  P33  1  0.250000  0.901757  0.107966  1
  P  P34  1  0.250000  0.598243  0.107966  1
  Ru  Ru35  1  0.250000  0.250000  0.844270  1
