# generated using pymatgen
data_Ta4Be4ReMo
_symmetry_space_group_name_H-M   'P 1'
_cell_length_a   6.37964500
_cell_length_b   6.37964500
_cell_length_c   3.29625000
_cell_angle_alpha   90.00000000
_cell_angle_beta   90.00000000
_cell_angle_gamma   90.00000000
_symmetry_Int_Tables_number   1
_chemical_formula_structural   Ta4Be4ReMo
_chemical_formula_sum   'Ta4 Be4 Re1 Mo1'
_cell_volume   134.15694756
_cell_formula_units_Z   1
loop_
 _symmetry_equiv_pos_site_id
 _symmetry_equiv_pos_as_xyz
  1  'x, y, z'
loop_
 _atom_site_type_symbol
 _atom_site_label
 _atom_site_symmetry_multiplicity
 _atom_site_fract_x
 _atom_site_fract_y
 _atom_site_fract_z
 _atom_site_occupancy
  Ta  Ta0  1  0.677692  0.180614  0.500000  1
  Ta  Ta1  1  0.322308  0.819386  0.500000  1
  Ta  Ta2  1  0.180614  0.322308  0.500000  1
  Ta  Ta3  1  0.819386  0.677692  0.500000  1
  Be  Be4  1  0.117560  0.615903  0.000000  1
  Be  Be5  1  0.882440  0.384097  0.000000  1
  Be  Be6  1  0.615903  0.882440  0.000000  1
  Be  Be7  1  0.384097  0.117560  0.000000  1
  Re  Re8  1  0.500000  0.500000  0.000000  1
  Mo  Mo9  1  0.000000  0.000000  0.000000  1
