# generated using pymatgen
data_Ho3AgRh2Pb3
_symmetry_space_group_name_H-M   'P 1'
_cell_length_a   7.88770800
_cell_length_b   7.88770829
_cell_length_c   3.81309100
_cell_angle_alpha   90.00000000
_cell_angle_beta   90.00000000
_cell_angle_gamma   119.99998925
_symmetry_Int_Tables_number   1
_chemical_formula_structural   Ho3AgRh2Pb3
_chemical_formula_sum   'Ho3 Ag1 Rh2 Pb3'
_cell_volume   205.45159369
_cell_formula_units_Z   1
loop_
 _symmetry_equiv_pos_site_id
 _symmetry_equiv_pos_as_xyz
  1  'x, y, z'
loop_
 _atom_site_type_symbol
 _atom_site_label
 _atom_site_symmetry_multiplicity
 _atom_site_fract_x
 _atom_site_fract_y
 _atom_site_fract_z
 _atom_site_occupancy
  Ho  Ho0  1  0.972584  0.382350  0.500000  1
  Ho  Ho1  1  0.617650  0.590234  0.500000  1
  Ho  Ho2  1  0.409766  0.027416  0.500000  1
  Ag  Ag3  1  0.333333  0.666667  0.000000  1
  Rh  Rh4  1  0.000000  0.000000  0.500000  1
  Rh  Rh5  1  0.666667  0.333333  0.000000  1
  Pb  Pb6  1  0.260645  0.267983  0.000000  1
  Pb  Pb7  1  0.007337  0.739355  0.000000  1
  Pb  Pb8  1  0.732017  0.992663  0.000000  1
