# generated using pymatgen
data_Dy7YReRu3C8
_symmetry_space_group_name_H-M   'P 1'
_cell_length_a   5.11811900
_cell_length_b   6.50657901
_cell_length_c   9.81118857
_cell_angle_alpha   90.01590303
_cell_angle_beta   90.00000000
_cell_angle_gamma   90.00000000
_symmetry_Int_Tables_number   1
_chemical_formula_structural   Dy7YReRu3C8
_chemical_formula_sum   'Dy7 Y1 Re1 Ru3 C8'
_cell_volume   326.72675070
_cell_formula_units_Z   1
loop_
 _symmetry_equiv_pos_site_id
 _symmetry_equiv_pos_as_xyz
  1  'x, y, z'
loop_
 _atom_site_type_symbol
 _atom_site_label
 _atom_site_symmetry_multiplicity
 _atom_site_fract_x
 _atom_site_fract_y
 _atom_site_fract_z
 _atom_site_occupancy
  Dy  Dy0  1  0.750000  0.527156  0.785605  1
  Dy  Dy1  1  0.250000  0.971780  0.284071  1
  Dy  Dy2  1  0.750000  0.676733  0.445089  1
  Dy  Dy3  1  0.250000  0.822972  0.945199  1
  Dy  Dy4  1  0.750000  0.182426  0.056252  1
  Dy  Dy5  1  0.250000  0.323639  0.555486  1
  Dy  Dy6  1  0.250000  0.470631  0.217451  1
  Y  Y7  1  0.750000  0.028144  0.713506  1
  Re  Re8  1  0.750000  0.721675  0.133737  1
  Ru  Ru9  1  0.250000  0.279883  0.864569  1
  Ru  Ru10  1  0.250000  0.780074  0.635836  1
  Ru  Ru11  1  0.750000  0.221458  0.366622  1
  C  C12  1  0.250000  0.673466  0.448255  1
  C  C13  1  0.250000  0.544604  0.757732  1
  C  C14  1  0.750000  0.456226  0.239753  1
  C  C15  1  0.750000  0.821281  0.946993  1
  C  C16  1  0.250000  0.044355  0.742889  1
  C  C17  1  0.250000  0.174601  0.051930  1
  C  C18  1  0.750000  0.323661  0.552247  1
  C  C19  1  0.750000  0.955236  0.256777  1
