# generated using pymatgen
data_SrBiPO5
_symmetry_space_group_name_H-M   'P 1'
_cell_length_a   5.92438708
_cell_length_b   6.96238681
_cell_length_c   7.08239972
_cell_angle_alpha   106.12294235
_cell_angle_beta   108.84588302
_cell_angle_gamma   102.22223370
_symmetry_Int_Tables_number   1
_chemical_formula_structural   SrBiPO5
_chemical_formula_sum   'Sr2 Bi2 P2 O10'
_cell_volume   250.57855073
_cell_formula_units_Z   2
loop_
 _symmetry_equiv_pos_site_id
 _symmetry_equiv_pos_as_xyz
  1  'x, y, z'
loop_
 _atom_site_type_symbol
 _atom_site_label
 _atom_site_symmetry_multiplicity
 _atom_site_fract_x
 _atom_site_fract_y
 _atom_site_fract_z
 _atom_site_occupancy
  Sr  Sr0  1  0.180473  0.115154  0.832093  1
  Sr  Sr1  1  0.819527  0.884846  0.167907  1
  Bi  Bi2  1  0.617668  0.266045  0.552759  1
  Bi  Bi3  1  0.382332  0.733955  0.447241  1
  P  P4  1  0.192099  0.660565  0.874076  1
  P  P5  1  0.807901  0.339435  0.125924  1
  O  O6  1  0.258651  0.001318  0.468459  1
  O  O7  1  0.928307  0.577530  0.277648  1
  O  O8  1  0.634461  0.323877  0.898566  1
  O  O9  1  0.375561  0.786988  0.798978  1
  O  O10  1  0.365539  0.676123  0.101434  1
  O  O11  1  0.741349  0.998682  0.531541  1
  O  O12  1  0.989068  0.765542  0.882005  1
  O  O13  1  0.071693  0.422470  0.722352  1
  O  O14  1  0.010932  0.234458  0.117995  1
  O  O15  1  0.624439  0.213012  0.201022  1
