# generated using pymatgen
data_Lu2U2Cu3Sb8
_symmetry_space_group_name_H-M   'P 1'
_cell_length_a   10.45148318
_cell_length_b   10.45148382
_cell_length_c   10.45634500
_cell_angle_alpha   145.93974759
_cell_angle_beta   145.93975278
_cell_angle_gamma   48.87767353
_symmetry_Int_Tables_number   1
_chemical_formula_structural   Lu2U2Cu3Sb8
_chemical_formula_sum   'Lu2 U2 Cu3 Sb8'
_cell_volume   356.77249808
_cell_formula_units_Z   1
loop_
 _symmetry_equiv_pos_site_id
 _symmetry_equiv_pos_as_xyz
  1  'x, y, z'
loop_
 _atom_site_type_symbol
 _atom_site_label
 _atom_site_symmetry_multiplicity
 _atom_site_fract_x
 _atom_site_fract_y
 _atom_site_fract_z
 _atom_site_occupancy
  Lu  Lu0  1  0.365545  0.880476  0.000000  1
  Lu  Lu1  1  0.880476  0.365545  0.000000  1
  U  U2  1  0.633290  0.633290  0.507827  1
  U  U3  1  0.125463  0.125463  0.492173  1
  Cu  Cu4  1  0.001513  0.001513  0.000000  1
  Cu  Cu5  1  0.999362  0.499362  0.500000  1
  Cu  Cu6  1  0.499362  0.999362  0.500000  1
  Sb  Sb7  1  0.336596  0.336596  0.519815  1
  Sb  Sb8  1  0.816782  0.816782  0.480185  1
  Sb  Sb9  1  0.662177  0.173645  0.000000  1
  Sb  Sb10  1  0.173645  0.662177  0.000000  1
  Sb  Sb11  1  0.252354  0.252354  0.000000  1
  Sb  Sb12  1  0.750960  0.750960  0.000000  1
  Sb  Sb13  1  0.751237  0.251237  0.500000  1
  Sb  Sb14  1  0.251237  0.751237  0.500000  1
