# generated using pymatgen
data_Li12La11Sm(WO6)8
_symmetry_space_group_name_H-M   'P 1'
_cell_length_a   10.97702394
_cell_length_b   10.96651549
_cell_length_c   10.96652000
_cell_angle_alpha   109.38688283
_cell_angle_beta   109.49417005
_cell_angle_gamma   109.49400970
_symmetry_Int_Tables_number   1
_chemical_formula_structural   Li12La11Sm(WO6)8
_chemical_formula_sum   'Li12 La11 Sm1 W8 O48'
_cell_volume   1016.73211904
_cell_formula_units_Z   1
loop_
 _symmetry_equiv_pos_site_id
 _symmetry_equiv_pos_as_xyz
  1  'x, y, z'
loop_
 _atom_site_type_symbol
 _atom_site_label
 _atom_site_symmetry_multiplicity
 _atom_site_fract_x
 _atom_site_fract_y
 _atom_site_fract_z
 _atom_site_occupancy
  Li  Li0  1  0.250002  0.875145  0.125155  1
  Li  Li1  1  0.375546  0.250001  0.124907  1
  Li  Li2  1  0.124455  0.375084  0.249997  1
  Li  Li3  1  0.625118  0.875184  0.249913  1
  Li  Li4  1  0.124458  0.749357  0.374459  1
  Li  Li5  1  0.750004  0.623957  0.373959  1
  Li  Li6  1  0.249990  0.374832  0.624831  1
  Li  Li7  1  0.874866  0.250081  0.624799  1
  Li  Li8  1  0.375557  0.125556  0.750645  1
  Li  Li9  1  0.874867  0.624798  0.750062  1
  Li  Li10  1  0.625138  0.749937  0.875212  1
  Li  Li11  1  0.749998  0.126058  0.876053  1
  La  La12  1  0.874627  0.748926  0.125463  1
  La  La13  1  0.375182  0.624998  0.250223  1
  La  La14  1  0.874621  0.125697  0.249168  1
  La  La15  1  0.250005  0.124999  0.375001  1
  La  La16  1  0.625382  0.250839  0.374310  1
  La  La17  1  0.749991  0.875002  0.625003  1
  La  La18  1  0.375174  0.750175  0.624952  1
  La  La19  1  0.124823  0.875036  0.749819  1
  La  La20  1  0.625372  0.374537  0.751064  1
  La  La21  1  0.249994  0.625000  0.874994  1
  La  La22  1  0.124816  0.249786  0.875007  1
  Sm  Sm23  1  0.750003  0.374998  0.125000  1
  W  W24  1  0.999874  0.999894  0.000116  1
  W  W25  1  0.500700  0.002049  0.000032  1
  W  W26  1  0.500692  0.498652  0.000659  1
  W  W27  1  0.999292  0.499328  0.001342  1
  W  W28  1  0.999880  0.999987  0.499761  1
  W  W29  1  0.500128  0.000242  0.500018  1
  W  W30  1  0.999302  0.499965  0.497956  1
  W  W31  1  0.500123  0.499878  0.500106  1
  O  O32  1  0.827715  0.908015  0.021669  1
  O  O33  1  0.694943  0.119278  0.023783  1
  O  O34  1  0.192792  0.671794  0.080248  1
  O  O35  1  0.385992  0.407585  0.080219  1
  O  O36  1  0.479815  0.671551  0.092677  1
  O  O37  1  0.114012  0.419782  0.092419  1
  O  O38  1  0.524531  0.197415  0.114136  1
  O  O39  1  0.091929  0.919762  0.113833  1
  O  O40  1  0.975468  0.589597  0.172883  1
  O  O41  1  0.694932  0.575664  0.171158  1
  O  O42  1  0.080013  0.172162  0.193759  1
  O  O43  1  0.613647  0.022057  0.193414  1
  O  O44  1  0.827718  0.919700  0.306041  1
  O  O45  1  0.975473  0.385869  0.302579  1
  O  O46  1  0.408061  0.021901  0.327825  1
  O  O47  1  0.419990  0.306246  0.327827  1
  O  O48  1  0.080009  0.907848  0.386259  1
  O  O49  1  0.805066  0.476232  0.380725  1
  O  O50  1  0.327847  0.521641  0.407911  1
  O  O51  1  0.579988  0.886297  0.407876  1
  O  O52  1  0.592115  0.613786  0.419806  1
  O  O53  1  0.327850  0.806211  0.419936  1
  O  O54  1  0.091926  0.172166  0.478091  1
  O  O55  1  0.886358  0.306587  0.477951  1
  O  O56  1  0.114017  0.694234  0.521591  1
  O  O57  1  0.907886  0.827702  0.521673  1
  O  O58  1  0.408070  0.386168  0.580252  1
  O  O59  1  0.672288  0.193958  0.580296  1
  O  O60  1  0.672291  0.478326  0.591995  1
  O  O61  1  0.419976  0.113738  0.592150  1
  O  O62  1  0.192791  0.520990  0.612551  1
  O  O63  1  0.920026  0.092125  0.613700  1
  O  O64  1  0.579976  0.693684  0.672113  1
  O  O65  1  0.592124  0.978329  0.672303  1
  O  O66  1  0.172139  0.080064  0.693784  1
  O  O67  1  0.020183  0.612857  0.691742  1
  O  O68  1  0.385980  0.978406  0.805765  1
  O  O69  1  0.920020  0.827899  0.806310  1
  O  O70  1  0.307219  0.419758  0.828208  1
  O  O71  1  0.020175  0.407323  0.828453  1
  O  O72  1  0.479833  0.808278  0.887143  1
  O  O73  1  0.907885  0.080181  0.886212  1
  O  O74  1  0.524535  0.327120  0.910399  1
  O  O75  1  0.886367  0.579773  0.908417  1
  O  O76  1  0.613634  0.591584  0.920227  1
  O  O77  1  0.805065  0.328847  0.924338  1
  O  O78  1  0.307209  0.887464  0.979006  1
  O  O79  1  0.172142  0.092076  0.978360  1
