# generated using pymatgen
data_Ho4Al4NiIrRh2
_symmetry_space_group_name_H-M   'P 1'
_cell_length_a   4.20332800
_cell_length_b   6.82017232
_cell_length_c   7.89982502
_cell_angle_alpha   89.75292254
_cell_angle_beta   90.00000000
_cell_angle_gamma   90.00000000
_symmetry_Int_Tables_number   1
_chemical_formula_structural   Ho4Al4NiIrRh2
_chemical_formula_sum   'Ho4 Al4 Ni1 Ir1 Rh2'
_cell_volume   226.46550632
_cell_formula_units_Z   1
loop_
 _symmetry_equiv_pos_site_id
 _symmetry_equiv_pos_as_xyz
  1  'x, y, z'
loop_
 _atom_site_type_symbol
 _atom_site_label
 _atom_site_symmetry_multiplicity
 _atom_site_fract_x
 _atom_site_fract_y
 _atom_site_fract_z
 _atom_site_occupancy
  Ho  Ho0  1  0.250000  0.538821  0.176773  1
  Ho  Ho1  1  0.750000  0.465595  0.820767  1
  Ho  Ho2  1  0.750000  0.964704  0.681080  1
  Ho  Ho3  1  0.250000  0.035211  0.322220  1
  Al  Al4  1  0.250000  0.636774  0.563155  1
  Al  Al5  1  0.750000  0.363633  0.440917  1
  Al  Al6  1  0.750000  0.861150  0.055379  1
  Al  Al7  1  0.250000  0.130912  0.938595  1
  Ni  Ni8  1  0.250000  0.770131  0.877517  1
  Ir  Ir9  1  0.250000  0.262942  0.624585  1
  Rh  Rh10  1  0.750000  0.234771  0.120625  1
  Rh  Rh11  1  0.750000  0.735354  0.378388  1
