# generated using pymatgen
data_K4Ti5Rh3Se16
_symmetry_space_group_name_H-M   'P 1'
_cell_length_a   6.16982969
_cell_length_b   7.39029817
_cell_length_c   16.27479037
_cell_angle_alpha   89.81301017
_cell_angle_beta   90.39944903
_cell_angle_gamma   89.05779253
_symmetry_Int_Tables_number   1
_chemical_formula_structural   K4Ti5Rh3Se16
_chemical_formula_sum   'K4 Ti5 Rh3 Se16'
_cell_volume   741.95707696
_cell_formula_units_Z   1
loop_
 _symmetry_equiv_pos_site_id
 _symmetry_equiv_pos_as_xyz
  1  'x, y, z'
loop_
 _atom_site_type_symbol
 _atom_site_label
 _atom_site_symmetry_multiplicity
 _atom_site_fract_x
 _atom_site_fract_y
 _atom_site_fract_z
 _atom_site_occupancy
  K  K0  1  0.369392  0.999959  0.002955  1
  K  K1  1  0.630610  0.500040  0.497045  1
  K  K2  1  0.010564  0.995478  0.498858  1
  K  K3  1  0.989436  0.504523  0.001140  1
  Ti  Ti4  1  0.072798  0.999981  0.244575  1
  Ti  Ti5  1  0.045901  0.994577  0.753821  1
  Ti  Ti6  1  0.927195  0.500019  0.255425  1
  Ti  Ti7  1  0.954098  0.505422  0.746179  1
  Ti  Ti8  1  0.499999  0.250001  0.750000  1
  Rh  Rh9  1  0.500001  0.250001  0.250000  1
  Rh  Rh10  1  0.500000  0.750000  0.750000  1
  Rh  Rh11  1  0.500001  0.749998  0.250000  1
  Se  Se12  1  0.835853  0.238529  0.340941  1
  Se  Se13  1  0.828863  0.761256  0.658016  1
  Se  Se14  1  0.164411  0.738926  0.159080  1
  Se  Se15  1  0.161927  0.251976  0.844012  1
  Se  Se16  1  0.164146  0.261474  0.159059  1
  Se  Se17  1  0.171136  0.738729  0.841985  1
  Se  Se18  1  0.835588  0.761070  0.340919  1
  Se  Se19  1  0.838074  0.248037  0.655989  1
  Se  Se20  1  0.686229  0.998893  0.169678  1
  Se  Se21  1  0.679954  0.994800  0.836859  1
  Se  Se22  1  0.313769  0.501107  0.330321  1
  Se  Se23  1  0.320041  0.505199  0.663144  1
  Se  Se24  1  0.371792  0.000930  0.345299  1
  Se  Se25  1  0.350796  0.996797  0.653563  1
  Se  Se26  1  0.628210  0.499070  0.154702  1
  Se  Se27  1  0.649213  0.503204  0.846434  1
