# generated using pymatgen
data_Yb3LuPa4(ReB6)4
_symmetry_space_group_name_H-M   'P 1'
_cell_length_a   3.70830800
_cell_length_b   9.13697102
_cell_length_c   11.44198659
_cell_angle_alpha   90.13180178
_cell_angle_beta   90.00000000
_cell_angle_gamma   90.00000000
_symmetry_Int_Tables_number   1
_chemical_formula_structural   Yb3LuPa4(ReB6)4
_chemical_formula_sum   'Yb3 Lu1 Pa4 Re4 B24'
_cell_volume   387.68440478
_cell_formula_units_Z   1
loop_
 _symmetry_equiv_pos_site_id
 _symmetry_equiv_pos_as_xyz
  1  'x, y, z'
loop_
 _atom_site_type_symbol
 _atom_site_label
 _atom_site_symmetry_multiplicity
 _atom_site_fract_x
 _atom_site_fract_y
 _atom_site_fract_z
 _atom_site_occupancy
  Yb  Yb0  1  0.000000  0.947846  0.379109  1
  Yb  Yb1  1  0.000000  0.052477  0.620843  1
  Yb  Yb2  1  0.000000  0.445465  0.125160  1
  Lu  Lu3  1  0.000000  0.553604  0.876629  1
  Pa  Pa4  1  0.000000  0.323088  0.411736  1
  Pa  Pa5  1  0.000000  0.677791  0.586367  1
  Pa  Pa6  1  0.000000  0.822315  0.088470  1
  Pa  Pa7  1  0.000000  0.177681  0.912868  1
  Re  Re8  1  0.000000  0.639185  0.321670  1
  Re  Re9  1  0.000000  0.361944  0.678587  1
  Re  Re10  1  0.000000  0.138619  0.177551  1
  Re  Re11  1  0.000000  0.860128  0.821828  1
  B  B12  1  0.500000  0.553330  0.432461  1
  B  B13  1  0.500000  0.447277  0.567608  1
  B  B14  1  0.500000  0.053093  0.067117  1
  B  B15  1  0.500000  0.946010  0.932581  1
  B  B16  1  0.500000  0.748033  0.420711  1
  B  B17  1  0.500000  0.252630  0.578954  1
  B  B18  1  0.500000  0.248476  0.079331  1
  B  B19  1  0.500000  0.750373  0.921074  1
  B  B20  1  0.500000  0.793268  0.266846  1
  B  B21  1  0.500000  0.206754  0.733187  1
  B  B22  1  0.500000  0.293018  0.232626  1
  B  B23  1  0.500000  0.705736  0.767419  1
  B  B24  1  0.500000  0.633166  0.185710  1
  B  B25  1  0.500000  0.367031  0.814697  1
  B  B26  1  0.500000  0.134124  0.314030  1
  B  B27  1  0.500000  0.865542  0.685870  1
  B  B28  1  0.500000  0.983351  0.213973  1
  B  B29  1  0.500000  0.016573  0.785991  1
  B  B30  1  0.500000  0.483614  0.286197  1
  B  B31  1  0.500000  0.517215  0.714352  1
  B  B32  1  0.500000  0.612018  0.030455  1
  B  B33  1  0.500000  0.388651  0.967909  1
  B  B34  1  0.500000  0.121215  0.466409  1
  B  B35  1  0.500000  0.879358  0.533677  1
