# generated using pymatgen
data_Ba6CdPd4O15
_symmetry_space_group_name_H-M   'P 1'
_cell_length_a   7.51180942
_cell_length_b   7.51182558
_cell_length_c   7.51180395
_cell_angle_alpha   85.12115041
_cell_angle_beta   85.12127066
_cell_angle_gamma   85.12114604
_symmetry_Int_Tables_number   1
_chemical_formula_structural   Ba6CdPd4O15
_chemical_formula_sum   'Ba6 Cd1 Pd4 O15'
_cell_volume   419.51096040
_cell_formula_units_Z   1
loop_
 _symmetry_equiv_pos_site_id
 _symmetry_equiv_pos_as_xyz
  1  'x, y, z'
loop_
 _atom_site_type_symbol
 _atom_site_label
 _atom_site_symmetry_multiplicity
 _atom_site_fract_x
 _atom_site_fract_y
 _atom_site_fract_z
 _atom_site_occupancy
  Ba  Ba0  1  0.340262  0.659737  0.999998  1
  Ba  Ba1  1  0.000001  0.340263  0.659737  1
  Ba  Ba2  1  0.659734  0.999998  0.340265  1
  Ba  Ba3  1  0.148178  0.851819  0.499999  1
  Ba  Ba4  1  0.500001  0.148182  0.851823  1
  Ba  Ba5  1  0.851820  0.499999  0.148178  1
  Cd  Cd6  1  0.500007  0.500004  0.500003  1
  Pd  Pd7  1  0.290309  0.290309  0.290308  1
  Pd  Pd8  1  0.709694  0.709694  0.709694  1
  Pd  Pd9  1  0.095672  0.095673  0.095674  1
  Pd  Pd10  1  0.904330  0.904331  0.904332  1
  O  O11  1  0.151438  0.000002  0.848560  1
  O  O12  1  0.848559  0.151438  0.000003  1
  O  O13  1  0.000000  0.848561  0.151441  1
  O  O14  1  0.030315  0.196000  0.340313  1
  O  O15  1  0.340311  0.030314  0.196000  1
  O  O16  1  0.195998  0.340311  0.030313  1
  O  O17  1  0.803999  0.969685  0.659690  1
  O  O18  1  0.659689  0.803999  0.969685  1
  O  O19  1  0.969686  0.659691  0.804000  1
  O  O20  1  0.367725  0.221148  0.537725  1
  O  O21  1  0.537725  0.367721  0.221145  1
  O  O22  1  0.221149  0.537726  0.367719  1
  O  O23  1  0.778847  0.632275  0.462274  1
  O  O24  1  0.462274  0.778844  0.632274  1
  O  O25  1  0.632279  0.462274  0.778846  1
