# generated using pymatgen
data_Rb6InBiSb2
_symmetry_space_group_name_H-M   'P 1'
_cell_length_a   6.36663400
_cell_length_b   11.12401623
_cell_length_c   13.15595785
_cell_angle_alpha   78.89691633
_cell_angle_beta   90.00000000
_cell_angle_gamma   90.00000000
_symmetry_Int_Tables_number   1
_chemical_formula_structural   Rb6InBiSb2
_chemical_formula_sum   'Rb12 In2 Bi2 Sb4'
_cell_volume   914.29835207
_cell_formula_units_Z   2
loop_
 _symmetry_equiv_pos_site_id
 _symmetry_equiv_pos_as_xyz
  1  'x, y, z'
loop_
 _atom_site_type_symbol
 _atom_site_label
 _atom_site_symmetry_multiplicity
 _atom_site_fract_x
 _atom_site_fract_y
 _atom_site_fract_z
 _atom_site_occupancy
  Rb  Rb0  1  0.750000  0.455696  0.081750  1
  Rb  Rb1  1  0.250000  0.544304  0.918250  1
  Rb  Rb2  1  0.750000  0.736438  0.235200  1
  Rb  Rb3  1  0.250000  0.263562  0.764800  1
  Rb  Rb4  1  0.250000  0.570356  0.527263  1
  Rb  Rb5  1  0.750000  0.429644  0.472737  1
  Rb  Rb6  1  0.250000  0.864101  0.023807  1
  Rb  Rb7  1  0.750000  0.135899  0.976193  1
  Rb  Rb8  1  0.250000  0.878279  0.676625  1
  Rb  Rb9  1  0.750000  0.121721  0.323375  1
  Rb  Rb10  1  0.250000  0.922131  0.371294  1
  Rb  Rb11  1  0.750000  0.077869  0.628706  1
  In  In12  1  0.250000  0.325481  0.285725  1
  In  In13  1  0.750000  0.674519  0.714275  1
  Bi  Bi14  1  0.250000  0.173936  0.123371  1
  Bi  Bi15  1  0.750000  0.826064  0.876629  1
  Sb  Sb16  1  0.250000  0.210011  0.496696  1
  Sb  Sb17  1  0.750000  0.789989  0.503304  1
  Sb  Sb18  1  0.250000  0.580154  0.223915  1
  Sb  Sb19  1  0.750000  0.419846  0.776085  1
