# generated using pymatgen
data_Ta2Fe3Os
_symmetry_space_group_name_H-M   'P 1'
_cell_length_a   4.84182200
_cell_length_b   4.84182163
_cell_length_c   8.05825200
_cell_angle_alpha   90.00000000
_cell_angle_beta   90.00000000
_cell_angle_gamma   119.99998888
_symmetry_Int_Tables_number   1
_chemical_formula_structural   Ta2Fe3Os
_chemical_formula_sum   'Ta4 Fe6 Os2'
_cell_volume   163.60219661
_cell_formula_units_Z   2
loop_
 _symmetry_equiv_pos_site_id
 _symmetry_equiv_pos_as_xyz
  1  'x, y, z'
loop_
 _atom_site_type_symbol
 _atom_site_label
 _atom_site_symmetry_multiplicity
 _atom_site_fract_x
 _atom_site_fract_y
 _atom_site_fract_z
 _atom_site_occupancy
  Ta  Ta0  1  0.333333  0.666667  0.430282  1
  Ta  Ta1  1  0.666667  0.333333  0.569718  1
  Ta  Ta2  1  0.666667  0.333333  0.930282  1
  Ta  Ta3  1  0.333333  0.666667  0.069718  1
  Fe  Fe4  1  0.175238  0.824762  0.750000  1
  Fe  Fe5  1  0.175238  0.350475  0.750000  1
  Fe  Fe6  1  0.649525  0.824762  0.750000  1
  Fe  Fe7  1  0.824762  0.175238  0.250000  1
  Fe  Fe8  1  0.824762  0.649525  0.250000  1
  Fe  Fe9  1  0.350475  0.175238  0.250000  1
  Os  Os10  1  0.000000  0.000000  0.500000  1
  Os  Os11  1  0.000000  0.000000  0.000000  1
