# generated using pymatgen
data_Na4CaYb3Bi4
_symmetry_space_group_name_H-M   'P 1'
_cell_length_a   8.07381506
_cell_length_b   4.78845800
_cell_length_c   9.66046007
_cell_angle_alpha   90.00000000
_cell_angle_beta   90.01371733
_cell_angle_gamma   90.00000000
_symmetry_Int_Tables_number   1
_chemical_formula_structural   Na4CaYb3Bi4
_chemical_formula_sum   'Na4 Ca1 Yb3 Bi4'
_cell_volume   373.48423687
_cell_formula_units_Z   1
loop_
 _symmetry_equiv_pos_site_id
 _symmetry_equiv_pos_as_xyz
  1  'x, y, z'
loop_
 _atom_site_type_symbol
 _atom_site_label
 _atom_site_symmetry_multiplicity
 _atom_site_fract_x
 _atom_site_fract_y
 _atom_site_fract_z
 _atom_site_occupancy
  Na  Na0  1  0.865529  0.749999  0.056299  1
  Na  Na1  1  0.365526  0.749999  0.443668  1
  Na  Na2  1  0.634509  0.250000  0.556233  1
  Na  Na3  1  0.134434  0.250000  0.943755  1
  Ca  Ca4  1  0.455338  0.749999  0.823831  1
  Yb  Yb5  1  0.544665  0.250000  0.176199  1
  Yb  Yb6  1  0.044683  0.250000  0.323785  1
  Yb  Yb7  1  0.955301  0.749999  0.676167  1
  Bi  Bi8  1  0.262075  0.749999  0.130140  1
  Bi  Bi9  1  0.762177  0.749999  0.369992  1
  Bi  Bi10  1  0.237776  0.250000  0.629918  1
  Bi  Bi11  1  0.737991  0.250000  0.870015  1
