# generated using pymatgen
data_TaNb17(NiP2)4
_symmetry_space_group_name_H-M   'P 1'
_cell_length_a   11.53182552
_cell_length_b   11.53182552
_cell_length_c   3.47771400
_cell_angle_alpha   90.00000000
_cell_angle_beta   90.00000000
_cell_angle_gamma   89.92425037
_symmetry_Int_Tables_number   1
_chemical_formula_structural   TaNb17(NiP2)4
_chemical_formula_sum   'Ta1 Nb17 Ni4 P8'
_cell_volume   462.47643603
_cell_formula_units_Z   1
loop_
 _symmetry_equiv_pos_site_id
 _symmetry_equiv_pos_as_xyz
  1  'x, y, z'
loop_
 _atom_site_type_symbol
 _atom_site_label
 _atom_site_symmetry_multiplicity
 _atom_site_fract_x
 _atom_site_fract_y
 _atom_site_fract_z
 _atom_site_occupancy
  Ta  Ta0  1  0.897839  0.602161  0.000000  1
  Nb  Nb1  1  0.000039  0.000072  0.000000  1
  Nb  Nb2  1  0.499928  0.499961  0.000000  1
  Nb  Nb3  1  0.102927  0.182871  0.500000  1
  Nb  Nb4  1  0.182619  0.897025  0.500000  1
  Nb  Nb5  1  0.817227  0.102850  0.500000  1
  Nb  Nb6  1  0.897377  0.816946  0.500000  1
  Nb  Nb7  1  0.397150  0.682773  0.500000  1
  Nb  Nb8  1  0.602975  0.317381  0.500000  1
  Nb  Nb9  1  0.683054  0.602623  0.500000  1
  Nb  Nb10  1  0.317129  0.397073  0.500000  1
  Nb  Nb11  1  0.101737  0.398263  0.000000  1
  Nb  Nb12  1  0.397979  0.897949  0.000000  1
  Nb  Nb13  1  0.602051  0.102021  0.000000  1
  Nb  Nb14  1  0.393485  0.106515  0.500000  1
  Nb  Nb15  1  0.106043  0.606706  0.500000  1
  Nb  Nb16  1  0.893294  0.393957  0.500000  1
  Nb  Nb17  1  0.606662  0.893338  0.500000  1
  Ni  Ni18  1  0.264970  0.235030  0.000000  1
  Ni  Ni19  1  0.234921  0.734927  0.000000  1
  Ni  Ni20  1  0.765073  0.265079  0.000000  1
  Ni  Ni21  1  0.735367  0.764633  0.000000  1
  P  P22  1  0.226599  0.052233  0.000000  1
  P  P23  1  0.052234  0.773381  0.000000  1
  P  P24  1  0.947722  0.226463  0.000000  1
  P  P25  1  0.773351  0.947673  0.000000  1
  P  P26  1  0.273537  0.552278  0.000000  1
  P  P27  1  0.726619  0.447766  0.000000  1
  P  P28  1  0.552327  0.726649  0.000000  1
  P  P29  1  0.447767  0.273401  0.000000  1
