# generated using pymatgen
data_YEr19(Bi2P)4
_symmetry_space_group_name_H-M   'P 1'
_cell_length_a   7.93158902
_cell_length_b   8.93401000
_cell_length_c   12.03812703
_cell_angle_alpha   90.00000000
_cell_angle_beta   90.00752836
_cell_angle_gamma   90.00000000
_symmetry_Int_Tables_number   1
_chemical_formula_structural   YEr19(Bi2P)4
_chemical_formula_sum   'Y1 Er19 Bi8 P4'
_cell_volume   853.03245498
_cell_formula_units_Z   1
loop_
 _symmetry_equiv_pos_site_id
 _symmetry_equiv_pos_as_xyz
  1  'x, y, z'
loop_
 _atom_site_type_symbol
 _atom_site_label
 _atom_site_symmetry_multiplicity
 _atom_site_fract_x
 _atom_site_fract_y
 _atom_site_fract_z
 _atom_site_occupancy
  Y  Y0  1  0.651036  0.750000  0.706859  1
  Er  Er1  1  0.349003  0.250000  0.293488  1
  Er  Er2  1  0.151228  0.250000  0.793605  1
  Er  Er3  1  0.848854  0.750000  0.206527  1
  Er  Er4  1  0.126283  0.750000  0.801297  1
  Er  Er5  1  0.874319  0.250000  0.198761  1
  Er  Er6  1  0.625657  0.250000  0.698878  1
  Er  Er7  1  0.374125  0.750000  0.300824  1
  Er  Er8  1  0.541179  0.750000  0.998505  1
  Er  Er9  1  0.458424  0.250000  0.001895  1
  Er  Er10  1  0.041498  0.250000  0.501580  1
  Er  Er11  1  0.958774  0.750000  0.498153  1
  Er  Er12  1  0.818095  0.448252  0.936084  1
  Er  Er13  1  0.181828  0.551487  0.064083  1
  Er  Er14  1  0.318249  0.551647  0.563966  1
  Er  Er15  1  0.181828  0.948513  0.064083  1
  Er  Er16  1  0.681907  0.448551  0.436071  1
  Er  Er17  1  0.818095  0.051748  0.936084  1
  Er  Er18  1  0.681907  0.051449  0.436071  1
  Er  Er19  1  0.318249  0.948353  0.563966  1
  Bi  Bi20  1  0.925861  0.009562  0.673551  1
  Bi  Bi21  1  0.075371  0.990841  0.326264  1
  Bi  Bi22  1  0.423804  0.991606  0.826958  1
  Bi  Bi23  1  0.075371  0.509159  0.326264  1
  Bi  Bi24  1  0.575288  0.009186  0.173660  1
  Bi  Bi25  1  0.925861  0.490438  0.673551  1
  Bi  Bi26  1  0.575288  0.490814  0.173660  1
  Bi  Bi27  1  0.423804  0.508394  0.826958  1
  P  P28  1  0.922986  0.750000  0.987073  1
  P  P29  1  0.076619  0.250000  0.012758  1
  P  P30  1  0.423097  0.250000  0.512839  1
  P  P31  1  0.576114  0.750000  0.485683  1
