# generated using pymatgen
data_Rb2NdU(AuSe3)2
_symmetry_space_group_name_H-M   'P 1'
_cell_length_a   4.24701600
_cell_length_b   8.13635171
_cell_length_c   10.87744314
_cell_angle_alpha   89.44392205
_cell_angle_beta   90.00000000
_cell_angle_gamma   74.87116793
_symmetry_Int_Tables_number   1
_chemical_formula_structural   Rb2NdU(AuSe3)2
_chemical_formula_sum   'Rb2 Nd1 U1 Au2 Se6'
_cell_volume   362.82685420
_cell_formula_units_Z   1
loop_
 _symmetry_equiv_pos_site_id
 _symmetry_equiv_pos_as_xyz
  1  'x, y, z'
loop_
 _atom_site_type_symbol
 _atom_site_label
 _atom_site_symmetry_multiplicity
 _atom_site_fract_x
 _atom_site_fract_y
 _atom_site_fract_z
 _atom_site_occupancy
  Rb  Rb0  1  0.252807  0.494386  0.232933  1
  Rb  Rb1  1  0.747193  0.505613  0.767068  1
  Nd  Nd2  1  0.000000  0.000000  0.000000  1
  U  U3  1  0.000000  0.000000  0.500000  1
  Au  Au4  1  0.544385  0.911230  0.250635  1
  Au  Au5  1  0.455615  0.088769  0.749365  1
  Se  Se6  1  0.628140  0.743720  0.049351  1
  Se  Se7  1  0.935698  0.128603  0.264261  1
  Se  Se8  1  0.618418  0.763162  0.463922  1
  Se  Se9  1  0.381582  0.236837  0.536078  1
  Se  Se10  1  0.064302  0.871398  0.735739  1
  Se  Se11  1  0.371860  0.256280  0.950649  1
