# generated using pymatgen
data_Th10Si16Sb
_symmetry_space_group_name_H-M   'P 1'
_cell_length_a   11.39792898
_cell_length_b   11.41030327
_cell_length_c   11.39784900
_cell_angle_alpha   143.23055072
_cell_angle_beta   136.99851445
_cell_angle_gamma   57.81326882
_symmetry_Int_Tables_number   1
_chemical_formula_structural   Th10Si16Sb
_chemical_formula_sum   'Th10 Si16 Sb1'
_cell_volume   600.01578423
_cell_formula_units_Z   1
loop_
 _symmetry_equiv_pos_site_id
 _symmetry_equiv_pos_as_xyz
  1  'x, y, z'
loop_
 _atom_site_type_symbol
 _atom_site_label
 _atom_site_symmetry_multiplicity
 _atom_site_fract_x
 _atom_site_fract_y
 _atom_site_fract_z
 _atom_site_occupancy
  Th  Th0  1  0.059894  0.597098  0.054426  1
  Th  Th1  1  0.351557  0.387891  0.534223  1
  Th  Th2  1  0.169624  0.172973  0.530432  1
  Th  Th3  1  0.461483  0.984281  0.039123  1
  Th  Th4  1  0.642540  0.172972  0.003345  1
  Th  Th5  1  0.945157  0.984281  0.522798  1
  Th  Th6  1  0.853668  0.387892  0.036335  1
  Th  Th7  1  0.542673  0.597099  0.537205  1
  Th  Th8  1  0.249696  0.780542  0.024728  1
  Th  Th9  1  0.755814  0.780540  0.530845  1
  Si  Si10  1  0.109194  0.073123  0.963930  1
  Si  Si11  1  0.805107  0.926923  0.121814  1
  Si  Si12  1  0.302550  0.927060  0.624509  1
  Si  Si13  1  0.402568  0.509164  0.106597  1
  Si  Si14  1  0.901280  0.827497  0.926218  1
  Si  Si15  1  0.103004  0.725110  0.622107  1
  Si  Si16  1  0.201099  0.640486  0.439387  1
  Si  Si17  1  0.700299  0.301715  0.601416  1
  Si  Si18  1  0.997972  0.461091  0.463123  1
  Si  Si19  1  0.703062  0.648611  0.945548  1
  Si  Si20  1  0.602463  0.726632  0.124169  1
  Si  Si21  1  0.002756  0.114158  0.111402  1
  Si  Si22  1  0.506064  0.440820  0.934754  1
  Si  Si23  1  0.294198  0.261429  0.967232  1
  Si  Si24  1  0.589989  0.056285  0.466298  1
  Si  Si25  1  0.405764  0.855300  0.449535  1
  Sb  Sb26  1  0.840525  0.347944  0.507418  1
