# generated using pymatgen
data_Tb3Er3Bi2Os
_symmetry_space_group_name_H-M   'P 1'
_cell_length_a   8.29780700
_cell_length_b   8.29780791
_cell_length_c   4.25347900
_cell_angle_alpha   90.00000000
_cell_angle_beta   90.00000000
_cell_angle_gamma   119.99999238
_symmetry_Int_Tables_number   1
_chemical_formula_structural   Tb3Er3Bi2Os
_chemical_formula_sum   'Tb3 Er3 Bi2 Os1'
_cell_volume   253.63060892
_cell_formula_units_Z   1
loop_
 _symmetry_equiv_pos_site_id
 _symmetry_equiv_pos_as_xyz
  1  'x, y, z'
loop_
 _atom_site_type_symbol
 _atom_site_label
 _atom_site_symmetry_multiplicity
 _atom_site_fract_x
 _atom_site_fract_y
 _atom_site_fract_z
 _atom_site_occupancy
  Tb  Tb0  1  0.000000  0.611662  0.500000  1
  Tb  Tb1  1  0.388338  0.388338  0.500000  1
  Tb  Tb2  1  0.611662  0.000000  0.500000  1
  Er  Er3  1  0.230698  0.000000  0.000000  1
  Er  Er4  1  0.769302  0.769302  0.000000  1
  Er  Er5  1  0.000000  0.230698  0.000000  1
  Bi  Bi6  1  0.333333  0.666667  0.000000  1
  Bi  Bi7  1  0.666667  0.333333  0.000000  1
  Os  Os8  1  0.000000  0.000000  0.500000  1
