# generated using pymatgen
data_YLu2Fe2Co7P6
_symmetry_space_group_name_H-M   'P 1'
_cell_length_a   3.67685700
_cell_length_b   10.51874200
_cell_length_c   12.04962600
_cell_angle_alpha   90.00000000
_cell_angle_beta   90.00000000
_cell_angle_gamma   90.00000000
_symmetry_Int_Tables_number   1
_chemical_formula_structural   YLu2Fe2Co7P6
_chemical_formula_sum   'Y2 Lu4 Fe4 Co14 P12'
_cell_volume   466.03025256
_cell_formula_units_Z   2
loop_
 _symmetry_equiv_pos_site_id
 _symmetry_equiv_pos_as_xyz
  1  'x, y, z'
loop_
 _atom_site_type_symbol
 _atom_site_label
 _atom_site_symmetry_multiplicity
 _atom_site_fract_x
 _atom_site_fract_y
 _atom_site_fract_z
 _atom_site_occupancy
  Y  Y0  1  0.000000  0.500000  0.523018  1
  Y  Y1  1  0.500000  0.000000  0.476982  1
  Lu  Lu2  1  0.500000  0.819746  0.203751  1
  Lu  Lu3  1  0.500000  0.180254  0.203751  1
  Lu  Lu4  1  0.000000  0.680254  0.796249  1
  Lu  Lu5  1  0.000000  0.319746  0.796249  1
  Fe  Fe6  1  0.500000  0.500000  0.155590  1
  Fe  Fe7  1  0.000000  0.000000  0.844410  1
  Fe  Fe8  1  0.000000  0.500000  0.988270  1
  Fe  Fe9  1  0.500000  0.000000  0.011730  1
  Co  Co10  1  0.500000  0.500000  0.703272  1
  Co  Co11  1  0.000000  0.000000  0.296728  1
  Co  Co12  1  0.500000  0.331535  0.993872  1
  Co  Co13  1  0.500000  0.668465  0.993872  1
  Co  Co14  1  0.000000  0.168465  0.006128  1
  Co  Co15  1  0.000000  0.831535  0.006128  1
  Co  Co16  1  0.500000  0.296263  0.429854  1
  Co  Co17  1  0.500000  0.703737  0.429854  1
  Co  Co18  1  0.000000  0.203737  0.570146  1
  Co  Co19  1  0.000000  0.796263  0.570146  1
  Co  Co20  1  0.500000  0.877954  0.710356  1
  Co  Co21  1  0.500000  0.122046  0.710356  1
  Co  Co22  1  0.000000  0.622046  0.289644  1
  Co  Co23  1  0.000000  0.377954  0.289644  1
  P  P24  1  0.500000  0.500000  0.883705  1
  P  P25  1  0.000000  0.000000  0.116295  1
  P  P26  1  0.500000  0.500000  0.341705  1
  P  P27  1  0.000000  0.000000  0.658295  1
  P  P28  1  0.500000  0.310701  0.618303  1
  P  P29  1  0.500000  0.689299  0.618303  1
  P  P30  1  0.000000  0.189299  0.381697  1
  P  P31  1  0.000000  0.810701  0.381697  1
  P  P32  1  0.500000  0.846722  0.892741  1
  P  P33  1  0.500000  0.153278  0.892741  1
  P  P34  1  0.000000  0.653278  0.107259  1
  P  P35  1  0.000000  0.346722  0.107259  1
