# generated using pymatgen
data_Hf2ScGeAs2Ru3
_symmetry_space_group_name_H-M   'P 1'
_cell_length_a   7.68555612
_cell_length_b   7.68555707
_cell_length_c   7.68555657
_cell_angle_alpha   128.17580026
_cell_angle_beta   120.64788465
_cell_angle_gamma   82.65538191
_symmetry_Int_Tables_number   1
_chemical_formula_structural   Hf2ScGeAs2Ru3
_chemical_formula_sum   'Hf4 Sc2 Ge2 As4 Ru6'
_cell_volume   295.02341141
_cell_formula_units_Z   2
loop_
 _symmetry_equiv_pos_site_id
 _symmetry_equiv_pos_as_xyz
  1  'x, y, z'
loop_
 _atom_site_type_symbol
 _atom_site_label
 _atom_site_symmetry_multiplicity
 _atom_site_fract_x
 _atom_site_fract_y
 _atom_site_fract_z
 _atom_site_occupancy
  Hf  Hf0  1  0.751167  0.834333  0.583166  1
  Hf  Hf1  1  0.248833  0.832001  0.083166  1
  Hf  Hf2  1  0.052973  0.257017  0.704044  1
  Hf  Hf3  1  0.947027  0.651071  0.204044  1
  Sc  Sc4  1  0.472728  0.704302  0.731573  1
  Sc  Sc5  1  0.527272  0.258845  0.231573  1
  Ge  Ge6  1  0.279400  0.276138  0.496739  1
  Ge  Ge7  1  0.720600  0.217339  0.996739  1
  As  As8  1  0.330195  0.586390  0.251635  1
  As  As9  1  0.669805  0.921440  0.256196  1
  As  As10  1  0.165244  0.921440  0.751635  1
  As  As11  1  0.834756  0.586390  0.756196  1
  Ru  Ru12  1  0.500000  0.497781  0.997781  1
  Ru  Ru13  1  0.000000  0.497781  0.497781  1
  Ru  Ru14  1  0.089894  0.251528  0.097031  1
  Ru  Ru15  1  0.910106  0.007137  0.161634  1
  Ru  Ru16  1  0.345503  0.007137  0.597031  1
  Ru  Ru17  1  0.654497  0.251528  0.661634  1
