# generated using pymatgen
data_Er4As6Ir2Rh5
_symmetry_space_group_name_H-M   'P 1'
_cell_length_a   7.26063710
_cell_length_b   7.26237873
_cell_length_c   7.26063618
_cell_angle_alpha   109.45342834
_cell_angle_beta   109.49708351
_cell_angle_gamma   109.45344297
_symmetry_Int_Tables_number   1
_chemical_formula_structural   Er4As6Ir2Rh5
_chemical_formula_sum   'Er4 As6 Ir2 Rh5'
_cell_volume   294.75308721
_cell_formula_units_Z   1
loop_
 _symmetry_equiv_pos_site_id
 _symmetry_equiv_pos_as_xyz
  1  'x, y, z'
loop_
 _atom_site_type_symbol
 _atom_site_label
 _atom_site_symmetry_multiplicity
 _atom_site_fract_x
 _atom_site_fract_y
 _atom_site_fract_z
 _atom_site_occupancy
  Er  Er0  1  0.500021  0.500000  0.499979  1
  Er  Er1  1  0.000021  0.500000  0.999979  1
  Er  Er2  1  0.499993  0.000000  0.000134  1
  Er  Er3  1  0.999866  0.000000  0.500007  1
  As  As4  1  0.681657  0.000000  0.682303  1
  As  As5  1  0.681879  0.681582  0.999703  1
  As  As6  1  0.318190  0.317847  0.999656  1
  As  As7  1  0.000344  0.682153  0.681810  1
  As  As8  1  0.000297  0.318418  0.318121  1
  As  As9  1  0.317697  0.000000  0.318343  1
  Ir  Ir10  1  0.500282  0.749883  0.249601  1
  Ir  Ir11  1  0.750399  0.250117  0.499718  1
  Rh  Rh12  1  0.249761  0.749390  0.499629  1
  Rh  Rh13  1  0.249645  0.500000  0.750355  1
  Rh  Rh14  1  0.999932  0.000000  0.000068  1
  Rh  Rh15  1  0.500371  0.250610  0.750239  1
  Rh  Rh16  1  0.749645  0.500000  0.250355  1
