# generated using pymatgen
data_Lu2Co3Si4(PRu3)3
_symmetry_space_group_name_H-M   'P 1'
_cell_length_a   9.40913600
_cell_length_b   9.40913530
_cell_length_c   3.81223000
_cell_angle_alpha   90.00000000
_cell_angle_beta   90.00000000
_cell_angle_gamma   120.00000245
_symmetry_Int_Tables_number   1
_chemical_formula_structural   Lu2Co3Si4(PRu3)3
_chemical_formula_sum   'Lu2 Co3 Si4 P3 Ru9'
_cell_volume   292.28678165
_cell_formula_units_Z   1
loop_
 _symmetry_equiv_pos_site_id
 _symmetry_equiv_pos_as_xyz
  1  'x, y, z'
loop_
 _atom_site_type_symbol
 _atom_site_label
 _atom_site_symmetry_multiplicity
 _atom_site_fract_x
 _atom_site_fract_y
 _atom_site_fract_z
 _atom_site_occupancy
  Lu  Lu0  1  0.333333  0.666667  0.000000  1
  Lu  Lu1  1  0.000000  0.000000  0.500000  1
  Co  Co2  1  0.940717  0.455099  0.000000  1
  Co  Co3  1  0.514381  0.059283  0.000000  1
  Co  Co4  1  0.544901  0.485619  0.000000  1
  Si  Si5  1  0.962082  0.224335  0.000000  1
  Si  Si6  1  0.262254  0.037918  0.000000  1
  Si  Si7  1  0.775665  0.737746  0.000000  1
  Si  Si8  1  0.666667  0.333333  0.000000  1
  P  P9  1  0.061173  0.618541  0.500000  1
  P  P10  1  0.557367  0.938827  0.500000  1
  P  P11  1  0.381459  0.442633  0.500000  1
  Ru  Ru12  1  0.722246  0.963534  0.000000  1
  Ru  Ru13  1  0.241287  0.277754  0.000000  1
  Ru  Ru14  1  0.036466  0.758713  0.000000  1
  Ru  Ru15  1  0.109369  0.397183  0.500000  1
  Ru  Ru16  1  0.287813  0.890631  0.500000  1
  Ru  Ru17  1  0.602817  0.712187  0.500000  1
  Ru  Ru18  1  0.760088  0.219740  0.500000  1
  Ru  Ru19  1  0.459653  0.239912  0.500000  1
  Ru  Ru20  1  0.780260  0.540347  0.500000  1
