# generated using pymatgen
data_Hf3NbSi4Ir3Ru
_symmetry_space_group_name_H-M   'P 1'
_cell_length_a   3.94647400
_cell_length_b   6.46370921
_cell_length_c   7.40468514
_cell_angle_alpha   90.04685962
_cell_angle_beta   90.00000000
_cell_angle_gamma   90.00000000
_symmetry_Int_Tables_number   1
_chemical_formula_structural   Hf3NbSi4Ir3Ru
_chemical_formula_sum   'Hf3 Nb1 Si4 Ir3 Ru1'
_cell_volume   188.88501599
_cell_formula_units_Z   1
loop_
 _symmetry_equiv_pos_site_id
 _symmetry_equiv_pos_as_xyz
  1  'x, y, z'
loop_
 _atom_site_type_symbol
 _atom_site_label
 _atom_site_symmetry_multiplicity
 _atom_site_fract_x
 _atom_site_fract_y
 _atom_site_fract_z
 _atom_site_occupancy
  Hf  Hf0  1  0.750000  0.520801  0.822617  1
  Hf  Hf1  1  0.250000  0.980127  0.313673  1
  Hf  Hf2  1  0.750000  0.018888  0.684821  1
  Nb  Nb3  1  0.250000  0.482467  0.175552  1
  Si  Si4  1  0.250000  0.229118  0.885338  1
  Si  Si5  1  0.250000  0.718652  0.618906  1
  Si  Si6  1  0.750000  0.768076  0.124856  1
  Si  Si7  1  0.750000  0.288866  0.372388  1
  Ir  Ir8  1  0.250000  0.848374  0.932692  1
  Ir  Ir9  1  0.250000  0.339906  0.560550  1
  Ir  Ir10  1  0.750000  0.147515  0.066458  1
  Ru  Ru11  1  0.750000  0.657210  0.442152  1
