# generated using pymatgen
data_TbEr7Sc12Si15Ir
_symmetry_space_group_name_H-M   'P 1'
_cell_length_a   7.06351227
_cell_length_b   7.41996032
_cell_length_c   13.92222468
_cell_angle_alpha   90.03343514
_cell_angle_beta   90.01276253
_cell_angle_gamma   90.15721836
_symmetry_Int_Tables_number   1
_chemical_formula_structural   TbEr7Sc12Si15Ir
_chemical_formula_sum   'Tb1 Er7 Sc12 Si15 Ir1'
_cell_volume   729.67456077
_cell_formula_units_Z   1
loop_
 _symmetry_equiv_pos_site_id
 _symmetry_equiv_pos_as_xyz
  1  'x, y, z'
loop_
 _atom_site_type_symbol
 _atom_site_label
 _atom_site_symmetry_multiplicity
 _atom_site_fract_x
 _atom_site_fract_y
 _atom_site_fract_z
 _atom_site_occupancy
  Tb  Tb0  1  0.011543  0.179205  0.095722  1
  Er  Er1  1  0.990380  0.825078  0.904220  1
  Er  Er2  1  0.489180  0.676867  0.904959  1
  Er  Er3  1  0.990438  0.825321  0.595593  1
  Er  Er4  1  0.511383  0.323335  0.096152  1
  Er  Er5  1  0.011902  0.180125  0.403554  1
  Er  Er6  1  0.511539  0.323287  0.404000  1
  Er  Er7  1  0.488943  0.676833  0.594833  1
  Sc  Sc8  1  0.158068  0.502373  0.750004  1
  Sc  Sc9  1  0.838699  0.496911  0.250198  1
  Sc  Sc10  1  0.340102  0.006163  0.250175  1
  Sc  Sc11  1  0.667052  0.995824  0.750038  1
  Sc  Sc12  1  0.318625  0.171796  0.627313  1
  Sc  Sc13  1  0.672087  0.826133  0.373733  1
  Sc  Sc14  1  0.171395  0.678081  0.374390  1
  Sc  Sc15  1  0.672132  0.825899  0.126502  1
  Sc  Sc16  1  0.835690  0.319532  0.627371  1
  Sc  Sc17  1  0.319047  0.171784  0.872498  1
  Sc  Sc18  1  0.835289  0.319976  0.872487  1
  Sc  Sc19  1  0.171426  0.677950  0.125875  1
  Si  Si20  1  0.970175  0.886760  0.250329  1
  Si  Si21  1  0.469744  0.613708  0.250108  1
  Si  Si22  1  0.529196  0.388928  0.749926  1
  Si  Si23  1  0.287075  0.864946  0.749971  1
  Si  Si24  1  0.713468  0.132409  0.250590  1
  Si  Si25  1  0.214660  0.371449  0.250560  1
  Si  Si26  1  0.778457  0.626200  0.749939  1
  Si  Si27  1  0.160174  0.467831  0.537683  1
  Si  Si28  1  0.842269  0.535693  0.461546  1
  Si  Si29  1  0.344323  0.966967  0.460233  1
  Si  Si30  1  0.841799  0.536637  0.038147  1
  Si  Si31  1  0.656368  0.033877  0.538510  1
  Si  Si32  1  0.160385  0.468882  0.961935  1
  Si  Si33  1  0.656163  0.033735  0.961384  1
  Si  Si34  1  0.345726  0.966144  0.039518  1
  Ir  Ir35  1  0.025101  0.103360  0.750003  1
