# generated using pymatgen
data_Dy3Hf(Ni4As3)2
_symmetry_space_group_name_H-M   'P 1'
_cell_length_a   3.90175700
_cell_length_b   11.11028700
_cell_length_c   12.81964700
_cell_angle_alpha   90.00000000
_cell_angle_beta   90.00000000
_cell_angle_gamma   90.00000000
_symmetry_Int_Tables_number   1
_chemical_formula_structural   Dy3Hf(Ni4As3)2
_chemical_formula_sum   'Dy6 Hf2 Ni16 As12'
_cell_volume   555.72708333
_cell_formula_units_Z   2
loop_
 _symmetry_equiv_pos_site_id
 _symmetry_equiv_pos_as_xyz
  1  'x, y, z'
loop_
 _atom_site_type_symbol
 _atom_site_label
 _atom_site_symmetry_multiplicity
 _atom_site_fract_x
 _atom_site_fract_y
 _atom_site_fract_z
 _atom_site_occupancy
  Dy  Dy0  1  0.000000  0.500000  0.529161  1
  Dy  Dy1  1  0.500000  0.000000  0.470839  1
  Dy  Dy2  1  0.500000  0.822078  0.205423  1
  Dy  Dy3  1  0.500000  0.177922  0.205423  1
  Dy  Dy4  1  0.000000  0.677922  0.794577  1
  Dy  Dy5  1  0.000000  0.322078  0.794577  1
  Hf  Hf6  1  0.500000  0.500000  0.151657  1
  Hf  Hf7  1  0.000000  0.000000  0.848343  1
  Ni  Ni8  1  0.500000  0.500000  0.699867  1
  Ni  Ni9  1  0.000000  0.000000  0.300133  1
  Ni  Ni10  1  0.000000  0.500000  0.984577  1
  Ni  Ni11  1  0.500000  0.000000  0.015423  1
  Ni  Ni12  1  0.500000  0.336421  0.992992  1
  Ni  Ni13  1  0.500000  0.663579  0.992992  1
  Ni  Ni14  1  0.000000  0.163579  0.007008  1
  Ni  Ni15  1  0.000000  0.836421  0.007008  1
  Ni  Ni16  1  0.500000  0.300907  0.428822  1
  Ni  Ni17  1  0.500000  0.699093  0.428822  1
  Ni  Ni18  1  0.000000  0.199093  0.571178  1
  Ni  Ni19  1  0.000000  0.800907  0.571178  1
  Ni  Ni20  1  0.500000  0.879984  0.705697  1
  Ni  Ni21  1  0.500000  0.120016  0.705697  1
  Ni  Ni22  1  0.000000  0.620016  0.294303  1
  Ni  Ni23  1  0.000000  0.379984  0.294303  1
  As  As24  1  0.500000  0.500000  0.878530  1
  As  As25  1  0.000000  0.000000  0.121470  1
  As  As26  1  0.500000  0.500000  0.359185  1
  As  As27  1  0.000000  0.000000  0.640815  1
  As  As28  1  0.500000  0.313686  0.615166  1
  As  As29  1  0.500000  0.686314  0.615166  1
  As  As30  1  0.000000  0.186314  0.384834  1
  As  As31  1  0.000000  0.813686  0.384834  1
  As  As32  1  0.500000  0.836756  0.890841  1
  As  As33  1  0.500000  0.163244  0.890841  1
  As  As34  1  0.000000  0.663244  0.109159  1
  As  As35  1  0.000000  0.336756  0.109159  1
