# generated using pymatgen
data_Tb2Pr2ErSn4
_symmetry_space_group_name_H-M   'P 1'
_cell_length_a   8.14597700
_cell_length_b   8.31158800
_cell_length_c   15.70299700
_cell_angle_alpha   90.00000000
_cell_angle_beta   90.00000000
_cell_angle_gamma   90.00000000
_symmetry_Int_Tables_number   1
_chemical_formula_structural   Tb2Pr2ErSn4
_chemical_formula_sum   'Tb8 Pr8 Er4 Sn16'
_cell_volume   1063.18718840
_cell_formula_units_Z   4
loop_
 _symmetry_equiv_pos_site_id
 _symmetry_equiv_pos_as_xyz
  1  'x, y, z'
loop_
 _atom_site_type_symbol
 _atom_site_label
 _atom_site_symmetry_multiplicity
 _atom_site_fract_x
 _atom_site_fract_y
 _atom_site_fract_z
 _atom_site_occupancy
  Tb  Tb0  1  0.365028  0.836097  0.877899  1
  Tb  Tb1  1  0.865028  0.663903  0.622101  1
  Tb  Tb2  1  0.634972  0.163903  0.377899  1
  Tb  Tb3  1  0.134972  0.336097  0.122101  1
  Tb  Tb4  1  0.634972  0.163903  0.122101  1
  Tb  Tb5  1  0.134972  0.336097  0.377899  1
  Tb  Tb6  1  0.365028  0.836097  0.622101  1
  Tb  Tb7  1  0.865028  0.663903  0.877899  1
  Pr  Pr8  1  0.517469  0.320318  0.902421  1
  Pr  Pr9  1  0.017469  0.179682  0.597579  1
  Pr  Pr10  1  0.482531  0.679682  0.402421  1
  Pr  Pr11  1  0.982531  0.820318  0.097579  1
  Pr  Pr12  1  0.482531  0.679682  0.097579  1
  Pr  Pr13  1  0.982531  0.820318  0.402421  1
  Pr  Pr14  1  0.517469  0.320318  0.597579  1
  Pr  Pr15  1  0.017469  0.179682  0.902421  1
  Er  Er16  1  0.198060  0.503981  0.750000  1
  Er  Er17  1  0.698060  0.996019  0.750000  1
  Er  Er18  1  0.801940  0.496019  0.250000  1
  Er  Er19  1  0.301940  0.003981  0.250000  1
  Sn  Sn20  1  0.299111  0.039383  0.042664  1
  Sn  Sn21  1  0.799111  0.460617  0.457336  1
  Sn  Sn22  1  0.700889  0.960617  0.542664  1
  Sn  Sn23  1  0.200889  0.539383  0.957336  1
  Sn  Sn24  1  0.700889  0.960617  0.957336  1
  Sn  Sn25  1  0.200889  0.539383  0.542664  1
  Sn  Sn26  1  0.299111  0.039383  0.457336  1
  Sn  Sn27  1  0.799111  0.460617  0.042664  1
  Sn  Sn28  1  0.563761  0.624381  0.750000  1
  Sn  Sn29  1  0.063761  0.875619  0.750000  1
  Sn  Sn30  1  0.436239  0.375619  0.250000  1
  Sn  Sn31  1  0.936239  0.124381  0.250000  1
  Sn  Sn32  1  0.325367  0.141484  0.750000  1
  Sn  Sn33  1  0.825367  0.358516  0.750000  1
  Sn  Sn34  1  0.674633  0.858516  0.250000  1
  Sn  Sn35  1  0.174633  0.641484  0.250000  1
