# generated using pymatgen
data_Dy5Ho5Ga2(SiB8)2
_symmetry_space_group_name_H-M   'P 1'
_cell_length_a   7.23777235
_cell_length_b   7.23769864
_cell_length_c   8.13089300
_cell_angle_alpha   89.99928789
_cell_angle_beta   90.00126056
_cell_angle_gamma   89.69808639
_symmetry_Int_Tables_number   1
_chemical_formula_structural   Dy5Ho5Ga2(SiB8)2
_chemical_formula_sum   'Dy5 Ho5 Ga2 Si2 B16'
_cell_volume   425.92941264
_cell_formula_units_Z   1
loop_
 _symmetry_equiv_pos_site_id
 _symmetry_equiv_pos_as_xyz
  1  'x, y, z'
loop_
 _atom_site_type_symbol
 _atom_site_label
 _atom_site_symmetry_multiplicity
 _atom_site_fract_x
 _atom_site_fract_y
 _atom_site_fract_z
 _atom_site_occupancy
  Dy  Dy0  1  0.679351  0.179389  0.223838  1
  Dy  Dy1  1  0.320606  0.820622  0.776147  1
  Dy  Dy2  1  0.320611  0.820650  0.223839  1
  Dy  Dy3  1  0.815646  0.684355  0.219137  1
  Dy  Dy4  1  0.679375  0.179399  0.776147  1
  Ho  Ho5  1  0.815600  0.684400  0.781475  1
  Ho  Ho6  1  0.184429  0.315575  0.781551  1
  Ho  Ho7  1  0.184440  0.315563  0.218435  1
  Ho  Ho8  1  0.000053  0.000110  0.500075  1
  Ho  Ho9  1  0.499890  0.499939  0.500073  1
  Ga  Ga10  1  0.117448  0.617281  0.500135  1
  Ga  Ga11  1  0.882718  0.382553  0.500133  1
  Si  Si12  1  0.383845  0.116155  0.500025  1
  Si  Si13  1  0.615997  0.884002  0.500151  1
  B  B14  1  0.171690  0.039482  0.999953  1
  B  B15  1  0.828386  0.960687  0.999903  1
  B  B16  1  0.959717  0.172047  0.999952  1
  B  B17  1  0.327952  0.540283  0.999952  1
  B  B18  1  0.040432  0.828046  0.999888  1
  B  B19  1  0.671954  0.459571  0.999888  1
  B  B20  1  0.539313  0.671611  0.999902  1
  B  B21  1  0.460520  0.328311  0.999954  1
  B  B22  1  0.090605  0.590464  0.999883  1
  B  B23  1  0.909535  0.409396  0.999883  1
  B  B24  1  0.408483  0.091517  0.999980  1
  B  B25  1  0.591478  0.908524  0.999965  1
  B  B26  1  0.000135  0.000225  0.162291  1
  B  B27  1  0.000018  0.000000  0.837579  1
  B  B28  1  0.499999  0.499980  0.837581  1
  B  B29  1  0.499774  0.499865  0.162286  1
