# generated using pymatgen
data_YbVI26
_symmetry_space_group_name_H-M   'P 1'
_cell_length_a   12.75824051
_cell_length_b   11.27200058
_cell_length_c   15.05059823
_cell_angle_alpha   120.50849886
_cell_angle_beta   90.76641264
_cell_angle_gamma   103.44872491
_symmetry_Int_Tables_number   1
_chemical_formula_structural   YbVI26
_chemical_formula_sum   'Yb1 V1 I26'
_cell_volume   1791.19192669
_cell_formula_units_Z   1
loop_
 _symmetry_equiv_pos_site_id
 _symmetry_equiv_pos_as_xyz
  1  'x, y, z'
loop_
 _atom_site_type_symbol
 _atom_site_label
 _atom_site_symmetry_multiplicity
 _atom_site_fract_x
 _atom_site_fract_y
 _atom_site_fract_z
 _atom_site_occupancy
  Yb  Yb0  1  0.327528  0.875791  0.934550  1
  V  V1  1  0.669712  0.121074  0.065855  1
  I  I2  1  0.388616  0.663507  0.988306  1
  I  I3  1  0.619491  0.311679  0.020150  1
  I  I4  1  0.582522  0.815341  0.395600  1
  I  I5  1  0.430063  0.197037  0.611079  1
  I  I6  1  0.731462  0.686935  0.011817  1
  I  I7  1  0.253199  0.304017  0.984457  1
  I  I8  1  0.711926  0.964651  0.153805  1
  I  I9  1  0.271889  0.036889  0.826650  1
  I  I10  1  0.471608  0.138567  0.139838  1
  I  I11  1  0.572736  0.883183  0.884636  1
  I  I12  1  0.235529  0.660790  0.695416  1
  I  I13  1  0.770045  0.334263  0.270347  1
  I  I14  1  0.095786  0.825735  0.988021  1
  I  I15  1  0.867363  0.151597  0.009307  1
  I  I16  1  0.072740  0.075479  0.195105  1
  I  I17  1  0.901589  0.910765  0.795943  1
  I  I18  1  0.276839  0.921528  0.463957  1
  I  I19  1  0.734049  0.092730  0.547790  1
  I  I20  1  0.332348  0.429485  0.649794  1
  I  I21  1  0.675971  0.578402  0.340580  1
  I  I22  1  0.865692  0.381712  0.707412  1
  I  I23  1  0.136966  0.632601  0.306489  1
  I  I24  1  0.943401  0.710021  0.603962  1
  I  I25  1  0.053119  0.294513  0.394455  1
  I  I26  1  0.257280  0.635181  0.137124  1
  I  I27  1  0.750530  0.366527  0.877556  1
