# generated using pymatgen
data_Ce2MnAl20RuRh2
_symmetry_space_group_name_H-M   'P 1'
_cell_length_a   6.85086745
_cell_length_b   6.84071160
_cell_length_c   9.13166026
_cell_angle_alpha   90.27780255
_cell_angle_beta   90.39065956
_cell_angle_gamma   97.47300608
_symmetry_Int_Tables_number   1
_chemical_formula_structural   Ce2MnAl20RuRh2
_chemical_formula_sum   'Ce2 Mn1 Al20 Ru1 Rh2'
_cell_volume   424.30161500
_cell_formula_units_Z   1
loop_
 _symmetry_equiv_pos_site_id
 _symmetry_equiv_pos_as_xyz
  1  'x, y, z'
loop_
 _atom_site_type_symbol
 _atom_site_label
 _atom_site_symmetry_multiplicity
 _atom_site_fract_x
 _atom_site_fract_y
 _atom_site_fract_z
 _atom_site_occupancy
  Ce  Ce0  1  0.879958  0.126571  0.753187  1
  Ce  Ce1  1  0.120042  0.873429  0.246813  1
  Mn  Mn2  1  0.000000  0.500000  0.000000  1
  Al  Al3  1  0.591604  0.860504  0.249670  1
  Al  Al4  1  0.776579  0.518879  0.244078  1
  Al  Al5  1  0.155684  0.836889  0.899217  1
  Al  Al6  1  0.408396  0.139496  0.750330  1
  Al  Al7  1  0.627491  0.380492  0.950232  1
  Al  Al8  1  0.841198  0.156513  0.397955  1
  Al  Al9  1  0.778479  0.771458  0.001146  1
  Al  Al10  1  0.862691  0.589374  0.753482  1
  Al  Al11  1  0.844316  0.163111  0.100783  1
  Al  Al12  1  0.223421  0.481121  0.755922  1
  Al  Al13  1  0.158802  0.843487  0.602045  1
  Al  Al14  1  0.775589  0.776169  0.500717  1
  Al  Al15  1  0.478757  0.223646  0.252211  1
  Al  Al16  1  0.621890  0.376622  0.551344  1
  Al  Al17  1  0.224411  0.223831  0.499283  1
  Al  Al18  1  0.378110  0.623378  0.448656  1
  Al  Al19  1  0.137309  0.410626  0.246518  1
  Al  Al20  1  0.521243  0.776354  0.747789  1
  Al  Al21  1  0.372509  0.619508  0.049768  1
  Al  Al22  1  0.221521  0.228542  0.998854  1
  Ru  Ru23  1  0.500000  0.000000  0.500000  1
  Rh  Rh24  1  0.500000  0.000000  0.000000  1
  Rh  Rh25  1  0.000000  0.500000  0.500000  1
