# generated using pymatgen
data_EuY2(Co3P2)3
_symmetry_space_group_name_H-M   'P 1'
_cell_length_a   3.73683500
_cell_length_b   10.60633500
_cell_length_c   12.25269600
_cell_angle_alpha   90.00000000
_cell_angle_beta   90.00000000
_cell_angle_gamma   90.00000000
_symmetry_Int_Tables_number   1
_chemical_formula_structural   EuY2(Co3P2)3
_chemical_formula_sum   'Eu2 Y4 Co18 P12'
_cell_volume   485.62487076
_cell_formula_units_Z   2
loop_
 _symmetry_equiv_pos_site_id
 _symmetry_equiv_pos_as_xyz
  1  'x, y, z'
loop_
 _atom_site_type_symbol
 _atom_site_label
 _atom_site_symmetry_multiplicity
 _atom_site_fract_x
 _atom_site_fract_y
 _atom_site_fract_z
 _atom_site_occupancy
  Eu  Eu0  1  0.000000  0.500000  0.523971  1
  Eu  Eu1  1  0.500000  0.000000  0.476029  1
  Y  Y2  1  0.500000  0.816990  0.204423  1
  Y  Y3  1  0.500000  0.183010  0.204423  1
  Y  Y4  1  0.000000  0.683010  0.795577  1
  Y  Y5  1  0.000000  0.316990  0.795577  1
  Co  Co6  1  0.500000  0.500000  0.157206  1
  Co  Co7  1  0.000000  0.000000  0.842794  1
  Co  Co8  1  0.500000  0.500000  0.704003  1
  Co  Co9  1  0.000000  0.000000  0.295997  1
  Co  Co10  1  0.000000  0.500000  0.986229  1
  Co  Co11  1  0.500000  0.000000  0.013771  1
  Co  Co12  1  0.500000  0.333466  0.994113  1
  Co  Co13  1  0.500000  0.666534  0.994113  1
  Co  Co14  1  0.000000  0.166534  0.005887  1
  Co  Co15  1  0.000000  0.833466  0.005887  1
  Co  Co16  1  0.500000  0.296149  0.429545  1
  Co  Co17  1  0.500000  0.703851  0.429545  1
  Co  Co18  1  0.000000  0.203851  0.570455  1
  Co  Co19  1  0.000000  0.796149  0.570455  1
  Co  Co20  1  0.500000  0.879936  0.711825  1
  Co  Co21  1  0.500000  0.120064  0.711825  1
  Co  Co22  1  0.000000  0.620064  0.288175  1
  Co  Co23  1  0.000000  0.379936  0.288175  1
  P  P24  1  0.500000  0.500000  0.883015  1
  P  P25  1  0.000000  0.000000  0.116985  1
  P  P26  1  0.500000  0.500000  0.340291  1
  P  P27  1  0.000000  0.000000  0.659709  1
  P  P28  1  0.500000  0.306813  0.616907  1
  P  P29  1  0.500000  0.693187  0.616907  1
  P  P30  1  0.000000  0.193187  0.383093  1
  P  P31  1  0.000000  0.806813  0.383093  1
  P  P32  1  0.500000  0.847515  0.894584  1
  P  P33  1  0.500000  0.152485  0.894584  1
  P  P34  1  0.000000  0.652485  0.105416  1
  P  P35  1  0.000000  0.347515  0.105416  1
