# generated using pymatgen
data_Pr9NdSi5Bi
_symmetry_space_group_name_H-M   'P 1'
_cell_length_a   7.91921433
_cell_length_b   7.91921514
_cell_length_c   9.08035600
_cell_angle_alpha   115.85296387
_cell_angle_beta   115.85296672
_cell_angle_gamma   89.99999369
_symmetry_Int_Tables_number   1
_chemical_formula_structural   Pr9NdSi5Bi
_chemical_formula_sum   'Pr9 Nd1 Si5 Bi1'
_cell_volume   448.28799143
_cell_formula_units_Z   1
loop_
 _symmetry_equiv_pos_site_id
 _symmetry_equiv_pos_as_xyz
  1  'x, y, z'
loop_
 _atom_site_type_symbol
 _atom_site_label
 _atom_site_symmetry_multiplicity
 _atom_site_fract_x
 _atom_site_fract_y
 _atom_site_fract_z
 _atom_site_occupancy
  Pr  Pr0  1  0.998123  0.998123  0.996244  1
  Pr  Pr1  1  0.974945  0.825724  0.283920  1
  Pr  Pr2  1  0.308975  0.458197  0.283920  1
  Pr  Pr3  1  0.825724  0.308975  0.283920  1
  Pr  Pr4  1  0.458197  0.974945  0.283920  1
  Pr  Pr5  1  0.041947  0.191162  0.716046  1
  Pr  Pr6  1  0.674099  0.524884  0.716046  1
  Pr  Pr7  1  0.191162  0.674099  0.716046  1
  Pr  Pr8  1  0.524884  0.041947  0.716046  1
  Nd  Nd9  1  0.501963  0.501963  0.003927  1
  Si  Si10  1  0.250288  0.250288  0.500574  1
  Si  Si11  1  0.614466  0.884505  0.000044  1
  Si  Si12  1  0.385578  0.115539  0.000044  1
  Si  Si13  1  0.884505  0.385578  0.000044  1
  Si  Si14  1  0.115539  0.614466  0.000044  1
  Bi  Bi15  1  0.749606  0.749606  0.499212  1
