# generated using pymatgen
data_TbNd6YSb20
_symmetry_space_group_name_H-M   'P 1'
_cell_length_a   4.26456800
_cell_length_b   13.50175596
_cell_length_c   15.14096854
_cell_angle_alpha   77.98218018
_cell_angle_beta   90.00000000
_cell_angle_gamma   90.00000000
_symmetry_Int_Tables_number   1
_chemical_formula_structural   TbNd6YSb20
_chemical_formula_sum   'Tb1 Nd6 Y1 Sb20'
_cell_volume   852.69676714
_cell_formula_units_Z   1
loop_
 _symmetry_equiv_pos_site_id
 _symmetry_equiv_pos_as_xyz
  1  'x, y, z'
loop_
 _atom_site_type_symbol
 _atom_site_label
 _atom_site_symmetry_multiplicity
 _atom_site_fract_x
 _atom_site_fract_y
 _atom_site_fract_z
 _atom_site_occupancy
  Tb  Tb0  1  0.750000  0.603946  0.227372  1
  Nd  Nd1  1  0.750000  0.335672  0.142832  1
  Nd  Nd2  1  0.250000  0.949769  0.361021  1
  Nd  Nd3  1  0.250000  0.664211  0.857077  1
  Nd  Nd4  1  0.250000  0.668122  0.576422  1
  Nd  Nd5  1  0.750000  0.050234  0.638991  1
  Nd  Nd6  1  0.750000  0.331793  0.423758  1
  Y  Y7  1  0.250000  0.396424  0.772644  1
  Sb  Sb8  1  0.750000  0.850846  0.820287  1
  Sb  Sb9  1  0.250000  0.861769  0.675324  1
  Sb  Sb10  1  0.250000  0.142624  0.478052  1
  Sb  Sb11  1  0.750000  0.284573  0.935125  1
  Sb  Sb12  1  0.250000  0.146585  0.780944  1
  Sb  Sb13  1  0.750000  0.574128  0.441809  1
  Sb  Sb14  1  0.750000  0.138245  0.324648  1
  Sb  Sb15  1  0.250000  0.706693  0.350332  1
  Sb  Sb16  1  0.750000  0.293191  0.649653  1
  Sb  Sb17  1  0.750000  0.853484  0.219064  1
  Sb  Sb18  1  0.250000  0.420617  0.972869  1
  Sb  Sb19  1  0.250000  0.425903  0.558324  1
  Sb  Sb20  1  0.750000  0.572626  0.736419  1
  Sb  Sb21  1  0.250000  0.427346  0.263598  1
  Sb  Sb22  1  0.750000  0.857351  0.521942  1
  Sb  Sb23  1  0.750000  0.030812  0.891522  1
  Sb  Sb24  1  0.250000  0.715342  0.064882  1
  Sb  Sb25  1  0.250000  0.969242  0.108480  1
  Sb  Sb26  1  0.250000  0.149069  0.179678  1
  Sb  Sb27  1  0.750000  0.579382  0.026931  1
