# generated using pymatgen
data_Lu4Co16Si5Mo4P7
_symmetry_space_group_name_H-M   'P 1'
_cell_length_a   3.70020800
_cell_length_b   10.41047974
_cell_length_c   11.92687487
_cell_angle_alpha   90.04348995
_cell_angle_beta   90.00000000
_cell_angle_gamma   90.00000000
_symmetry_Int_Tables_number   1
_chemical_formula_structural   Lu4Co16Si5Mo4P7
_chemical_formula_sum   'Lu4 Co16 Si5 Mo4 P7'
_cell_volume   459.43430389
_cell_formula_units_Z   1
loop_
 _symmetry_equiv_pos_site_id
 _symmetry_equiv_pos_as_xyz
  1  'x, y, z'
loop_
 _atom_site_type_symbol
 _atom_site_label
 _atom_site_symmetry_multiplicity
 _atom_site_fract_x
 _atom_site_fract_y
 _atom_site_fract_z
 _atom_site_occupancy
  Lu  Lu0  1  0.250000  0.580605  0.703191  1
  Lu  Lu1  1  0.250000  0.918648  0.203382  1
  Lu  Lu2  1  0.750000  0.418928  0.296739  1
  Lu  Lu3  1  0.750000  0.077280  0.797664  1
  Co  Co4  1  0.250000  0.408474  0.484218  1
  Co  Co5  1  0.250000  0.088389  0.989631  1
  Co  Co6  1  0.750000  0.592469  0.512863  1
  Co  Co7  1  0.750000  0.906172  0.014038  1
  Co  Co8  1  0.250000  0.214872  0.177565  1
  Co  Co9  1  0.250000  0.287847  0.671590  1
  Co  Co10  1  0.750000  0.784582  0.823218  1
  Co  Co11  1  0.750000  0.715608  0.323600  1
  Co  Co12  1  0.250000  0.882861  0.702077  1
  Co  Co13  1  0.250000  0.617360  0.202465  1
  Co  Co14  1  0.750000  0.116111  0.297575  1
  Co  Co15  1  0.750000  0.384839  0.796689  1
  Co  Co16  1  0.250000  0.467019  0.932830  1
  Co  Co17  1  0.250000  0.036366  0.431825  1
  Co  Co18  1  0.750000  0.537089  0.069714  1
  Co  Co19  1  0.750000  0.964363  0.568984  1
  Si  Si20  1  0.250000  0.419958  0.116662  1
  Si  Si21  1  0.250000  0.081171  0.617422  1
  Si  Si22  1  0.750000  0.579810  0.883754  1
  Si  Si23  1  0.750000  0.920123  0.383796  1
  Si  Si24  1  0.250000  0.266985  0.861443  1
  Mo  Mo25  1  0.250000  0.707054  0.991109  1
  Mo  Mo26  1  0.250000  0.792545  0.490278  1
  Mo  Mo27  1  0.750000  0.293707  0.010525  1
  Mo  Mo28  1  0.750000  0.207396  0.508496  1
  P  P29  1  0.250000  0.232029  0.362252  1
  P  P30  1  0.750000  0.732392  0.138127  1
  P  P31  1  0.750000  0.767876  0.637373  1
  P  P32  1  0.250000  0.595590  0.389791  1
  P  P33  1  0.250000  0.903904  0.890593  1
  P  P34  1  0.750000  0.405248  0.609016  1
  P  P35  1  0.750000  0.094329  0.109505  1
