# generated using pymatgen
data_Tb11Pr5Mg2InAgIr4
_symmetry_space_group_name_H-M   'P 1'
_cell_length_a   9.77925739
_cell_length_b   9.77139059
_cell_length_c   9.75944600
_cell_angle_alpha   60.06905976
_cell_angle_beta   60.06684352
_cell_angle_gamma   60.35275964
_symmetry_Int_Tables_number   1
_chemical_formula_structural   Tb11Pr5Mg2InAgIr4
_chemical_formula_sum   'Tb11 Pr5 Mg2 In1 Ag1 Ir4'
_cell_volume   661.85760244
_cell_formula_units_Z   1
loop_
 _symmetry_equiv_pos_site_id
 _symmetry_equiv_pos_as_xyz
  1  'x, y, z'
loop_
 _atom_site_type_symbol
 _atom_site_label
 _atom_site_symmetry_multiplicity
 _atom_site_fract_x
 _atom_site_fract_y
 _atom_site_fract_z
 _atom_site_occupancy
  Tb  Tb0  1  0.347295  0.345534  0.345601  1
  Tb  Tb1  1  0.347868  0.351670  0.960416  1
  Tb  Tb2  1  0.348386  0.957621  0.353332  1
  Tb  Tb3  1  0.952495  0.347770  0.346790  1
  Tb  Tb4  1  0.815052  0.183907  0.184731  1
  Tb  Tb5  1  0.185314  0.813286  0.814474  1
  Tb  Tb6  1  0.184438  0.811300  0.189532  1
  Tb  Tb7  1  0.808677  0.187372  0.810742  1
  Tb  Tb8  1  0.185028  0.188553  0.811005  1
  Tb  Tb9  1  0.807561  0.808118  0.192929  1
  Tb  Tb10  1  0.944558  0.551160  0.553997  1
  Pr  Pr11  1  0.550518  0.940488  0.949923  1
  Pr  Pr12  1  0.563044  0.941184  0.563182  1
  Pr  Pr13  1  0.941190  0.560593  0.934587  1
  Pr  Pr14  1  0.562570  0.559803  0.944144  1
  Pr  Pr15  1  0.941342  0.932666  0.563273  1
  Mg  Mg16  1  0.579959  0.273931  0.567316  1
  Mg  Mg17  1  0.272673  0.578822  0.568828  1
  In  In18  1  0.583048  0.582576  0.578475  1
  Ag  Ag19  1  0.581780  0.578408  0.259673  1
  Ir  Ir20  1  0.146372  0.139506  0.140314  1
  Ir  Ir21  1  0.137183  0.148223  0.575975  1
  Ir  Ir22  1  0.137358  0.575538  0.149013  1
  Ir  Ir23  1  0.576291  0.141971  0.141750  1
