# generated using pymatgen
data_Zr10In3Ga2Pb3
_symmetry_space_group_name_H-M   'P 1'
_cell_length_a   8.82754200
_cell_length_b   8.82754232
_cell_length_c   5.94097800
_cell_angle_alpha   90.00000000
_cell_angle_beta   90.00000000
_cell_angle_gamma   119.99999878
_symmetry_Int_Tables_number   1
_chemical_formula_structural   Zr10In3Ga2Pb3
_chemical_formula_sum   'Zr10 In3 Ga2 Pb3'
_cell_volume   400.92965679
_cell_formula_units_Z   1
loop_
 _symmetry_equiv_pos_site_id
 _symmetry_equiv_pos_as_xyz
  1  'x, y, z'
loop_
 _atom_site_type_symbol
 _atom_site_label
 _atom_site_symmetry_multiplicity
 _atom_site_fract_x
 _atom_site_fract_y
 _atom_site_fract_z
 _atom_site_occupancy
  Zr  Zr0  1  0.666667  0.333333  0.996261  1
  Zr  Zr1  1  0.333333  0.666667  0.996261  1
  Zr  Zr2  1  0.333333  0.666667  0.503739  1
  Zr  Zr3  1  0.666667  0.333333  0.503739  1
  Zr  Zr4  1  0.737482  0.737482  0.750000  1
  Zr  Zr5  1  0.262518  0.000000  0.750000  1
  Zr  Zr6  1  0.000000  0.262518  0.750000  1
  Zr  Zr7  1  0.260334  0.260334  0.250000  1
  Zr  Zr8  1  0.739666  0.000000  0.250000  1
  Zr  Zr9  1  0.000000  0.739666  0.250000  1
  In  In10  1  0.385769  0.385769  0.750000  1
  In  In11  1  0.614231  0.000000  0.750000  1
  In  In12  1  0.000000  0.614231  0.750000  1
  Ga  Ga13  1  0.000000  0.000000  0.997047  1
  Ga  Ga14  1  0.000000  0.000000  0.502953  1
  Pb  Pb15  1  0.611681  0.611681  0.250000  1
  Pb  Pb16  1  0.388319  0.000000  0.250000  1
  Pb  Pb17  1  0.000000  0.388319  0.250000  1
