# generated using pymatgen
data_Li3Al8CrIr4
_symmetry_space_group_name_H-M   'P 1'
_cell_length_a   4.28490606
_cell_length_b   5.97763400
_cell_length_c   8.60183711
_cell_angle_alpha   90.00000000
_cell_angle_beta   89.98148838
_cell_angle_gamma   90.00000000
_symmetry_Int_Tables_number   1
_chemical_formula_structural   Li3Al8CrIr4
_chemical_formula_sum   'Li3 Al8 Cr1 Ir4'
_cell_volume   220.32400465
_cell_formula_units_Z   1
loop_
 _symmetry_equiv_pos_site_id
 _symmetry_equiv_pos_as_xyz
  1  'x, y, z'
loop_
 _atom_site_type_symbol
 _atom_site_label
 _atom_site_symmetry_multiplicity
 _atom_site_fract_x
 _atom_site_fract_y
 _atom_site_fract_z
 _atom_site_occupancy
  Li  Li0  1  0.747434  0.749999  0.378548  1
  Li  Li1  1  0.252677  0.250000  0.625031  1
  Li  Li2  1  0.752635  0.749999  0.871358  1
  Al  Al3  1  0.748204  0.504294  0.124980  1
  Al  Al4  1  0.748204  0.995708  0.124980  1
  Al  Al5  1  0.248027  0.999369  0.377725  1
  Al  Al6  1  0.248027  0.500631  0.377725  1
  Al  Al7  1  0.751829  0.490906  0.624982  1
  Al  Al8  1  0.751829  0.009096  0.624982  1
  Al  Al9  1  0.251787  0.999386  0.872316  1
  Al  Al10  1  0.251787  0.500614  0.872316  1
  Cr  Cr11  1  0.248488  0.250000  0.125036  1
  Ir  Ir12  1  0.248136  0.749999  0.125018  1
  Ir  Ir13  1  0.748111  0.250000  0.369975  1
  Ir  Ir14  1  0.251483  0.749999  0.625014  1
  Ir  Ir15  1  0.751341  0.250000  0.880017  1
