# generated using pymatgen
data_Er5Cu2Bi
_symmetry_space_group_name_H-M   'P 1'
_cell_length_a   8.53453569
_cell_length_b   8.53453578
_cell_length_c   8.53453548
_cell_angle_alpha   124.93139360
_cell_angle_beta   124.93139398
_cell_angle_gamma   81.65170156
_symmetry_Int_Tables_number   1
_chemical_formula_structural   Er5Cu2Bi
_chemical_formula_sum   'Er10 Cu4 Bi2'
_cell_volume   402.09895331
_cell_formula_units_Z   2
loop_
 _symmetry_equiv_pos_site_id
 _symmetry_equiv_pos_as_xyz
  1  'x, y, z'
loop_
 _atom_site_type_symbol
 _atom_site_label
 _atom_site_symmetry_multiplicity
 _atom_site_fract_x
 _atom_site_fract_y
 _atom_site_fract_z
 _atom_site_occupancy
  Er  Er0  1  0.000000  0.000000  0.000000  1
  Er  Er1  1  0.500000  0.500000  0.000000  1
  Er  Er2  1  0.792176  0.292176  0.806076  1
  Er  Er3  1  0.292176  0.486100  0.500000  1
  Er  Er4  1  0.986100  0.792176  0.500000  1
  Er  Er5  1  0.707824  0.513900  0.500000  1
  Er  Er6  1  0.013900  0.207824  0.500000  1
  Er  Er7  1  0.513900  0.013900  0.806076  1
  Er  Er8  1  0.207824  0.707824  0.193924  1
  Er  Er9  1  0.486100  0.986100  0.193924  1
  Cu  Cu10  1  0.867386  0.367386  0.234771  1
  Cu  Cu11  1  0.367386  0.132614  0.500000  1
  Cu  Cu12  1  0.632614  0.867386  0.500000  1
  Cu  Cu13  1  0.132614  0.632614  0.765229  1
  Bi  Bi14  1  0.250000  0.250000  0.000000  1
  Bi  Bi15  1  0.750000  0.750000  0.000000  1
