# generated using pymatgen
data_Li4Np3FeO12
_symmetry_space_group_name_H-M   'P 1'
_cell_length_a   5.38821586
_cell_length_b   5.77972651
_cell_length_c   7.85870056
_cell_angle_alpha   83.37066414
_cell_angle_beta   90.66715077
_cell_angle_gamma   90.13714866
_symmetry_Int_Tables_number   1
_chemical_formula_structural   Li4Np3FeO12
_chemical_formula_sum   'Li4 Np3 Fe1 O12'
_cell_volume   243.08591437
_cell_formula_units_Z   1
loop_
 _symmetry_equiv_pos_site_id
 _symmetry_equiv_pos_as_xyz
  1  'x, y, z'
loop_
 _atom_site_type_symbol
 _atom_site_label
 _atom_site_symmetry_multiplicity
 _atom_site_fract_x
 _atom_site_fract_y
 _atom_site_fract_z
 _atom_site_occupancy
  Li  Li0  1  0.989813  0.562587  0.260267  1
  Li  Li1  1  0.512266  0.049419  0.807636  1
  Li  Li2  1  0.005184  0.604626  0.811209  1
  Li  Li3  1  0.489562  0.947886  0.202889  1
  Np  Np4  1  0.501755  0.497437  0.504647  1
  Np  Np5  1  0.002799  0.002959  0.499048  1
  Np  Np6  1  0.497182  0.496526  0.001700  1
  Fe  Fe7  1  0.999624  0.015132  0.999642  1
  O  O8  1  0.674065  0.804425  0.413911  1
  O  O9  1  0.877803  0.995053  0.732652  1
  O  O10  1  0.660429  0.184197  0.044255  1
  O  O11  1  0.827424  0.318121  0.418923  1
  O  O12  1  0.197571  0.333750  0.933709  1
  O  O13  1  0.656672  0.506059  0.734067  1
  O  O14  1  0.346248  0.495515  0.273697  1
  O  O15  1  0.801189  0.673097  0.054950  1
  O  O16  1  0.172655  0.686933  0.578670  1
  O  O17  1  0.319672  0.802447  0.948535  1
  O  O18  1  0.124636  0.983169  0.266474  1
  O  O19  1  0.343450  0.183062  0.584317  1
