# generated using pymatgen
data_ScTa2Ti3Rh10
_symmetry_space_group_name_H-M   'P 1'
_cell_length_a   4.16689700
_cell_length_b   5.49125247
_cell_length_c   10.71356640
_cell_angle_alpha   91.18065350
_cell_angle_beta   90.00000000
_cell_angle_gamma   90.00000000
_symmetry_Int_Tables_number   1
_chemical_formula_structural   ScTa2Ti3Rh10
_chemical_formula_sum   'Sc1 Ta2 Ti3 Rh10'
_cell_volume   245.09024784
_cell_formula_units_Z   1
loop_
 _symmetry_equiv_pos_site_id
 _symmetry_equiv_pos_as_xyz
  1  'x, y, z'
loop_
 _atom_site_type_symbol
 _atom_site_label
 _atom_site_symmetry_multiplicity
 _atom_site_fract_x
 _atom_site_fract_y
 _atom_site_fract_z
 _atom_site_occupancy
  Sc  Sc0  1  0.500000  0.836138  0.359063  1
  Ta  Ta1  1  0.500000  0.334755  0.147379  1
  Ta  Ta2  1  0.500000  0.664869  0.854635  1
  Ti  Ti3  1  0.000000  0.003421  0.000532  1
  Ti  Ti4  1  0.000000  0.498311  0.501179  1
  Ti  Ti5  1  0.500000  0.160702  0.642249  1
  Rh  Rh6  1  0.000000  0.012043  0.508855  1
  Rh  Rh7  1  0.000000  0.497597  0.996942  1
  Rh  Rh8  1  0.000000  0.092459  0.235547  1
  Rh  Rh9  1  0.000000  0.903884  0.764410  1
  Rh  Rh10  1  0.000000  0.586773  0.255641  1
  Rh  Rh11  1  0.000000  0.401840  0.736734  1
  Rh  Rh12  1  0.500000  0.322890  0.394871  1
  Rh  Rh13  1  0.500000  0.685320  0.610597  1
  Rh  Rh14  1  0.500000  0.809008  0.098213  1
  Rh  Rh15  1  0.500000  0.189989  0.893154  1
