# generated using pymatgen
data_Dy2Al2GaCu7
_symmetry_space_group_name_H-M   'P 1'
_cell_length_a   4.17116400
_cell_length_b   5.07994952
_cell_length_c   8.75599107
_cell_angle_alpha   90.57550317
_cell_angle_beta   90.00000000
_cell_angle_gamma   90.00000000
_symmetry_Int_Tables_number   1
_chemical_formula_structural   Dy2Al2GaCu7
_chemical_formula_sum   'Dy2 Al2 Ga1 Cu7'
_cell_volume   185.52398473
_cell_formula_units_Z   1
loop_
 _symmetry_equiv_pos_site_id
 _symmetry_equiv_pos_as_xyz
  1  'x, y, z'
loop_
 _atom_site_type_symbol
 _atom_site_label
 _atom_site_symmetry_multiplicity
 _atom_site_fract_x
 _atom_site_fract_y
 _atom_site_fract_z
 _atom_site_occupancy
  Dy  Dy0  1  0.000000  0.001920  0.000039  1
  Dy  Dy1  1  0.000000  0.498045  0.499952  1
  Al  Al2  1  0.500000  0.512890  0.995713  1
  Al  Al3  1  0.500000  0.987082  0.504292  1
  Ga  Ga4  1  0.500000  0.249948  0.249989  1
  Cu  Cu5  1  0.000000  0.996098  0.335440  1
  Cu  Cu6  1  0.000000  0.499885  0.832675  1
  Cu  Cu7  1  0.000000  0.503849  0.164561  1
  Cu  Cu8  1  0.000000  0.000109  0.667316  1
  Cu  Cu9  1  0.500000  0.750013  0.750009  1
  Cu  Cu10  1  0.500000  0.749947  0.250022  1
  Cu  Cu11  1  0.500000  0.250014  0.749990  1
