# generated using pymatgen
data_Th3Pa(Rh2Pb)2
_symmetry_space_group_name_H-M   'P 1'
_cell_length_a   7.91297468
_cell_length_b   7.91297468
_cell_length_c   3.72092300
_cell_angle_alpha   90.00000000
_cell_angle_beta   90.00000000
_cell_angle_gamma   88.86421366
_symmetry_Int_Tables_number   1
_chemical_formula_structural   Th3Pa(Rh2Pb)2
_chemical_formula_sum   'Th3 Pa1 Rh4 Pb2'
_cell_volume   232.94044434
_cell_formula_units_Z   1
loop_
 _symmetry_equiv_pos_site_id
 _symmetry_equiv_pos_as_xyz
  1  'x, y, z'
loop_
 _atom_site_type_symbol
 _atom_site_label
 _atom_site_symmetry_multiplicity
 _atom_site_fract_x
 _atom_site_fract_y
 _atom_site_fract_z
 _atom_site_occupancy
  Th  Th0  1  0.329340  0.170661  0.500001  1
  Th  Th1  1  0.830847  0.326533  0.500001  1
  Th  Th2  1  0.173468  0.669152  0.500001  1
  Pa  Pa3  1  0.668228  0.831771  0.500001  1
  Rh  Rh4  1  0.636533  0.117572  0.000000  1
  Rh  Rh5  1  0.123292  0.376708  0.000000  1
  Rh  Rh6  1  0.852362  0.647638  0.000000  1
  Rh  Rh7  1  0.382428  0.863467  0.000000  1
  Pb  Pb8  1  0.000281  0.996779  0.000000  1
  Pb  Pb9  1  0.503222  0.499720  0.000000  1
