# generated using pymatgen
data_Dy4Al18IrPd4Ru
_symmetry_space_group_name_H-M   'P 1'
_cell_length_a   7.59122684
_cell_length_b   7.59123134
_cell_length_c   9.43327700
_cell_angle_alpha   89.95042718
_cell_angle_beta   89.95042715
_cell_angle_gamma   119.54699307
_symmetry_Int_Tables_number   1
_chemical_formula_structural   Dy4Al18IrPd4Ru
_chemical_formula_sum   'Dy4 Al18 Ir1 Pd4 Ru1'
_cell_volume   472.91293786
_cell_formula_units_Z   1
loop_
 _symmetry_equiv_pos_site_id
 _symmetry_equiv_pos_as_xyz
  1  'x, y, z'
loop_
 _atom_site_type_symbol
 _atom_site_label
 _atom_site_symmetry_multiplicity
 _atom_site_fract_x
 _atom_site_fract_y
 _atom_site_fract_z
 _atom_site_occupancy
  Dy  Dy0  1  0.995222  0.669740  0.749951  1
  Dy  Dy1  1  0.004778  0.330260  0.250049  1
  Dy  Dy2  1  0.669740  0.995222  0.749951  1
  Dy  Dy3  1  0.330260  0.004778  0.250049  1
  Al  Al4  1  0.125590  0.125590  0.748219  1
  Al  Al5  1  0.874410  0.874410  0.251781  1
  Al  Al6  1  0.999696  0.329413  0.575540  1
  Al  Al7  1  0.000304  0.670587  0.424460  1
  Al  Al8  1  0.999708  0.668002  0.076710  1
  Al  Al9  1  0.331998  0.000292  0.923290  1
  Al  Al10  1  0.000292  0.331998  0.923290  1
  Al  Al11  1  0.668002  0.999708  0.076710  1
  Al  Al12  1  0.670587  0.000304  0.424460  1
  Al  Al13  1  0.329413  0.999696  0.575540  1
  Al  Al14  1  0.330540  0.330540  0.055302  1
  Al  Al15  1  0.669460  0.669460  0.944698  1
  Al  Al16  1  0.671416  0.671416  0.554549  1
  Al  Al17  1  0.328584  0.328584  0.445451  1
  Al  Al18  1  0.340797  0.546651  0.749647  1
  Al  Al19  1  0.659203  0.453349  0.250353  1
  Al  Al20  1  0.546651  0.340797  0.749647  1
  Al  Al21  1  0.453349  0.659203  0.250353  1
  Ir  Ir22  1  0.000000  0.000000  0.000000  1
  Pd  Pd23  1  0.672385  0.327614  0.500000  1
  Pd  Pd24  1  0.327615  0.672386  0.500000  1
  Pd  Pd25  1  0.327769  0.672231  0.000000  1
  Pd  Pd26  1  0.672231  0.327769  0.000000  1
  Ru  Ru27  1  0.000000  0.000000  0.500000  1
