# generated using pymatgen
data_Sc7NbCo7Si14Os
_symmetry_space_group_name_H-M   'P 1'
_cell_length_a   9.50618039
_cell_length_b   9.48846097
_cell_length_c   9.52320260
_cell_angle_alpha   94.04237048
_cell_angle_beta   94.15881482
_cell_angle_gamma   148.79987530
_symmetry_Int_Tables_number   1
_chemical_formula_structural   Sc7NbCo7Si14Os
_chemical_formula_sum   'Sc7 Nb1 Co7 Si14 Os1'
_cell_volume   428.95832332
_cell_formula_units_Z   1
loop_
 _symmetry_equiv_pos_site_id
 _symmetry_equiv_pos_as_xyz
  1  'x, y, z'
loop_
 _atom_site_type_symbol
 _atom_site_label
 _atom_site_symmetry_multiplicity
 _atom_site_fract_x
 _atom_site_fract_y
 _atom_site_fract_z
 _atom_site_occupancy
  Sc  Sc0  1  0.307430  0.504903  0.804915  1
  Sc  Sc1  1  0.696118  0.501948  0.196765  1
  Sc  Sc2  1  0.500644  0.695727  0.196610  1
  Sc  Sc3  1  0.498547  0.301938  0.804499  1
  Sc  Sc4  1  0.138733  0.138296  0.278088  1
  Sc  Sc5  1  0.861346  0.861709  0.723683  1
  Sc  Sc6  1  0.138750  0.863934  0.001117  1
  Nb  Nb7  1  0.864819  0.139523  0.001085  1
  Co  Co8  1  0.104157  0.603180  0.208166  1
  Co  Co9  1  0.898942  0.101375  0.498896  1
  Co  Co10  1  0.598529  0.395610  0.498677  1
  Co  Co11  1  0.602563  0.101388  0.202733  1
  Co  Co12  1  0.902767  0.400550  0.800269  1
  Co  Co13  1  0.100844  0.893773  0.499215  1
  Co  Co14  1  0.395750  0.604156  0.499330  1
  Si  Si15  1  0.289674  0.289666  0.580101  1
  Si  Si16  1  0.708562  0.708900  0.421257  1
  Si  Si17  1  0.286401  0.703538  0.005353  1
  Si  Si18  1  0.722047  0.298964  0.004987  1
  Si  Si19  1  0.068237  0.476234  0.585486  1
  Si  Si20  1  0.899670  0.492241  0.406902  1
  Si  Si21  1  0.508318  0.915259  0.406739  1
  Si  Si22  1  0.517912  0.109518  0.585755  1
  Si  Si23  1  0.245865  0.251036  0.000559  1
  Si  Si24  1  0.750168  0.756276  0.000566  1
  Si  Si25  1  0.303414  0.000186  0.302055  1
  Si  Si26  1  0.717323  0.011936  0.701453  1
  Si  Si27  1  0.981185  0.686343  0.698253  1
  Si  Si28  1  0.996333  0.296227  0.296927  1
  Os  Os29  1  0.394956  0.895666  0.789561  1
