# generated using pymatgen
data_Yb3Ho(Al3Ir)2
_symmetry_space_group_name_H-M   'P 1'
_cell_length_a   5.51279700
_cell_length_b   5.51279704
_cell_length_c   8.72745900
_cell_angle_alpha   90.00000000
_cell_angle_beta   90.00000000
_cell_angle_gamma   120.00000579
_symmetry_Int_Tables_number   1
_chemical_formula_structural   Yb3Ho(Al3Ir)2
_chemical_formula_sum   'Yb3 Ho1 Al6 Ir2'
_cell_volume   229.70075757
_cell_formula_units_Z   1
loop_
 _symmetry_equiv_pos_site_id
 _symmetry_equiv_pos_as_xyz
  1  'x, y, z'
loop_
 _atom_site_type_symbol
 _atom_site_label
 _atom_site_symmetry_multiplicity
 _atom_site_fract_x
 _atom_site_fract_y
 _atom_site_fract_z
 _atom_site_occupancy
  Yb  Yb0  1  0.666667  0.333334  0.055622  1
  Yb  Yb1  1  0.666667  0.333334  0.444689  1
  Yb  Yb2  1  0.333334  0.666668  0.553626  1
  Ho  Ho3  1  0.333334  0.666668  0.948720  1
  Al  Al4  1  0.162006  0.324013  0.248701  1
  Al  Al5  1  0.162007  0.837994  0.248701  1
  Al  Al6  1  0.675987  0.837994  0.248701  1
  Al  Al7  1  0.323627  0.161814  0.750648  1
  Al  Al8  1  0.838187  0.161814  0.750648  1
  Al  Al9  1  0.838186  0.676373  0.750648  1
  Ir  Ir10  1  0.000000  0.000000  0.999665  1
  Ir  Ir11  1  0.000000  0.000000  0.499633  1
