# generated using pymatgen
data_TaTe29
_symmetry_space_group_name_H-M   'P 1'
_cell_length_a   8.39275690
_cell_length_b   10.85648887
_cell_length_c   12.98261900
_cell_angle_alpha   74.37368093
_cell_angle_beta   80.69408241
_cell_angle_gamma   67.43775695
_symmetry_Int_Tables_number   1
_chemical_formula_structural   TaTe29
_chemical_formula_sum   'Ta1 Te29'
_cell_volume   1049.74268640
_cell_formula_units_Z   1
loop_
 _symmetry_equiv_pos_site_id
 _symmetry_equiv_pos_as_xyz
  1  'x, y, z'
loop_
 _atom_site_type_symbol
 _atom_site_label
 _atom_site_symmetry_multiplicity
 _atom_site_fract_x
 _atom_site_fract_y
 _atom_site_fract_z
 _atom_site_occupancy
  Ta  Ta0  1  0.000000  0.000000  0.000000  1
  Te  Te1  1  0.500000  0.000000  0.000000  1
  Te  Te2  1  0.100275  0.201687  0.201552  1
  Te  Te3  1  0.699865  0.399309  0.401066  1
  Te  Te4  1  0.300135  0.600691  0.598934  1
  Te  Te5  1  0.598339  0.200636  0.201910  1
  Te  Te6  1  0.899725  0.798313  0.798448  1
  Te  Te7  1  0.200107  0.400121  0.401524  1
  Te  Te8  1  0.799893  0.599879  0.598476  1
  Te  Te9  1  0.401661  0.799364  0.798090  1
  Te  Te10  1  0.227487  0.086452  0.841197  1
  Te  Te11  1  0.652206  0.707288  0.971997  1
  Te  Te12  1  0.859430  0.269659  0.025831  1
  Te  Te13  1  0.233410  0.913879  0.158811  1
  Te  Te14  1  0.447296  0.492139  0.227651  1
  Te  Te15  1  0.766590  0.086121  0.841189  1
  Te  Te16  1  0.853629  0.105692  0.375321  1
  Te  Te17  1  0.140570  0.730341  0.974169  1
  Te  Te18  1  0.047602  0.693885  0.425300  1
  Te  Te19  1  0.347794  0.292712  0.028003  1
  Te  Te20  1  0.772513  0.913548  0.158803  1
  Te  Te21  1  0.453870  0.307079  0.573012  1
  Te  Te22  1  0.645953  0.893978  0.625549  1
  Te  Te23  1  0.947973  0.492769  0.227013  1
  Te  Te24  1  0.052027  0.507231  0.772987  1
  Te  Te25  1  0.354047  0.106022  0.374451  1
  Te  Te26  1  0.546130  0.692921  0.426988  1
  Te  Te27  1  0.952398  0.306115  0.574700  1
  Te  Te28  1  0.146371  0.894308  0.624679  1
  Te  Te29  1  0.552704  0.507861  0.772349  1
