# generated using pymatgen
data_Li3Ta(B4Ru5)2
_symmetry_space_group_name_H-M   'P 1'
_cell_length_a   2.96033900
_cell_length_b   8.23876998
_cell_length_c   9.90998877
_cell_angle_alpha   91.00297092
_cell_angle_beta   90.00000000
_cell_angle_gamma   90.00000000
_symmetry_Int_Tables_number   1
_chemical_formula_structural   Li3Ta(B4Ru5)2
_chemical_formula_sum   'Li3 Ta1 B8 Ru10'
_cell_volume   241.66315613
_cell_formula_units_Z   1
loop_
 _symmetry_equiv_pos_site_id
 _symmetry_equiv_pos_as_xyz
  1  'x, y, z'
loop_
 _atom_site_type_symbol
 _atom_site_label
 _atom_site_symmetry_multiplicity
 _atom_site_fract_x
 _atom_site_fract_y
 _atom_site_fract_z
 _atom_site_occupancy
  Li  Li0  1  0.500000  0.377088  0.214471  1
  Li  Li1  1  0.500000  0.143967  0.649857  1
  Li  Li2  1  0.500000  0.878976  0.271439  1
  Ta  Ta3  1  0.500000  0.646148  0.825682  1
  B  B4  1  0.500000  0.851015  0.594031  1
  B  B5  1  0.500000  0.140630  0.397236  1
  B  B6  1  0.500000  0.343272  0.907153  1
  B  B7  1  0.500000  0.646883  0.119542  1
  B  B8  1  0.500000  0.960659  0.906430  1
  B  B9  1  0.500000  0.050838  0.087874  1
  B  B10  1  0.500000  0.445882  0.596143  1
  B  B11  1  0.500000  0.536826  0.416365  1
  Ru  Ru12  1  0.000000  0.386351  0.746965  1
  Ru  Ru13  1  0.000000  0.635644  0.279588  1
  Ru  Ru14  1  0.000000  0.900552  0.754332  1
  Ru  Ru15  1  0.000000  0.121975  0.233982  1
  Ru  Ru16  1  0.000000  0.965676  0.472558  1
  Ru  Ru17  1  0.000000  0.494295  0.013619  1
  Ru  Ru18  1  0.000000  0.646925  0.563010  1
  Ru  Ru19  1  0.000000  0.336379  0.455851  1
  Ru  Ru20  1  0.000000  0.151529  0.950748  1
  Ru  Ru21  1  0.000000  0.838487  0.043126  1
