# generated using pymatgen
data_Dy2Tm8Si5P
_symmetry_space_group_name_H-M   'P 1'
_cell_length_a   8.30165835
_cell_length_b   8.32268023
_cell_length_c   6.21114800
_cell_angle_alpha   90.00000000
_cell_angle_beta   90.00000000
_cell_angle_gamma   120.03364464
_symmetry_Int_Tables_number   1
_chemical_formula_structural   Dy2Tm8Si5P
_chemical_formula_sum   'Dy2 Tm8 Si5 P1'
_cell_volume   371.52088921
_cell_formula_units_Z   1
loop_
 _symmetry_equiv_pos_site_id
 _symmetry_equiv_pos_as_xyz
  1  'x, y, z'
loop_
 _atom_site_type_symbol
 _atom_site_label
 _atom_site_symmetry_multiplicity
 _atom_site_fract_x
 _atom_site_fract_y
 _atom_site_fract_z
 _atom_site_occupancy
  Dy  Dy0  1  0.754883  0.999917  0.750000  1
  Dy  Dy1  1  0.243745  0.243021  0.750000  1
  Tm  Tm2  1  0.000643  0.756185  0.750000  1
  Tm  Tm3  1  0.001120  0.244747  0.250000  1
  Tm  Tm4  1  0.757486  0.755906  0.250000  1
  Tm  Tm5  1  0.243146  0.999529  0.250000  1
  Tm  Tm6  1  0.666593  0.332819  0.000092  1
  Tm  Tm7  1  0.333510  0.667612  0.499966  1
  Tm  Tm8  1  0.333510  0.667612  0.000034  1
  Tm  Tm9  1  0.666593  0.332819  0.499908  1
  Si  Si10  1  0.394454  0.393634  0.250000  1
  Si  Si11  1  0.000806  0.606104  0.250000  1
  Si  Si12  1  0.000181  0.396061  0.750000  1
  Si  Si13  1  0.606995  0.605691  0.750000  1
  Si  Si14  1  0.607228  0.999932  0.250000  1
  P  P15  1  0.389110  0.998410  0.750000  1
