# generated using pymatgen
data_Er3Tm(Si5Ir3)2
_symmetry_space_group_name_H-M   'P 1'
_cell_length_a   8.13746702
_cell_length_b   8.13677673
_cell_length_c   8.13677700
_cell_angle_alpha   138.21561920
_cell_angle_beta   103.91831717
_cell_angle_gamma   90.78970036
_symmetry_Int_Tables_number   1
_chemical_formula_structural   Er3Tm(Si5Ir3)2
_chemical_formula_sum   'Er3 Tm1 Si10 Ir6'
_cell_volume   332.55054146
_cell_formula_units_Z   1
loop_
 _symmetry_equiv_pos_site_id
 _symmetry_equiv_pos_as_xyz
  1  'x, y, z'
loop_
 _atom_site_type_symbol
 _atom_site_label
 _atom_site_symmetry_multiplicity
 _atom_site_fract_x
 _atom_site_fract_y
 _atom_site_fract_z
 _atom_site_occupancy
  Er  Er0  1  0.140588  0.368570  0.772017  1
  Er  Er1  1  0.403539  0.131580  0.271958  1
  Er  Er2  1  0.596337  0.868314  0.728022  1
  Tm  Tm3  1  0.859670  0.631580  0.228090  1
  Si  Si4  1  0.499952  0.749941  0.249908  1
  Si  Si5  1  0.499952  0.250044  0.750012  1
  Si  Si6  1  0.225122  0.975109  0.750051  1
  Si  Si7  1  0.774882  0.524907  0.749970  1
  Si  Si8  1  0.774882  0.024914  0.249976  1
  Si  Si9  1  0.225122  0.475071  0.250012  1
  Si  Si10  1  0.049485  0.893610  0.155876  1
  Si  Si11  1  0.950545  0.106421  0.844122  1
  Si  Si12  1  0.737651  0.393547  0.344104  1
  Si  Si13  1  0.262321  0.606426  0.655894  1
  Ir  Ir14  1  0.000007  0.750041  0.749966  1
  Ir  Ir15  1  0.000007  0.250042  0.249967  1
  Ir  Ir16  1  0.245120  0.859961  0.385160  1
  Ir  Ir17  1  0.754632  0.139791  0.614840  1
  Ir  Ir18  1  0.475007  0.360253  0.114754  1
  Ir  Ir19  1  0.525177  0.639879  0.885298  1
