# generated using pymatgen
data_Dy10Ga3CoBi2
_symmetry_space_group_name_H-M   'P 1'
_cell_length_a   8.61193435
_cell_length_b   8.61193515
_cell_length_c   8.78386243
_cell_angle_alpha   124.82371400
_cell_angle_beta   124.82372112
_cell_angle_gamma   80.50812184
_symmetry_Int_Tables_number   1
_chemical_formula_structural   Dy10Ga3CoBi2
_chemical_formula_sum   'Dy10 Ga3 Co1 Bi2'
_cell_volume   426.27262971
_cell_formula_units_Z   1
loop_
 _symmetry_equiv_pos_site_id
 _symmetry_equiv_pos_as_xyz
  1  'x, y, z'
loop_
 _atom_site_type_symbol
 _atom_site_label
 _atom_site_symmetry_multiplicity
 _atom_site_fract_x
 _atom_site_fract_y
 _atom_site_fract_z
 _atom_site_occupancy
  Dy  Dy0  1  0.703336  0.516943  0.500000  1
  Dy  Dy1  1  0.480960  0.000573  0.203389  1
  Dy  Dy2  1  0.777570  0.297183  0.796611  1
  Dy  Dy3  1  0.499427  0.019040  0.796611  1
  Dy  Dy4  1  0.997214  0.998249  0.995463  1
  Dy  Dy5  1  0.047920  0.191105  0.500000  1
  Dy  Dy6  1  0.308895  0.452080  0.500000  1
  Dy  Dy7  1  0.202817  0.722430  0.203389  1
  Dy  Dy8  1  0.983057  0.796664  0.500000  1
  Dy  Dy9  1  0.501751  0.502786  0.004537  1
  Ga  Ga10  1  0.141314  0.641979  0.783292  1
  Ga  Ga11  1  0.858021  0.358686  0.216708  1
  Ga  Ga12  1  0.632583  0.867417  0.500000  1
  Co  Co13  1  0.378785  0.121215  0.500000  1
  Bi  Bi14  1  0.243175  0.256825  0.000000  1
  Bi  Bi15  1  0.743175  0.756825  0.000000  1
