# generated using pymatgen
data_NaLi3PrP12Ir19
_symmetry_space_group_name_H-M   'P 1'
_cell_length_a   12.61954351
_cell_length_b   12.61902840
_cell_length_c   3.94742200
_cell_angle_alpha   90.00000000
_cell_angle_beta   90.00000000
_cell_angle_gamma   119.88838432
_symmetry_Int_Tables_number   1
_chemical_formula_structural   NaLi3PrP12Ir19
_chemical_formula_sum   'Na1 Li3 Pr1 P12 Ir19'
_cell_volume   545.00578385
_cell_formula_units_Z   1
loop_
 _symmetry_equiv_pos_site_id
 _symmetry_equiv_pos_as_xyz
  1  'x, y, z'
loop_
 _atom_site_type_symbol
 _atom_site_label
 _atom_site_symmetry_multiplicity
 _atom_site_fract_x
 _atom_site_fract_y
 _atom_site_fract_z
 _atom_site_occupancy
  Na  Na0  1  0.820222  0.817947  0.500000  1
  Li  Li1  1  0.668651  0.334845  0.000000  1
  Li  Li2  1  0.331382  0.665552  0.000000  1
  Li  Li3  1  0.172652  0.997742  0.500000  1
  Pr  Pr4  1  0.000662  0.178288  0.500000  1
  P  P5  1  0.688562  0.178395  0.500000  1
  P  P6  1  0.822322  0.512470  0.500000  1
  P  P7  1  0.490621  0.312365  0.500000  1
  P  P8  1  0.178649  0.690380  0.500000  1
  P  P9  1  0.509559  0.822257  0.500000  1
  P  P10  1  0.312019  0.489245  0.500000  1
  P  P11  1  0.639749  0.639759  0.000000  1
  P  P12  1  0.358560  0.000220  0.000000  1
  P  P13  1  0.000085  0.362965  0.000000  1
  P  P14  1  0.186478  0.176174  0.000000  1
  P  P15  1  0.814624  0.991559  0.000000  1
  P  P16  1  0.001461  0.818895  0.000000  1
  Ir  Ir17  1  0.801252  0.180284  0.000000  1
  Ir  Ir18  1  0.817592  0.619774  0.000000  1
  Ir  Ir19  1  0.380971  0.196445  0.000000  1
  Ir  Ir20  1  0.183482  0.805096  0.000000  1
  Ir  Ir21  1  0.617739  0.816333  0.000000  1
  Ir  Ir22  1  0.198764  0.378632  0.000000  1
  Ir  Ir23  1  0.456489  0.459623  0.000000  1
  Ir  Ir24  1  0.542295  0.003096  0.000000  1
  Ir  Ir25  1  0.000665  0.543615  0.000000  1
  Ir  Ir26  1  0.293304  0.292133  0.500000  1
  Ir  Ir27  1  0.706886  0.999771  0.500000  1
  Ir  Ir28  1  0.001106  0.708327  0.500000  1
  Ir  Ir29  1  0.868848  0.361924  0.500000  1
  Ir  Ir30  1  0.638479  0.509664  0.500000  1
  Ir  Ir31  1  0.492632  0.131835  0.500000  1
  Ir  Ir32  1  0.361244  0.871606  0.500000  1
  Ir  Ir33  1  0.507445  0.639298  0.500000  1
  Ir  Ir34  1  0.132233  0.493551  0.500000  1
  Ir  Ir35  1  0.002314  0.999938  0.000000  1
