# generated using pymatgen
data_CsHf6(Zr3Te8)2
_symmetry_space_group_name_H-M   'P 1'
_cell_length_a   7.86893356
_cell_length_b   11.20216332
_cell_length_c   11.84462079
_cell_angle_alpha   118.12835050
_cell_angle_beta   109.34331524
_cell_angle_gamma   90.02293578
_symmetry_Int_Tables_number   1
_chemical_formula_structural   CsHf6(Zr3Te8)2
_chemical_formula_sum   'Cs1 Hf6 Zr6 Te16'
_cell_volume   853.28573071
_cell_formula_units_Z   1
loop_
 _symmetry_equiv_pos_site_id
 _symmetry_equiv_pos_as_xyz
  1  'x, y, z'
loop_
 _atom_site_type_symbol
 _atom_site_label
 _atom_site_symmetry_multiplicity
 _atom_site_fract_x
 _atom_site_fract_y
 _atom_site_fract_z
 _atom_site_occupancy
  Cs  Cs0  1  0.499104  0.999939  0.000009  1
  Hf  Hf1  1  0.122885  0.125777  0.491592  1
  Hf  Hf2  1  0.619721  0.124757  0.493120  1
  Hf  Hf3  1  0.310961  0.367270  0.874825  1
  Hf  Hf4  1  0.812754  0.367922  0.874154  1
  Hf  Hf5  1  0.189123  0.506832  0.630926  1
  Hf  Hf6  1  0.693986  0.508133  0.633590  1
  Zr  Zr7  1  0.380600  0.875299  0.507781  1
  Zr  Zr8  1  0.877711  0.874236  0.509284  1
  Zr  Zr9  1  0.187386  0.632860  0.125652  1
  Zr  Zr10  1  0.688856  0.633644  0.125237  1
  Zr  Zr11  1  0.305906  0.490997  0.365673  1
  Zr  Zr12  1  0.810396  0.492351  0.368204  1
  Te  Te13  1  0.730572  0.059630  0.711525  1
  Te  Te14  1  0.227739  0.059987  0.708199  1
  Te  Te15  1  0.846233  0.652011  0.941118  1
  Te  Te16  1  0.343505  0.648709  0.939997  1
  Te  Te17  1  0.549401  0.291197  0.351350  1
  Te  Te18  1  0.048779  0.288146  0.347112  1
  Te  Te19  1  0.773957  0.947073  0.294729  1
  Te  Te20  1  0.271006  0.947476  0.291138  1
  Te  Te21  1  0.652917  0.347120  0.052791  1
  Te  Te22  1  0.150259  0.343658  0.051818  1
  Te  Te23  1  0.953451  0.709217  0.657361  1
  Te  Te24  1  0.452858  0.705821  0.652931  1
  Te  Te25  1  0.957976  0.332427  0.665628  1
  Te  Te26  1  0.458413  0.334410  0.667019  1
  Te  Te27  1  0.541527  0.665605  0.333001  1
  Te  Te28  1  0.042018  0.667493  0.334237  1
