# generated using pymatgen
data_BaNa3Ca4(WN3)4
_symmetry_space_group_name_H-M   'P 1'
_cell_length_a   6.22953501
_cell_length_b   6.26480751
_cell_length_c   12.06417000
_cell_angle_alpha   90.43799892
_cell_angle_beta   89.62558791
_cell_angle_gamma   122.37883260
_symmetry_Int_Tables_number   1
_chemical_formula_structural   BaNa3Ca4(WN3)4
_chemical_formula_sum   'Ba1 Na3 Ca4 W4 N12'
_cell_volume   397.61177847
_cell_formula_units_Z   1
loop_
 _symmetry_equiv_pos_site_id
 _symmetry_equiv_pos_as_xyz
  1  'x, y, z'
loop_
 _atom_site_type_symbol
 _atom_site_label
 _atom_site_symmetry_multiplicity
 _atom_site_fract_x
 _atom_site_fract_y
 _atom_site_fract_z
 _atom_site_occupancy
  Ba  Ba0  1  0.996511  0.569013  0.353590  1
  Na  Na1  1  0.536959  0.955082  0.870011  1
  Na  Na2  1  0.046761  0.453257  0.638028  1
  Na  Na3  1  0.466086  0.069162  0.118308  1
  Ca  Ca4  1  0.318081  0.086952  0.587537  1
  Ca  Ca5  1  0.905300  0.683693  0.917378  1
  Ca  Ca6  1  0.688561  0.899526  0.421869  1
  Ca  Ca7  1  0.095504  0.323787  0.078569  1
  W  W8  1  0.718382  0.742938  0.662770  1
  W  W9  1  0.243817  0.274529  0.838823  1
  W  W10  1  0.280029  0.241808  0.342923  1
  W  W11  1  0.744896  0.736230  0.157787  1
  N  N12  1  0.554300  0.435155  0.750034  1
  N  N13  1  0.448314  0.554928  0.256893  1
  N  N14  1  0.512952  0.851382  0.615798  1
  N  N15  1  0.131727  0.479561  0.883016  1
  N  N16  1  0.469216  0.107562  0.383979  1
  N  N17  1  0.868641  0.538661  0.113978  1
  N  N18  1  0.695443  0.878707  0.036394  1
  N  N19  1  0.132451  0.279028  0.468332  1
  N  N20  1  0.282395  0.131420  0.962552  1
  N  N21  1  0.872177  0.704240  0.540042  1
  N  N22  1  0.994268  0.993474  0.751264  1
  N  N23  1  0.997227  0.009908  0.250125  1
