# generated using pymatgen
data_PmPS
_symmetry_space_group_name_H-M   'P 1'
_cell_length_a   3.77224900
_cell_length_b   7.80559887
_cell_length_c   8.65212125
_cell_angle_alpha   91.42628528
_cell_angle_beta   90.00000000
_cell_angle_gamma   90.00000000
_symmetry_Int_Tables_number   1
_chemical_formula_structural   PmPS
_chemical_formula_sum   'Pm4 P4 S4'
_cell_volume   254.67986003
_cell_formula_units_Z   4
loop_
 _symmetry_equiv_pos_site_id
 _symmetry_equiv_pos_as_xyz
  1  'x, y, z'
loop_
 _atom_site_type_symbol
 _atom_site_label
 _atom_site_symmetry_multiplicity
 _atom_site_fract_x
 _atom_site_fract_y
 _atom_site_fract_z
 _atom_site_occupancy
  Pm  Pm0  1  0.249966  0.131561  0.217386  1
  Pm  Pm1  1  0.749966  0.368439  0.782614  1
  Pm  Pm2  1  0.750034  0.868439  0.782614  1
  Pm  Pm3  1  0.250034  0.631561  0.217386  1
  P  P4  1  0.750235  0.091390  0.505731  1
  P  P5  1  0.250235  0.408610  0.494269  1
  P  P6  1  0.249765  0.908610  0.494269  1
  P  P7  1  0.749765  0.591390  0.505731  1
  S  S8  1  0.249944  0.122618  0.873759  1
  S  S9  1  0.749944  0.377382  0.126241  1
  S  S10  1  0.750056  0.877382  0.126241  1
  S  S11  1  0.250056  0.622618  0.873759  1
