# generated using pymatgen
data_Ce2BiPtRh
_symmetry_space_group_name_H-M   'P 1'
_cell_length_a   7.88617500
_cell_length_b   7.91350400
_cell_length_c   3.70714400
_cell_angle_alpha   90.00000000
_cell_angle_beta   90.00000000
_cell_angle_gamma   90.00000000
_symmetry_Int_Tables_number   1
_chemical_formula_structural   Ce2BiPtRh
_chemical_formula_sum   'Ce4 Bi2 Pt2 Rh2'
_cell_volume   231.35276400
_cell_formula_units_Z   2
loop_
 _symmetry_equiv_pos_site_id
 _symmetry_equiv_pos_as_xyz
  1  'x, y, z'
loop_
 _atom_site_type_symbol
 _atom_site_label
 _atom_site_symmetry_multiplicity
 _atom_site_fract_x
 _atom_site_fract_y
 _atom_site_fract_z
 _atom_site_occupancy
  Ce  Ce0  1  0.676468  0.176921  0.500000  1
  Ce  Ce1  1  0.168880  0.328678  0.500000  1
  Ce  Ce2  1  0.823532  0.676921  0.500000  1
  Ce  Ce3  1  0.331120  0.828678  0.500000  1
  Bi  Bi4  1  0.993688  0.005138  0.000000  1
  Bi  Bi5  1  0.506312  0.505138  0.000000  1
  Pt  Pt6  1  0.376924  0.123913  0.000000  1
  Pt  Pt7  1  0.123076  0.623913  0.000000  1
  Rh  Rh8  1  0.633092  0.865351  0.000000  1
  Rh  Rh9  1  0.866908  0.365351  0.000000  1
