# generated using pymatgen
data_K(MnSe2)4
_symmetry_space_group_name_H-M   'P 1'
_cell_length_a   9.21960642
_cell_length_b   9.21960618
_cell_length_c   9.21960606
_cell_angle_alpha   44.90926532
_cell_angle_beta   44.90926717
_cell_angle_gamma   44.90926998
_symmetry_Int_Tables_number   1
_chemical_formula_structural   K(MnSe2)4
_chemical_formula_sum   'K1 Mn4 Se8'
_cell_volume   355.44568297
_cell_formula_units_Z   1
loop_
 _symmetry_equiv_pos_site_id
 _symmetry_equiv_pos_as_xyz
  1  'x, y, z'
loop_
 _atom_site_type_symbol
 _atom_site_label
 _atom_site_symmetry_multiplicity
 _atom_site_fract_x
 _atom_site_fract_y
 _atom_site_fract_z
 _atom_site_occupancy
  K  K0  1  0.500000  0.500000  0.500000  1
  Mn  Mn1  1  0.000000  0.500000  0.500000  1
  Mn  Mn2  1  0.500000  0.000000  0.500000  1
  Mn  Mn3  1  0.500000  0.500000  0.000000  1
  Mn  Mn4  1  0.000000  0.000000  0.000000  1
  Se  Se5  1  0.275610  0.777319  0.777319  1
  Se  Se6  1  0.222681  0.222681  0.724390  1
  Se  Se7  1  0.724390  0.222681  0.222681  1
  Se  Se8  1  0.222681  0.724390  0.222681  1
  Se  Se9  1  0.276371  0.276371  0.276371  1
  Se  Se10  1  0.723629  0.723629  0.723629  1
  Se  Se11  1  0.777319  0.275610  0.777319  1
  Se  Se12  1  0.777319  0.777319  0.275610  1
