# generated using pymatgen
data_Dy11Ho(ThSn2)8
_symmetry_space_group_name_H-M   'P 1'
_cell_length_a   8.13254500
_cell_length_b   8.23314400
_cell_length_c   15.55468700
_cell_angle_alpha   90.00000000
_cell_angle_beta   90.00000000
_cell_angle_gamma   89.99781540
_symmetry_Int_Tables_number   1
_chemical_formula_structural   Dy11Ho(ThSn2)8
_chemical_formula_sum   'Dy11 Ho1 Th8 Sn16'
_cell_volume   1041.48606315
_cell_formula_units_Z   1
loop_
 _symmetry_equiv_pos_site_id
 _symmetry_equiv_pos_as_xyz
  1  'x, y, z'
loop_
 _atom_site_type_symbol
 _atom_site_label
 _atom_site_symmetry_multiplicity
 _atom_site_fract_x
 _atom_site_fract_y
 _atom_site_fract_z
 _atom_site_occupancy
  Dy  Dy0  1  0.363865  0.836392  0.876492  1
  Dy  Dy1  1  0.863861  0.663608  0.623515  1
  Dy  Dy2  1  0.636101  0.163589  0.376469  1
  Dy  Dy3  1  0.136170  0.336364  0.123529  1
  Dy  Dy4  1  0.636101  0.163589  0.123531  1
  Dy  Dy5  1  0.136170  0.336364  0.376471  1
  Dy  Dy6  1  0.363865  0.836392  0.623508  1
  Dy  Dy7  1  0.863861  0.663608  0.876485  1
  Dy  Dy8  1  0.192180  0.497798  0.750000  1
  Dy  Dy9  1  0.692191  0.002209  0.750000  1
  Dy  Dy10  1  0.807812  0.502203  0.250000  1
  Ho  Ho11  1  0.307781  0.997837  0.250000  1
  Th  Th12  1  0.519457  0.320369  0.903373  1
  Th  Th13  1  0.019443  0.179611  0.596633  1
  Th  Th14  1  0.480537  0.679613  0.403360  1
  Th  Th15  1  0.980545  0.820407  0.096646  1
  Th  Th16  1  0.480537  0.679613  0.096640  1
  Th  Th17  1  0.980545  0.820407  0.403354  1
  Th  Th18  1  0.519457  0.320369  0.596627  1
  Th  Th19  1  0.019443  0.179611  0.903367  1
  Sn  Sn20  1  0.296716  0.038537  0.042411  1
  Sn  Sn21  1  0.796704  0.461466  0.457662  1
  Sn  Sn22  1  0.703303  0.961450  0.542323  1
  Sn  Sn23  1  0.203298  0.538546  0.957681  1
  Sn  Sn24  1  0.703303  0.961450  0.957677  1
  Sn  Sn25  1  0.203298  0.538546  0.542319  1
  Sn  Sn26  1  0.296716  0.038537  0.457589  1
  Sn  Sn27  1  0.796704  0.461466  0.042338  1
  Sn  Sn28  1  0.559592  0.621511  0.750000  1
  Sn  Sn29  1  0.059599  0.878483  0.750000  1
  Sn  Sn30  1  0.440383  0.378361  0.250000  1
  Sn  Sn31  1  0.940587  0.121478  0.250000  1
  Sn  Sn32  1  0.325476  0.142107  0.750000  1
  Sn  Sn33  1  0.825483  0.357884  0.750000  1
  Sn  Sn34  1  0.674361  0.857911  0.250000  1
  Sn  Sn35  1  0.174555  0.642316  0.250000  1
