# generated using pymatgen
data_Yb6ErLu(Si4Mo3)4
_symmetry_space_group_name_H-M   'P 1'
_cell_length_a   6.72320700
_cell_length_b   6.92323317
_cell_length_c   13.00198015
_cell_angle_alpha   89.80741174
_cell_angle_beta   90.00325768
_cell_angle_gamma   89.98242641
_symmetry_Int_Tables_number   1
_chemical_formula_structural   Yb6ErLu(Si4Mo3)4
_chemical_formula_sum   'Yb6 Er1 Lu1 Si16 Mo12'
_cell_volume   605.19100693
_cell_formula_units_Z   1
loop_
 _symmetry_equiv_pos_site_id
 _symmetry_equiv_pos_as_xyz
  1  'x, y, z'
loop_
 _atom_site_type_symbol
 _atom_site_label
 _atom_site_symmetry_multiplicity
 _atom_site_fract_x
 _atom_site_fract_y
 _atom_site_fract_z
 _atom_site_occupancy
  Yb  Yb0  1  0.498242  0.334471  0.090375  1
  Yb  Yb1  1  0.998217  0.165514  0.409632  1
  Yb  Yb2  1  0.501188  0.668184  0.592584  1
  Yb  Yb3  1  0.000940  0.831383  0.907857  1
  Yb  Yb4  1  0.501037  0.667287  0.909050  1
  Yb  Yb5  1  0.001375  0.832913  0.591403  1
  Er  Er6  1  0.499418  0.331186  0.406505  1
  Lu  Lu7  1  0.998516  0.169541  0.093426  1
  Si  Si8  1  0.658509  0.042298  0.545226  1
  Si  Si9  1  0.158581  0.456923  0.955348  1
  Si  Si10  1  0.339123  0.958465  0.045749  1
  Si  Si11  1  0.840729  0.543117  0.454304  1
  Si  Si12  1  0.341318  0.956387  0.454608  1
  Si  Si13  1  0.841513  0.542070  0.045409  1
  Si  Si14  1  0.660367  0.041943  0.955228  1
  Si  Si15  1  0.159852  0.457968  0.545331  1
  Si  Si16  1  0.535213  0.373166  0.750888  1
  Si  Si17  1  0.035112  0.126420  0.749523  1
  Si  Si18  1  0.464841  0.631219  0.249003  1
  Si  Si19  1  0.965192  0.870106  0.250091  1
  Si  Si20  1  0.800743  0.630210  0.750119  1
  Si  Si21  1  0.300619  0.869374  0.750344  1
  Si  Si22  1  0.197396  0.368007  0.249417  1
  Si  Si23  1  0.698730  0.131647  0.249297  1
  Mo  Mo24  1  0.833693  0.331751  0.627207  1
  Mo  Mo25  1  0.333567  0.168176  0.873191  1
  Mo  Mo26  1  0.165917  0.667113  0.126544  1
  Mo  Mo27  1  0.666006  0.833400  0.372841  1
  Mo  Mo28  1  0.167901  0.665716  0.372459  1
  Mo  Mo29  1  0.668530  0.834621  0.126778  1
  Mo  Mo30  1  0.836210  0.329731  0.873727  1
  Mo  Mo31  1  0.335926  0.169499  0.626815  1
  Mo  Mo32  1  0.661352  0.008700  0.750222  1
  Mo  Mo33  1  0.161304  0.490816  0.750234  1
  Mo  Mo34  1  0.336171  0.996119  0.249908  1
  Mo  Mo35  1  0.836647  0.504564  0.249360  1
