# generated using pymatgen
data_RbHg3Sb2Br3
_symmetry_space_group_name_H-M   'P 1'
_cell_length_a   6.76356300
_cell_length_b   13.48534500
_cell_length_c   13.51803000
_cell_angle_alpha   90.00000000
_cell_angle_beta   90.00000000
_cell_angle_gamma   90.00000000
_symmetry_Int_Tables_number   1
_chemical_formula_structural   RbHg3Sb2Br3
_chemical_formula_sum   'Rb4 Hg12 Sb8 Br12'
_cell_volume   1232.96573446
_cell_formula_units_Z   4
loop_
 _symmetry_equiv_pos_site_id
 _symmetry_equiv_pos_as_xyz
  1  'x, y, z'
loop_
 _atom_site_type_symbol
 _atom_site_label
 _atom_site_symmetry_multiplicity
 _atom_site_fract_x
 _atom_site_fract_y
 _atom_site_fract_z
 _atom_site_occupancy
  Rb  Rb0  1  0.008669  0.750000  0.758915  1
  Rb  Rb1  1  0.991331  0.750000  0.258915  1
  Rb  Rb2  1  0.008669  0.250000  0.741085  1
  Rb  Rb3  1  0.991331  0.250000  0.241085  1
  Hg  Hg4  1  0.468873  0.000000  0.750000  1
  Hg  Hg5  1  0.530573  0.750000  0.009855  1
  Hg  Hg6  1  0.468873  0.500000  0.750000  1
  Hg  Hg7  1  0.531127  0.000000  0.250000  1
  Hg  Hg8  1  0.469427  0.250000  0.990145  1
  Hg  Hg9  1  0.000000  0.500000  0.000000  1
  Hg  Hg10  1  0.000000  0.500000  0.500000  1
  Hg  Hg11  1  0.530573  0.250000  0.490145  1
  Hg  Hg12  1  0.469427  0.750000  0.509855  1
  Hg  Hg13  1  0.531127  0.500000  0.250000  1
  Hg  Hg14  1  0.000000  0.000000  0.000000  1
  Hg  Hg15  1  0.000000  0.000000  0.500000  1
  Sb  Sb16  1  0.371751  0.941960  0.560377  1
  Sb  Sb17  1  0.628249  0.941960  0.060377  1
  Sb  Sb18  1  0.371751  0.558040  0.560377  1
  Sb  Sb19  1  0.628249  0.558040  0.060377  1
  Sb  Sb20  1  0.371751  0.441960  0.939623  1
  Sb  Sb21  1  0.371751  0.058040  0.939623  1
  Sb  Sb22  1  0.628249  0.441960  0.439623  1
  Sb  Sb23  1  0.628249  0.058040  0.439623  1
  Br  Br24  1  0.519098  0.750000  0.798483  1
  Br  Br25  1  0.519098  0.250000  0.701517  1
  Br  Br26  1  0.894535  0.250000  0.988291  1
  Br  Br27  1  0.894204  0.000000  0.750000  1
  Br  Br28  1  0.480902  0.750000  0.298483  1
  Br  Br29  1  0.894204  0.500000  0.750000  1
  Br  Br30  1  0.105465  0.750000  0.011709  1
  Br  Br31  1  0.105796  0.500000  0.250000  1
  Br  Br32  1  0.894535  0.750000  0.511709  1
  Br  Br33  1  0.105796  0.000000  0.250000  1
  Br  Br34  1  0.105465  0.250000  0.488291  1
  Br  Br35  1  0.480902  0.250000  0.201517  1
