# generated using pymatgen
data_La16MgCd3RePt3
_symmetry_space_group_name_H-M   'P 1'
_cell_length_a   10.26084119
_cell_length_b   10.26084087
_cell_length_c   10.26084008
_cell_angle_alpha   59.31573825
_cell_angle_beta   59.31572970
_cell_angle_gamma   59.31573898
_symmetry_Int_Tables_number   1
_chemical_formula_structural   La16MgCd3RePt3
_chemical_formula_sum   'La16 Mg1 Cd3 Re1 Pt3'
_cell_volume   751.99435473
_cell_formula_units_Z   1
loop_
 _symmetry_equiv_pos_site_id
 _symmetry_equiv_pos_as_xyz
  1  'x, y, z'
loop_
 _atom_site_type_symbol
 _atom_site_label
 _atom_site_symmetry_multiplicity
 _atom_site_fract_x
 _atom_site_fract_y
 _atom_site_fract_z
 _atom_site_occupancy
  La  La0  1  0.601644  0.601644  0.601644  1
  La  La1  1  0.595166  0.595166  0.211360  1
  La  La2  1  0.595166  0.211360  0.595166  1
  La  La3  1  0.211360  0.595166  0.595166  1
  La  La4  1  0.065929  0.438089  0.438089  1
  La  La5  1  0.440461  0.055293  0.055293  1
  La  La6  1  0.438089  0.065929  0.438089  1
  La  La7  1  0.055293  0.440461  0.055293  1
  La  La8  1  0.438089  0.438089  0.065929  1
  La  La9  1  0.055293  0.055293  0.440461  1
  La  La10  1  0.187737  0.813999  0.813999  1
  La  La11  1  0.797774  0.191450  0.191450  1
  La  La12  1  0.813999  0.187737  0.813999  1
  La  La13  1  0.191450  0.797774  0.191450  1
  La  La14  1  0.813999  0.813999  0.187737  1
  La  La15  1  0.191450  0.191450  0.797774  1
  Mg  Mg16  1  0.826270  0.826270  0.826270  1
  Cd  Cd17  1  0.829891  0.829891  0.510899  1
  Cd  Cd18  1  0.829891  0.510899  0.829891  1
  Cd  Cd19  1  0.510899  0.829891  0.829891  1
  Re  Re20  1  0.392127  0.392127  0.392127  1
  Pt  Pt21  1  0.395526  0.395526  0.826974  1
  Pt  Pt22  1  0.395526  0.826974  0.395526  1
  Pt  Pt23  1  0.826974  0.395526  0.395526  1
