# generated using pymatgen
data_LuZnGa3Ni
_symmetry_space_group_name_H-M   'P 1'
_cell_length_a   7.81242419
_cell_length_b   7.81242506
_cell_length_c   6.49348100
_cell_angle_alpha   90.00000000
_cell_angle_beta   90.00000000
_cell_angle_gamma   149.82651596
_symmetry_Int_Tables_number   1
_chemical_formula_structural   LuZnGa3Ni
_chemical_formula_sum   'Lu2 Zn2 Ga6 Ni2'
_cell_volume   199.19982216
_cell_formula_units_Z   2
loop_
 _symmetry_equiv_pos_site_id
 _symmetry_equiv_pos_as_xyz
  1  'x, y, z'
loop_
 _atom_site_type_symbol
 _atom_site_label
 _atom_site_symmetry_multiplicity
 _atom_site_fract_x
 _atom_site_fract_y
 _atom_site_fract_z
 _atom_site_occupancy
  Lu  Lu0  1  0.873066  0.126934  0.750000  1
  Lu  Lu1  1  0.126934  0.873066  0.250000  1
  Zn  Zn2  1  0.500000  0.500000  0.000000  1
  Zn  Zn3  1  0.500000  0.500000  0.500000  1
  Ga  Ga4  1  0.065231  0.934769  0.750000  1
  Ga  Ga5  1  0.934769  0.065231  0.250000  1
  Ga  Ga6  1  0.681197  0.318803  0.950010  1
  Ga  Ga7  1  0.318803  0.681197  0.049990  1
  Ga  Ga8  1  0.681197  0.318803  0.549990  1
  Ga  Ga9  1  0.318803  0.681197  0.450010  1
  Ni  Ni10  1  0.222874  0.777126  0.750000  1
  Ni  Ni11  1  0.777126  0.222874  0.250000  1
