# generated using pymatgen
data_Zr6V2Co16Si5
_symmetry_space_group_name_H-M   'P 1'
_cell_length_a   8.11779988
_cell_length_b   8.11780063
_cell_length_c   8.10208200
_cell_angle_alpha   60.06402404
_cell_angle_beta   60.06402099
_cell_angle_gamma   59.87071554
_symmetry_Int_Tables_number   1
_chemical_formula_structural   Zr6V2Co16Si5
_chemical_formula_sum   'Zr6 V2 Co16 Si5'
_cell_volume   377.52959215
_cell_formula_units_Z   1
loop_
 _symmetry_equiv_pos_site_id
 _symmetry_equiv_pos_as_xyz
  1  'x, y, z'
loop_
 _atom_site_type_symbol
 _atom_site_label
 _atom_site_symmetry_multiplicity
 _atom_site_fract_x
 _atom_site_fract_y
 _atom_site_fract_z
 _atom_site_occupancy
  Zr  Zr0  1  0.704126  0.295874  0.289279  1
  Zr  Zr1  1  0.291900  0.291900  0.708100  1
  Zr  Zr2  1  0.295874  0.704126  0.710721  1
  Zr  Zr3  1  0.708100  0.708100  0.291900  1
  Zr  Zr4  1  0.295874  0.704126  0.289279  1
  Zr  Zr5  1  0.704126  0.295874  0.710721  1
  V  V6  1  0.000000  0.000000  0.500000  1
  V  V7  1  0.000000  0.000000  0.000000  1
  Co  Co8  1  0.119104  0.119104  0.638659  1
  Co  Co9  1  0.673251  0.981310  0.672719  1
  Co  Co10  1  0.357918  0.881633  0.880224  1
  Co  Co11  1  0.018690  0.326749  0.327281  1
  Co  Co12  1  0.981310  0.673251  0.672719  1
  Co  Co13  1  0.325591  0.325591  0.020305  1
  Co  Co14  1  0.674409  0.674409  0.979695  1
  Co  Co15  1  0.642082  0.118367  0.119776  1
  Co  Co16  1  0.674409  0.674409  0.671485  1
  Co  Co17  1  0.880896  0.880896  0.361341  1
  Co  Co18  1  0.119104  0.119104  0.123133  1
  Co  Co19  1  0.881633  0.357918  0.880224  1
  Co  Co20  1  0.880896  0.880896  0.876867  1
  Co  Co21  1  0.325591  0.325591  0.328515  1
  Co  Co22  1  0.118367  0.642082  0.119776  1
  Co  Co23  1  0.326749  0.018690  0.327281  1
  Si  Si24  1  0.000000  0.500000  0.000000  1
  Si  Si25  1  0.500000  0.500000  0.000000  1
  Si  Si26  1  0.500000  0.000000  0.500000  1
  Si  Si27  1  0.500000  0.000000  0.000000  1
  Si  Si28  1  0.000000  0.500000  0.500000  1
