# generated using pymatgen
data_Co2PdSe4
_symmetry_space_group_name_H-M   'P 1'
_cell_length_a   7.15934866
_cell_length_b   7.15934876
_cell_length_c   7.15934900
_cell_angle_alpha   60.00000349
_cell_angle_beta   60.00000303
_cell_angle_gamma   60.00000248
_symmetry_Int_Tables_number   1
_chemical_formula_structural   Co2PdSe4
_chemical_formula_sum   'Co4 Pd2 Se8'
_cell_volume   259.48102038
_cell_formula_units_Z   2
loop_
 _symmetry_equiv_pos_site_id
 _symmetry_equiv_pos_as_xyz
  1  'x, y, z'
loop_
 _atom_site_type_symbol
 _atom_site_label
 _atom_site_symmetry_multiplicity
 _atom_site_fract_x
 _atom_site_fract_y
 _atom_site_fract_z
 _atom_site_occupancy
  Co  Co0  1  0.625086  0.124971  0.124971  1
  Co  Co1  1  0.124971  0.625086  0.124971  1
  Co  Co2  1  0.124971  0.124971  0.625086  1
  Co  Co3  1  0.124971  0.124971  0.124971  1
  Pd  Pd4  1  0.750000  0.750000  0.750000  1
  Pd  Pd5  1  0.500000  0.500000  0.500000  1
  Se  Se6  1  0.329313  0.890229  0.890229  1
  Se  Se7  1  0.890229  0.329313  0.890229  1
  Se  Se8  1  0.890229  0.890229  0.329313  1
  Se  Se9  1  0.890229  0.890229  0.890229  1
  Se  Se10  1  0.920749  0.359750  0.359750  1
  Se  Se11  1  0.359750  0.920749  0.359750  1
  Se  Se12  1  0.359750  0.359750  0.920749  1
  Se  Se13  1  0.359750  0.359750  0.359750  1
