# generated using pymatgen
data_Ca3AlSiPt2
_symmetry_space_group_name_H-M   'P 1'
_cell_length_a   5.77134100
_cell_length_b   8.06089600
_cell_length_c   13.62802000
_cell_angle_alpha   90.00000000
_cell_angle_beta   90.00000000
_cell_angle_gamma   90.00000000
_symmetry_Int_Tables_number   1
_chemical_formula_structural   Ca3AlSiPt2
_chemical_formula_sum   'Ca12 Al4 Si4 Pt8'
_cell_volume   634.00519378
_cell_formula_units_Z   4
loop_
 _symmetry_equiv_pos_site_id
 _symmetry_equiv_pos_as_xyz
  1  'x, y, z'
loop_
 _atom_site_type_symbol
 _atom_site_label
 _atom_site_symmetry_multiplicity
 _atom_site_fract_x
 _atom_site_fract_y
 _atom_site_fract_z
 _atom_site_occupancy
  Ca  Ca0  1  0.137448  0.609027  0.104013  1
  Ca  Ca1  1  0.137448  0.890973  0.895987  1
  Ca  Ca2  1  0.862552  0.109027  0.395987  1
  Ca  Ca3  1  0.862552  0.390973  0.604013  1
  Ca  Ca4  1  0.862552  0.390973  0.895987  1
  Ca  Ca5  1  0.862552  0.109027  0.104013  1
  Ca  Ca6  1  0.137448  0.890973  0.604013  1
  Ca  Ca7  1  0.137448  0.609027  0.395987  1
  Ca  Ca8  1  0.354431  0.257036  0.250000  1
  Ca  Ca9  1  0.354431  0.242964  0.750000  1
  Ca  Ca10  1  0.645569  0.757036  0.250000  1
  Ca  Ca11  1  0.645569  0.742964  0.750000  1
  Al  Al12  1  0.384150  0.250000  0.000000  1
  Al  Al13  1  0.615850  0.750000  0.500000  1
  Al  Al14  1  0.615850  0.750000  0.000000  1
  Al  Al15  1  0.384150  0.250000  0.500000  1
  Si  Si16  1  0.837043  0.407585  0.250000  1
  Si  Si17  1  0.837043  0.092415  0.750000  1
  Si  Si18  1  0.162957  0.907585  0.250000  1
  Si  Si19  1  0.162957  0.592415  0.750000  1
  Pt  Pt20  1  0.629771  0.468396  0.094171  1
  Pt  Pt21  1  0.629771  0.031604  0.905829  1
  Pt  Pt22  1  0.370229  0.968396  0.405829  1
  Pt  Pt23  1  0.370229  0.531604  0.594171  1
  Pt  Pt24  1  0.370229  0.531604  0.905829  1
  Pt  Pt25  1  0.370229  0.968396  0.094171  1
  Pt  Pt26  1  0.629771  0.031604  0.594171  1
  Pt  Pt27  1  0.629771  0.468396  0.405829  1
