# generated using pymatgen
data_Ho3Be2Ni7
_symmetry_space_group_name_H-M   'P 1'
_cell_length_a   5.00306933
_cell_length_b   5.00762396
_cell_length_c   15.09569900
_cell_angle_alpha   90.00000000
_cell_angle_beta   90.00000000
_cell_angle_gamma   119.96631234
_symmetry_Int_Tables_number   1
_chemical_formula_structural   Ho3Be2Ni7
_chemical_formula_sum   'Ho6 Be4 Ni14'
_cell_volume   327.64188404
_cell_formula_units_Z   2
loop_
 _symmetry_equiv_pos_site_id
 _symmetry_equiv_pos_as_xyz
  1  'x, y, z'
loop_
 _atom_site_type_symbol
 _atom_site_label
 _atom_site_symmetry_multiplicity
 _atom_site_fract_x
 _atom_site_fract_y
 _atom_site_fract_z
 _atom_site_occupancy
  Ho  Ho0  1  0.666665  0.333362  0.038915  1
  Ho  Ho1  1  0.333335  0.666638  0.961085  1
  Ho  Ho2  1  0.333335  0.666638  0.538915  1
  Ho  Ho3  1  0.666665  0.333362  0.461085  1
  Ho  Ho4  1  0.666654  0.333331  0.250000  1
  Ho  Ho5  1  0.333346  0.666669  0.750000  1
  Be  Be6  1  0.666622  0.333332  0.750000  1
  Be  Be7  1  0.333378  0.666668  0.250000  1
  Be  Be8  1  0.999969  0.999950  0.750000  1
  Be  Be9  1  0.000031  0.000050  0.250000  1
  Ni  Ni10  1  0.833502  0.666943  0.636754  1
  Ni  Ni11  1  0.833271  0.166588  0.636751  1
  Ni  Ni12  1  0.333373  0.166587  0.636639  1
  Ni  Ni13  1  0.166498  0.333057  0.363246  1
  Ni  Ni14  1  0.166729  0.833412  0.363249  1
  Ni  Ni15  1  0.666627  0.833413  0.363361  1
  Ni  Ni16  1  0.166498  0.333057  0.136754  1
  Ni  Ni17  1  0.166729  0.833412  0.136751  1
  Ni  Ni18  1  0.666627  0.833413  0.136639  1
  Ni  Ni19  1  0.833502  0.666943  0.863246  1
  Ni  Ni20  1  0.833271  0.166588  0.863249  1
  Ni  Ni21  1  0.333373  0.166587  0.863361  1
  Ni  Ni22  1  0.000000  0.000000  0.500000  1
  Ni  Ni23  1  0.000000  0.000000  0.000000  1
