# generated using pymatgen
data_CaTb2Nd17Ir12
_symmetry_space_group_name_H-M   'P 1'
_cell_length_a   11.23810700
_cell_length_b   11.23810700
_cell_length_c   6.54037800
_cell_angle_alpha   90.00000000
_cell_angle_beta   90.00000000
_cell_angle_gamma   90.00000000
_symmetry_Int_Tables_number   1
_chemical_formula_structural   CaTb2Nd17Ir12
_chemical_formula_sum   'Ca1 Tb2 Nd17 Ir12'
_cell_volume   826.01735962
_cell_formula_units_Z   1
loop_
 _symmetry_equiv_pos_site_id
 _symmetry_equiv_pos_as_xyz
  1  'x, y, z'
loop_
 _atom_site_type_symbol
 _atom_site_label
 _atom_site_symmetry_multiplicity
 _atom_site_fract_x
 _atom_site_fract_y
 _atom_site_fract_z
 _atom_site_occupancy
  Ca  Ca0  1  0.000000  0.000000  0.000000  1
  Tb  Tb1  1  0.500000  0.500000  0.000000  1
  Tb  Tb2  1  0.500000  0.500000  0.500000  1
  Nd  Nd3  1  0.088358  0.288649  0.114456  1
  Nd  Nd4  1  0.789805  0.411723  0.116361  1
  Nd  Nd5  1  0.210195  0.588277  0.116361  1
  Nd  Nd6  1  0.911642  0.711351  0.114456  1
  Nd  Nd7  1  0.411344  0.789066  0.384996  1
  Nd  Nd8  1  0.588656  0.210934  0.384996  1
  Nd  Nd9  1  0.291676  0.088685  0.384777  1
  Nd  Nd10  1  0.708324  0.911315  0.384777  1
  Nd  Nd11  1  0.411723  0.210195  0.883639  1
  Nd  Nd12  1  0.711351  0.088358  0.885544  1
  Nd  Nd13  1  0.288649  0.911642  0.885544  1
  Nd  Nd14  1  0.588277  0.789805  0.883639  1
  Nd  Nd15  1  0.088685  0.708324  0.615223  1
  Nd  Nd16  1  0.911315  0.291676  0.615223  1
  Nd  Nd17  1  0.210934  0.411344  0.615004  1
  Nd  Nd18  1  0.789066  0.588656  0.615004  1
  Nd  Nd19  1  0.000000  0.000000  0.500000  1
  Ir  Ir20  1  0.156768  0.844794  0.255384  1
  Ir  Ir21  1  0.350301  0.350886  0.248590  1
  Ir  Ir22  1  0.649699  0.649114  0.248590  1
  Ir  Ir23  1  0.843232  0.155206  0.255384  1
  Ir  Ir24  1  0.350886  0.649699  0.751410  1
  Ir  Ir25  1  0.155206  0.156768  0.744616  1
  Ir  Ir26  1  0.844794  0.843232  0.744616  1
  Ir  Ir27  1  0.649114  0.350301  0.751410  1
  Ir  Ir28  1  0.000000  0.500000  0.376995  1
  Ir  Ir29  1  0.500000  0.000000  0.120619  1
  Ir  Ir30  1  0.500000  0.000000  0.623005  1
  Ir  Ir31  1  0.000000  0.500000  0.879381  1
