# generated using pymatgen
data_Pr5Sn10IrPd2Rh
_symmetry_space_group_name_H-M   'P 1'
_cell_length_a   14.28595436
_cell_length_b   14.28550235
_cell_length_c   4.68444200
_cell_angle_alpha   90.00000000
_cell_angle_beta   90.00000000
_cell_angle_gamma   90.04988911
_symmetry_Int_Tables_number   1
_chemical_formula_structural   Pr5Sn10IrPd2Rh
_chemical_formula_sum   'Pr10 Sn20 Ir2 Pd4 Rh2'
_cell_volume   956.01009168
_cell_formula_units_Z   2
loop_
 _symmetry_equiv_pos_site_id
 _symmetry_equiv_pos_as_xyz
  1  'x, y, z'
loop_
 _atom_site_type_symbol
 _atom_site_label
 _atom_site_symmetry_multiplicity
 _atom_site_fract_x
 _atom_site_fract_y
 _atom_site_fract_z
 _atom_site_occupancy
  Pr  Pr0  1  0.500000  0.500000  0.000000  1
  Pr  Pr1  1  0.000000  0.000000  0.000000  1
  Pr  Pr2  1  0.676949  0.180845  0.500000  1
  Pr  Pr3  1  0.323051  0.819155  0.500000  1
  Pr  Pr4  1  0.178004  0.319919  0.500000  1
  Pr  Pr5  1  0.821996  0.680081  0.500000  1
  Pr  Pr6  1  0.892288  0.390591  0.500000  1
  Pr  Pr7  1  0.107712  0.609409  0.500000  1
  Pr  Pr8  1  0.392376  0.109706  0.500000  1
  Pr  Pr9  1  0.607624  0.890294  0.500000  1
  Sn  Sn10  1  0.567488  0.070836  0.000000  1
  Sn  Sn11  1  0.432512  0.929164  0.000000  1
  Sn  Sn12  1  0.066852  0.428525  0.000000  1
  Sn  Sn13  1  0.933148  0.571475  0.000000  1
  Sn  Sn14  1  0.652360  0.703312  0.000000  1
  Sn  Sn15  1  0.347640  0.296688  0.000000  1
  Sn  Sn16  1  0.151666  0.797538  0.000000  1
  Sn  Sn17  1  0.848334  0.202462  0.000000  1
  Sn  Sn18  1  0.300803  0.652859  0.000000  1
  Sn  Sn19  1  0.699197  0.347141  0.000000  1
  Sn  Sn20  1  0.198658  0.152895  0.000000  1
  Sn  Sn21  1  0.801342  0.847105  0.000000  1
  Sn  Sn22  1  0.663076  0.502999  0.500000  1
  Sn  Sn23  1  0.336924  0.497001  0.500000  1
  Sn  Sn24  1  0.163149  0.997152  0.500000  1
  Sn  Sn25  1  0.836851  0.002848  0.500000  1
  Sn  Sn26  1  0.496111  0.662570  0.500000  1
  Sn  Sn27  1  0.503889  0.337430  0.500000  1
  Sn  Sn28  1  0.003465  0.163932  0.500000  1
  Sn  Sn29  1  0.996535  0.836068  0.500000  1
  Ir  Ir30  1  0.468344  0.743841  0.000000  1
  Ir  Ir31  1  0.531656  0.256159  0.000000  1
  Pd  Pd32  1  0.745706  0.531082  0.000000  1
  Pd  Pd33  1  0.254294  0.468918  0.000000  1
  Pd  Pd34  1  0.245893  0.969027  0.000000  1
  Pd  Pd35  1  0.754107  0.030973  0.000000  1
  Rh  Rh36  1  0.031158  0.242658  0.000000  1
  Rh  Rh37  1  0.968842  0.757342  0.000000  1
