# generated using pymatgen
data_Ba10Re6AuBrO30
_symmetry_space_group_name_H-M   'P 1'
_cell_length_a   11.18401000
_cell_length_b   11.18401019
_cell_length_c   7.93966800
_cell_angle_alpha   90.00000000
_cell_angle_beta   90.00000000
_cell_angle_gamma   119.99999943
_symmetry_Int_Tables_number   1
_chemical_formula_structural   Ba10Re6AuBrO30
_chemical_formula_sum   'Ba10 Re6 Au1 Br1 O30'
_cell_volume   860.05866920
_cell_formula_units_Z   1
loop_
 _symmetry_equiv_pos_site_id
 _symmetry_equiv_pos_as_xyz
  1  'x, y, z'
loop_
 _atom_site_type_symbol
 _atom_site_label
 _atom_site_symmetry_multiplicity
 _atom_site_fract_x
 _atom_site_fract_y
 _atom_site_fract_z
 _atom_site_occupancy
  Ba  Ba0  1  0.000000  0.268753  0.743283  1
  Ba  Ba1  1  0.333333  0.666667  0.003341  1
  Ba  Ba2  1  0.268798  0.268798  0.244115  1
  Ba  Ba3  1  0.731247  0.731247  0.743283  1
  Ba  Ba4  1  0.666667  0.333333  0.003341  1
  Ba  Ba5  1  0.731202  0.000000  0.244115  1
  Ba  Ba6  1  0.666667  0.333333  0.503403  1
  Ba  Ba7  1  0.333333  0.666667  0.503403  1
  Ba  Ba8  1  0.268753  0.000000  0.743283  1
  Ba  Ba9  1  0.000000  0.731202  0.244115  1
  Re  Re10  1  0.608183  0.608183  0.298469  1
  Re  Re11  1  0.608146  0.000000  0.798746  1
  Re  Re12  1  0.391817  0.000000  0.298469  1
  Re  Re13  1  0.000000  0.391817  0.298469  1
  Re  Re14  1  0.000000  0.608146  0.798746  1
  Re  Re15  1  0.391854  0.391854  0.798746  1
  Au  Au16  1  0.000000  0.000000  0.972539  1
  Br  Br17  1  0.000000  0.000000  0.470781  1
  O  O18  1  0.130475  0.553201  0.759685  1
  O  O19  1  0.610265  0.868742  0.938677  1
  O  O20  1  0.868722  0.258623  0.438616  1
  O  O21  1  0.741377  0.610099  0.438616  1
  O  O22  1  0.389735  0.258476  0.938677  1
  O  O23  1  0.000000  0.298362  0.119498  1
  O  O24  1  0.577273  0.446799  0.759685  1
  O  O25  1  0.422727  0.869525  0.759685  1
  O  O26  1  0.131258  0.741524  0.938677  1
  O  O27  1  0.446816  0.869543  0.259532  1
  O  O28  1  0.868742  0.610265  0.938677  1
  O  O29  1  0.701415  0.000000  0.619469  1
  O  O30  1  0.446799  0.577273  0.759685  1
  O  O31  1  0.131278  0.389901  0.438616  1
  O  O32  1  0.869525  0.422727  0.759685  1
  O  O33  1  0.258623  0.868722  0.438616  1
  O  O34  1  0.298362  0.000000  0.119498  1
  O  O35  1  0.577272  0.130457  0.259532  1
  O  O36  1  0.000000  0.701415  0.619469  1
  O  O37  1  0.389901  0.131278  0.438616  1
  O  O38  1  0.422728  0.553184  0.259532  1
  O  O39  1  0.553184  0.422728  0.259532  1
  O  O40  1  0.130457  0.577272  0.259532  1
  O  O41  1  0.869543  0.446816  0.259532  1
  O  O42  1  0.610099  0.741377  0.438616  1
  O  O43  1  0.701638  0.701638  0.119498  1
  O  O44  1  0.741524  0.131258  0.938677  1
  O  O45  1  0.553201  0.130475  0.759685  1
  O  O46  1  0.298585  0.298585  0.619469  1
  O  O47  1  0.258476  0.389735  0.938677  1
