# generated using pymatgen
data_Tb7(ErIn4)5
_symmetry_space_group_name_H-M   'P 1'
_cell_length_a   6.54402871
_cell_length_b   10.39896397
_cell_length_c   12.24271105
_cell_angle_alpha   90.15562408
_cell_angle_beta   89.94266230
_cell_angle_gamma   89.96577798
_symmetry_Int_Tables_number   1
_chemical_formula_structural   Tb7(ErIn4)5
_chemical_formula_sum   'Tb7 Er5 In20'
_cell_volume   833.12654307
_cell_formula_units_Z   1
loop_
 _symmetry_equiv_pos_site_id
 _symmetry_equiv_pos_as_xyz
  1  'x, y, z'
loop_
 _atom_site_type_symbol
 _atom_site_label
 _atom_site_symmetry_multiplicity
 _atom_site_fract_x
 _atom_site_fract_y
 _atom_site_fract_z
 _atom_site_occupancy
  Tb  Tb0  1  0.610875  0.008169  0.642549  1
  Tb  Tb1  1  0.110164  0.991038  0.857849  1
  Tb  Tb2  1  0.390133  0.508799  0.357652  1
  Tb  Tb3  1  0.110057  0.508805  0.858547  1
  Tb  Tb4  1  0.389935  0.991238  0.356747  1
  Tb  Tb5  1  0.889227  0.009301  0.143080  1
  Tb  Tb6  1  0.610777  0.491268  0.642225  1
  Er  Er7  1  0.348444  0.751118  0.055787  1
  Er  Er8  1  0.149767  0.749858  0.555579  1
  Er  Er9  1  0.650010  0.250341  0.944584  1
  Er  Er10  1  0.849657  0.249301  0.444133  1
  Er  Er11  1  0.890286  0.490759  0.141371  1
  In  In12  1  0.614970  0.749418  0.503346  1
  In  In13  1  0.884042  0.748749  0.006922  1
  In  In14  1  0.385240  0.249847  0.495862  1
  In  In15  1  0.113339  0.250377  0.996101  1
  In  In16  1  0.652674  0.747967  0.242355  1
  In  In17  1  0.848404  0.749516  0.743979  1
  In  In18  1  0.348781  0.250179  0.756811  1
  In  In19  1  0.151841  0.251548  0.256355  1
  In  In20  1  0.119202  0.749643  0.282067  1
  In  In21  1  0.380630  0.749559  0.781813  1
  In  In22  1  0.880954  0.250194  0.717920  1
  In  In23  1  0.621271  0.252753  0.217241  1
  In  In24  1  0.875703  0.542639  0.399756  1
  In  In25  1  0.626173  0.955848  0.902256  1
  In  In26  1  0.125691  0.043845  0.597979  1
  In  In27  1  0.372869  0.457275  0.098614  1
  In  In28  1  0.125068  0.456216  0.598092  1
  In  In29  1  0.374356  0.044890  0.098235  1
  In  In30  1  0.874565  0.955811  0.401984  1
  In  In31  1  0.624893  0.543731  0.902209  1
