# generated using pymatgen
data_Sr3Ca6PrV7O28
_symmetry_space_group_name_H-M   'P 1'
_cell_length_a   11.16799969
_cell_length_b   11.16799932
_cell_length_c   14.48106410
_cell_angle_alpha   67.40495173
_cell_angle_beta   67.40495170
_cell_angle_gamma   60.09814736
_symmetry_Int_Tables_number   1
_chemical_formula_structural   Sr3Ca6PrV7O28
_chemical_formula_sum   'Sr6 Ca12 Pr2 V14 O56'
_cell_volume   1403.01367742
_cell_formula_units_Z   2
loop_
 _symmetry_equiv_pos_site_id
 _symmetry_equiv_pos_as_xyz
  1  'x, y, z'
loop_
 _atom_site_type_symbol
 _atom_site_label
 _atom_site_symmetry_multiplicity
 _atom_site_fract_x
 _atom_site_fract_y
 _atom_site_fract_z
 _atom_site_occupancy
  Sr  Sr0  1  0.553678  0.468455  0.021789  1
  Sr  Sr1  1  0.954072  0.054830  0.020120  1
  Sr  Sr2  1  0.969813  0.453238  0.017882  1
  Sr  Sr3  1  0.054830  0.954072  0.520120  1
  Sr  Sr4  1  0.453238  0.969813  0.517882  1
  Sr  Sr5  1  0.468455  0.553678  0.521789  1
  Ca  Ca6  1  0.503541  0.005510  0.999489  1
  Ca  Ca7  1  0.567025  0.075450  0.201787  1
  Ca  Ca8  1  0.569921  0.660234  0.200443  1
  Ca  Ca9  1  0.157662  0.065283  0.200809  1
  Ca  Ca10  1  0.660234  0.569921  0.700443  1
  Ca  Ca11  1  0.065283  0.157662  0.700809  1
  Ca  Ca12  1  0.075450  0.567025  0.701787  1
  Ca  Ca13  1  0.005510  0.503541  0.499489  1
  Ca  Ca14  1  0.944852  0.850641  0.295834  1
  Ca  Ca15  1  0.350494  0.413843  0.295829  1
  Ca  Ca16  1  0.850641  0.944852  0.795834  1
  Ca  Ca17  1  0.413843  0.350494  0.795829  1
  Pr  Pr18  1  0.910516  0.441562  0.298228  1
  Pr  Pr19  1  0.441562  0.910516  0.798228  1
  V  V20  1  0.768492  0.267589  0.194152  1
  V  V21  1  0.692272  0.221565  0.896439  1
  V  V22  1  0.720601  0.692300  0.896815  1
  V  V23  1  0.192085  0.189928  0.897327  1
  V  V24  1  0.778630  0.307427  0.596882  1
  V  V25  1  0.809108  0.815632  0.596955  1
  V  V26  1  0.692300  0.720601  0.396815  1
  V  V27  1  0.315768  0.279300  0.596728  1
  V  V28  1  0.189928  0.192085  0.397327  1
  V  V29  1  0.221565  0.692272  0.396439  1
  V  V30  1  0.815632  0.809108  0.096955  1
  V  V31  1  0.279300  0.315768  0.096728  1
  V  V32  1  0.307427  0.778630  0.096882  1
  V  V33  1  0.267589  0.768492  0.694152  1
  O  O34  1  0.600206  0.267906  0.229364  1
  O  O35  1  0.768626  0.402895  0.229101  1
  O  O36  1  0.902012  0.100546  0.229349  1
  O  O37  1  0.665446  0.182798  0.029195  1
  O  O38  1  0.683984  0.619151  0.028285  1
  O  O39  1  0.812934  0.312709  0.059768  1
  O  O40  1  0.618142  0.142110  0.864182  1
  O  O41  1  0.636948  0.878614  0.867661  1
  O  O42  1  0.643185  0.645967  0.839650  1
  O  O43  1  0.605244  0.404971  0.855656  1
  O  O44  1  0.119595  0.166603  0.028973  1
  O  O45  1  0.874257  0.152281  0.843103  1
  O  O46  1  0.902998  0.637795  0.854414  1
  O  O47  1  0.603375  0.398689  0.661209  1
  O  O48  1  0.131520  0.370290  0.842563  1
  O  O49  1  0.623117  0.886796  0.638659  1
  O  O50  1  0.150101  0.092058  0.854766  1
  O  O51  1  0.378443  0.115670  0.867268  1
  O  O52  1  0.853759  0.124254  0.640115  1
  O  O53  1  0.898554  0.840202  0.659982  1
  O  O54  1  0.619151  0.683984  0.528285  1
  O  O55  1  0.876238  0.371668  0.620597  1
  O  O56  1  0.869359  0.629756  0.626960  1
  O  O57  1  0.129890  0.373040  0.627700  1
  O  O58  1  0.783214  0.359360  0.466915  1
  O  O59  1  0.864823  0.877346  0.467172  1
  O  O60  1  0.645967  0.643185  0.339650  1
  O  O61  1  0.340298  0.099963  0.658778  1
  O  O62  1  0.637795  0.902998  0.354414  1
  O  O63  1  0.385338  0.351023  0.639469  1
  O  O64  1  0.166603  0.119595  0.528973  1
  O  O65  1  0.182798  0.665446  0.529195  1
  O  O66  1  0.878614  0.636948  0.367661  1
  O  O67  1  0.115670  0.378443  0.367268  1
  O  O68  1  0.142110  0.618142  0.364182  1
  O  O69  1  0.376398  0.292823  0.466735  1
  O  O70  1  0.152281  0.874257  0.343103  1
  O  O71  1  0.092058  0.150101  0.354766  1
  O  O72  1  0.629756  0.869359  0.126960  1
  O  O73  1  0.840202  0.898554  0.159982  1
  O  O74  1  0.370290  0.131520  0.342563  1
  O  O75  1  0.886796  0.623117  0.138659  1
  O  O76  1  0.404971  0.605244  0.355656  1
  O  O77  1  0.099963  0.340298  0.158778  1
  O  O78  1  0.124254  0.853759  0.140115  1
  O  O79  1  0.877346  0.864823  0.967172  1
  O  O80  1  0.351023  0.385338  0.139469  1
  O  O81  1  0.398689  0.603375  0.161209  1
  O  O82  1  0.373040  0.129890  0.127700  1
  O  O83  1  0.371668  0.876238  0.120597  1
  O  O84  1  0.292823  0.376398  0.966735  1
  O  O85  1  0.359360  0.783214  0.966915  1
  O  O86  1  0.100546  0.902012  0.729349  1
  O  O87  1  0.267906  0.600206  0.729364  1
  O  O88  1  0.402895  0.768626  0.729101  1
  O  O89  1  0.312709  0.812934  0.559768  1
