# generated using pymatgen
data_NdTm19Sn16
_symmetry_space_group_name_H-M   'P 1'
_cell_length_a   7.97041564
_cell_length_b   8.08653642
_cell_length_c   15.29586335
_cell_angle_alpha   89.98979748
_cell_angle_beta   89.62183680
_cell_angle_gamma   90.15462991
_symmetry_Int_Tables_number   1
_chemical_formula_structural   NdTm19Sn16
_chemical_formula_sum   'Nd1 Tm19 Sn16'
_cell_volume   985.84006048
_cell_formula_units_Z   1
loop_
 _symmetry_equiv_pos_site_id
 _symmetry_equiv_pos_as_xyz
  1  'x, y, z'
loop_
 _atom_site_type_symbol
 _atom_site_label
 _atom_site_symmetry_multiplicity
 _atom_site_fract_x
 _atom_site_fract_y
 _atom_site_fract_z
 _atom_site_occupancy
  Nd  Nd0  1  0.517489  0.320301  0.404815  1
  Tm  Tm1  1  0.021649  0.177891  0.403510  1
  Tm  Tm2  1  0.368839  0.837466  0.121433  1
  Tm  Tm3  1  0.133789  0.337541  0.623846  1
  Tm  Tm4  1  0.476961  0.678578  0.902692  1
  Tm  Tm5  1  0.870015  0.662275  0.122150  1
  Tm  Tm6  1  0.130720  0.338219  0.877130  1
  Tm  Tm7  1  0.198644  0.504664  0.248867  1
  Tm  Tm8  1  0.699044  0.996074  0.248987  1
  Tm  Tm9  1  0.479283  0.680553  0.597250  1
  Tm  Tm10  1  0.301259  0.003791  0.750468  1
  Tm  Tm11  1  0.633710  0.161359  0.623642  1
  Tm  Tm12  1  0.801659  0.496214  0.750691  1
  Tm  Tm13  1  0.866676  0.662424  0.376495  1
  Tm  Tm14  1  0.022501  0.178476  0.095562  1
  Tm  Tm15  1  0.977083  0.821398  0.902601  1
  Tm  Tm16  1  0.630960  0.161962  0.877407  1
  Tm  Tm17  1  0.524070  0.320719  0.097538  1
  Tm  Tm18  1  0.367898  0.838072  0.377010  1
  Tm  Tm19  1  0.978415  0.820703  0.597330  1
  Sn  Sn20  1  0.797249  0.465006  0.543760  1
  Sn  Sn21  1  0.708920  0.959403  0.459425  1
  Sn  Sn22  1  0.667628  0.849766  0.750065  1
  Sn  Sn23  1  0.200260  0.543091  0.460349  1
  Sn  Sn24  1  0.291114  0.037174  0.958073  1
  Sn  Sn25  1  0.834703  0.349971  0.249218  1
  Sn  Sn26  1  0.791236  0.463179  0.958448  1
  Sn  Sn27  1  0.565033  0.621382  0.249040  1
  Sn  Sn28  1  0.209716  0.535397  0.041185  1
  Sn  Sn29  1  0.435970  0.380958  0.750462  1
  Sn  Sn30  1  0.168091  0.650052  0.749901  1
  Sn  Sn31  1  0.935544  0.118336  0.750428  1
  Sn  Sn32  1  0.292376  0.036795  0.541951  1
  Sn  Sn33  1  0.708657  0.962602  0.041084  1
  Sn  Sn34  1  0.328200  0.147464  0.247479  1
  Sn  Sn35  1  0.064637  0.880744  0.249709  1
