# generated using pymatgen
data_Tm6ZnNi2
_symmetry_space_group_name_H-M   'P 1'
_cell_length_a   8.18189077
_cell_length_b   8.18189093
_cell_length_c   8.18188960
_cell_angle_alpha   106.27810532
_cell_angle_beta   110.05723891
_cell_angle_gamma   112.13198053
_symmetry_Int_Tables_number   1
_chemical_formula_structural   Tm6ZnNi2
_chemical_formula_sum   'Tm12 Zn2 Ni4'
_cell_volume   420.51571505
_cell_formula_units_Z   2
loop_
 _symmetry_equiv_pos_site_id
 _symmetry_equiv_pos_as_xyz
  1  'x, y, z'
loop_
 _atom_site_type_symbol
 _atom_site_label
 _atom_site_symmetry_multiplicity
 _atom_site_fract_x
 _atom_site_fract_y
 _atom_site_fract_z
 _atom_site_occupancy
  Tm  Tm0  1  0.693847  0.262373  0.956220  1
  Tm  Tm1  1  0.306153  0.737627  0.043780  1
  Tm  Tm2  1  0.693847  0.737627  0.431474  1
  Tm  Tm3  1  0.306153  0.262373  0.568526  1
  Tm  Tm4  1  0.805125  0.130783  0.325658  1
  Tm  Tm5  1  0.805125  0.479468  0.674342  1
  Tm  Tm6  1  0.194875  0.869217  0.674342  1
  Tm  Tm7  1  0.194875  0.520532  0.325658  1
  Tm  Tm8  1  0.604454  0.784161  0.820294  1
  Tm  Tm9  1  0.963867  0.784161  0.179706  1
  Tm  Tm10  1  0.036133  0.215839  0.820294  1
  Tm  Tm11  1  0.395546  0.215839  0.179706  1
  Zn  Zn12  1  0.500000  0.500000  0.000000  1
  Zn  Zn13  1  0.500000  0.000000  0.500000  1
  Ni  Ni14  1  0.848554  0.500000  0.348554  1
  Ni  Ni15  1  0.151446  0.500000  0.651446  1
  Ni  Ni16  1  0.000000  0.123408  0.123408  1
  Ni  Ni17  1  0.000000  0.876592  0.876592  1
