# generated using pymatgen
data_YTh4Np3N12
_symmetry_space_group_name_H-M   'P 1'
_cell_length_a   5.89307883
_cell_length_b   6.03557066
_cell_length_c   8.48810222
_cell_angle_alpha   90.49866853
_cell_angle_beta   90.02687082
_cell_angle_gamma   89.61887845
_symmetry_Int_Tables_number   1
_chemical_formula_structural   YTh4Np3N12
_chemical_formula_sum   'Y1 Th4 Np3 N12'
_cell_volume   301.88747657
_cell_formula_units_Z   1
loop_
 _symmetry_equiv_pos_site_id
 _symmetry_equiv_pos_as_xyz
  1  'x, y, z'
loop_
 _atom_site_type_symbol
 _atom_site_label
 _atom_site_symmetry_multiplicity
 _atom_site_fract_x
 _atom_site_fract_y
 _atom_site_fract_z
 _atom_site_occupancy
  Y  Y0  1  0.000000  0.500000  0.000000  1
  Th  Th1  1  0.508900  0.546175  0.247478  1
  Th  Th2  1  0.983636  0.051863  0.247445  1
  Th  Th3  1  0.491100  0.453825  0.752522  1
  Th  Th4  1  0.016364  0.948137  0.752555  1
  Np  Np5  1  0.500000  0.000000  0.500000  1
  Np  Np6  1  0.000000  0.500000  0.500000  1
  Np  Np7  1  0.500000  0.000000  0.000000  1
  N  N8  1  0.373655  0.948759  0.255713  1
  N  N9  1  0.119121  0.450165  0.267009  1
  N  N10  1  0.626345  0.051241  0.744287  1
  N  N11  1  0.880879  0.549835  0.732991  1
  N  N12  1  0.787881  0.822997  0.060791  1
  N  N13  1  0.704929  0.307277  0.434939  1
  N  N14  1  0.209578  0.188873  0.567326  1
  N  N15  1  0.319386  0.705874  0.932984  1
  N  N16  1  0.212119  0.177003  0.939209  1
  N  N17  1  0.295071  0.692723  0.565061  1
  N  N18  1  0.790422  0.811127  0.432674  1
  N  N19  1  0.680614  0.294126  0.067016  1
