# generated using pymatgen
data_Yb3Y(Rh2O7)2
_symmetry_space_group_name_H-M   'P 1'
_cell_length_a   7.20132079
_cell_length_b   7.20131987
_cell_length_c   7.20132009
_cell_angle_alpha   60.17018286
_cell_angle_beta   60.17017326
_cell_angle_gamma   60.17018373
_symmetry_Int_Tables_number   1
_chemical_formula_structural   Yb3Y(Rh2O7)2
_chemical_formula_sum   'Yb3 Y1 Rh4 O14'
_cell_volume   265.08920122
_cell_formula_units_Z   1
loop_
 _symmetry_equiv_pos_site_id
 _symmetry_equiv_pos_as_xyz
  1  'x, y, z'
loop_
 _atom_site_type_symbol
 _atom_site_label
 _atom_site_symmetry_multiplicity
 _atom_site_fract_x
 _atom_site_fract_y
 _atom_site_fract_z
 _atom_site_occupancy
  Yb  Yb0  1  0.125000  0.625000  0.125000  1
  Yb  Yb1  1  0.125000  0.125000  0.625000  1
  Yb  Yb2  1  0.625000  0.125000  0.125000  1
  Y  Y3  1  0.125000  0.125000  0.125000  1
  Rh  Rh4  1  0.625000  0.625000  0.625000  1
  Rh  Rh5  1  0.125000  0.625000  0.625000  1
  Rh  Rh6  1  0.625000  0.625000  0.125000  1
  Rh  Rh7  1  0.625000  0.125000  0.625000  1
  O  O8  1  0.296126  0.703586  0.703586  1
  O  O9  1  0.541313  0.954893  0.954893  1
  O  O10  1  0.703586  0.703586  0.296126  1
  O  O11  1  0.295107  0.295107  0.708687  1
  O  O12  1  0.002140  0.002140  0.002140  1
  O  O13  1  0.295107  0.708687  0.295107  1
  O  O14  1  0.703586  0.296126  0.703586  1
  O  O15  1  0.954893  0.541313  0.954893  1
  O  O16  1  0.546414  0.546414  0.953874  1
  O  O17  1  0.954893  0.954893  0.541313  1
  O  O18  1  0.247860  0.247860  0.247860  1
  O  O19  1  0.546414  0.953874  0.546414  1
  O  O20  1  0.708687  0.295107  0.295107  1
  O  O21  1  0.953874  0.546414  0.546414  1
