# generated using pymatgen
data_Ho11Tm(BBr3)4
_symmetry_space_group_name_H-M   'P 1'
_cell_length_a   9.68310977
_cell_length_b   9.68310925
_cell_length_c   9.68597462
_cell_angle_alpha   109.48901220
_cell_angle_beta   109.48901753
_cell_angle_gamma   109.41638116
_symmetry_Int_Tables_number   1
_chemical_formula_structural   Ho11Tm(BBr3)4
_chemical_formula_sum   'Ho11 Tm1 B4 Br12'
_cell_volume   699.28479774
_cell_formula_units_Z   1
loop_
 _symmetry_equiv_pos_site_id
 _symmetry_equiv_pos_as_xyz
  1  'x, y, z'
loop_
 _atom_site_type_symbol
 _atom_site_label
 _atom_site_symmetry_multiplicity
 _atom_site_fract_x
 _atom_site_fract_y
 _atom_site_fract_z
 _atom_site_occupancy
  Ho  Ho0  1  0.459228  0.479457  0.229696  1
  Ho  Ho1  1  0.749876  0.229568  0.270536  1
  Ho  Ho2  1  0.749998  0.020469  0.479614  1
  Ho  Ho3  1  0.229674  0.459142  0.479725  1
  Ho  Ho4  1  0.270432  0.750124  0.229464  1
  Ho  Ho5  1  0.040858  0.270326  0.020275  1
  Ho  Ho6  1  0.020543  0.040772  0.270304  1
  Ho  Ho7  1  0.479531  0.750002  0.020386  1
  Ho  Ho8  1  0.479578  0.229674  0.459193  1
  Ho  Ho9  1  0.020631  0.479369  0.750000  1
  Ho  Ho10  1  0.270326  0.020422  0.040807  1
  Tm  Tm11  1  0.229027  0.270973  0.750000  1
  B  B12  1  0.249921  0.250079  0.250000  1
  B  B13  1  0.500057  0.999943  0.250000  1
  B  B14  1  0.000585  0.250010  0.500613  1
  B  B15  1  0.249990  0.499415  0.999387  1
  Br  Br16  1  0.249987  0.758169  0.741900  1
  Br  Br17  1  0.516163  0.508134  0.758014  1
  Br  Br18  1  0.983819  0.741912  0.991887  1
  Br  Br19  1  0.741831  0.250013  0.758100  1
  Br  Br20  1  0.991866  0.983837  0.741986  1
  Br  Br21  1  0.249958  0.991926  0.508218  1
  Br  Br22  1  0.758088  0.516181  0.508113  1
  Br  Br23  1  0.508074  0.250042  0.991782  1
  Br  Br24  1  0.758121  0.741879  0.250000  1
  Br  Br25  1  0.741918  0.991959  0.983805  1
  Br  Br26  1  0.991877  0.508123  0.250000  1
  Br  Br27  1  0.508041  0.758082  0.516195  1
