# generated using pymatgen
data_HfZr2Al3Mo2N
_symmetry_space_group_name_H-M   'P 1'
_cell_length_a   7.96050800
_cell_length_b   7.94067421
_cell_length_c   5.36697400
_cell_angle_alpha   90.00000000
_cell_angle_beta   90.00000000
_cell_angle_gamma   120.08255163
_symmetry_Int_Tables_number   1
_chemical_formula_structural   HfZr2Al3Mo2N
_chemical_formula_sum   'Hf2 Zr4 Al6 Mo4 N2'
_cell_volume   293.55968788
_cell_formula_units_Z   2
loop_
 _symmetry_equiv_pos_site_id
 _symmetry_equiv_pos_as_xyz
  1  'x, y, z'
loop_
 _atom_site_type_symbol
 _atom_site_label
 _atom_site_symmetry_multiplicity
 _atom_site_fract_x
 _atom_site_fract_y
 _atom_site_fract_z
 _atom_site_occupancy
  Hf  Hf0  1  0.999745  0.770529  0.750000  1
  Hf  Hf1  1  0.229222  0.229463  0.750000  1
  Zr  Zr2  1  0.233151  0.000007  0.250000  1
  Zr  Zr3  1  0.000511  0.231554  0.250000  1
  Zr  Zr4  1  0.768963  0.768435  0.250000  1
  Zr  Zr5  1  0.767285  0.000007  0.750000  1
  Al  Al6  1  0.584616  0.999997  0.250000  1
  Al  Al7  1  0.999724  0.584276  0.250000  1
  Al  Al8  1  0.415455  0.415711  0.250000  1
  Al  Al9  1  0.414983  0.999999  0.750000  1
  Al  Al10  1  0.999846  0.416103  0.750000  1
  Al  Al11  1  0.583741  0.583887  0.750000  1
  Mo  Mo12  1  0.666251  0.334259  0.998816  1
  Mo  Mo13  1  0.332020  0.665758  0.998837  1
  Mo  Mo14  1  0.666251  0.334259  0.501184  1
  Mo  Mo15  1  0.332020  0.665758  0.501163  1
  N  N16  1  0.003109  0.999999  0.996922  1
  N  N17  1  0.003109  0.999999  0.503078  1
