# generated using pymatgen
data_Er3Lu5(B6Rh)4
_symmetry_space_group_name_H-M   'P 1'
_cell_length_a   3.60515600
_cell_length_b   9.09072606
_cell_length_c   11.41992101
_cell_angle_alpha   90.00909421
_cell_angle_beta   90.00000000
_cell_angle_gamma   90.00000000
_symmetry_Int_Tables_number   1
_chemical_formula_structural   Er3Lu5(B6Rh)4
_chemical_formula_sum   'Er3 Lu5 B24 Rh4'
_cell_volume   374.27061215
_cell_formula_units_Z   1
loop_
 _symmetry_equiv_pos_site_id
 _symmetry_equiv_pos_as_xyz
  1  'x, y, z'
loop_
 _atom_site_type_symbol
 _atom_site_label
 _atom_site_symmetry_multiplicity
 _atom_site_fract_x
 _atom_site_fract_y
 _atom_site_fract_z
 _atom_site_occupancy
  Er  Er0  1  0.000000  0.321013  0.413620  1
  Er  Er1  1  0.000000  0.678942  0.586472  1
  Er  Er2  1  0.000000  0.821030  0.086307  1
  Lu  Lu3  1  0.000000  0.179335  0.913716  1
  Lu  Lu4  1  0.000000  0.943886  0.373149  1
  Lu  Lu5  1  0.000000  0.056233  0.626976  1
  Lu  Lu6  1  0.000000  0.443587  0.126495  1
  Lu  Lu7  1  0.000000  0.556009  0.873273  1
  B  B8  1  0.500000  0.553911  0.434897  1
  B  B9  1  0.500000  0.445992  0.565301  1
  B  B10  1  0.500000  0.054357  0.064460  1
  B  B11  1  0.500000  0.946656  0.934943  1
  B  B12  1  0.500000  0.750496  0.420691  1
  B  B13  1  0.500000  0.249465  0.579544  1
  B  B14  1  0.500000  0.250168  0.078522  1
  B  B15  1  0.500000  0.749648  0.920623  1
  B  B16  1  0.500000  0.794225  0.263745  1
  B  B17  1  0.500000  0.205566  0.736829  1
  B  B18  1  0.500000  0.294044  0.235832  1
  B  B19  1  0.500000  0.705880  0.764016  1
  B  B20  1  0.500000  0.631592  0.183145  1
  B  B21  1  0.500000  0.367832  0.817089  1
  B  B22  1  0.500000  0.131684  0.316636  1
  B  B23  1  0.500000  0.868453  0.683454  1
  B  B24  1  0.500000  0.981692  0.213552  1
  B  B25  1  0.500000  0.019147  0.786856  1
  B  B26  1  0.500000  0.481386  0.286162  1
  B  B27  1  0.500000  0.518326  0.713801  1
  B  B28  1  0.500000  0.606594  0.028886  1
  B  B29  1  0.500000  0.392559  0.970776  1
  B  B30  1  0.500000  0.106348  0.471204  1
  B  B31  1  0.500000  0.893835  0.528939  1
  Rh  Rh32  1  0.000000  0.639530  0.320497  1
  Rh  Rh33  1  0.000000  0.359986  0.679821  1
  Rh  Rh34  1  0.000000  0.139356  0.178712  1
  Rh  Rh35  1  0.000000  0.861236  0.821054  1
