# generated using pymatgen
data_Er8Tm2IrPt5
_symmetry_space_group_name_H-M   'P 1'
_cell_length_a   10.93983000
_cell_length_b   10.93983000
_cell_length_c   6.35583000
_cell_angle_alpha   90.00000000
_cell_angle_beta   90.00000000
_cell_angle_gamma   90.00000000
_symmetry_Int_Tables_number   1
_chemical_formula_structural   Er8Tm2IrPt5
_chemical_formula_sum   'Er16 Tm4 Ir2 Pt10'
_cell_volume   760.66497443
_cell_formula_units_Z   2
loop_
 _symmetry_equiv_pos_site_id
 _symmetry_equiv_pos_as_xyz
  1  'x, y, z'
loop_
 _atom_site_type_symbol
 _atom_site_label
 _atom_site_symmetry_multiplicity
 _atom_site_fract_x
 _atom_site_fract_y
 _atom_site_fract_z
 _atom_site_occupancy
  Er  Er0  1  0.291943  0.087834  0.376822  1
  Er  Er1  1  0.291943  0.912166  0.876822  1
  Er  Er2  1  0.708057  0.087834  0.876822  1
  Er  Er3  1  0.708057  0.912166  0.376822  1
  Er  Er4  1  0.587834  0.791943  0.876822  1
  Er  Er5  1  0.587834  0.208057  0.376822  1
  Er  Er6  1  0.412166  0.791943  0.376822  1
  Er  Er7  1  0.412166  0.208057  0.876822  1
  Er  Er8  1  0.205712  0.412844  0.623775  1
  Er  Er9  1  0.205712  0.587156  0.123775  1
  Er  Er10  1  0.794288  0.412844  0.123775  1
  Er  Er11  1  0.794288  0.587156  0.623775  1
  Er  Er12  1  0.912844  0.705712  0.123775  1
  Er  Er13  1  0.912844  0.294288  0.623775  1
  Er  Er14  1  0.087156  0.705712  0.623775  1
  Er  Er15  1  0.087156  0.294288  0.123775  1
  Tm  Tm16  1  0.000000  0.000000  0.500614  1
  Tm  Tm17  1  0.000000  0.000000  0.000614  1
  Tm  Tm18  1  0.500000  0.500000  0.000614  1
  Tm  Tm19  1  0.500000  0.500000  0.500614  1
  Ir  Ir20  1  0.000000  0.500000  0.879932  1
  Ir  Ir21  1  0.000000  0.500000  0.379932  1
  Pt  Pt22  1  0.846054  0.152803  0.249781  1
  Pt  Pt23  1  0.846054  0.847197  0.749781  1
  Pt  Pt24  1  0.153946  0.152803  0.749781  1
  Pt  Pt25  1  0.153946  0.847197  0.249781  1
  Pt  Pt26  1  0.652803  0.346054  0.749781  1
  Pt  Pt27  1  0.652803  0.653946  0.249781  1
  Pt  Pt28  1  0.347197  0.346054  0.249781  1
  Pt  Pt29  1  0.347197  0.653946  0.749781  1
  Pt  Pt30  1  0.500000  0.000000  0.117323  1
  Pt  Pt31  1  0.500000  0.000000  0.617323  1
