# generated using pymatgen
data_Pt2BrCl7
_symmetry_space_group_name_H-M   'P 1'
_cell_length_a   6.38366107
_cell_length_b   7.49339794
_cell_length_c   6.23502557
_cell_angle_alpha   90.47701046
_cell_angle_beta   106.55186421
_cell_angle_gamma   89.99692727
_symmetry_Int_Tables_number   1
_chemical_formula_structural   Pt2BrCl7
_chemical_formula_sum   'Pt2 Br1 Cl7'
_cell_volume   285.88466274
_cell_formula_units_Z   1
loop_
 _symmetry_equiv_pos_site_id
 _symmetry_equiv_pos_as_xyz
  1  'x, y, z'
loop_
 _atom_site_type_symbol
 _atom_site_label
 _atom_site_symmetry_multiplicity
 _atom_site_fract_x
 _atom_site_fract_y
 _atom_site_fract_z
 _atom_site_occupancy
  Pt  Pt0  1  0.999772  0.383572  0.252341  1
  Pt  Pt1  1  0.001338  0.615355  0.749147  1
  Br  Br2  1  0.770626  0.625345  0.009041  1
  Cl  Cl3  1  0.772513  0.168760  0.041652  1
  Cl  Cl4  1  0.230633  0.167864  0.453134  1
  Cl  Cl5  1  0.218677  0.607616  0.495711  1
  Cl  Cl6  1  0.792352  0.383074  0.510502  1
  Cl  Cl7  1  0.780044  0.828984  0.535435  1
  Cl  Cl8  1  0.226893  0.830947  0.959172  1
  Cl  Cl9  1  0.207154  0.388483  0.993865  1
