# generated using pymatgen
data_Tb5Nd3(CdCo)2
_symmetry_space_group_name_H-M   'P 1'
_cell_length_a   9.65345675
_cell_length_b   9.65345705
_cell_length_c   9.65345800
_cell_angle_alpha   60.00000359
_cell_angle_beta   60.00000258
_cell_angle_gamma   60.00000273
_symmetry_Int_Tables_number   1
_chemical_formula_structural   Tb5Nd3(CdCo)2
_chemical_formula_sum   'Tb10 Nd6 Cd4 Co4'
_cell_volume   636.11211467
_cell_formula_units_Z   2
loop_
 _symmetry_equiv_pos_site_id
 _symmetry_equiv_pos_as_xyz
  1  'x, y, z'
loop_
 _atom_site_type_symbol
 _atom_site_label
 _atom_site_symmetry_multiplicity
 _atom_site_fract_x
 _atom_site_fract_y
 _atom_site_fract_z
 _atom_site_occupancy
  Tb  Tb0  1  0.595718  0.595718  0.595718  1
  Tb  Tb1  1  0.595718  0.595718  0.212847  1
  Tb  Tb2  1  0.595718  0.212847  0.595718  1
  Tb  Tb3  1  0.212847  0.595718  0.595718  1
  Tb  Tb4  1  0.063047  0.436953  0.436953  1
  Tb  Tb5  1  0.436953  0.063047  0.063047  1
  Tb  Tb6  1  0.436953  0.063047  0.436953  1
  Tb  Tb7  1  0.063047  0.436953  0.063047  1
  Tb  Tb8  1  0.436953  0.436953  0.063047  1
  Tb  Tb9  1  0.063047  0.063047  0.436953  1
  Nd  Nd10  1  0.190737  0.809263  0.809263  1
  Nd  Nd11  1  0.809263  0.190737  0.190737  1
  Nd  Nd12  1  0.809263  0.190737  0.809263  1
  Nd  Nd13  1  0.190737  0.809263  0.190737  1
  Nd  Nd14  1  0.809263  0.809263  0.190737  1
  Nd  Nd15  1  0.190737  0.190737  0.809263  1
  Cd  Cd16  1  0.829376  0.829376  0.829376  1
  Cd  Cd17  1  0.829376  0.829376  0.511872  1
  Cd  Cd18  1  0.829376  0.511872  0.829376  1
  Cd  Cd19  1  0.511872  0.829376  0.829376  1
  Co  Co20  1  0.390814  0.390814  0.390814  1
  Co  Co21  1  0.390814  0.390814  0.827558  1
  Co  Co22  1  0.390814  0.827558  0.390814  1
  Co  Co23  1  0.827558  0.390814  0.390814  1
