# generated using pymatgen
data_Hf6Be3As3IrRu5
_symmetry_space_group_name_H-M   'P 1'
_cell_length_a   7.57608715
_cell_length_b   7.58561519
_cell_length_c   7.57658495
_cell_angle_alpha   127.68116841
_cell_angle_beta   124.11593607
_cell_angle_gamma   80.05729576
_symmetry_Int_Tables_number   1
_chemical_formula_structural   Hf6Be3As3IrRu5
_chemical_formula_sum   'Hf6 Be3 As3 Ir1 Ru5'
_cell_volume   275.50749283
_cell_formula_units_Z   1
loop_
 _symmetry_equiv_pos_site_id
 _symmetry_equiv_pos_as_xyz
  1  'x, y, z'
loop_
 _atom_site_type_symbol
 _atom_site_label
 _atom_site_symmetry_multiplicity
 _atom_site_fract_x
 _atom_site_fract_y
 _atom_site_fract_z
 _atom_site_occupancy
  Hf  Hf0  1  0.440259  0.643923  0.681575  1
  Hf  Hf1  1  0.545139  0.262353  0.199836  1
  Hf  Hf2  1  0.734603  0.853361  0.599052  1
  Hf  Hf3  1  0.254237  0.854156  0.118552  1
  Hf  Hf4  1  0.062452  0.262293  0.716187  1
  Hf  Hf5  1  0.961085  0.642662  0.202516  1
  Be  Be6  1  0.251062  0.254301  0.503562  1
  Be  Be7  1  0.750518  0.252032  0.003380  1
  Be  Be8  1  0.332666  0.586452  0.252255  1
  As  As9  1  0.670006  0.921405  0.250784  1
  As  As10  1  0.162843  0.919450  0.755344  1
  As  As11  1  0.833351  0.586724  0.753571  1
  Ir  Ir12  1  0.496139  0.491963  0.997167  1
  Ru  Ru13  1  0.999924  0.494057  0.494095  1
  Ru  Ru14  1  0.123947  0.261849  0.137409  1
  Ru  Ru15  1  0.883099  0.013537  0.133510  1
  Ru  Ru16  1  0.378517  0.007710  0.627694  1
  Ru  Ru17  1  0.620154  0.251375  0.633112  1
