# generated using pymatgen
data_Nd4Ga9GeIr5Rh
_symmetry_space_group_name_H-M   'P 1'
_cell_length_a   8.63108691
_cell_length_b   8.68409685
_cell_length_c   8.68291759
_cell_angle_alpha   140.84080935
_cell_angle_beta   108.22827028
_cell_angle_gamma   85.03750973
_symmetry_Int_Tables_number   1
_chemical_formula_structural   Nd4Ga9GeIr5Rh
_chemical_formula_sum   'Nd4 Ga9 Ge1 Ir5 Rh1'
_cell_volume   376.90787228
_cell_formula_units_Z   1
loop_
 _symmetry_equiv_pos_site_id
 _symmetry_equiv_pos_as_xyz
  1  'x, y, z'
loop_
 _atom_site_type_symbol
 _atom_site_label
 _atom_site_symmetry_multiplicity
 _atom_site_fract_x
 _atom_site_fract_y
 _atom_site_fract_z
 _atom_site_occupancy
  Nd  Nd0  1  0.866065  0.636339  0.229458  1
  Nd  Nd1  1  0.134752  0.364311  0.770186  1
  Nd  Nd2  1  0.404827  0.136062  0.268907  1
  Nd  Nd3  1  0.590485  0.862408  0.728206  1
  Ga  Ga4  1  0.501346  0.751062  0.251705  1
  Ga  Ga5  1  0.501395  0.249626  0.750295  1
  Ga  Ga6  1  0.208235  0.958742  0.748909  1
  Ga  Ga7  1  0.791127  0.541936  0.750013  1
  Ga  Ga8  1  0.791387  0.041427  0.249209  1
  Ga  Ga9  1  0.208204  0.459156  0.249461  1
  Ga  Ga10  1  0.078090  0.907272  0.170134  1
  Ga  Ga11  1  0.920134  0.088997  0.830607  1
  Ga  Ga12  1  0.740090  0.409910  0.330527  1
  Ge  Ge13  1  0.259710  0.592024  0.669015  1
  Ir  Ir14  1  0.002733  0.249989  0.252694  1
  Ir  Ir15  1  0.256341  0.852688  0.403093  1
  Ir  Ir16  1  0.745894  0.147899  0.597156  1
  Ir  Ir17  1  0.449176  0.353158  0.096483  1
  Ir  Ir18  1  0.547262  0.646757  0.901083  1
  Rh  Rh19  1  0.002749  0.750236  0.752861  1
