# generated using pymatgen
data_Y2Bi(AsRh2)6
_symmetry_space_group_name_H-M   'P 1'
_cell_length_a   10.10869800
_cell_length_b   10.10869863
_cell_length_c   3.96618700
_cell_angle_alpha   90.00000000
_cell_angle_beta   90.00000000
_cell_angle_gamma   119.99999792
_symmetry_Int_Tables_number   1
_chemical_formula_structural   Y2Bi(AsRh2)6
_chemical_formula_sum   'Y2 Bi1 As6 Rh12'
_cell_volume   350.98964091
_cell_formula_units_Z   1
loop_
 _symmetry_equiv_pos_site_id
 _symmetry_equiv_pos_as_xyz
  1  'x, y, z'
loop_
 _atom_site_type_symbol
 _atom_site_label
 _atom_site_symmetry_multiplicity
 _atom_site_fract_x
 _atom_site_fract_y
 _atom_site_fract_z
 _atom_site_occupancy
  Y  Y0  1  0.333333  0.666667  0.752574  1
  Y  Y1  1  0.000000  0.000000  0.247889  1
  Bi  Bi2  1  0.666667  0.333333  0.596253  1
  As  As3  1  0.956438  0.214374  0.745859  1
  As  As4  1  0.785626  0.742063  0.745859  1
  As  As5  1  0.257937  0.043562  0.745859  1
  As  As6  1  0.376211  0.449955  0.254942  1
  As  As7  1  0.550045  0.926256  0.254942  1
  As  As8  1  0.073744  0.623789  0.254942  1
  Rh  Rh9  1  0.734176  0.951130  0.748251  1
  Rh  Rh10  1  0.048870  0.783047  0.748251  1
  Rh  Rh11  1  0.216953  0.265824  0.748251  1
  Rh  Rh12  1  0.601466  0.718756  0.253502  1
  Rh  Rh13  1  0.281244  0.882711  0.253502  1
  Rh  Rh14  1  0.117289  0.398534  0.253502  1
  Rh  Rh15  1  0.958658  0.460675  0.760404  1
  Rh  Rh16  1  0.539325  0.497983  0.760404  1
  Rh  Rh17  1  0.502017  0.041342  0.760404  1
  Rh  Rh18  1  0.389574  0.210684  0.239530  1
  Rh  Rh19  1  0.789316  0.178889  0.239530  1
  Rh  Rh20  1  0.821111  0.610426  0.239530  1
