# generated using pymatgen
data_TbEr7CdHgIr2
_symmetry_space_group_name_H-M   'P 1'
_cell_length_a   9.55752760
_cell_length_b   9.55752744
_cell_length_c   9.56098700
_cell_angle_alpha   59.98802186
_cell_angle_beta   59.98802243
_cell_angle_gamma   59.95429728
_symmetry_Int_Tables_number   1
_chemical_formula_structural   TbEr7CdHgIr2
_chemical_formula_sum   'Tb2 Er14 Cd2 Hg2 Ir4'
_cell_volume   617.23425285
_cell_formula_units_Z   2
loop_
 _symmetry_equiv_pos_site_id
 _symmetry_equiv_pos_as_xyz
  1  'x, y, z'
loop_
 _atom_site_type_symbol
 _atom_site_label
 _atom_site_symmetry_multiplicity
 _atom_site_fract_x
 _atom_site_fract_y
 _atom_site_fract_z
 _atom_site_occupancy
  Tb  Tb0  1  0.812121  0.812121  0.187879  1
  Tb  Tb1  1  0.187760  0.187760  0.812240  1
  Er  Er2  1  0.599649  0.599649  0.598200  1
  Er  Er3  1  0.599649  0.599649  0.202502  1
  Er  Er4  1  0.601226  0.199643  0.599566  1
  Er  Er5  1  0.199643  0.601226  0.599566  1
  Er  Er6  1  0.060033  0.438482  0.440755  1
  Er  Er7  1  0.438482  0.060033  0.060730  1
  Er  Er8  1  0.438482  0.060033  0.440755  1
  Er  Er9  1  0.060033  0.438482  0.060730  1
  Er  Er10  1  0.439088  0.439088  0.060912  1
  Er  Er11  1  0.059491  0.059491  0.440509  1
  Er  Er12  1  0.187831  0.810846  0.812005  1
  Er  Er13  1  0.810846  0.187831  0.189318  1
  Er  Er14  1  0.810846  0.187831  0.812005  1
  Er  Er15  1  0.187831  0.810846  0.189318  1
  Cd  Cd16  1  0.829861  0.507681  0.831230  1
  Cd  Cd17  1  0.507681  0.829861  0.831230  1
  Hg  Hg18  1  0.833978  0.833978  0.835292  1
  Hg  Hg19  1  0.833978  0.833978  0.496753  1
  Ir  Ir20  1  0.392374  0.392374  0.391042  1
  Ir  Ir21  1  0.392374  0.392374  0.824209  1
  Ir  Ir22  1  0.391677  0.825067  0.391627  1
  Ir  Ir23  1  0.825067  0.391677  0.391627  1
