# generated using pymatgen
data_Sm8TiPd17Pt7
_symmetry_space_group_name_H-M   'P 1'
_cell_length_a   8.47263900
_cell_length_b   8.46777300
_cell_length_c   8.48288500
_cell_angle_alpha   90.00000000
_cell_angle_beta   90.00000000
_cell_angle_gamma   90.00000000
_symmetry_Int_Tables_number   1
_chemical_formula_structural   Sm8TiPd17Pt7
_chemical_formula_sum   'Sm8 Ti1 Pd17 Pt7'
_cell_volume   608.59935686
_cell_formula_units_Z   1
loop_
 _symmetry_equiv_pos_site_id
 _symmetry_equiv_pos_as_xyz
  1  'x, y, z'
loop_
 _atom_site_type_symbol
 _atom_site_label
 _atom_site_symmetry_multiplicity
 _atom_site_fract_x
 _atom_site_fract_y
 _atom_site_fract_z
 _atom_site_occupancy
  Sm  Sm0  1  0.250207  0.250649  0.249937  1
  Sm  Sm1  1  0.749783  0.749749  0.749442  1
  Sm  Sm2  1  0.749783  0.749749  0.250558  1
  Sm  Sm3  1  0.749783  0.250251  0.749442  1
  Sm  Sm4  1  0.250207  0.250649  0.750063  1
  Sm  Sm5  1  0.250207  0.749351  0.249937  1
  Sm  Sm6  1  0.250207  0.749351  0.750063  1
  Sm  Sm7  1  0.749783  0.250251  0.250558  1
  Ti  Ti8  1  0.000641  0.000000  0.000000  1
  Pd  Pd9  1  0.734724  0.500000  0.000000  1
  Pd  Pd10  1  0.999910  0.265122  0.500000  1
  Pd  Pd11  1  0.500109  0.264991  0.000000  1
  Pd  Pd12  1  0.999910  0.734878  0.500000  1
  Pd  Pd13  1  0.500109  0.735009  0.000000  1
  Pd  Pd14  1  0.500071  0.000000  0.265173  1
  Pd  Pd15  1  0.265294  0.000000  0.500000  1
  Pd  Pd16  1  0.500071  0.000000  0.734827  1
  Pd  Pd17  1  0.734919  0.000000  0.500000  1
  Pd  Pd18  1  0.999771  0.500000  0.265685  1
  Pd  Pd19  1  0.999771  0.500000  0.734315  1
  Pd  Pd20  1  0.255198  0.500000  0.500000  1
  Pd  Pd21  1  0.744634  0.500000  0.500000  1
  Pd  Pd22  1  0.500170  0.255154  0.500000  1
  Pd  Pd23  1  0.500170  0.744846  0.500000  1
  Pd  Pd24  1  0.499895  0.500000  0.254967  1
  Pd  Pd25  1  0.499895  0.500000  0.745033  1
  Pt  Pt26  1  0.264831  0.500000  0.000000  1
  Pt  Pt27  1  0.300973  0.000000  0.000000  1
  Pt  Pt28  1  0.699543  0.000000  0.000000  1
  Pt  Pt29  1  0.999616  0.301108  0.000000  1
  Pt  Pt30  1  0.999616  0.698892  0.000000  1
  Pt  Pt31  1  0.000098  0.000000  0.300761  1
  Pt  Pt32  1  0.000098  0.000000  0.699239  1
