# generated using pymatgen
data_NbBi(P2O7)2
_symmetry_space_group_name_H-M   'P 1'
_cell_length_a   8.79127492
_cell_length_b   5.10789253
_cell_length_c   7.26339782
_cell_angle_alpha   72.58124051
_cell_angle_beta   90.55891341
_cell_angle_gamma   90.84071388
_symmetry_Int_Tables_number   1
_chemical_formula_structural   NbBi(P2O7)2
_chemical_formula_sum   'Nb1 Bi1 P4 O14'
_cell_volume   311.16662516
_cell_formula_units_Z   1
loop_
 _symmetry_equiv_pos_site_id
 _symmetry_equiv_pos_as_xyz
  1  'x, y, z'
loop_
 _atom_site_type_symbol
 _atom_site_label
 _atom_site_symmetry_multiplicity
 _atom_site_fract_x
 _atom_site_fract_y
 _atom_site_fract_z
 _atom_site_occupancy
  Nb  Nb0  1  0.240734  0.205083  0.285740  1
  Bi  Bi1  1  0.741596  0.791523  0.733297  1
  P  P2  1  0.988751  0.231173  0.904250  1
  P  P3  1  0.062057  0.601531  0.525561  1
  P  P4  1  0.561568  0.399635  0.467312  1
  P  P5  1  0.451212  0.773861  0.098840  1
  O  O6  1  0.968156  0.970584  0.849043  1
  O  O7  1  0.524966  0.875608  0.905584  1
  O  O8  1  0.844145  0.376764  0.925204  1
  O  O9  1  0.100950  0.440953  0.745399  1
  O  O10  1  0.558451  0.566063  0.607989  1
  O  O11  1  0.900313  0.700868  0.503724  1
  O  O12  1  0.180473  0.839334  0.468121  1
  O  O13  1  0.687750  0.195263  0.488344  1
  O  O14  1  0.401274  0.260412  0.463504  1
  O  O15  1  0.093300  0.400806  0.407499  1
  O  O16  1  0.577553  0.611761  0.250026  1
  O  O17  1  0.317191  0.567095  0.109368  1
  O  O18  1  0.090416  0.181982  0.089865  1
  O  O19  1  0.393072  0.009701  0.171331  1
