# generated using pymatgen
data_Th10AgBi6Pb
_symmetry_space_group_name_H-M   'P 1'
_cell_length_a   9.76607194
_cell_length_b   9.77343668
_cell_length_c   6.65115704
_cell_angle_alpha   90.01235646
_cell_angle_beta   89.99381604
_cell_angle_gamma   120.02495052
_symmetry_Int_Tables_number   1
_chemical_formula_structural   Th10AgBi6Pb
_chemical_formula_sum   'Th10 Ag1 Bi6 Pb1'
_cell_volume   549.64945526
_cell_formula_units_Z   1
loop_
 _symmetry_equiv_pos_site_id
 _symmetry_equiv_pos_as_xyz
  1  'x, y, z'
loop_
 _atom_site_type_symbol
 _atom_site_label
 _atom_site_symmetry_multiplicity
 _atom_site_fract_x
 _atom_site_fract_y
 _atom_site_fract_z
 _atom_site_occupancy
  Th  Th0  1  0.667100  0.333779  0.500269  1
  Th  Th1  1  0.332900  0.666679  0.500269  1
  Th  Th2  1  0.332682  0.665773  0.999460  1
  Th  Th3  1  0.667318  0.333090  0.999460  1
  Th  Th4  1  0.719702  0.719533  0.258071  1
  Th  Th5  1  0.280298  0.999831  0.258071  1
  Th  Th6  1  0.000000  0.280834  0.257747  1
  Th  Th7  1  0.279820  0.281045  0.741970  1
  Th  Th8  1  0.720180  0.001225  0.741970  1
  Th  Th9  1  0.000000  0.718970  0.742133  1
  Ag  Ag10  1  0.000000  0.000263  0.500801  1
  Bi  Bi11  1  0.000000  0.999860  0.999874  1
  Bi  Bi12  1  0.378557  0.379048  0.249579  1
  Bi  Bi13  1  0.621443  0.000491  0.249579  1
  Bi  Bi14  1  0.000000  0.620677  0.249667  1
  Bi  Bi15  1  0.621092  0.620979  0.750294  1
  Bi  Bi16  1  0.378908  0.999886  0.750294  1
  Pb  Pb17  1  0.000000  0.378036  0.750492  1
