# generated using pymatgen
data_Ag4IrRu3O14
_symmetry_space_group_name_H-M   'P 1'
_cell_length_a   7.21853956
_cell_length_b   7.21853934
_cell_length_c   7.21854054
_cell_angle_alpha   60.11150093
_cell_angle_beta   60.11149117
_cell_angle_gamma   60.11150266
_symmetry_Int_Tables_number   1
_chemical_formula_structural   Ag4IrRu3O14
_chemical_formula_sum   'Ag4 Ir1 Ru3 O14'
_cell_volume   266.64213925
_cell_formula_units_Z   1
loop_
 _symmetry_equiv_pos_site_id
 _symmetry_equiv_pos_as_xyz
  1  'x, y, z'
loop_
 _atom_site_type_symbol
 _atom_site_label
 _atom_site_symmetry_multiplicity
 _atom_site_fract_x
 _atom_site_fract_y
 _atom_site_fract_z
 _atom_site_occupancy
  Ag  Ag0  1  0.125000  0.125000  0.125000  1
  Ag  Ag1  1  0.625000  0.125000  0.125000  1
  Ag  Ag2  1  0.125000  0.125000  0.625000  1
  Ag  Ag3  1  0.125000  0.625000  0.125000  1
  Ir  Ir4  1  0.625000  0.625000  0.625000  1
  Ru  Ru5  1  0.125000  0.625000  0.625000  1
  Ru  Ru6  1  0.625000  0.625000  0.125000  1
  Ru  Ru7  1  0.625000  0.125000  0.625000  1
  O  O8  1  0.000232  0.000232  0.000232  1
  O  O9  1  0.249768  0.249768  0.249768  1
  O  O10  1  0.309415  0.309415  0.693071  1
  O  O11  1  0.553742  0.553742  0.946216  1
  O  O12  1  0.696258  0.303784  0.696258  1
  O  O13  1  0.693071  0.309415  0.309415  1
  O  O14  1  0.303784  0.696258  0.696258  1
  O  O15  1  0.309415  0.693071  0.309415  1
  O  O16  1  0.696258  0.696258  0.303784  1
  O  O17  1  0.946216  0.553742  0.553742  1
  O  O18  1  0.556929  0.940585  0.940585  1
  O  O19  1  0.940585  0.940585  0.556929  1
  O  O20  1  0.940585  0.556929  0.940585  1
  O  O21  1  0.553742  0.946216  0.553742  1
