# generated using pymatgen
data_Dy8Er7Sc5(GaSi)8
_symmetry_space_group_name_H-M   'P 1'
_cell_length_a   7.29583431
_cell_length_b   7.58552622
_cell_length_c   14.66078663
_cell_angle_alpha   90.05327748
_cell_angle_beta   90.06053132
_cell_angle_gamma   90.14962556
_symmetry_Int_Tables_number   1
_chemical_formula_structural   Dy8Er7Sc5(GaSi)8
_chemical_formula_sum   'Dy8 Er7 Sc5 Ga8 Si8'
_cell_volume   811.36456618
_cell_formula_units_Z   1
loop_
 _symmetry_equiv_pos_site_id
 _symmetry_equiv_pos_as_xyz
  1  'x, y, z'
loop_
 _atom_site_type_symbol
 _atom_site_label
 _atom_site_symmetry_multiplicity
 _atom_site_fract_x
 _atom_site_fract_y
 _atom_site_fract_z
 _atom_site_occupancy
  Dy  Dy0  1  0.013385  0.178891  0.100862  1
  Dy  Dy1  1  0.987897  0.820375  0.900620  1
  Dy  Dy2  1  0.486871  0.679384  0.899410  1
  Dy  Dy3  1  0.986944  0.820629  0.600787  1
  Dy  Dy4  1  0.511948  0.322010  0.100460  1
  Dy  Dy5  1  0.013415  0.179144  0.398098  1
  Dy  Dy6  1  0.512549  0.321037  0.398158  1
  Dy  Dy7  1  0.486966  0.679452  0.600811  1
  Er  Er8  1  0.329934  0.173774  0.624413  1
  Er  Er9  1  0.670306  0.826388  0.374779  1
  Er  Er10  1  0.170046  0.673879  0.374835  1
  Er  Er11  1  0.669461  0.825842  0.124033  1
  Er  Er12  1  0.829760  0.326361  0.624557  1
  Er  Er13  1  0.329576  0.174583  0.876742  1
  Er  Er14  1  0.830160  0.326582  0.876517  1
  Sc  Sc15  1  0.164631  0.507875  0.750198  1
  Sc  Sc16  1  0.836216  0.493705  0.248535  1
  Sc  Sc17  1  0.334703  0.005704  0.248527  1
  Sc  Sc18  1  0.664550  0.992241  0.750085  1
  Sc  Sc19  1  0.170119  0.673488  0.126610  1
  Ga  Ga20  1  0.160929  0.468015  0.540187  1
  Ga  Ga21  1  0.838899  0.531682  0.459171  1
  Ga  Ga22  1  0.339169  0.968138  0.459188  1
  Ga  Ga23  1  0.845827  0.533532  0.042644  1
  Ga  Ga24  1  0.660945  0.031550  0.540252  1
  Ga  Ga25  1  0.163393  0.471249  0.963769  1
  Ga  Ga26  1  0.659766  0.031395  0.959918  1
  Ga  Ga27  1  0.333808  0.961991  0.041599  1
  Si  Si28  1  0.029120  0.101408  0.750480  1
  Si  Si29  1  0.972952  0.894000  0.247875  1
  Si  Si30  1  0.467504  0.603012  0.247731  1
  Si  Si31  1  0.529097  0.399047  0.750288  1
  Si  Si32  1  0.281893  0.869016  0.750287  1
  Si  Si33  1  0.717996  0.131337  0.249182  1
  Si  Si34  1  0.216935  0.371826  0.248135  1
  Si  Si35  1  0.782329  0.631457  0.750258  1
