# generated using pymatgen
data_La3YbInRu
_symmetry_space_group_name_H-M   'P 1'
_cell_length_a   10.02974518
_cell_length_b   10.01492815
_cell_length_c   10.02921456
_cell_angle_alpha   60.04915941
_cell_angle_beta   60.20055622
_cell_angle_gamma   60.04576992
_symmetry_Int_Tables_number   1
_chemical_formula_structural   La3YbInRu
_chemical_formula_sum   'La12 Yb4 In4 Ru4'
_cell_volume   713.93019544
_cell_formula_units_Z   4
loop_
 _symmetry_equiv_pos_site_id
 _symmetry_equiv_pos_as_xyz
  1  'x, y, z'
loop_
 _atom_site_type_symbol
 _atom_site_label
 _atom_site_symmetry_multiplicity
 _atom_site_fract_x
 _atom_site_fract_y
 _atom_site_fract_z
 _atom_site_occupancy
  La  La0  1  0.596988  0.596343  0.210322  1
  La  La1  1  0.441752  0.058594  0.057116  1
  La  La2  1  0.054889  0.445118  0.054886  1
  La  La3  1  0.446119  0.053887  0.446112  1
  La  La4  1  0.210320  0.596346  0.597007  1
  La  La5  1  0.057148  0.442550  0.441735  1
  La  La6  1  0.596893  0.208285  0.596887  1
  La  La7  1  0.596869  0.597935  0.596890  1
  La  La8  1  0.190463  0.809559  0.190450  1
  La  La9  1  0.815356  0.184642  0.815361  1
  La  La10  1  0.057140  0.058573  0.441755  1
  La  La11  1  0.441739  0.442542  0.057140  1
  Yb  Yb12  1  0.809737  0.190542  0.191030  1
  Yb  Yb13  1  0.191037  0.190543  0.809727  1
  Yb  Yb14  1  0.809734  0.808696  0.191031  1
  Yb  Yb15  1  0.191037  0.808694  0.809732  1
  In  In16  1  0.829812  0.833131  0.829837  1
  In  In17  1  0.506308  0.831167  0.831352  1
  In  In18  1  0.829819  0.507218  0.829831  1
  In  In19  1  0.831353  0.831162  0.506312  1
  Ru  Ru20  1  0.843469  0.385152  0.386225  1
  Ru  Ru21  1  0.382905  0.388928  0.382912  1
  Ru  Ru22  1  0.382890  0.845239  0.382887  1
  Ru  Ru23  1  0.386221  0.385152  0.843461  1
