# generated using pymatgen
data_Yb2Ni(PO4)2
_symmetry_space_group_name_H-M   'P 1'
_cell_length_a   4.83208500
_cell_length_b   6.53846868
_cell_length_c   10.94796752
_cell_angle_alpha   91.01501248
_cell_angle_beta   90.00000000
_cell_angle_gamma   90.00000000
_symmetry_Int_Tables_number   1
_chemical_formula_structural   Yb2Ni(PO4)2
_chemical_formula_sum   'Yb4 Ni2 P4 O16'
_cell_volume   345.84058859
_cell_formula_units_Z   2
loop_
 _symmetry_equiv_pos_site_id
 _symmetry_equiv_pos_as_xyz
  1  'x, y, z'
loop_
 _atom_site_type_symbol
 _atom_site_label
 _atom_site_symmetry_multiplicity
 _atom_site_fract_x
 _atom_site_fract_y
 _atom_site_fract_z
 _atom_site_occupancy
  Yb  Yb0  1  0.526879  0.760780  0.781845  1
  Yb  Yb1  1  0.026879  0.239220  0.718155  1
  Yb  Yb2  1  0.473121  0.239220  0.218155  1
  Yb  Yb3  1  0.973121  0.760780  0.281845  1
  Ni  Ni4  1  0.500000  0.500000  0.500000  1
  Ni  Ni5  1  0.000000  0.500000  0.000000  1
  P  P6  1  0.082977  0.728553  0.594350  1
  P  P7  1  0.582977  0.271447  0.905650  1
  P  P8  1  0.917023  0.271447  0.405650  1
  P  P9  1  0.417023  0.728553  0.094350  1
  O  O10  1  0.239329  0.540017  0.653811  1
  O  O11  1  0.739329  0.459983  0.846189  1
  O  O12  1  0.760671  0.459983  0.346189  1
  O  O13  1  0.260671  0.540017  0.153811  1
  O  O14  1  0.163714  0.914102  0.675944  1
  O  O15  1  0.663714  0.085898  0.824056  1
  O  O16  1  0.836286  0.085898  0.324056  1
  O  O17  1  0.336286  0.914102  0.175944  1
  O  O18  1  0.294011  0.736100  0.963582  1
  O  O19  1  0.794011  0.263900  0.536418  1
  O  O20  1  0.734151  0.700391  0.095469  1
  O  O21  1  0.234151  0.299609  0.404531  1
  O  O22  1  0.265849  0.299609  0.904531  1
  O  O23  1  0.765849  0.700391  0.595469  1
  O  O24  1  0.205989  0.736100  0.463582  1
  O  O25  1  0.705989  0.263900  0.036418  1
