# generated using pymatgen
data_Li4La3NdRh4
_symmetry_space_group_name_H-M   'P 1'
_cell_length_a   4.04388500
_cell_length_b   7.17828275
_cell_length_c   8.72425421
_cell_angle_alpha   90.39293480
_cell_angle_beta   90.00000000
_cell_angle_gamma   90.00000000
_symmetry_Int_Tables_number   1
_chemical_formula_structural   Li4La3NdRh4
_chemical_formula_sum   'Li4 La3 Nd1 Rh4'
_cell_volume   253.24300381
_cell_formula_units_Z   1
loop_
 _symmetry_equiv_pos_site_id
 _symmetry_equiv_pos_as_xyz
  1  'x, y, z'
loop_
 _atom_site_type_symbol
 _atom_site_label
 _atom_site_symmetry_multiplicity
 _atom_site_fract_x
 _atom_site_fract_y
 _atom_site_fract_z
 _atom_site_occupancy
  Li  Li0  1  0.750000  0.374053  0.049004  1
  Li  Li1  1  0.250000  0.622219  0.946858  1
  Li  Li2  1  0.750000  0.874851  0.449438  1
  Li  Li3  1  0.250000  0.130856  0.551138  1
  La  La4  1  0.250000  0.040326  0.180525  1
  La  La5  1  0.750000  0.956577  0.817282  1
  La  La6  1  0.250000  0.542450  0.321400  1
  Nd  Nd7  1  0.750000  0.455713  0.680560  1
  Rh  Rh8  1  0.250000  0.744624  0.633385  1
  Rh  Rh9  1  0.750000  0.261624  0.368149  1
  Rh  Rh10  1  0.250000  0.236818  0.868643  1
  Rh  Rh11  1  0.750000  0.759890  0.133618  1
