# generated using pymatgen
data_U(MnPd4)3
_symmetry_space_group_name_H-M   'P 1'
_cell_length_a   5.67057400
_cell_length_b   5.67057475
_cell_length_c   9.08153900
_cell_angle_alpha   90.00000000
_cell_angle_beta   90.00000000
_cell_angle_gamma   119.99999565
_symmetry_Int_Tables_number   1
_chemical_formula_structural   U(MnPd4)3
_chemical_formula_sum   'U1 Mn3 Pd12'
_cell_volume   252.89730704
_cell_formula_units_Z   1
loop_
 _symmetry_equiv_pos_site_id
 _symmetry_equiv_pos_as_xyz
  1  'x, y, z'
loop_
 _atom_site_type_symbol
 _atom_site_label
 _atom_site_symmetry_multiplicity
 _atom_site_fract_x
 _atom_site_fract_y
 _atom_site_fract_z
 _atom_site_occupancy
  U  U0  1  0.000000  0.000000  0.000000  1
  Mn  Mn1  1  0.000000  0.000000  0.500000  1
  Mn  Mn2  1  0.333333  0.666667  0.746040  1
  Mn  Mn3  1  0.666667  0.333333  0.253960  1
  Pd  Pd4  1  0.500000  0.500000  0.500000  1
  Pd  Pd5  1  0.500000  0.000000  0.500000  1
  Pd  Pd6  1  0.000000  0.500000  0.500000  1
  Pd  Pd7  1  0.500000  0.500000  0.000000  1
  Pd  Pd8  1  0.500000  0.000000  0.000000  1
  Pd  Pd9  1  0.000000  0.500000  0.000000  1
  Pd  Pd10  1  0.166056  0.833944  0.250370  1
  Pd  Pd11  1  0.166056  0.332112  0.250370  1
  Pd  Pd12  1  0.667888  0.833944  0.250370  1
  Pd  Pd13  1  0.833944  0.166056  0.749630  1
  Pd  Pd14  1  0.833944  0.667888  0.749630  1
  Pd  Pd15  1  0.332112  0.166056  0.749630  1
