# generated using pymatgen
data_Dy4Er6Ru3Rh
_symmetry_space_group_name_H-M   'P 1'
_cell_length_a   6.31835488
_cell_length_b   7.29391030
_cell_length_c   8.43290650
_cell_angle_alpha   96.80360860
_cell_angle_beta   111.90185377
_cell_angle_gamma   90.04828208
_symmetry_Int_Tables_number   1
_chemical_formula_structural   Dy4Er6Ru3Rh
_chemical_formula_sum   'Dy4 Er6 Ru3 Rh1'
_cell_volume   357.61758311
_cell_formula_units_Z   1
loop_
 _symmetry_equiv_pos_site_id
 _symmetry_equiv_pos_as_xyz
  1  'x, y, z'
loop_
 _atom_site_type_symbol
 _atom_site_label
 _atom_site_symmetry_multiplicity
 _atom_site_fract_x
 _atom_site_fract_y
 _atom_site_fract_z
 _atom_site_occupancy
  Dy  Dy0  1  0.792563  0.581989  0.814345  1
  Dy  Dy1  1  0.980102  0.915252  0.189194  1
  Dy  Dy2  1  0.208670  0.415521  0.186638  1
  Dy  Dy3  1  0.024142  0.085861  0.814292  1
  Er  Er4  1  0.203640  0.683211  0.563859  1
  Er  Er5  1  0.642497  0.814973  0.432741  1
  Er  Er6  1  0.792995  0.314836  0.434752  1
  Er  Er7  1  0.356957  0.186696  0.563855  1
  Er  Er8  1  0.419305  0.749145  0.000775  1
  Er  Er9  1  0.580333  0.252062  0.001326  1
  Ru  Ru10  1  0.823476  0.576737  0.219899  1
  Ru  Ru11  1  0.396801  0.075431  0.221065  1
  Ru  Ru12  1  0.177961  0.424281  0.779180  1
  Rh  Rh13  1  0.600560  0.924003  0.778080  1
