# generated using pymatgen
data_Al8Ni4OsRu3
_symmetry_space_group_name_H-M   'P 1'
_cell_length_a   5.81320400
_cell_length_b   5.81316200
_cell_length_c   6.08871700
_cell_angle_alpha   90.00001927
_cell_angle_beta   90.00023120
_cell_angle_gamma   90.00000000
_symmetry_Int_Tables_number   1
_chemical_formula_structural   Al8Ni4OsRu3
_chemical_formula_sum   'Al8 Ni4 Os1 Ru3'
_cell_volume   205.75660170
_cell_formula_units_Z   1
loop_
 _symmetry_equiv_pos_site_id
 _symmetry_equiv_pos_as_xyz
  1  'x, y, z'
loop_
 _atom_site_type_symbol
 _atom_site_label
 _atom_site_symmetry_multiplicity
 _atom_site_fract_x
 _atom_site_fract_y
 _atom_site_fract_z
 _atom_site_occupancy
  Al  Al0  1  0.500379  0.999579  0.250535  1
  Al  Al1  1  0.500387  0.500412  0.250537  1
  Al  Al2  1  0.999622  0.999582  0.250613  1
  Al  Al3  1  0.999628  0.500424  0.250614  1
  Al  Al4  1  0.999572  0.999618  0.749394  1
  Al  Al5  1  0.999566  0.500374  0.749391  1
  Al  Al6  1  0.500413  0.999617  0.749465  1
  Al  Al7  1  0.500408  0.500391  0.749465  1
  Ni  Ni8  1  0.250007  0.749998  0.999930  1
  Ni  Ni9  1  0.750008  0.249998  0.500031  1
  Ni  Ni10  1  0.250013  0.750000  0.499902  1
  Ni  Ni11  1  0.750006  0.250000  0.000139  1
  Os  Os12  1  0.249927  0.250000  0.000003  1
  Ru  Ru13  1  0.750067  0.750000  0.999989  1
  Ru  Ru14  1  0.250057  0.249999  0.499997  1
  Ru  Ru15  1  0.749946  0.750000  0.499996  1
