# generated using pymatgen
data_La5Yb7(Gd2Ir3)4
_symmetry_space_group_name_H-M   'P 1'
_cell_length_a   10.92559465
_cell_length_b   11.01261495
_cell_length_c   6.31111400
_cell_angle_alpha   89.90239654
_cell_angle_beta   90.19710288
_cell_angle_gamma   90.11214727
_symmetry_Int_Tables_number   1
_chemical_formula_structural   La5Yb7(Gd2Ir3)4
_chemical_formula_sum   'La5 Yb7 Gd8 Ir12'
_cell_volume   759.34220034
_cell_formula_units_Z   1
loop_
 _symmetry_equiv_pos_site_id
 _symmetry_equiv_pos_as_xyz
  1  'x, y, z'
loop_
 _atom_site_type_symbol
 _atom_site_label
 _atom_site_symmetry_multiplicity
 _atom_site_fract_x
 _atom_site_fract_y
 _atom_site_fract_z
 _atom_site_occupancy
  La  La0  1  0.716598  0.913843  0.384396  1
  La  La1  1  0.589223  0.788903  0.881076  1
  La  La2  1  0.589443  0.214215  0.379893  1
  La  La3  1  0.402061  0.790693  0.381224  1
  La  La4  1  0.406624  0.209926  0.880240  1
  Yb  Yb5  1  0.287495  0.086868  0.378304  1
  Yb  Yb6  1  0.285677  0.914036  0.879736  1
  Yb  Yb7  1  0.712064  0.089443  0.881355  1
  Yb  Yb8  1  0.006806  0.001578  0.495522  1
  Yb  Yb9  1  0.999353  0.000774  0.994358  1
  Yb  Yb10  1  0.500488  0.499819  0.993550  1
  Yb  Yb11  1  0.498501  0.501413  0.494087  1
  Gd  Gd12  1  0.209165  0.413190  0.620241  1
  Gd  Gd13  1  0.210213  0.585334  0.119637  1
  Gd  Gd14  1  0.791592  0.412708  0.119532  1
  Gd  Gd15  1  0.790366  0.585123  0.618180  1
  Gd  Gd16  1  0.914509  0.708660  0.121429  1
  Gd  Gd17  1  0.911994  0.286550  0.626343  1
  Gd  Gd18  1  0.087816  0.711311  0.621599  1
  Gd  Gd19  1  0.088630  0.286904  0.126345  1
  Ir  Ir20  1  0.851850  0.162470  0.250220  1
  Ir  Ir21  1  0.853050  0.836929  0.746347  1
  Ir  Ir22  1  0.149253  0.164448  0.748712  1
  Ir  Ir23  1  0.146764  0.834716  0.243978  1
  Ir  Ir24  1  0.659497  0.349206  0.747815  1
  Ir  Ir25  1  0.658913  0.655062  0.249262  1
  Ir  Ir26  1  0.341060  0.347237  0.247863  1
  Ir  Ir27  1  0.339045  0.651794  0.748199  1
  Ir  Ir28  1  0.500863  0.999878  0.125995  1
  Ir  Ir29  1  0.500384  0.999771  0.627429  1
  Ir  Ir30  1  0.000599  0.498768  0.883679  1
  Ir  Ir31  1  0.000106  0.498431  0.383452  1
