# generated using pymatgen
data_Li4Tc3O8
_symmetry_space_group_name_H-M   'P 1'
_cell_length_a   11.19134078
_cell_length_b   11.19134071
_cell_length_c   11.19134097
_cell_angle_alpha   29.71516089
_cell_angle_beta   29.71516136
_cell_angle_gamma   29.71516089
_symmetry_Int_Tables_number   1
_chemical_formula_structural   Li4Tc3O8
_chemical_formula_sum   'Li8 Tc6 O16'
_cell_volume   304.93573416
_cell_formula_units_Z   2
loop_
 _symmetry_equiv_pos_site_id
 _symmetry_equiv_pos_as_xyz
  1  'x, y, z'
loop_
 _atom_site_type_symbol
 _atom_site_label
 _atom_site_symmetry_multiplicity
 _atom_site_fract_x
 _atom_site_fract_y
 _atom_site_fract_z
 _atom_site_occupancy
  Li  Li0  1  0.245529  0.245529  0.245529  1
  Li  Li1  1  0.174601  0.174601  0.174601  1
  Li  Li2  1  0.825399  0.825399  0.825399  1
  Li  Li3  1  0.685360  0.685360  0.685360  1
  Li  Li4  1  0.754471  0.754471  0.754471  1
  Li  Li5  1  0.000000  0.000000  0.000000  1
  Li  Li6  1  0.500000  0.500000  0.500000  1
  Li  Li7  1  0.314640  0.314640  0.314640  1
  Tc  Tc8  1  0.714904  0.267417  0.267417  1
  Tc  Tc9  1  0.732583  0.732583  0.285096  1
  Tc  Tc10  1  0.267417  0.714904  0.267417  1
  Tc  Tc11  1  0.285096  0.732583  0.732583  1
  Tc  Tc12  1  0.732583  0.285096  0.732583  1
  Tc  Tc13  1  0.267417  0.267417  0.714904  1
  O  O14  1  0.621917  0.113941  0.113941  1
  O  O15  1  0.620358  0.620358  0.129755  1
  O  O16  1  0.886059  0.378083  0.886059  1
  O  O17  1  0.113941  0.113941  0.621917  1
  O  O18  1  0.885179  0.885179  0.885179  1
  O  O19  1  0.379642  0.379642  0.870245  1
  O  O20  1  0.129755  0.620358  0.620358  1
  O  O21  1  0.379642  0.870245  0.379642  1
  O  O22  1  0.627066  0.627066  0.627066  1
  O  O23  1  0.114821  0.114821  0.114821  1
  O  O24  1  0.886059  0.886059  0.378083  1
  O  O25  1  0.870245  0.379642  0.379642  1
  O  O26  1  0.378083  0.886059  0.886059  1
  O  O27  1  0.113941  0.621917  0.113941  1
  O  O28  1  0.372934  0.372934  0.372934  1
  O  O29  1  0.620358  0.129755  0.620358  1
