# generated using pymatgen
data_Mn3NiAg4(MoO4)6
_symmetry_space_group_name_H-M   'P 1'
_cell_length_a   7.17807586
_cell_length_b   8.97544609
_cell_length_c   10.56871247
_cell_angle_alpha   106.66936621
_cell_angle_beta   105.07721111
_cell_angle_gamma   104.04785108
_symmetry_Int_Tables_number   1
_chemical_formula_structural   Mn3NiAg4(MoO4)6
_chemical_formula_sum   'Mn3 Ni1 Ag4 Mo6 O24'
_cell_volume   591.60897453
_cell_formula_units_Z   1
loop_
 _symmetry_equiv_pos_site_id
 _symmetry_equiv_pos_as_xyz
  1  'x, y, z'
loop_
 _atom_site_type_symbol
 _atom_site_label
 _atom_site_symmetry_multiplicity
 _atom_site_fract_x
 _atom_site_fract_y
 _atom_site_fract_z
 _atom_site_occupancy
  Mn  Mn0  1  0.127227  0.542684  0.896100  1
  Mn  Mn1  1  0.464889  0.296336  0.481078  1
  Mn  Mn2  1  0.539811  0.705157  0.522092  1
  Ni  Ni3  1  0.874516  0.458867  0.102685  1
  Ag  Ag4  1  0.821851  0.831483  0.329192  1
  Ag  Ag5  1  0.182427  0.175085  0.672127  1
  Ag  Ag6  1  0.483524  0.001980  0.992737  1
  Ag  Ag7  1  0.982197  0.019920  0.050203  1
  Mo  Mo8  1  0.279515  0.831747  0.235227  1
  Mo  Mo9  1  0.716163  0.165368  0.769290  1
  Mo  Mo10  1  0.911852  0.246207  0.359281  1
  Mo  Mo11  1  0.095822  0.760201  0.636798  1
  Mo  Mo12  1  0.622777  0.593376  0.836851  1
  Mo  Mo13  1  0.377114  0.403172  0.165254  1
  O  O14  1  0.318744  0.044725  0.320713  1
  O  O15  1  0.666695  0.951089  0.684936  1
  O  O16  1  0.027772  0.712926  0.223591  1
  O  O17  1  0.965370  0.275052  0.773327  1
  O  O18  1  0.176322  0.477063  0.085314  1
  O  O19  1  0.824462  0.524195  0.923079  1
  O  O20  1  0.743991  0.293932  0.450654  1
  O  O21  1  0.249728  0.693482  0.539767  1
  O  O22  1  0.609421  0.484726  0.137950  1
  O  O23  1  0.386326  0.497226  0.852760  1
  O  O24  1  0.285913  0.797961  0.058289  1
  O  O25  1  0.724399  0.209952  0.951634  1
  O  O26  1  0.945236  0.370447  0.256106  1
  O  O27  1  0.054687  0.639511  0.741838  1
  O  O28  1  0.287592  0.182467  0.080472  1
  O  O29  1  0.691104  0.810827  0.926298  1
  O  O30  1  0.849392  0.742768  0.517472  1
  O  O31  1  0.157263  0.272214  0.484093  1
  O  O32  1  0.796653  0.032892  0.235968  1
  O  O33  1  0.234783  0.971800  0.756364  1
  O  O34  1  0.478017  0.778925  0.339773  1
  O  O35  1  0.526263  0.226012  0.664531  1
  O  O36  1  0.427895  0.449371  0.352069  1
  O  O37  1  0.583795  0.554255  0.651986  1
