# generated using pymatgen
data_ErPa3(HgRh2)2
_symmetry_space_group_name_H-M   'P 1'
_cell_length_a   7.70426100
_cell_length_b   7.70426153
_cell_length_c   3.60039500
_cell_angle_alpha   90.00000000
_cell_angle_beta   90.00000000
_cell_angle_gamma   92.72761876
_symmetry_Int_Tables_number   1
_chemical_formula_structural   ErPa3(HgRh2)2
_chemical_formula_sum   'Er1 Pa3 Hg2 Rh4'
_cell_volume   213.46164007
_cell_formula_units_Z   1
loop_
 _symmetry_equiv_pos_site_id
 _symmetry_equiv_pos_as_xyz
  1  'x, y, z'
loop_
 _atom_site_type_symbol
 _atom_site_label
 _atom_site_symmetry_multiplicity
 _atom_site_fract_x
 _atom_site_fract_y
 _atom_site_fract_z
 _atom_site_occupancy
  Er  Er0  1  0.671351  0.828650  0.500001  1
  Pa  Pa1  1  0.329664  0.170337  0.500001  1
  Pa  Pa2  1  0.827397  0.330446  0.500001  1
  Pa  Pa3  1  0.169555  0.672604  0.500001  1
  Hg  Hg4  1  0.987622  0.997597  0.000000  1
  Hg  Hg5  1  0.502403  0.512378  0.000000  1
  Rh  Rh6  1  0.626933  0.146891  0.000000  1
  Rh  Rh7  1  0.143567  0.356434  0.000000  1
  Rh  Rh8  1  0.888402  0.611597  0.000000  1
  Rh  Rh9  1  0.353110  0.873066  0.000000  1
