# generated using pymatgen
data_TbCe3(HgPt2)2
_symmetry_space_group_name_H-M   'P 1'
_cell_length_a   7.86464341
_cell_length_b   7.86464341
_cell_length_c   3.72582700
_cell_angle_alpha   90.00000000
_cell_angle_beta   90.00000000
_cell_angle_gamma   90.53717152
_symmetry_Int_Tables_number   1
_chemical_formula_structural   TbCe3(HgPt2)2
_chemical_formula_sum   'Tb1 Ce3 Hg2 Pt4'
_cell_volume   230.44201854
_cell_formula_units_Z   1
loop_
 _symmetry_equiv_pos_site_id
 _symmetry_equiv_pos_as_xyz
  1  'x, y, z'
loop_
 _atom_site_type_symbol
 _atom_site_label
 _atom_site_symmetry_multiplicity
 _atom_site_fract_x
 _atom_site_fract_y
 _atom_site_fract_z
 _atom_site_occupancy
  Tb  Tb0  1  0.671056  0.828944  0.500000  1
  Ce  Ce1  1  0.329638  0.170362  0.500000  1
  Ce  Ce2  1  0.827960  0.329383  0.500000  1
  Ce  Ce3  1  0.170617  0.672040  0.500000  1
  Hg  Hg4  1  0.996976  0.998931  0.000000  1
  Hg  Hg5  1  0.501069  0.503024  0.000000  1
  Pt  Pt6  1  0.628706  0.131144  0.000000  1
  Pt  Pt7  1  0.131524  0.368476  0.000000  1
  Pt  Pt8  1  0.873597  0.626403  0.000000  1
  Pt  Pt9  1  0.368856  0.871294  0.000000  1
