# generated using pymatgen
data_Li2Y3Lu3(Co4P3)4
_symmetry_space_group_name_H-M   'P 1'
_cell_length_a   3.69350000
_cell_length_b   10.53564793
_cell_length_c   12.13301807
_cell_angle_alpha   90.04803450
_cell_angle_beta   90.00000000
_cell_angle_gamma   90.00000000
_symmetry_Int_Tables_number   1
_chemical_formula_structural   Li2Y3Lu3(Co4P3)4
_chemical_formula_sum   'Li2 Y3 Lu3 Co16 P12'
_cell_volume   472.13700872
_cell_formula_units_Z   1
loop_
 _symmetry_equiv_pos_site_id
 _symmetry_equiv_pos_as_xyz
  1  'x, y, z'
loop_
 _atom_site_type_symbol
 _atom_site_label
 _atom_site_symmetry_multiplicity
 _atom_site_fract_x
 _atom_site_fract_y
 _atom_site_fract_z
 _atom_site_occupancy
  Li  Li0  1  0.500000  0.499820  0.152946  1
  Li  Li1  1  0.000000  0.999795  0.847209  1
  Y  Y2  1  0.000000  0.499915  0.523474  1
  Y  Y3  1  0.500000  0.000373  0.477161  1
  Y  Y4  1  0.500000  0.820330  0.205821  1
  Lu  Lu5  1  0.500000  0.179754  0.205761  1
  Lu  Lu6  1  0.000000  0.679158  0.794447  1
  Lu  Lu7  1  0.000000  0.320655  0.793653  1
  Co  Co8  1  0.500000  0.499657  0.706577  1
  Co  Co9  1  0.000000  0.002015  0.293978  1
  Co  Co10  1  0.000000  0.499017  0.986710  1
  Co  Co11  1  0.500000  0.000965  0.011334  1
  Co  Co12  1  0.500000  0.332598  0.997107  1
  Co  Co13  1  0.500000  0.666425  0.995908  1
  Co  Co14  1  0.000000  0.168150  0.001994  1
  Co  Co15  1  0.000000  0.832615  0.002003  1
  Co  Co16  1  0.500000  0.296486  0.430683  1
  Co  Co17  1  0.500000  0.703519  0.432323  1
  Co  Co18  1  0.000000  0.204064  0.569420  1
  Co  Co19  1  0.000000  0.796207  0.570589  1
  Co  Co20  1  0.500000  0.877694  0.708252  1
  Co  Co21  1  0.500000  0.122470  0.707811  1
  Co  Co22  1  0.000000  0.621019  0.293254  1
  Co  Co23  1  0.000000  0.377305  0.291708  1
  P  P24  1  0.500000  0.499357  0.884634  1
  P  P25  1  0.000000  0.001680  0.113918  1
  P  P26  1  0.500000  0.500042  0.345795  1
  P  P27  1  0.000000  0.000153  0.654657  1
  P  P28  1  0.500000  0.310234  0.617515  1
  P  P29  1  0.500000  0.689468  0.618500  1
  P  P30  1  0.000000  0.190249  0.382556  1
  P  P31  1  0.000000  0.810078  0.384641  1
  P  P32  1  0.500000  0.841860  0.892146  1
  P  P33  1  0.500000  0.158683  0.891521  1
  P  P34  1  0.000000  0.656299  0.106275  1
  P  P35  1  0.000000  0.341887  0.107720  1
