# generated using pymatgen
data_Th3ScGa2IrOs2
_symmetry_space_group_name_H-M   'P 1'
_cell_length_a   7.32874788
_cell_length_b   7.32874646
_cell_length_c   4.18465700
_cell_angle_alpha   90.00000000
_cell_angle_beta   90.00000000
_cell_angle_gamma   121.21931545
_symmetry_Int_Tables_number   1
_chemical_formula_structural   Th3ScGa2IrOs2
_chemical_formula_sum   'Th3 Sc1 Ga2 Ir1 Os2'
_cell_volume   192.21255143
_cell_formula_units_Z   1
loop_
 _symmetry_equiv_pos_site_id
 _symmetry_equiv_pos_as_xyz
  1  'x, y, z'
loop_
 _atom_site_type_symbol
 _atom_site_label
 _atom_site_symmetry_multiplicity
 _atom_site_fract_x
 _atom_site_fract_y
 _atom_site_fract_z
 _atom_site_occupancy
  Th  Th0  1  0.402255  0.402255  0.500000  1
  Th  Th1  1  0.576463  0.008580  0.500000  1
  Th  Th2  1  0.008580  0.576463  0.500000  1
  Sc  Sc3  1  0.770537  0.770537  0.000000  1
  Ga  Ga4  1  0.239272  0.995821  0.000000  1
  Ga  Ga5  1  0.995821  0.239272  0.000000  1
  Ir  Ir6  1  0.006647  0.006647  0.500000  1
  Os  Os7  1  0.667926  0.332499  0.000000  1
  Os  Os8  1  0.332499  0.667926  0.000000  1
