# generated using pymatgen
data_Tb7Sn23Rh6
_symmetry_space_group_name_H-M   'P 1'
_cell_length_a   9.87309400
_cell_length_b   9.87309345
_cell_length_c   10.12944000
_cell_angle_alpha   90.00000000
_cell_angle_beta   90.00000000
_cell_angle_gamma   120.00000856
_symmetry_Int_Tables_number   1
_chemical_formula_structural   Tb7Sn23Rh6
_chemical_formula_sum   'Tb7 Sn23 Rh6'
_cell_volume   855.11111172
_cell_formula_units_Z   1
loop_
 _symmetry_equiv_pos_site_id
 _symmetry_equiv_pos_as_xyz
  1  'x, y, z'
loop_
 _atom_site_type_symbol
 _atom_site_label
 _atom_site_symmetry_multiplicity
 _atom_site_fract_x
 _atom_site_fract_y
 _atom_site_fract_z
 _atom_site_occupancy
  Tb  Tb0  1  0.000000  0.000000  0.000000  1
  Tb  Tb1  1  0.478602  0.521398  0.307317  1
  Tb  Tb2  1  0.521398  0.478602  0.692683  1
  Tb  Tb3  1  0.478602  0.957205  0.307317  1
  Tb  Tb4  1  0.521398  0.042795  0.692683  1
  Tb  Tb5  1  0.042795  0.521398  0.307317  1
  Tb  Tb6  1  0.957205  0.478602  0.692683  1
  Sn  Sn7  1  0.350946  0.000000  0.000000  1
  Sn  Sn8  1  0.649054  0.000000  0.000000  1
  Sn  Sn9  1  0.000000  0.350946  0.000000  1
  Sn  Sn10  1  0.000000  0.649054  0.000000  1
  Sn  Sn11  1  0.649054  0.649054  0.000000  1
  Sn  Sn12  1  0.350946  0.350946  0.000000  1
  Sn  Sn13  1  0.333333  0.666667  0.819071  1
  Sn  Sn14  1  0.666667  0.333333  0.180929  1
  Sn  Sn15  1  0.000000  0.000000  0.500000  1
  Sn  Sn16  1  0.779030  0.220970  0.455811  1
  Sn  Sn17  1  0.220970  0.779030  0.544189  1
  Sn  Sn18  1  0.779030  0.558060  0.455811  1
  Sn  Sn19  1  0.220970  0.441940  0.544189  1
  Sn  Sn20  1  0.441940  0.220970  0.455811  1
  Sn  Sn21  1  0.558060  0.779030  0.544189  1
  Sn  Sn22  1  0.333333  0.666667  0.117707  1
  Sn  Sn23  1  0.666667  0.333333  0.882293  1
  Sn  Sn24  1  0.119125  0.880875  0.279715  1
  Sn  Sn25  1  0.880875  0.119125  0.720285  1
  Sn  Sn26  1  0.119125  0.238250  0.279715  1
  Sn  Sn27  1  0.880875  0.761750  0.720285  1
  Sn  Sn28  1  0.761750  0.880875  0.279715  1
  Sn  Sn29  1  0.238250  0.119125  0.720285  1
  Rh  Rh30  1  0.831414  0.168586  0.198103  1
  Rh  Rh31  1  0.168586  0.831414  0.801897  1
  Rh  Rh32  1  0.831414  0.662829  0.198103  1
  Rh  Rh33  1  0.168586  0.337171  0.801897  1
  Rh  Rh34  1  0.337171  0.168586  0.198103  1
  Rh  Rh35  1  0.662829  0.831414  0.801897  1
