# generated using pymatgen
data_PrNd3Ho12(CdIr)4
_symmetry_space_group_name_H-M   'P 1'
_cell_length_a   9.68796656
_cell_length_b   9.67622243
_cell_length_c   9.68089822
_cell_angle_alpha   60.06430508
_cell_angle_beta   59.98321880
_cell_angle_gamma   59.99180576
_symmetry_Int_Tables_number   1
_chemical_formula_structural   PrNd3Ho12(CdIr)4
_chemical_formula_sum   'Pr1 Nd3 Ho12 Cd4 Ir4'
_cell_volume   641.90042393
_cell_formula_units_Z   1
loop_
 _symmetry_equiv_pos_site_id
 _symmetry_equiv_pos_as_xyz
  1  'x, y, z'
loop_
 _atom_site_type_symbol
 _atom_site_label
 _atom_site_symmetry_multiplicity
 _atom_site_fract_x
 _atom_site_fract_y
 _atom_site_fract_z
 _atom_site_occupancy
  Pr  Pr0  1  0.563056  0.936944  0.563056  1
  Nd  Nd1  1  0.937572  0.562428  0.937572  1
  Nd  Nd2  1  0.562413  0.561829  0.938070  1
  Nd  Nd3  1  0.938070  0.937687  0.562413  1
  Ho  Ho4  1  0.350476  0.346650  0.346776  1
  Ho  Ho5  1  0.346700  0.350731  0.955738  1
  Ho  Ho6  1  0.346776  0.956098  0.350476  1
  Ho  Ho7  1  0.955738  0.346831  0.346700  1
  Ho  Ho8  1  0.813594  0.186908  0.186185  1
  Ho  Ho9  1  0.186185  0.813314  0.813594  1
  Ho  Ho10  1  0.188957  0.811043  0.188957  1
  Ho  Ho11  1  0.810899  0.189101  0.810899  1
  Ho  Ho12  1  0.188481  0.189300  0.811222  1
  Ho  Ho13  1  0.811222  0.810997  0.188481  1
  Ho  Ho14  1  0.946086  0.553912  0.554204  1
  Ho  Ho15  1  0.554204  0.945798  0.946086  1
  Cd  Cd16  1  0.582645  0.578334  0.578723  1
  Cd  Cd17  1  0.578754  0.582647  0.259574  1
  Cd  Cd18  1  0.578723  0.260298  0.582645  1
  Cd  Cd19  1  0.259574  0.579024  0.578754  1
  Ir  Ir20  1  0.146138  0.139078  0.139334  1
  Ir  Ir21  1  0.138749  0.146083  0.575652  1
  Ir  Ir22  1  0.139334  0.575449  0.146138  1
  Ir  Ir23  1  0.575652  0.139515  0.138749  1
