# generated using pymatgen
data_Mn2AlCr2
_symmetry_space_group_name_H-M   'P 1'
_cell_length_a   3.99806660
_cell_length_b   3.99851941
_cell_length_c   4.77076287
_cell_angle_alpha   65.24495954
_cell_angle_beta   65.20905886
_cell_angle_gamma   59.93049652
_symmetry_Int_Tables_number   1
_chemical_formula_structural   Mn2AlCr2
_chemical_formula_sum   'Mn2 Al1 Cr2'
_cell_volume   57.76877272
_cell_formula_units_Z   1
loop_
 _symmetry_equiv_pos_site_id
 _symmetry_equiv_pos_as_xyz
  1  'x, y, z'
loop_
 _atom_site_type_symbol
 _atom_site_label
 _atom_site_symmetry_multiplicity
 _atom_site_fract_x
 _atom_site_fract_y
 _atom_site_fract_z
 _atom_site_occupancy
  Mn  Mn0  1  0.431734  0.421437  0.220727  1
  Mn  Mn1  1  0.621958  0.613055  0.647994  1
  Al  Al2  1  0.026955  0.017140  0.434402  1
  Cr  Cr3  1  0.232056  0.222843  0.817847  1
  Cr  Cr4  1  0.821067  0.811671  0.050954  1
