# generated using pymatgen
data_Eu5Si12Ir19
_symmetry_space_group_name_H-M   'P 1'
_cell_length_a   12.93750900
_cell_length_b   12.93750872
_cell_length_c   4.04453100
_cell_angle_alpha   90.00000000
_cell_angle_beta   90.00000000
_cell_angle_gamma   119.99999304
_symmetry_Int_Tables_number   1
_chemical_formula_structural   Eu5Si12Ir19
_chemical_formula_sum   'Eu5 Si12 Ir19'
_cell_volume   586.27334736
_cell_formula_units_Z   1
loop_
 _symmetry_equiv_pos_site_id
 _symmetry_equiv_pos_as_xyz
  1  'x, y, z'
loop_
 _atom_site_type_symbol
 _atom_site_label
 _atom_site_symmetry_multiplicity
 _atom_site_fract_x
 _atom_site_fract_y
 _atom_site_fract_z
 _atom_site_occupancy
  Eu  Eu0  1  0.333333  0.666667  0.500000  1
  Eu  Eu1  1  0.666667  0.333333  0.500000  1
  Eu  Eu2  1  0.182828  0.182828  0.000000  1
  Eu  Eu3  1  0.817172  0.000000  0.000000  1
  Eu  Eu4  1  0.000000  0.817172  0.000000  1
  Si  Si5  1  0.311805  0.832017  0.000000  1
  Si  Si6  1  0.167983  0.479788  0.000000  1
  Si  Si7  1  0.520212  0.688195  0.000000  1
  Si  Si8  1  0.832017  0.311805  0.000000  1
  Si  Si9  1  0.479788  0.167983  0.000000  1
  Si  Si10  1  0.688195  0.520212  0.000000  1
  Si  Si11  1  0.369741  0.369741  0.500000  1
  Si  Si12  1  0.630259  0.000000  0.500000  1
  Si  Si13  1  0.000000  0.630259  0.500000  1
  Si  Si14  1  0.815500  0.815500  0.500000  1
  Si  Si15  1  0.184500  0.000000  0.500000  1
  Si  Si16  1  0.000000  0.184500  0.500000  1
  Ir  Ir17  1  0.195563  0.816844  0.500000  1
  Ir  Ir18  1  0.183156  0.378719  0.500000  1
  Ir  Ir19  1  0.621281  0.804437  0.500000  1
  Ir  Ir20  1  0.816844  0.195563  0.500000  1
  Ir  Ir21  1  0.378719  0.183156  0.500000  1
  Ir  Ir22  1  0.804437  0.621281  0.500000  1
  Ir  Ir23  1  0.124953  0.638490  0.000000  1
  Ir  Ir24  1  0.361510  0.486462  0.000000  1
  Ir  Ir25  1  0.513538  0.875047  0.000000  1
  Ir  Ir26  1  0.638490  0.124953  0.000000  1
  Ir  Ir27  1  0.486462  0.361510  0.000000  1
  Ir  Ir28  1  0.875047  0.513538  0.000000  1
  Ir  Ir29  1  0.552461  0.552461  0.500000  1
  Ir  Ir30  1  0.447539  0.000000  0.500000  1
  Ir  Ir31  1  0.000000  0.447539  0.500000  1
  Ir  Ir32  1  0.714830  0.714830  0.000000  1
  Ir  Ir33  1  0.285170  0.000000  0.000000  1
  Ir  Ir34  1  0.000000  0.285170  0.000000  1
  Ir  Ir35  1  0.000000  0.000000  0.500000  1
