# generated using pymatgen
data_Nb6Pd11Ru6Rh
_symmetry_space_group_name_H-M   'P 1'
_cell_length_a   5.62227723
_cell_length_b   5.62227727
_cell_length_c   13.60922958
_cell_angle_alpha   90.11599996
_cell_angle_beta   89.88400026
_cell_angle_gamma   120.19566585
_symmetry_Int_Tables_number   1
_chemical_formula_structural   Nb6Pd11Ru6Rh
_chemical_formula_sum   'Nb6 Pd11 Ru6 Rh1'
_cell_volume   371.81580169
_cell_formula_units_Z   1
loop_
 _symmetry_equiv_pos_site_id
 _symmetry_equiv_pos_as_xyz
  1  'x, y, z'
loop_
 _atom_site_type_symbol
 _atom_site_label
 _atom_site_symmetry_multiplicity
 _atom_site_fract_x
 _atom_site_fract_y
 _atom_site_fract_z
 _atom_site_occupancy
  Nb  Nb0  1  0.999483  0.000517  0.250176  1
  Nb  Nb1  1  0.004623  0.995377  0.747065  1
  Nb  Nb2  1  0.331436  0.668564  0.401251  1
  Nb  Nb3  1  0.666980  0.333020  0.599359  1
  Nb  Nb4  1  0.666016  0.333984  0.898833  1
  Nb  Nb5  1  0.333709  0.666291  0.101084  1
  Pd  Pd6  1  0.164473  0.330601  0.916602  1
  Pd  Pd7  1  0.669399  0.835527  0.916602  1
  Pd  Pd8  1  0.166531  0.833469  0.916870  1
  Pd  Pd9  1  0.834154  0.668104  0.083101  1
  Pd  Pd10  1  0.331896  0.165846  0.083101  1
  Pd  Pd11  1  0.834637  0.165363  0.083354  1
  Pd  Pd12  1  0.835010  0.670204  0.417211  1
  Pd  Pd13  1  0.329796  0.164990  0.417211  1
  Pd  Pd14  1  0.833268  0.166732  0.416827  1
  Pd  Pd15  1  0.166120  0.332188  0.582769  1
  Pd  Pd16  1  0.667812  0.833880  0.582769  1
  Ru  Ru17  1  0.501604  0.498396  0.250574  1
  Ru  Ru18  1  0.502150  0.006687  0.250487  1
  Ru  Ru19  1  0.993313  0.497850  0.250487  1
  Ru  Ru20  1  0.498167  0.501833  0.750040  1
  Ru  Ru21  1  0.498251  0.992246  0.749281  1
  Ru  Ru22  1  0.007754  0.501749  0.749281  1
  Rh  Rh23  1  0.163419  0.836581  0.585666  1
