# generated using pymatgen
data_SmGdTm4(RuO7)2
_symmetry_space_group_name_H-M   'P 1'
_cell_length_a   6.37614278
_cell_length_b   6.37614319
_cell_length_c   7.39561581
_cell_angle_alpha   90.03045492
_cell_angle_beta   90.03045313
_cell_angle_gamma   109.85097411
_symmetry_Int_Tables_number   1
_chemical_formula_structural   SmGdTm4(RuO7)2
_chemical_formula_sum   'Sm1 Gd1 Tm4 Ru2 O14'
_cell_volume   282.80399834
_cell_formula_units_Z   1
loop_
 _symmetry_equiv_pos_site_id
 _symmetry_equiv_pos_as_xyz
  1  'x, y, z'
loop_
 _atom_site_type_symbol
 _atom_site_label
 _atom_site_symmetry_multiplicity
 _atom_site_fract_x
 _atom_site_fract_y
 _atom_site_fract_z
 _atom_site_occupancy
  Sm  Sm0  1  0.000000  0.000000  0.000000  1
  Gd  Gd1  1  0.000000  0.000000  0.500000  1
  Tm  Tm2  1  0.483564  0.937276  0.749175  1
  Tm  Tm3  1  0.516436  0.062724  0.250825  1
  Tm  Tm4  1  0.937276  0.483564  0.749175  1
  Tm  Tm5  1  0.062724  0.516436  0.250825  1
  Ru  Ru6  1  0.500000  0.500000  0.500000  1
  Ru  Ru7  1  0.500000  0.500000  0.000000  1
  O  O8  1  0.586980  0.586980  0.750088  1
  O  O9  1  0.413020  0.413020  0.249912  1
  O  O10  1  0.839771  0.117795  0.747717  1
  O  O11  1  0.160229  0.882205  0.252283  1
  O  O12  1  0.117795  0.839771  0.747717  1
  O  O13  1  0.882205  0.160229  0.252283  1
  O  O14  1  0.438249  0.177301  0.964208  1
  O  O15  1  0.561320  0.821906  0.463838  1
  O  O16  1  0.177301  0.438249  0.964208  1
  O  O17  1  0.821906  0.561320  0.463838  1
  O  O18  1  0.438680  0.178094  0.536162  1
  O  O19  1  0.561751  0.822699  0.035792  1
  O  O20  1  0.822699  0.561751  0.035792  1
  O  O21  1  0.178094  0.438680  0.536162  1
