# generated using pymatgen
data_CePa5(Sb4Pt3)2
_symmetry_space_group_name_H-M   'P 1'
_cell_length_a   8.47208007
_cell_length_b   8.47207919
_cell_length_c   8.47208000
_cell_angle_alpha   109.44952768
_cell_angle_beta   109.51462614
_cell_angle_gamma   109.44951645
_symmetry_Int_Tables_number   1
_chemical_formula_structural   CePa5(Sb4Pt3)2
_chemical_formula_sum   'Ce1 Pa5 Sb8 Pt6'
_cell_volume   468.11012033
_cell_formula_units_Z   1
loop_
 _symmetry_equiv_pos_site_id
 _symmetry_equiv_pos_as_xyz
  1  'x, y, z'
loop_
 _atom_site_type_symbol
 _atom_site_label
 _atom_site_symmetry_multiplicity
 _atom_site_fract_x
 _atom_site_fract_y
 _atom_site_fract_z
 _atom_site_occupancy
  Ce  Ce0  1  0.875000  0.250000  0.125000  1
  Pa  Pa1  1  0.625000  0.750000  0.375000  1
  Pa  Pa2  1  0.247559  0.123822  0.874160  1
  Pa  Pa3  1  0.750337  0.376178  0.623736  1
  Pa  Pa4  1  0.125840  0.873399  0.249663  1
  Pa  Pa5  1  0.376264  0.626601  0.752441  1
  Sb  Sb6  1  0.678080  0.498072  0.998886  1
  Sb  Sb7  1  0.500813  0.001928  0.680008  1
  Sb  Sb8  1  0.001344  0.677503  0.498395  1
  Sb  Sb9  1  0.820893  0.822497  0.823842  1
  Sb  Sb10  1  0.501605  0.002949  0.179107  1
  Sb  Sb11  1  0.176158  0.497051  0.998656  1
  Sb  Sb12  1  0.001114  0.179193  0.499187  1
  Sb  Sb13  1  0.319992  0.320807  0.321920  1
  Pt  Pt14  1  0.375000  0.250000  0.625000  1
  Pt  Pt15  1  0.125000  0.750000  0.875000  1
  Pt  Pt16  1  0.262240  0.632656  0.380552  1
  Pt  Pt17  1  0.747895  0.867344  0.129583  1
  Pt  Pt18  1  0.619448  0.381688  0.252105  1
  Pt  Pt19  1  0.870417  0.118312  0.737760  1
