# generated using pymatgen
data_Nd2Co7(P2Ru)3
_symmetry_space_group_name_H-M   'P 1'
_cell_length_a   3.76991800
_cell_length_b   10.56960800
_cell_length_c   11.98543700
_cell_angle_alpha   90.00000000
_cell_angle_beta   90.00000000
_cell_angle_gamma   90.00000000
_symmetry_Int_Tables_number   1
_chemical_formula_structural   Nd2Co7(P2Ru)3
_chemical_formula_sum   'Nd4 Co14 P12 Ru6'
_cell_volume   477.57838004
_cell_formula_units_Z   2
loop_
 _symmetry_equiv_pos_site_id
 _symmetry_equiv_pos_as_xyz
  1  'x, y, z'
loop_
 _atom_site_type_symbol
 _atom_site_label
 _atom_site_symmetry_multiplicity
 _atom_site_fract_x
 _atom_site_fract_y
 _atom_site_fract_z
 _atom_site_occupancy
  Nd  Nd0  1  0.250000  0.587063  0.704921  1
  Nd  Nd1  1  0.250000  0.912937  0.204921  1
  Nd  Nd2  1  0.750000  0.414869  0.292808  1
  Nd  Nd3  1  0.750000  0.085131  0.792808  1
  Co  Co4  1  0.750000  0.599390  0.510232  1
  Co  Co5  1  0.750000  0.900610  0.010232  1
  Co  Co6  1  0.250000  0.224645  0.178681  1
  Co  Co7  1  0.250000  0.275355  0.678681  1
  Co  Co8  1  0.750000  0.777864  0.823328  1
  Co  Co9  1  0.750000  0.722136  0.323328  1
  Co  Co10  1  0.250000  0.884029  0.699754  1
  Co  Co11  1  0.250000  0.615971  0.199754  1
  Co  Co12  1  0.750000  0.114208  0.299310  1
  Co  Co13  1  0.750000  0.385792  0.799310  1
  Co  Co14  1  0.250000  0.465561  0.931959  1
  Co  Co15  1  0.250000  0.034439  0.431959  1
  Co  Co16  1  0.750000  0.536713  0.066818  1
  Co  Co17  1  0.750000  0.963287  0.566818  1
  P  P18  1  0.250000  0.422403  0.109619  1
  P  P19  1  0.250000  0.077597  0.609619  1
  P  P20  1  0.750000  0.579289  0.889355  1
  P  P21  1  0.750000  0.920711  0.389355  1
  P  P22  1  0.250000  0.276511  0.866811  1
  P  P23  1  0.250000  0.223489  0.366811  1
  P  P24  1  0.750000  0.725325  0.132542  1
  P  P25  1  0.750000  0.774675  0.632542  1
  P  P26  1  0.250000  0.602937  0.389155  1
  P  P27  1  0.250000  0.897063  0.889155  1
  P  P28  1  0.750000  0.398478  0.611451  1
  P  P29  1  0.750000  0.101522  0.111451  1
  Ru  Ru30  1  0.250000  0.711817  0.989186  1
  Ru  Ru31  1  0.250000  0.788183  0.489186  1
  Ru  Ru32  1  0.750000  0.291381  0.013190  1
  Ru  Ru33  1  0.750000  0.208619  0.513190  1
  Ru  Ru34  1  0.250000  0.407931  0.490881  1
  Ru  Ru35  1  0.250000  0.092069  0.990881  1
