# generated using pymatgen
data_TbEr7Re3B24Rh
_symmetry_space_group_name_H-M   'P 1'
_cell_length_a   3.66013300
_cell_length_b   9.12994346
_cell_length_c   11.50859319
_cell_angle_alpha   90.14470515
_cell_angle_beta   90.00000000
_cell_angle_gamma   90.00000000
_symmetry_Int_Tables_number   1
_chemical_formula_structural   TbEr7Re3B24Rh
_chemical_formula_sum   'Tb1 Er7 Re3 B24 Rh1'
_cell_volume   384.57921494
_cell_formula_units_Z   1
loop_
 _symmetry_equiv_pos_site_id
 _symmetry_equiv_pos_as_xyz
  1  'x, y, z'
loop_
 _atom_site_type_symbol
 _atom_site_label
 _atom_site_symmetry_multiplicity
 _atom_site_fract_x
 _atom_site_fract_y
 _atom_site_fract_z
 _atom_site_occupancy
  Tb  Tb0  1  0.000000  0.318575  0.415343  1
  Er  Er1  1  0.000000  0.678447  0.591345  1
  Er  Er2  1  0.000000  0.827052  0.081145  1
  Er  Er3  1  0.000000  0.177402  0.912712  1
  Er  Er4  1  0.000000  0.943173  0.370080  1
  Er  Er5  1  0.000000  0.055610  0.629012  1
  Er  Er6  1  0.000000  0.441373  0.128643  1
  Er  Er7  1  0.000000  0.556711  0.871800  1
  Re  Re8  1  0.000000  0.362469  0.678238  1
  Re  Re9  1  0.000000  0.138025  0.179549  1
  Re  Re10  1  0.000000  0.861504  0.820819  1
  B  B11  1  0.500000  0.554483  0.433867  1
  B  B12  1  0.500000  0.446987  0.566914  1
  B  B13  1  0.500000  0.053209  0.066229  1
  B  B14  1  0.500000  0.947244  0.932922  1
  B  B15  1  0.500000  0.749334  0.420551  1
  B  B16  1  0.500000  0.250090  0.581388  1
  B  B17  1  0.500000  0.249600  0.080868  1
  B  B18  1  0.500000  0.751435  0.919149  1
  B  B19  1  0.500000  0.791443  0.264855  1
  B  B20  1  0.500000  0.207986  0.734470  1
  B  B21  1  0.500000  0.291843  0.234816  1
  B  B22  1  0.500000  0.707803  0.765722  1
  B  B23  1  0.500000  0.632000  0.183730  1
  B  B24  1  0.500000  0.369455  0.814599  1
  B  B25  1  0.500000  0.130235  0.314747  1
  B  B26  1  0.500000  0.868440  0.685195  1
  B  B27  1  0.500000  0.982228  0.211880  1
  B  B28  1  0.500000  0.017762  0.787102  1
  B  B29  1  0.500000  0.483612  0.287621  1
  B  B30  1  0.500000  0.518718  0.712591  1
  B  B31  1  0.500000  0.603829  0.029298  1
  B  B32  1  0.500000  0.397566  0.972121  1
  B  B33  1  0.500000  0.100636  0.471363  1
  B  B34  1  0.500000  0.895130  0.528223  1
  Rh  Rh35  1  0.000000  0.638593  0.321089  1
