# generated using pymatgen
data_Dy2Mn4SiPC2
_symmetry_space_group_name_H-M   'P 1'
_cell_length_a   5.57736422
_cell_length_b   5.57736525
_cell_length_c   6.95767600
_cell_angle_alpha   90.00000000
_cell_angle_beta   90.00000000
_cell_angle_gamma   141.57907577
_symmetry_Int_Tables_number   1
_chemical_formula_structural   Dy2Mn4SiPC2
_chemical_formula_sum   'Dy2 Mn4 Si1 P1 C2'
_cell_volume   134.49844522
_cell_formula_units_Z   1
loop_
 _symmetry_equiv_pos_site_id
 _symmetry_equiv_pos_as_xyz
  1  'x, y, z'
loop_
 _atom_site_type_symbol
 _atom_site_label
 _atom_site_symmetry_multiplicity
 _atom_site_fract_x
 _atom_site_fract_y
 _atom_site_fract_z
 _atom_site_occupancy
  Dy  Dy0  1  0.543596  0.456404  0.250000  1
  Dy  Dy1  1  0.456882  0.543118  0.750000  1
  Mn  Mn2  1  0.831063  0.168937  0.063775  1
  Mn  Mn3  1  0.169323  0.830677  0.945659  1
  Mn  Mn4  1  0.169323  0.830677  0.554341  1
  Mn  Mn5  1  0.831063  0.168937  0.436225  1
  Si  Si6  1  0.734624  0.265376  0.750000  1
  P  P7  1  0.265364  0.734636  0.250000  1
  C  C8  1  0.999381  0.000619  0.000169  1
  C  C9  1  0.999381  0.000619  0.499831  1
