# generated using pymatgen
data_Yb5Co4Br
_symmetry_space_group_name_H-M   'P 1'
_cell_length_a   3.83943100
_cell_length_b   3.83943007
_cell_length_c   18.49285900
_cell_angle_alpha   90.00000000
_cell_angle_beta   90.00000000
_cell_angle_gamma   119.99999937
_symmetry_Int_Tables_number   1
_chemical_formula_structural   Yb5Co4Br
_chemical_formula_sum   'Yb5 Co4 Br1'
_cell_volume   236.08496070
_cell_formula_units_Z   1
loop_
 _symmetry_equiv_pos_site_id
 _symmetry_equiv_pos_as_xyz
  1  'x, y, z'
loop_
 _atom_site_type_symbol
 _atom_site_label
 _atom_site_symmetry_multiplicity
 _atom_site_fract_x
 _atom_site_fract_y
 _atom_site_fract_z
 _atom_site_occupancy
  Yb  Yb0  1  0.333333  0.666667  0.750000  1
  Yb  Yb1  1  0.000000  0.000000  0.130757  1
  Yb  Yb2  1  0.000000  0.000000  0.369243  1
  Yb  Yb3  1  0.000000  0.000000  0.925711  1
  Yb  Yb4  1  0.000000  0.000000  0.574289  1
  Co  Co5  1  0.333333  0.666667  0.028874  1
  Co  Co6  1  0.666667  0.333333  0.027664  1
  Co  Co7  1  0.333333  0.666667  0.471126  1
  Co  Co8  1  0.666667  0.333333  0.472336  1
  Br  Br9  1  0.666667  0.333333  0.250000  1
