# generated using pymatgen
data_Er16Mg3TlPd4
_symmetry_space_group_name_H-M   'P 1'
_cell_length_a   9.65992964
_cell_length_b   9.69251460
_cell_length_c   9.69251600
_cell_angle_alpha   60.00000204
_cell_angle_beta   59.88835434
_cell_angle_gamma   59.88835107
_symmetry_Int_Tables_number   1
_chemical_formula_structural   Er16Mg3TlPd4
_chemical_formula_sum   'Er16 Mg3 Tl1 Pd4'
_cell_volume   640.61485405
_cell_formula_units_Z   1
loop_
 _symmetry_equiv_pos_site_id
 _symmetry_equiv_pos_as_xyz
  1  'x, y, z'
loop_
 _atom_site_type_symbol
 _atom_site_label
 _atom_site_symmetry_multiplicity
 _atom_site_fract_x
 _atom_site_fract_y
 _atom_site_fract_z
 _atom_site_occupancy
  Er  Er0  1  0.352203  0.352203  0.352203  1
  Er  Er1  1  0.352203  0.352203  0.943389  1
  Er  Er2  1  0.352203  0.943389  0.352203  1
  Er  Er3  1  0.944468  0.351843  0.351843  1
  Er  Er4  1  0.814350  0.186722  0.186722  1
  Er  Er5  1  0.190256  0.811209  0.811209  1
  Er  Er6  1  0.190256  0.811209  0.187324  1
  Er  Er7  1  0.814350  0.186722  0.812207  1
  Er  Er8  1  0.190256  0.187324  0.811209  1
  Er  Er9  1  0.814350  0.812207  0.186722  1
  Er  Er10  1  0.933602  0.566167  0.566167  1
  Er  Er11  1  0.566437  0.933215  0.933215  1
  Er  Er12  1  0.566437  0.933215  0.567134  1
  Er  Er13  1  0.933602  0.566167  0.934065  1
  Er  Er14  1  0.566437  0.567134  0.933215  1
  Er  Er15  1  0.933602  0.934065  0.566167  1
  Mg  Mg16  1  0.578055  0.581382  0.581382  1
  Mg  Mg17  1  0.578055  0.581382  0.259181  1
  Mg  Mg18  1  0.578055  0.259181  0.581382  1
  Tl  Tl19  1  0.248332  0.583889  0.583889  1
  Pd  Pd20  1  0.144913  0.144207  0.144207  1
  Pd  Pd21  1  0.144913  0.144207  0.566672  1
  Pd  Pd22  1  0.144913  0.566672  0.144207  1
  Pd  Pd23  1  0.567751  0.144082  0.144082  1
