# generated using pymatgen
data_Tb20SnBi7Ir4
_symmetry_space_group_name_H-M   'P 1'
_cell_length_a   8.03277291
_cell_length_b   9.03895596
_cell_length_c   12.50532129
_cell_angle_alpha   90.04155878
_cell_angle_beta   90.05950388
_cell_angle_gamma   89.99966506
_symmetry_Int_Tables_number   1
_chemical_formula_structural   Tb20SnBi7Ir4
_chemical_formula_sum   'Tb20 Sn1 Bi7 Ir4'
_cell_volume   907.98414727
_cell_formula_units_Z   1
loop_
 _symmetry_equiv_pos_site_id
 _symmetry_equiv_pos_as_xyz
  1  'x, y, z'
loop_
 _atom_site_type_symbol
 _atom_site_label
 _atom_site_symmetry_multiplicity
 _atom_site_fract_x
 _atom_site_fract_y
 _atom_site_fract_z
 _atom_site_occupancy
  Tb  Tb0  1  0.839154  0.745454  0.792455  1
  Tb  Tb1  1  0.156877  0.251009  0.204895  1
  Tb  Tb2  1  0.344713  0.253027  0.708752  1
  Tb  Tb3  1  0.656911  0.751124  0.293783  1
  Tb  Tb4  1  0.379746  0.746200  0.696687  1
  Tb  Tb5  1  0.623070  0.250205  0.305878  1
  Tb  Tb6  1  0.870041  0.253932  0.804943  1
  Tb  Tb7  1  0.123764  0.749568  0.195111  1
  Tb  Tb8  1  0.949232  0.750919  0.501992  1
  Tb  Tb9  1  0.053032  0.249122  0.498389  1
  Tb  Tb10  1  0.451315  0.254306  0.995452  1
  Tb  Tb11  1  0.552479  0.745804  0.000149  1
  Tb  Tb12  1  0.678366  0.040778  0.565619  1
  Tb  Tb13  1  0.322152  0.958242  0.434924  1
  Tb  Tb14  1  0.177534  0.960868  0.934458  1
  Tb  Tb15  1  0.322555  0.540074  0.434333  1
  Tb  Tb16  1  0.821523  0.038741  0.064673  1
  Tb  Tb17  1  0.675821  0.460600  0.569814  1
  Tb  Tb18  1  0.821093  0.458349  0.062438  1
  Tb  Tb19  1  0.181393  0.540783  0.933939  1
  Sn  Sn20  1  0.569736  0.492485  0.828391  1
  Bi  Bi21  1  0.429249  0.508942  0.173475  1
  Bi  Bi22  1  0.071886  0.508251  0.671815  1
  Bi  Bi23  1  0.428598  0.992082  0.171147  1
  Bi  Bi24  1  0.928510  0.491379  0.327869  1
  Bi  Bi25  1  0.570905  0.007429  0.827910  1
  Bi  Bi26  1  0.929833  0.009201  0.326631  1
  Bi  Bi27  1  0.070488  0.991826  0.674348  1
  Ir  Ir28  1  0.570079  0.749925  0.510002  1
  Ir  Ir29  1  0.430669  0.249503  0.491176  1
  Ir  Ir30  1  0.067473  0.249848  0.989305  1
  Ir  Ir31  1  0.931804  0.750028  0.009250  1
