# generated using pymatgen
data_Nd3(DySn2)2
_symmetry_space_group_name_H-M   'P 1'
_cell_length_a   8.10386000
_cell_length_b   8.25934900
_cell_length_c   15.59799700
_cell_angle_alpha   90.00000000
_cell_angle_beta   90.00000000
_cell_angle_gamma   90.00000000
_symmetry_Int_Tables_number   1
_chemical_formula_structural   Nd3(DySn2)2
_chemical_formula_sum   'Nd12 Dy8 Sn16'
_cell_volume   1044.01461859
_cell_formula_units_Z   4
loop_
 _symmetry_equiv_pos_site_id
 _symmetry_equiv_pos_as_xyz
  1  'x, y, z'
loop_
 _atom_site_type_symbol
 _atom_site_label
 _atom_site_symmetry_multiplicity
 _atom_site_fract_x
 _atom_site_fract_y
 _atom_site_fract_z
 _atom_site_occupancy
  Nd  Nd0  1  0.365896  0.835601  0.878440  1
  Nd  Nd1  1  0.865896  0.664399  0.621560  1
  Nd  Nd2  1  0.634104  0.164399  0.378440  1
  Nd  Nd3  1  0.134104  0.335601  0.121560  1
  Nd  Nd4  1  0.516640  0.320767  0.902718  1
  Nd  Nd5  1  0.016640  0.179233  0.597282  1
  Nd  Nd6  1  0.483360  0.679233  0.402718  1
  Nd  Nd7  1  0.983360  0.820767  0.097282  1
  Nd  Nd8  1  0.483377  0.679871  0.097470  1
  Nd  Nd9  1  0.983377  0.820129  0.402530  1
  Nd  Nd10  1  0.516623  0.320129  0.597470  1
  Nd  Nd11  1  0.016623  0.179871  0.902530  1
  Dy  Dy12  1  0.636218  0.163426  0.122119  1
  Dy  Dy13  1  0.136218  0.336574  0.377881  1
  Dy  Dy14  1  0.363782  0.836574  0.622119  1
  Dy  Dy15  1  0.863782  0.663426  0.877881  1
  Dy  Dy16  1  0.197140  0.501951  0.749247  1
  Dy  Dy17  1  0.697140  0.998049  0.750753  1
  Dy  Dy18  1  0.802860  0.498049  0.249247  1
  Dy  Dy19  1  0.302860  0.001951  0.250753  1
  Sn  Sn20  1  0.301952  0.037545  0.043773  1
  Sn  Sn21  1  0.801952  0.462455  0.456227  1
  Sn  Sn22  1  0.698048  0.962455  0.543773  1
  Sn  Sn23  1  0.198048  0.537545  0.956227  1
  Sn  Sn24  1  0.706101  0.961963  0.959007  1
  Sn  Sn25  1  0.206101  0.538037  0.540993  1
  Sn  Sn26  1  0.293899  0.038037  0.459007  1
  Sn  Sn27  1  0.793899  0.461963  0.040993  1
  Sn  Sn28  1  0.563274  0.618180  0.750146  1
  Sn  Sn29  1  0.063274  0.881820  0.749854  1
  Sn  Sn30  1  0.436726  0.381820  0.250146  1
  Sn  Sn31  1  0.936726  0.118180  0.249854  1
  Sn  Sn32  1  0.324337  0.144587  0.749117  1
  Sn  Sn33  1  0.824337  0.355413  0.750883  1
  Sn  Sn34  1  0.675663  0.855413  0.249117  1
  Sn  Sn35  1  0.175663  0.644587  0.250883  1
