# generated using pymatgen
data_Ho8Er2IrPt5
_symmetry_space_group_name_H-M   'P 1'
_cell_length_a   10.98032800
_cell_length_b   10.98032800
_cell_length_c   6.37791400
_cell_angle_alpha   90.00000000
_cell_angle_beta   90.00000000
_cell_angle_gamma   90.00000000
_symmetry_Int_Tables_number   1
_chemical_formula_structural   Ho8Er2IrPt5
_chemical_formula_sum   'Ho16 Er4 Ir2 Pt10'
_cell_volume   768.96980304
_cell_formula_units_Z   2
loop_
 _symmetry_equiv_pos_site_id
 _symmetry_equiv_pos_as_xyz
  1  'x, y, z'
loop_
 _atom_site_type_symbol
 _atom_site_label
 _atom_site_symmetry_multiplicity
 _atom_site_fract_x
 _atom_site_fract_y
 _atom_site_fract_z
 _atom_site_occupancy
  Ho  Ho0  1  0.291914  0.087976  0.376708  1
  Ho  Ho1  1  0.291914  0.912024  0.876708  1
  Ho  Ho2  1  0.708086  0.087976  0.876708  1
  Ho  Ho3  1  0.708086  0.912024  0.376708  1
  Ho  Ho4  1  0.587976  0.791914  0.876708  1
  Ho  Ho5  1  0.587976  0.208086  0.376708  1
  Ho  Ho6  1  0.412024  0.791914  0.376708  1
  Ho  Ho7  1  0.412024  0.208086  0.876708  1
  Ho  Ho8  1  0.205729  0.412777  0.623868  1
  Ho  Ho9  1  0.205729  0.587223  0.123868  1
  Ho  Ho10  1  0.794271  0.412777  0.123868  1
  Ho  Ho11  1  0.794271  0.587223  0.623868  1
  Ho  Ho12  1  0.912777  0.705729  0.123868  1
  Ho  Ho13  1  0.912777  0.294271  0.623868  1
  Ho  Ho14  1  0.087223  0.705729  0.623868  1
  Ho  Ho15  1  0.087223  0.294271  0.123868  1
  Er  Er16  1  0.000000  0.000000  0.500557  1
  Er  Er17  1  0.000000  0.000000  0.000557  1
  Er  Er18  1  0.500000  0.500000  0.000557  1
  Er  Er19  1  0.500000  0.500000  0.500557  1
  Ir  Ir20  1  0.000000  0.500000  0.879974  1
  Ir  Ir21  1  0.000000  0.500000  0.379974  1
  Pt  Pt22  1  0.846052  0.152834  0.249815  1
  Pt  Pt23  1  0.846052  0.847166  0.749815  1
  Pt  Pt24  1  0.153948  0.152834  0.749815  1
  Pt  Pt25  1  0.153948  0.847166  0.249815  1
  Pt  Pt26  1  0.652834  0.346052  0.749815  1
  Pt  Pt27  1  0.652834  0.653948  0.249815  1
  Pt  Pt28  1  0.347166  0.346052  0.249815  1
  Pt  Pt29  1  0.347166  0.653948  0.749815  1
  Pt  Pt30  1  0.500000  0.000000  0.117341  1
  Pt  Pt31  1  0.500000  0.000000  0.617341  1
