# generated using pymatgen
data_Pr5IrRuRh
_symmetry_space_group_name_H-M   'P 1'
_cell_length_a   11.33153200
_cell_length_b   11.33153200
_cell_length_c   6.67422600
_cell_angle_alpha   90.00000000
_cell_angle_beta   90.00000000
_cell_angle_gamma   90.00000000
_symmetry_Int_Tables_number   1
_chemical_formula_structural   Pr5IrRuRh
_chemical_formula_sum   'Pr20 Ir4 Ru4 Rh4'
_cell_volume   856.99476219
_cell_formula_units_Z   4
loop_
 _symmetry_equiv_pos_site_id
 _symmetry_equiv_pos_as_xyz
  1  'x, y, z'
loop_
 _atom_site_type_symbol
 _atom_site_label
 _atom_site_symmetry_multiplicity
 _atom_site_fract_x
 _atom_site_fract_y
 _atom_site_fract_z
 _atom_site_occupancy
  Pr  Pr0  1  0.294037  0.088969  0.380862  1
  Pr  Pr1  1  0.294037  0.911031  0.880862  1
  Pr  Pr2  1  0.705963  0.088969  0.880862  1
  Pr  Pr3  1  0.705963  0.911031  0.380862  1
  Pr  Pr4  1  0.587465  0.793038  0.882145  1
  Pr  Pr5  1  0.587465  0.206962  0.382145  1
  Pr  Pr6  1  0.412535  0.793038  0.382145  1
  Pr  Pr7  1  0.412535  0.206962  0.882145  1
  Pr  Pr8  1  0.206962  0.412535  0.617855  1
  Pr  Pr9  1  0.206962  0.587465  0.117855  1
  Pr  Pr10  1  0.793038  0.412535  0.117855  1
  Pr  Pr11  1  0.793038  0.587465  0.617855  1
  Pr  Pr12  1  0.911031  0.705963  0.119138  1
  Pr  Pr13  1  0.911031  0.294037  0.619138  1
  Pr  Pr14  1  0.088969  0.705963  0.619138  1
  Pr  Pr15  1  0.088969  0.294037  0.119138  1
  Pr  Pr16  1  0.000000  0.000000  0.500000  1
  Pr  Pr17  1  0.000000  0.000000  0.000000  1
  Pr  Pr18  1  0.500000  0.500000  0.000000  1
  Pr  Pr19  1  0.500000  0.500000  0.500000  1
  Ir  Ir20  1  0.653273  0.346727  0.750000  1
  Ir  Ir21  1  0.653273  0.653273  0.250000  1
  Ir  Ir22  1  0.346727  0.346727  0.250000  1
  Ir  Ir23  1  0.346727  0.653273  0.750000  1
  Ru  Ru24  1  0.500000  0.000000  0.116311  1
  Ru  Ru25  1  0.500000  0.000000  0.616311  1
  Ru  Ru26  1  0.000000  0.500000  0.883689  1
  Ru  Ru27  1  0.000000  0.500000  0.383689  1
  Rh  Rh28  1  0.847790  0.152210  0.250000  1
  Rh  Rh29  1  0.847790  0.847790  0.750000  1
  Rh  Rh30  1  0.152210  0.152210  0.750000  1
  Rh  Rh31  1  0.152210  0.847790  0.250000  1
