# generated using pymatgen
data_Tb8SiPd23Pt
_symmetry_space_group_name_H-M   'P 1'
_cell_length_a   8.34538900
_cell_length_b   8.35094900
_cell_length_c   8.35094900
_cell_angle_alpha   90.00000000
_cell_angle_beta   90.00000000
_cell_angle_gamma   90.00000000
_symmetry_Int_Tables_number   1
_chemical_formula_structural   Tb8SiPd23Pt
_chemical_formula_sum   'Tb8 Si1 Pd23 Pt1'
_cell_volume   581.99365230
_cell_formula_units_Z   1
loop_
 _symmetry_equiv_pos_site_id
 _symmetry_equiv_pos_as_xyz
  1  'x, y, z'
loop_
 _atom_site_type_symbol
 _atom_site_label
 _atom_site_symmetry_multiplicity
 _atom_site_fract_x
 _atom_site_fract_y
 _atom_site_fract_z
 _atom_site_occupancy
  Tb  Tb0  1  0.253041  0.253002  0.253002  1
  Tb  Tb1  1  0.746536  0.746316  0.746316  1
  Tb  Tb2  1  0.746536  0.746316  0.253684  1
  Tb  Tb3  1  0.746536  0.253684  0.746316  1
  Tb  Tb4  1  0.253041  0.253002  0.746998  1
  Tb  Tb5  1  0.253041  0.746998  0.253002  1
  Tb  Tb6  1  0.253041  0.746998  0.746998  1
  Tb  Tb7  1  0.746536  0.253684  0.253684  1
  Si  Si8  1  0.002928  0.000000  0.000000  1
  Pd  Pd9  1  0.257161  0.500000  0.000000  1
  Pd  Pd10  1  0.742081  0.500000  0.000000  1
  Pd  Pd11  1  0.999925  0.257707  0.500000  1
  Pd  Pd12  1  0.499913  0.257568  0.000000  1
  Pd  Pd13  1  0.999925  0.742293  0.500000  1
  Pd  Pd14  1  0.499913  0.742432  0.000000  1
  Pd  Pd15  1  0.499913  0.000000  0.257568  1
  Pd  Pd16  1  0.257161  0.000000  0.500000  1
  Pd  Pd17  1  0.499913  0.000000  0.742432  1
  Pd  Pd18  1  0.742081  0.000000  0.500000  1
  Pd  Pd19  1  0.999925  0.500000  0.257707  1
  Pd  Pd20  1  0.999925  0.500000  0.742293  1
  Pd  Pd21  1  0.252460  0.500000  0.500000  1
  Pd  Pd22  1  0.747701  0.500000  0.500000  1
  Pd  Pd23  1  0.499990  0.252506  0.500000  1
  Pd  Pd24  1  0.499990  0.747494  0.500000  1
  Pd  Pd25  1  0.499990  0.500000  0.252506  1
  Pd  Pd26  1  0.499990  0.500000  0.747494  1
  Pd  Pd27  1  0.721880  0.000000  0.000000  1
  Pd  Pd28  1  0.999241  0.281091  0.000000  1
  Pd  Pd29  1  0.999241  0.718909  0.000000  1
  Pd  Pd30  1  0.999241  0.000000  0.281091  1
  Pd  Pd31  1  0.999241  0.000000  0.718909  1
  Pt  Pt32  1  0.281970  0.000000  0.000000  1
