# generated using pymatgen
data_Ca3Tb2Yb(Si3Ru)8
_symmetry_space_group_name_H-M   'P 1'
_cell_length_a   10.16271804
_cell_length_b   10.16271790
_cell_length_c   8.14789631
_cell_angle_alpha   90.00424967
_cell_angle_beta   90.00425272
_cell_angle_gamma   132.73371982
_symmetry_Int_Tables_number   1
_chemical_formula_structural   Ca3Tb2Yb(Si3Ru)8
_chemical_formula_sum   'Ca3 Tb2 Yb1 Si24 Ru8'
_cell_volume   618.11048852
_cell_formula_units_Z   1
loop_
 _symmetry_equiv_pos_site_id
 _symmetry_equiv_pos_as_xyz
  1  'x, y, z'
loop_
 _atom_site_type_symbol
 _atom_site_label
 _atom_site_symmetry_multiplicity
 _atom_site_fract_x
 _atom_site_fract_y
 _atom_site_fract_z
 _atom_site_occupancy
  Ca  Ca0  1  0.500132  0.499868  0.500000  1
  Ca  Ca1  1  0.501076  0.000929  0.749973  1
  Ca  Ca2  1  0.999071  0.498924  0.250027  1
  Tb  Tb3  1  0.499095  0.999181  0.250000  1
  Tb  Tb4  1  0.000819  0.500905  0.750000  1
  Yb  Yb5  1  0.999938  0.000062  0.000000  1
  Si  Si6  1  0.795661  0.204339  0.500000  1
  Si  Si7  1  0.294823  0.705177  0.000000  1
  Si  Si8  1  0.205015  0.794985  0.500000  1
  Si  Si9  1  0.704495  0.295505  0.000000  1
  Si  Si10  1  0.331389  0.336177  0.832466  1
  Si  Si11  1  0.663823  0.668611  0.167534  1
  Si  Si12  1  0.168240  0.163556  0.332160  1
  Si  Si13  1  0.836444  0.831760  0.667840  1
  Si  Si14  1  0.123353  0.890934  0.730328  1
  Si  Si15  1  0.109066  0.876647  0.269672  1
  Si  Si16  1  0.607425  0.374915  0.229755  1
  Si  Si17  1  0.625085  0.392575  0.770245  1
  Si  Si18  1  0.874874  0.106783  0.269763  1
  Si  Si19  1  0.893217  0.125126  0.730237  1
  Si  Si20  1  0.390416  0.623372  0.770049  1
  Si  Si21  1  0.376628  0.609584  0.229951  1
  Si  Si22  1  0.346725  0.113100  0.506082  1
  Si  Si23  1  0.886900  0.653275  0.493918  1
  Si  Si24  1  0.386108  0.153852  0.008917  1
  Si  Si25  1  0.846148  0.613892  0.991083  1
  Si  Si26  1  0.653562  0.886269  0.490546  1
  Si  Si27  1  0.113731  0.346438  0.509454  1
  Si  Si28  1  0.613337  0.846594  0.994517  1
  Si  Si29  1  0.153406  0.386663  0.005483  1
  Ru  Ru30  1  0.670899  0.329101  0.500000  1
  Ru  Ru31  1  0.169679  0.830321  0.000000  1
  Ru  Ru32  1  0.329932  0.670068  0.500000  1
  Ru  Ru33  1  0.829385  0.170615  0.000000  1
  Ru  Ru34  1  0.126576  0.126357  0.625311  1
  Ru  Ru35  1  0.873643  0.873424  0.374689  1
  Ru  Ru36  1  0.372640  0.372756  0.124525  1
  Ru  Ru37  1  0.627244  0.627360  0.875475  1
