# generated using pymatgen
data_La4Tb7Nd5(CdIr)4
_symmetry_space_group_name_H-M   'P 1'
_cell_length_a   9.86731349
_cell_length_b   9.87761848
_cell_length_c   9.87761824
_cell_angle_alpha   59.99030314
_cell_angle_beta   60.03450157
_cell_angle_gamma   60.03450758
_symmetry_Int_Tables_number   1
_chemical_formula_structural   La4Tb7Nd5(CdIr)4
_chemical_formula_sum   'La4 Tb7 Nd5 Cd4 Ir4'
_cell_volume   681.05603650
_cell_formula_units_Z   1
loop_
 _symmetry_equiv_pos_site_id
 _symmetry_equiv_pos_as_xyz
  1  'x, y, z'
loop_
 _atom_site_type_symbol
 _atom_site_label
 _atom_site_symmetry_multiplicity
 _atom_site_fract_x
 _atom_site_fract_y
 _atom_site_fract_z
 _atom_site_occupancy
  La  La0  1  0.350178  0.350125  0.350125  1
  La  La1  1  0.349763  0.351595  0.948877  1
  La  La2  1  0.349763  0.948877  0.351595  1
  La  La3  1  0.949570  0.350125  0.350125  1
  Tb  Tb4  1  0.813880  0.186120  0.186120  1
  Tb  Tb5  1  0.185769  0.814231  0.814231  1
  Tb  Tb6  1  0.185865  0.812980  0.187562  1
  Tb  Tb7  1  0.813593  0.187562  0.812980  1
  Tb  Tb8  1  0.185865  0.187562  0.812980  1
  Tb  Tb9  1  0.813593  0.812980  0.187562  1
  Tb  Tb10  1  0.940286  0.559714  0.559714  1
  Nd  Nd11  1  0.560625  0.939375  0.939375  1
  Nd  Nd12  1  0.563911  0.937036  0.560458  1
  Nd  Nd13  1  0.938595  0.560458  0.937036  1
  Nd  Nd14  1  0.563911  0.560458  0.937036  1
  Nd  Nd15  1  0.938595  0.937036  0.560458  1
  Cd  Cd16  1  0.583306  0.580633  0.580633  1
  Cd  Cd17  1  0.580854  0.581470  0.256821  1
  Cd  Cd18  1  0.580854  0.256821  0.581470  1
  Cd  Cd19  1  0.255426  0.580633  0.580633  1
  Ir  Ir20  1  0.139230  0.140171  0.140171  1
  Ir  Ir21  1  0.138068  0.143543  0.580320  1
  Ir  Ir22  1  0.138068  0.580320  0.143543  1
  Ir  Ir23  1  0.580427  0.140171  0.140171  1
