# generated using pymatgen
data_Hf15Sc(Si4W)4
_symmetry_space_group_name_H-M   'P 1'
_cell_length_a   6.95382860
_cell_length_b   6.94586781
_cell_length_c   12.71296366
_cell_angle_alpha   90.03269190
_cell_angle_beta   89.98271339
_cell_angle_gamma   90.15707060
_symmetry_Int_Tables_number   1
_chemical_formula_structural   Hf15Sc(Si4W)4
_chemical_formula_sum   'Hf15 Sc1 Si16 W4'
_cell_volume   614.03846819
_cell_formula_units_Z   1
loop_
 _symmetry_equiv_pos_site_id
 _symmetry_equiv_pos_as_xyz
  1  'x, y, z'
loop_
 _atom_site_type_symbol
 _atom_site_label
 _atom_site_symmetry_multiplicity
 _atom_site_fract_x
 _atom_site_fract_y
 _atom_site_fract_z
 _atom_site_occupancy
  Hf  Hf0  1  0.504052  0.844783  0.031145  1
  Hf  Hf1  1  0.655834  0.002907  0.279705  1
  Hf  Hf2  1  0.345066  0.997175  0.780623  1
  Hf  Hf3  1  0.845124  0.503988  0.968793  1
  Hf  Hf4  1  0.154208  0.498045  0.468698  1
  Hf  Hf5  1  0.003727  0.655059  0.720270  1
  Hf  Hf6  1  0.996777  0.344852  0.219527  1
  Hf  Hf7  1  0.497035  0.355145  0.124570  1
  Hf  Hf8  1  0.502448  0.644531  0.625433  1
  Hf  Hf9  1  0.855800  0.002577  0.874690  1
  Hf  Hf10  1  0.144081  0.996956  0.374263  1
  Hf  Hf11  1  0.645405  0.502812  0.374314  1
  Hf  Hf12  1  0.354741  0.498405  0.874910  1
  Hf  Hf13  1  0.001883  0.855252  0.125423  1
  Hf  Hf14  1  0.997519  0.144053  0.625927  1
  Sc  Sc15  1  0.497196  0.155460  0.531413  1
  Si  Si16  1  0.796457  0.145502  0.071847  1
  Si  Si17  1  0.202331  0.853356  0.571441  1
  Si  Si18  1  0.646710  0.703080  0.821347  1
  Si  Si19  1  0.353062  0.297921  0.320290  1
  Si  Si20  1  0.854142  0.202649  0.428499  1
  Si  Si21  1  0.145493  0.797033  0.927903  1
  Si  Si22  1  0.702811  0.646292  0.178674  1
  Si  Si23  1  0.296923  0.352916  0.678495  1
  Si  Si24  1  0.546424  0.196941  0.932992  1
  Si  Si25  1  0.453863  0.803850  0.433264  1
  Si  Si26  1  0.696200  0.954281  0.683027  1
  Si  Si27  1  0.302862  0.046045  0.183470  1
  Si  Si28  1  0.802756  0.453566  0.567138  1
  Si  Si29  1  0.196792  0.546553  0.067126  1
  Si  Si30  1  0.953902  0.696862  0.316698  1
  Si  Si31  1  0.046545  0.303291  0.816650  1
  W  W32  1  0.672603  0.327589  0.750817  1
  W  W33  1  0.327215  0.672098  0.249957  1
  W  W34  1  0.827906  0.823747  0.500378  1
  W  W35  1  0.174105  0.174427  0.000283  1
