# generated using pymatgen
data_UP4RhO14
_symmetry_space_group_name_H-M   'P 1'
_cell_length_a   5.05017994
_cell_length_b   7.30767860
_cell_length_c   8.36059272
_cell_angle_alpha   90.78176563
_cell_angle_beta   92.86033493
_cell_angle_gamma   106.11350278
_symmetry_Int_Tables_number   1
_chemical_formula_structural   UP4RhO14
_chemical_formula_sum   'U1 P4 Rh1 O14'
_cell_volume   295.93587130
_cell_formula_units_Z   1
loop_
 _symmetry_equiv_pos_site_id
 _symmetry_equiv_pos_as_xyz
  1  'x, y, z'
loop_
 _atom_site_type_symbol
 _atom_site_label
 _atom_site_symmetry_multiplicity
 _atom_site_fract_x
 _atom_site_fract_y
 _atom_site_fract_z
 _atom_site_occupancy
  U  U0  1  0.500000  0.500000  0.500000  1
  P  P1  1  0.522654  0.126627  0.779034  1
  P  P2  1  0.122796  0.760806  0.708140  1
  P  P3  1  0.877204  0.239194  0.291860  1
  P  P4  1  0.477346  0.873373  0.220966  1
  Rh  Rh5  1  0.000000  0.000000  0.000000  1
  O  O6  1  0.371028  0.160894  0.923680  1
  O  O7  1  0.042968  0.763299  0.880063  1
  O  O8  1  0.789883  0.071561  0.805170  1
  O  O9  1  0.288387  0.614759  0.679412  1
  O  O10  1  0.580924  0.302494  0.667274  1
  O  O11  1  0.312204  0.964808  0.659804  1
  O  O12  1  0.875836  0.713105  0.581884  1
  O  O13  1  0.124164  0.286895  0.418116  1
  O  O14  1  0.687796  0.035192  0.340196  1
  O  O15  1  0.419076  0.697506  0.332726  1
  O  O16  1  0.711613  0.385241  0.320588  1
  O  O17  1  0.210117  0.928439  0.194830  1
  O  O18  1  0.957032  0.236701  0.119937  1
  O  O19  1  0.628972  0.839106  0.076320  1
