# generated using pymatgen
data_Tb9LuIr5Au
_symmetry_space_group_name_H-M   'P 1'
_cell_length_a   11.09142455
_cell_length_b   11.03799000
_cell_length_c   6.35004800
_cell_angle_alpha   90.00000000
_cell_angle_beta   89.85090013
_cell_angle_gamma   90.00000000
_symmetry_Int_Tables_number   1
_chemical_formula_structural   Tb9LuIr5Au
_chemical_formula_sum   'Tb18 Lu2 Ir10 Au2'
_cell_volume   777.41490581
_cell_formula_units_Z   2
loop_
 _symmetry_equiv_pos_site_id
 _symmetry_equiv_pos_as_xyz
  1  'x, y, z'
loop_
 _atom_site_type_symbol
 _atom_site_label
 _atom_site_symmetry_multiplicity
 _atom_site_fract_x
 _atom_site_fract_y
 _atom_site_fract_z
 _atom_site_occupancy
  Tb  Tb0  1  0.292034  0.088687  0.372560  1
  Tb  Tb1  1  0.292034  0.911313  0.872560  1
  Tb  Tb2  1  0.697905  0.092266  0.865110  1
  Tb  Tb3  1  0.697905  0.907734  0.365110  1
  Tb  Tb4  1  0.577878  0.788103  0.877899  1
  Tb  Tb5  1  0.577878  0.211897  0.377899  1
  Tb  Tb6  1  0.408930  0.789413  0.377199  1
  Tb  Tb7  1  0.408930  0.210587  0.877199  1
  Tb  Tb8  1  0.211186  0.411783  0.620712  1
  Tb  Tb9  1  0.211186  0.588217  0.120712  1
  Tb  Tb10  1  0.787860  0.419930  0.122573  1
  Tb  Tb11  1  0.787860  0.580070  0.622573  1
  Tb  Tb12  1  0.917120  0.705095  0.139084  1
  Tb  Tb13  1  0.917120  0.294905  0.639084  1
  Tb  Tb14  1  0.096366  0.702666  0.623886  1
  Tb  Tb15  1  0.096366  0.297334  0.123886  1
  Tb  Tb16  1  0.008990  0.997582  0.499800  1
  Tb  Tb17  1  0.008990  0.002418  0.999800  1
  Lu  Lu18  1  0.499929  0.498970  0.000529  1
  Lu  Lu19  1  0.499929  0.501030  0.500529  1
  Ir  Ir20  1  0.154331  0.154154  0.750656  1
  Ir  Ir21  1  0.154331  0.845846  0.250656  1
  Ir  Ir22  1  0.652613  0.349364  0.748633  1
  Ir  Ir23  1  0.652613  0.650636  0.248633  1
  Ir  Ir24  1  0.350559  0.349188  0.251368  1
  Ir  Ir25  1  0.350559  0.650812  0.751368  1
  Ir  Ir26  1  0.499693  0.999638  0.120003  1
  Ir  Ir27  1  0.499693  0.000362  0.620003  1
  Ir  Ir28  1  0.999725  0.501039  0.880051  1
  Ir  Ir29  1  0.999725  0.498961  0.380051  1
  Au  Au30  1  0.844880  0.155294  0.249938  1
  Au  Au31  1  0.844880  0.844706  0.749938  1
