# generated using pymatgen
data_LaNd5(Pd3Rh)2
_symmetry_space_group_name_H-M   'P 1'
_cell_length_a   8.08014472
_cell_length_b   8.08617379
_cell_length_c   8.08249500
_cell_angle_alpha   114.23349451
_cell_angle_beta   114.17557265
_cell_angle_gamma   114.22594117
_symmetry_Int_Tables_number   1
_chemical_formula_structural   LaNd5(Pd3Rh)2
_chemical_formula_sum   'La1 Nd5 Pd6 Rh2'
_cell_volume   315.74303393
_cell_formula_units_Z   1
loop_
 _symmetry_equiv_pos_site_id
 _symmetry_equiv_pos_as_xyz
  1  'x, y, z'
loop_
 _atom_site_type_symbol
 _atom_site_label
 _atom_site_symmetry_multiplicity
 _atom_site_fract_x
 _atom_site_fract_y
 _atom_site_fract_z
 _atom_site_occupancy
  La  La0  1  0.718269  0.596904  0.959433  1
  Nd  Nd1  1  0.404625  0.038968  0.281609  1
  Nd  Nd2  1  0.037064  0.281994  0.402747  1
  Nd  Nd3  1  0.281744  0.403233  0.039624  1
  Nd  Nd4  1  0.596210  0.960978  0.717634  1
  Nd  Nd5  1  0.962076  0.718424  0.596993  1
  Pd  Pd6  1  0.224943  0.056547  0.555487  1
  Pd  Pd7  1  0.056478  0.554781  0.224582  1
  Pd  Pd8  1  0.554922  0.224159  0.057289  1
  Pd  Pd9  1  0.775556  0.944398  0.446625  1
  Pd  Pd10  1  0.944514  0.444604  0.774528  1
  Pd  Pd11  1  0.444000  0.775375  0.943314  1
  Rh  Rh12  1  0.999623  0.999525  0.000082  1
  Rh  Rh13  1  0.499975  0.500112  0.500052  1
