# generated using pymatgen
data_CoSbBr18
_symmetry_space_group_name_H-M   'P 1'
_cell_length_a   9.30206608
_cell_length_b   9.27131255
_cell_length_c   9.30282919
_cell_angle_alpha   89.75718318
_cell_angle_beta   89.72301741
_cell_angle_gamma   89.85078697
_symmetry_Int_Tables_number   1
_chemical_formula_structural   CoSbBr18
_chemical_formula_sum   'Co1 Sb1 Br18'
_cell_volume   802.27870433
_cell_formula_units_Z   1
loop_
 _symmetry_equiv_pos_site_id
 _symmetry_equiv_pos_as_xyz
  1  'x, y, z'
loop_
 _atom_site_type_symbol
 _atom_site_label
 _atom_site_symmetry_multiplicity
 _atom_site_fract_x
 _atom_site_fract_y
 _atom_site_fract_z
 _atom_site_occupancy
  Co  Co0  1  0.000000  0.000000  0.000000  1
  Sb  Sb1  1  0.500000  0.500000  0.500000  1
  Br  Br2  1  0.802553  0.463693  0.521681  1
  Br  Br3  1  0.523075  0.803273  0.463938  1
  Br  Br4  1  0.464845  0.522970  0.802672  1
  Br  Br5  1  0.197447  0.536307  0.478319  1
  Br  Br6  1  0.476925  0.196727  0.536062  1
  Br  Br7  1  0.535155  0.477030  0.197328  1
  Br  Br8  1  0.902879  0.358963  0.758737  1
  Br  Br9  1  0.760612  0.904039  0.359102  1
  Br  Br10  1  0.359111  0.760300  0.903035  1
  Br  Br11  1  0.097121  0.641037  0.241263  1
  Br  Br12  1  0.239388  0.095961  0.640898  1
  Br  Br13  1  0.640889  0.239700  0.096965  1
  Br  Br14  1  0.015094  0.972217  0.742101  1
  Br  Br15  1  0.741841  0.014921  0.974097  1
  Br  Br16  1  0.973997  0.741087  0.017039  1
  Br  Br17  1  0.984906  0.027783  0.257899  1
  Br  Br18  1  0.258159  0.985079  0.025903  1
  Br  Br19  1  0.026003  0.258913  0.982961  1
