# generated using pymatgen
data_Tb2CrFe4P6Rh5
_symmetry_space_group_name_H-M   'P 1'
_cell_length_a   3.78550300
_cell_length_b   10.54522200
_cell_length_c   12.33500200
_cell_angle_alpha   90.00000000
_cell_angle_beta   90.00000000
_cell_angle_gamma   90.00000000
_symmetry_Int_Tables_number   1
_chemical_formula_structural   Tb2CrFe4P6Rh5
_chemical_formula_sum   'Tb4 Cr2 Fe8 P12 Rh10'
_cell_volume   492.40056883
_cell_formula_units_Z   2
loop_
 _symmetry_equiv_pos_site_id
 _symmetry_equiv_pos_as_xyz
  1  'x, y, z'
loop_
 _atom_site_type_symbol
 _atom_site_label
 _atom_site_symmetry_multiplicity
 _atom_site_fract_x
 _atom_site_fract_y
 _atom_site_fract_z
 _atom_site_occupancy
  Tb  Tb0  1  0.250000  0.580398  0.710516  1
  Tb  Tb1  1  0.250000  0.919602  0.210516  1
  Tb  Tb2  1  0.750000  0.423823  0.291128  1
  Tb  Tb3  1  0.750000  0.076177  0.791128  1
  Cr  Cr4  1  0.250000  0.700263  0.990170  1
  Cr  Cr5  1  0.250000  0.799737  0.490170  1
  Fe  Fe6  1  0.250000  0.875484  0.695511  1
  Fe  Fe7  1  0.250000  0.624516  0.195511  1
  Fe  Fe8  1  0.750000  0.122375  0.302116  1
  Fe  Fe9  1  0.750000  0.377625  0.802116  1
  Fe  Fe10  1  0.250000  0.458778  0.936714  1
  Fe  Fe11  1  0.250000  0.041222  0.436714  1
  Fe  Fe12  1  0.750000  0.537309  0.063528  1
  Fe  Fe13  1  0.750000  0.962691  0.563528  1
  P  P14  1  0.250000  0.439880  0.112918  1
  P  P15  1  0.250000  0.060120  0.612918  1
  P  P16  1  0.750000  0.563196  0.889097  1
  P  P17  1  0.750000  0.936804  0.389097  1
  P  P18  1  0.250000  0.272453  0.863174  1
  P  P19  1  0.250000  0.227547  0.363174  1
  P  P20  1  0.750000  0.724804  0.134718  1
  P  P21  1  0.750000  0.775196  0.634718  1
  P  P22  1  0.250000  0.604520  0.382417  1
  P  P23  1  0.250000  0.895480  0.882417  1
  P  P24  1  0.750000  0.400386  0.617621  1
  P  P25  1  0.750000  0.099614  0.117621  1
  Rh  Rh26  1  0.750000  0.289700  0.010005  1
  Rh  Rh27  1  0.750000  0.210300  0.510005  1
  Rh  Rh28  1  0.250000  0.406585  0.481007  1
  Rh  Rh29  1  0.250000  0.093415  0.981007  1
  Rh  Rh30  1  0.750000  0.596882  0.519217  1
  Rh  Rh31  1  0.750000  0.903118  0.019217  1
  Rh  Rh32  1  0.250000  0.230876  0.174516  1
  Rh  Rh33  1  0.250000  0.269124  0.674516  1
  Rh  Rh34  1  0.750000  0.770424  0.825628  1
  Rh  Rh35  1  0.750000  0.729576  0.325628  1
