# generated using pymatgen
data_Dy4HoTm3(B6Os)4
_symmetry_space_group_name_H-M   'P 1'
_cell_length_a   3.63868100
_cell_length_b   9.11691207
_cell_length_c   11.50471508
_cell_angle_alpha   90.01390806
_cell_angle_beta   90.00000000
_cell_angle_gamma   90.00000000
_symmetry_Int_Tables_number   1
_chemical_formula_structural   Dy4HoTm3(B6Os)4
_chemical_formula_sum   'Dy4 Ho1 Tm3 B24 Os4'
_cell_volume   381.65205403
_cell_formula_units_Z   1
loop_
 _symmetry_equiv_pos_site_id
 _symmetry_equiv_pos_as_xyz
  1  'x, y, z'
loop_
 _atom_site_type_symbol
 _atom_site_label
 _atom_site_symmetry_multiplicity
 _atom_site_fract_x
 _atom_site_fract_y
 _atom_site_fract_z
 _atom_site_occupancy
  Dy  Dy0  1  0.000000  0.322074  0.414104  1
  Dy  Dy1  1  0.000000  0.677976  0.586223  1
  Dy  Dy2  1  0.000000  0.821770  0.085831  1
  Dy  Dy3  1  0.000000  0.178288  0.913935  1
  Ho  Ho4  1  0.000000  0.944057  0.373078  1
  Tm  Tm5  1  0.000000  0.056074  0.627376  1
  Tm  Tm6  1  0.000000  0.444050  0.126808  1
  Tm  Tm7  1  0.000000  0.555970  0.872982  1
  B  B8  1  0.500000  0.553798  0.432945  1
  B  B9  1  0.500000  0.445775  0.567196  1
  B  B10  1  0.500000  0.054306  0.066855  1
  B  B11  1  0.500000  0.945832  0.932875  1
  B  B12  1  0.500000  0.748138  0.419711  1
  B  B13  1  0.500000  0.251219  0.580482  1
  B  B14  1  0.500000  0.249106  0.080208  1
  B  B15  1  0.500000  0.751044  0.919649  1
  B  B16  1  0.500000  0.790793  0.266109  1
  B  B17  1  0.500000  0.208589  0.733745  1
  B  B18  1  0.500000  0.291787  0.233493  1
  B  B19  1  0.500000  0.708486  0.766400  1
  B  B20  1  0.500000  0.630937  0.184734  1
  B  B21  1  0.500000  0.368869  0.815144  1
  B  B22  1  0.500000  0.131866  0.314801  1
  B  B23  1  0.500000  0.868738  0.685054  1
  B  B24  1  0.500000  0.983313  0.212935  1
  B  B25  1  0.500000  0.017056  0.786590  1
  B  B26  1  0.500000  0.482709  0.286421  1
  B  B27  1  0.500000  0.517106  0.713517  1
  B  B28  1  0.500000  0.605420  0.029067  1
  B  B29  1  0.500000  0.394574  0.970779  1
  B  B30  1  0.500000  0.106637  0.471175  1
  B  B31  1  0.500000  0.893892  0.529928  1
  Os  Os32  1  0.000000  0.636948  0.320764  1
  Os  Os33  1  0.000000  0.362337  0.679375  1
  Os  Os34  1  0.000000  0.138271  0.178745  1
  Os  Os35  1  0.000000  0.862196  0.820963  1
