# generated using pymatgen
data_PrNd7Ga(Si4Rh)3
_symmetry_space_group_name_H-M   'P 1'
_cell_length_a   8.26349300
_cell_length_b   8.26349320
_cell_length_c   8.49735100
_cell_angle_alpha   90.00009549
_cell_angle_beta   89.99990427
_cell_angle_gamma   119.99985488
_symmetry_Int_Tables_number   1
_chemical_formula_structural   PrNd7Ga(Si4Rh)3
_chemical_formula_sum   'Pr1 Nd7 Ga1 Si12 Rh3'
_cell_volume   502.50705375
_cell_formula_units_Z   1
loop_
 _symmetry_equiv_pos_site_id
 _symmetry_equiv_pos_as_xyz
  1  'x, y, z'
loop_
 _atom_site_type_symbol
 _atom_site_label
 _atom_site_symmetry_multiplicity
 _atom_site_fract_x
 _atom_site_fract_y
 _atom_site_fract_z
 _atom_site_occupancy
  Pr  Pr0  1  0.000000  0.000000  0.747622  1
  Nd  Nd1  1  0.999999  0.000001  0.252523  1
  Nd  Nd2  1  0.497833  0.502167  0.746094  1
  Nd  Nd3  1  0.497834  0.995667  0.746096  1
  Nd  Nd4  1  0.004333  0.502166  0.746096  1
  Nd  Nd5  1  0.499922  0.500078  0.253777  1
  Nd  Nd6  1  0.000156  0.500078  0.253776  1
  Nd  Nd7  1  0.499922  0.999844  0.253776  1
  Ga  Ga8  1  0.666668  0.333332  0.994757  1
  Si  Si9  1  0.838366  0.161634  0.000173  1
  Si  Si10  1  0.838365  0.676729  0.000172  1
  Si  Si11  1  0.323271  0.161635  0.000172  1
  Si  Si12  1  0.832501  0.167499  0.501321  1
  Si  Si13  1  0.832501  0.665003  0.501321  1
  Si  Si14  1  0.334997  0.167499  0.501321  1
  Si  Si15  1  0.167100  0.832900  0.498486  1
  Si  Si16  1  0.665799  0.832899  0.498485  1
  Si  Si17  1  0.167101  0.334201  0.498485  1
  Si  Si18  1  0.169407  0.830593  0.000923  1
  Si  Si19  1  0.661187  0.830593  0.000922  1
  Si  Si20  1  0.169407  0.338813  0.000922  1
  Rh  Rh21  1  0.666670  0.333330  0.503306  1
  Rh  Rh22  1  0.333334  0.666666  0.496922  1
  Rh  Rh23  1  0.333332  0.666668  0.002553  1
