# generated using pymatgen
data_Hf6Ti2Mn3Pt
_symmetry_space_group_name_H-M   'P 1'
_cell_length_a   8.42322650
_cell_length_b   8.40701470
_cell_length_c   8.40701400
_cell_angle_alpha   59.89108337
_cell_angle_beta   59.93618791
_cell_angle_gamma   59.93619053
_symmetry_Int_Tables_number   1
_chemical_formula_structural   Hf6Ti2Mn3Pt
_chemical_formula_sum   'Hf12 Ti4 Mn6 Pt2'
_cell_volume   420.21295563
_cell_formula_units_Z   2
loop_
 _symmetry_equiv_pos_site_id
 _symmetry_equiv_pos_as_xyz
  1  'x, y, z'
loop_
 _atom_site_type_symbol
 _atom_site_label
 _atom_site_symmetry_multiplicity
 _atom_site_fract_x
 _atom_site_fract_y
 _atom_site_fract_z
 _atom_site_occupancy
  Hf  Hf0  1  0.434361  0.815639  0.815639  1
  Hf  Hf1  1  0.817123  0.432877  0.432877  1
  Hf  Hf2  1  0.813747  0.434246  0.817655  1
  Hf  Hf3  1  0.434350  0.817655  0.434246  1
  Hf  Hf4  1  0.813747  0.817655  0.434246  1
  Hf  Hf5  1  0.434350  0.434246  0.817655  1
  Hf  Hf6  1  0.567913  0.182087  0.182087  1
  Hf  Hf7  1  0.179335  0.570665  0.570665  1
  Hf  Hf8  1  0.181367  0.560614  0.182114  1
  Hf  Hf9  1  0.575905  0.182114  0.560614  1
  Hf  Hf10  1  0.181367  0.182114  0.560614  1
  Hf  Hf11  1  0.575905  0.560614  0.182114  1
  Ti  Ti12  1  0.993370  0.999978  0.513282  1
  Ti  Ti13  1  0.993370  0.513282  0.999978  1
  Ti  Ti14  1  0.518685  0.994918  0.994918  1
  Ti  Ti15  1  0.991479  0.994918  0.994918  1
  Mn  Mn16  1  0.876255  0.209124  0.209124  1
  Mn  Mn17  1  0.205496  0.209124  0.209124  1
  Mn  Mn18  1  0.788845  0.789744  0.132567  1
  Mn  Mn19  1  0.788845  0.132567  0.789744  1
  Mn  Mn20  1  0.129661  0.790176  0.790176  1
  Mn  Mn21  1  0.789989  0.790176  0.790176  1
  Pt  Pt22  1  0.207266  0.211233  0.874234  1
  Pt  Pt23  1  0.207266  0.874234  0.211233  1
