# generated using pymatgen
data_La4Pr3IrRh2
_symmetry_space_group_name_H-M   'P 1'
_cell_length_a   6.48590675
_cell_length_b   10.23447119
_cell_length_c   10.22637833
_cell_angle_alpha   120.02940752
_cell_angle_beta   89.96004717
_cell_angle_gamma   89.98682706
_symmetry_Int_Tables_number   1
_chemical_formula_structural   La4Pr3IrRh2
_chemical_formula_sum   'La8 Pr6 Ir2 Rh4'
_cell_volume   587.70532065
_cell_formula_units_Z   2
loop_
 _symmetry_equiv_pos_site_id
 _symmetry_equiv_pos_as_xyz
  1  'x, y, z'
loop_
 _atom_site_type_symbol
 _atom_site_label
 _atom_site_symmetry_multiplicity
 _atom_site_fract_x
 _atom_site_fract_y
 _atom_site_fract_z
 _atom_site_occupancy
  La  La0  1  0.469797  0.333308  0.666666  1
  La  La1  1  0.969962  0.666416  0.332719  1
  La  La2  1  0.251963  0.126401  0.875157  1
  La  La3  1  0.251948  0.748675  0.875155  1
  La  La4  1  0.251694  0.125532  0.251034  1
  La  La5  1  0.752664  0.874135  0.125914  1
  La  La6  1  0.752749  0.251732  0.125873  1
  La  La7  1  0.752221  0.874298  0.748527  1
  Pr  Pr8  1  0.440142  0.540679  0.458743  1
  Pr  Pr9  1  0.440164  0.918055  0.458729  1
  Pr  Pr10  1  0.439230  0.541059  0.082058  1
  Pr  Pr11  1  0.940577  0.458682  0.540409  1
  Pr  Pr12  1  0.940627  0.081716  0.540408  1
  Pr  Pr13  1  0.940961  0.459330  0.918656  1
  Ir  Ir14  1  0.181807  0.811940  0.188031  1
  Ir  Ir15  1  0.181724  0.376199  0.188062  1
  Rh  Rh16  1  0.181655  0.811988  0.623924  1
  Rh  Rh17  1  0.682056  0.188031  0.811386  1
  Rh  Rh18  1  0.681951  0.623233  0.811329  1
  Rh  Rh19  1  0.682109  0.188591  0.377220  1
