# generated using pymatgen
data_YbBi3Te10
_symmetry_space_group_name_H-M   'P 1'
_cell_length_a   23.55136151
_cell_length_b   23.55136128
_cell_length_c   3.17577600
_cell_angle_alpha   90.00000000
_cell_angle_beta   90.00000000
_cell_angle_gamma   166.08163396
_symmetry_Int_Tables_number   1
_chemical_formula_structural   YbBi3Te10
_chemical_formula_sum   'Yb1 Bi3 Te10'
_cell_volume   423.70905207
_cell_formula_units_Z   1
loop_
 _symmetry_equiv_pos_site_id
 _symmetry_equiv_pos_as_xyz
  1  'x, y, z'
loop_
 _atom_site_type_symbol
 _atom_site_label
 _atom_site_symmetry_multiplicity
 _atom_site_fract_x
 _atom_site_fract_y
 _atom_site_fract_z
 _atom_site_occupancy
  Yb  Yb0  1  0.103499  0.896501  0.750000  1
  Bi  Bi1  1  0.680889  0.319111  0.250000  1
  Bi  Bi2  1  0.319858  0.680142  0.750000  1
  Bi  Bi3  1  0.888252  0.111748  0.250000  1
  Te  Te4  1  0.616141  0.383859  0.250000  1
  Te  Te5  1  0.386937  0.613063  0.750000  1
  Te  Te6  1  0.821914  0.178086  0.250000  1
  Te  Te7  1  0.174091  0.825909  0.750000  1
  Te  Te8  1  0.959073  0.040927  0.750000  1
  Te  Te9  1  0.044365  0.955635  0.250000  1
  Te  Te10  1  0.542046  0.457954  0.750000  1
  Te  Te11  1  0.463195  0.536805  0.250000  1
  Te  Te12  1  0.748125  0.251875  0.750000  1
  Te  Te13  1  0.251614  0.748386  0.250000  1
