# generated using pymatgen
data_Tb2YGa6Ni7Rh2
_symmetry_space_group_name_H-M   'P 1'
_cell_length_a   4.13728500
_cell_length_b   8.73466771
_cell_length_c   9.09415531
_cell_angle_alpha   58.80942602
_cell_angle_beta   90.00000000
_cell_angle_gamma   90.00000000
_symmetry_Int_Tables_number   1
_chemical_formula_structural   Tb2YGa6Ni7Rh2
_chemical_formula_sum   'Tb2 Y1 Ga6 Ni7 Rh2'
_cell_volume   281.13735576
_cell_formula_units_Z   1
loop_
 _symmetry_equiv_pos_site_id
 _symmetry_equiv_pos_as_xyz
  1  'x, y, z'
loop_
 _atom_site_type_symbol
 _atom_site_label
 _atom_site_symmetry_multiplicity
 _atom_site_fract_x
 _atom_site_fract_y
 _atom_site_fract_z
 _atom_site_occupancy
  Tb  Tb0  1  0.500000  0.671317  0.661962  1
  Tb  Tb1  1  0.000000  0.999115  0.986527  1
  Y  Y2  1  0.500000  0.328014  0.334376  1
  Ga  Ga3  1  0.500000  0.726208  0.277022  1
  Ga  Ga4  1  0.500000  0.273454  0.003688  1
  Ga  Ga5  1  0.500000  0.999871  0.716702  1
  Ga  Ga6  1  0.000000  0.474993  0.536321  1
  Ga  Ga7  1  0.000000  0.525258  0.011518  1
  Ga  Ga8  1  0.000000  0.001033  0.469832  1
  Ni  Ni9  1  0.000000  0.194579  0.169472  1
  Ni  Ni10  1  0.000000  0.170280  0.610594  1
  Ni  Ni11  1  0.000000  0.611913  0.226314  1
  Ni  Ni12  1  0.000000  0.829674  0.780545  1
  Ni  Ni13  1  0.000000  0.387828  0.838181  1
  Ni  Ni14  1  0.000000  0.806090  0.363990  1
  Ni  Ni15  1  0.500000  0.999866  0.290408  1
  Rh  Rh16  1  0.500000  0.289527  0.716667  1
  Rh  Rh17  1  0.500000  0.710879  0.005982  1
