# generated using pymatgen
data_Ho6Ni16As13Pd4
_symmetry_space_group_name_H-M   'P 1'
_cell_length_a   13.26480300
_cell_length_b   13.26480379
_cell_length_c   3.89563800
_cell_angle_alpha   90.00000000
_cell_angle_beta   90.00000000
_cell_angle_gamma   120.00000052
_symmetry_Int_Tables_number   1
_chemical_formula_structural   Ho6Ni16As13Pd4
_chemical_formula_sum   'Ho6 Ni16 As13 Pd4'
_cell_volume   593.62318931
_cell_formula_units_Z   1
loop_
 _symmetry_equiv_pos_site_id
 _symmetry_equiv_pos_as_xyz
  1  'x, y, z'
loop_
 _atom_site_type_symbol
 _atom_site_label
 _atom_site_symmetry_multiplicity
 _atom_site_fract_x
 _atom_site_fract_y
 _atom_site_fract_z
 _atom_site_occupancy
  Ho  Ho0  1  0.186613  0.469694  0.000000  1
  Ho  Ho1  1  0.530306  0.716919  0.000000  1
  Ho  Ho2  1  0.283081  0.813387  0.000000  1
  Ho  Ho3  1  0.719027  0.189368  0.500000  1
  Ho  Ho4  1  0.810632  0.529659  0.500000  1
  Ho  Ho5  1  0.470341  0.280973  0.500000  1
  Ni  Ni6  1  0.092033  0.202838  0.000000  1
  Ni  Ni7  1  0.797162  0.889195  0.000000  1
  Ni  Ni8  1  0.110805  0.907967  0.000000  1
  Ni  Ni9  1  0.666667  0.333333  0.000000  1
  Ni  Ni10  1  0.422182  0.439856  0.000000  1
  Ni  Ni11  1  0.560144  0.982325  0.000000  1
  Ni  Ni12  1  0.017675  0.577818  0.000000  1
  Ni  Ni13  1  0.244808  0.318795  0.500000  1
  Ni  Ni14  1  0.681205  0.926013  0.500000  1
  Ni  Ni15  1  0.073987  0.755192  0.500000  1
  Ni  Ni16  1  0.439441  0.026313  0.500000  1
  Ni  Ni17  1  0.973687  0.413128  0.500000  1
  Ni  Ni18  1  0.586872  0.560559  0.500000  1
  Ni  Ni19  1  0.920465  0.244537  0.000000  1
  Ni  Ni20  1  0.755463  0.675929  0.000000  1
  Ni  Ni21  1  0.324071  0.079535  0.000000  1
  As  As22  1  0.388540  0.518150  0.500000  1
  As  As23  1  0.481850  0.870390  0.500000  1
  As  As24  1  0.129610  0.611460  0.500000  1
  As  As25  1  0.050740  0.289292  0.500000  1
  As  As26  1  0.710708  0.761448  0.500000  1
  As  As27  1  0.238552  0.949260  0.500000  1
  As  As28  1  0.526061  0.141994  0.000000  1
  As  As29  1  0.858006  0.384067  0.000000  1
  As  As30  1  0.615933  0.473939  0.000000  1
  As  As31  1  0.760622  0.048270  0.000000  1
  As  As32  1  0.951730  0.712352  0.000000  1
  As  As33  1  0.287648  0.239378  0.000000  1
  As  As34  1  0.000000  0.000000  0.000000  1
  Pd  Pd35  1  0.333333  0.666667  0.500000  1
  Pd  Pd36  1  0.917440  0.072155  0.500000  1
  Pd  Pd37  1  0.927845  0.845285  0.500000  1
  Pd  Pd38  1  0.154715  0.082560  0.500000  1
