# generated using pymatgen
data_Y2Co3Tc3Ni6As7
_symmetry_space_group_name_H-M   'P 1'
_cell_length_a   3.84144700
_cell_length_b   9.39136417
_cell_length_c   9.39136600
_cell_angle_alpha   119.99999939
_cell_angle_beta   90.00000000
_cell_angle_gamma   90.00000000
_symmetry_Int_Tables_number   1
_chemical_formula_structural   Y2Co3Tc3Ni6As7
_chemical_formula_sum   'Y2 Co3 Tc3 Ni6 As7'
_cell_volume   293.41541602
_cell_formula_units_Z   1
loop_
 _symmetry_equiv_pos_site_id
 _symmetry_equiv_pos_as_xyz
  1  'x, y, z'
loop_
 _atom_site_type_symbol
 _atom_site_label
 _atom_site_symmetry_multiplicity
 _atom_site_fract_x
 _atom_site_fract_y
 _atom_site_fract_z
 _atom_site_occupancy
  Y  Y0  1  0.000000  0.666667  0.333333  1
  Y  Y1  1  0.500000  0.333333  0.666667  1
  Co  Co2  1  0.000000  0.871448  0.153903  1
  Co  Co3  1  0.000000  0.282455  0.128552  1
  Co  Co4  1  0.000000  0.846097  0.717545  1
  Tc  Tc5  1  0.500000  0.787444  0.899171  1
  Tc  Tc6  1  0.500000  0.111727  0.212556  1
  Tc  Tc7  1  0.500000  0.100829  0.888273  1
  Ni  Ni8  1  0.000000  0.565525  0.938284  1
  Ni  Ni9  1  0.000000  0.372759  0.434475  1
  Ni  Ni10  1  0.000000  0.061716  0.627241  1
  Ni  Ni11  1  0.500000  0.944551  0.381677  1
  Ni  Ni12  1  0.500000  0.437125  0.055449  1
  Ni  Ni13  1  0.500000  0.618323  0.562875  1
  As  As14  1  0.000000  0.000000  0.000000  1
  As  As15  1  0.500000  0.709852  0.116002  1
  As  As16  1  0.500000  0.406152  0.290148  1
  As  As17  1  0.500000  0.883998  0.593848  1
  As  As18  1  0.000000  0.593434  0.705557  1
  As  As19  1  0.000000  0.112123  0.406566  1
  As  As20  1  0.000000  0.294443  0.887877  1
