# generated using pymatgen
data_DyRhI18
_symmetry_space_group_name_H-M   'P 1'
_cell_length_a   10.19566350
_cell_length_b   10.19566339
_cell_length_c   10.19566418
_cell_angle_alpha   94.37309438
_cell_angle_beta   94.37308194
_cell_angle_gamma   94.37309653
_symmetry_Int_Tables_number   1
_chemical_formula_structural   DyRhI18
_chemical_formula_sum   'Dy1 Rh1 I18'
_cell_volume   1050.09705620
_cell_formula_units_Z   1
loop_
 _symmetry_equiv_pos_site_id
 _symmetry_equiv_pos_as_xyz
  1  'x, y, z'
loop_
 _atom_site_type_symbol
 _atom_site_label
 _atom_site_symmetry_multiplicity
 _atom_site_fract_x
 _atom_site_fract_y
 _atom_site_fract_z
 _atom_site_occupancy
  Dy  Dy0  1  0.000000  0.000000  0.000000  1
  Rh  Rh1  1  0.500000  0.500000  0.500000  1
  I  I2  1  0.703772  0.969679  0.022868  1
  I  I3  1  0.726222  0.136483  0.597644  1
  I  I4  1  0.022868  0.703772  0.969679  1
  I  I5  1  0.273778  0.863517  0.402356  1
  I  I6  1  0.136483  0.597644  0.726222  1
  I  I7  1  0.030321  0.977132  0.296228  1
  I  I8  1  0.597644  0.726222  0.136483  1
  I  I9  1  0.977132  0.296228  0.030321  1
  I  I10  1  0.863517  0.402356  0.273778  1
  I  I11  1  0.402356  0.273778  0.863517  1
  I  I12  1  0.969679  0.022868  0.703772  1
  I  I13  1  0.296228  0.030321  0.977132  1
  I  I14  1  0.765417  0.530215  0.507284  1
  I  I15  1  0.492716  0.234583  0.469785  1
  I  I16  1  0.469785  0.492716  0.234583  1
  I  I17  1  0.507284  0.765417  0.530215  1
  I  I18  1  0.530215  0.507284  0.765417  1
  I  I19  1  0.234583  0.469785  0.492716  1
