# generated using pymatgen
data_La8Dy7Ho5Si16
_symmetry_space_group_name_H-M   'P 1'
_cell_length_a   7.56965816
_cell_length_b   7.89030101
_cell_length_c   14.98495500
_cell_angle_alpha   90.00074794
_cell_angle_beta   89.98834353
_cell_angle_gamma   89.99710280
_symmetry_Int_Tables_number   1
_chemical_formula_structural   La8Dy7Ho5Si16
_chemical_formula_sum   'La8 Dy7 Ho5 Si16'
_cell_volume   895.00461039
_cell_formula_units_Z   1
loop_
 _symmetry_equiv_pos_site_id
 _symmetry_equiv_pos_as_xyz
  1  'x, y, z'
loop_
 _atom_site_type_symbol
 _atom_site_label
 _atom_site_symmetry_multiplicity
 _atom_site_fract_x
 _atom_site_fract_y
 _atom_site_fract_z
 _atom_site_occupancy
  La  La0  1  0.022120  0.180119  0.400838  1
  La  La1  1  0.522306  0.319627  0.400648  1
  La  La2  1  0.477775  0.679797  0.901098  1
  La  La3  1  0.477845  0.680282  0.599213  1
  La  La4  1  0.977854  0.819995  0.599294  1
  La  La5  1  0.977828  0.819942  0.901105  1
  La  La6  1  0.522360  0.319810  0.098804  1
  La  La7  1  0.022185  0.179923  0.098807  1
  Dy  Dy8  1  0.319150  0.177595  0.623335  1
  Dy  Dy9  1  0.681015  0.822503  0.376741  1
  Dy  Dy10  1  0.653181  0.989498  0.750061  1
  Dy  Dy11  1  0.180844  0.677315  0.376859  1
  Dy  Dy12  1  0.846914  0.489559  0.249863  1
  Dy  Dy13  1  0.346911  0.010441  0.249887  1
  Dy  Dy14  1  0.153044  0.510639  0.750140  1
  Ho  Ho15  1  0.819203  0.322795  0.876935  1
  Ho  Ho16  1  0.819027  0.322773  0.623516  1
  Ho  Ho17  1  0.319381  0.177360  0.876898  1
  Ho  Ho18  1  0.180750  0.677181  0.122968  1
  Ho  Ho19  1  0.680753  0.822819  0.122992  1
  Si  Si20  1  0.271263  0.879911  0.750351  1
  Si  Si21  1  0.475113  0.616738  0.249362  1
  Si  Si22  1  0.024627  0.117072  0.750503  1
  Si  Si23  1  0.525256  0.383297  0.750402  1
  Si  Si24  1  0.142252  0.468078  0.539738  1
  Si  Si25  1  0.975208  0.883139  0.249382  1
  Si  Si26  1  0.728885  0.120146  0.249592  1
  Si  Si27  1  0.856863  0.531920  0.039419  1
  Si  Si28  1  0.356836  0.968068  0.039366  1
  Si  Si29  1  0.143058  0.468055  0.960502  1
  Si  Si30  1  0.643509  0.032194  0.539544  1
  Si  Si31  1  0.357118  0.968448  0.460610  1
  Si  Si32  1  0.856448  0.531380  0.460950  1
  Si  Si33  1  0.771220  0.619899  0.750213  1
  Si  Si34  1  0.228853  0.379874  0.249590  1
  Si  Si35  1  0.643041  0.031808  0.960477  1
