# generated using pymatgen
data_Nd12Ga7SiRh8
_symmetry_space_group_name_H-M   'P 1'
_cell_length_a   5.71852457
_cell_length_b   8.20011111
_cell_length_c   13.52360600
_cell_angle_alpha   90.00000000
_cell_angle_beta   90.00000000
_cell_angle_gamma   90.03308629
_symmetry_Int_Tables_number   1
_chemical_formula_structural   Nd12Ga7SiRh8
_chemical_formula_sum   'Nd12 Ga7 Si1 Rh8'
_cell_volume   634.15608762
_cell_formula_units_Z   1
loop_
 _symmetry_equiv_pos_site_id
 _symmetry_equiv_pos_as_xyz
  1  'x, y, z'
loop_
 _atom_site_type_symbol
 _atom_site_label
 _atom_site_symmetry_multiplicity
 _atom_site_fract_x
 _atom_site_fract_y
 _atom_site_fract_z
 _atom_site_occupancy
  Nd  Nd0  1  0.631288  0.255283  0.250000  1
  Nd  Nd1  1  0.365303  0.743017  0.750000  1
  Nd  Nd2  1  0.366087  0.758479  0.250000  1
  Nd  Nd3  1  0.638342  0.248829  0.750000  1
  Nd  Nd4  1  0.148289  0.396697  0.097091  1
  Nd  Nd5  1  0.854155  0.602091  0.899795  1
  Nd  Nd6  1  0.854155  0.602091  0.600205  1
  Nd  Nd7  1  0.852030  0.897371  0.403015  1
  Nd  Nd8  1  0.148289  0.396697  0.402909  1
  Nd  Nd9  1  0.148930  0.104236  0.599941  1
  Nd  Nd10  1  0.148930  0.104236  0.900059  1
  Nd  Nd11  1  0.852030  0.897371  0.096985  1
  Ga  Ga12  1  0.130747  0.108938  0.250000  1
  Ga  Ga13  1  0.864424  0.893590  0.750000  1
  Ga  Ga14  1  0.865110  0.607138  0.250000  1
  Ga  Ga15  1  0.636644  0.250284  0.999224  1
  Ga  Ga16  1  0.365149  0.748493  0.998751  1
  Ga  Ga17  1  0.365149  0.748493  0.501249  1
  Ga  Ga18  1  0.636644  0.250284  0.500776  1
  Si  Si19  1  0.141247  0.393029  0.750000  1
  Rh  Rh20  1  0.360545  0.031538  0.091434  1
  Rh  Rh21  1  0.636526  0.967844  0.908100  1
  Rh  Rh22  1  0.636526  0.967844  0.591900  1
  Rh  Rh23  1  0.638317  0.532119  0.409522  1
  Rh  Rh24  1  0.360545  0.031538  0.408566  1
  Rh  Rh25  1  0.358138  0.465178  0.597029  1
  Rh  Rh26  1  0.358138  0.465178  0.902971  1
  Rh  Rh27  1  0.638317  0.532119  0.090478  1
