# generated using pymatgen
data_Hf8Ta2Ti9NbGe16
_symmetry_space_group_name_H-M   'P 1'
_cell_length_a   6.79370141
_cell_length_b   6.91995742
_cell_length_c   13.09364500
_cell_angle_alpha   90.00000000
_cell_angle_beta   90.00000000
_cell_angle_gamma   90.00001696
_symmetry_Int_Tables_number   1
_chemical_formula_structural   Hf8Ta2Ti9NbGe16
_chemical_formula_sum   'Hf8 Ta2 Ti9 Nb1 Ge16'
_cell_volume   615.56006881
_cell_formula_units_Z   1
loop_
 _symmetry_equiv_pos_site_id
 _symmetry_equiv_pos_as_xyz
  1  'x, y, z'
loop_
 _atom_site_type_symbol
 _atom_site_label
 _atom_site_symmetry_multiplicity
 _atom_site_fract_x
 _atom_site_fract_y
 _atom_site_fract_z
 _atom_site_occupancy
  Hf  Hf0  1  0.490141  0.674997  0.594115  1
  Hf  Hf1  1  0.989753  0.824591  0.905805  1
  Hf  Hf2  1  0.510620  0.323951  0.093396  1
  Hf  Hf3  1  0.008575  0.173964  0.406383  1
  Hf  Hf4  1  0.510620  0.323951  0.406604  1
  Hf  Hf5  1  0.008575  0.173964  0.093617  1
  Hf  Hf6  1  0.490141  0.674997  0.905885  1
  Hf  Hf7  1  0.989753  0.824591  0.594195  1
  Ta  Ta8  1  0.828582  0.494581  0.750000  1
  Ta  Ta9  1  0.328470  0.005094  0.750000  1
  Ti  Ti10  1  0.658147  0.168140  0.624706  1
  Ti  Ti11  1  0.157064  0.332124  0.875731  1
  Ti  Ti12  1  0.344009  0.832935  0.125188  1
  Ti  Ti13  1  0.841298  0.668419  0.374943  1
  Ti  Ti14  1  0.344009  0.832935  0.374812  1
  Ti  Ti15  1  0.841298  0.668419  0.125057  1
  Ti  Ti16  1  0.658147  0.168140  0.875294  1
  Ti  Ti17  1  0.157064  0.332124  0.624269  1
  Ti  Ti18  1  0.171067  0.506113  0.250000  1
  Nb  Nb19  1  0.671182  0.995673  0.250000  1
  Ge  Ge20  1  0.684565  0.958392  0.461561  1
  Ge  Ge21  1  0.184308  0.540633  0.040596  1
  Ge  Ge22  1  0.315723  0.040308  0.961194  1
  Ge  Ge23  1  0.815569  0.459536  0.538427  1
  Ge  Ge24  1  0.315723  0.040308  0.538806  1
  Ge  Ge25  1  0.815569  0.459536  0.961573  1
  Ge  Ge26  1  0.684565  0.958392  0.038439  1
  Ge  Ge27  1  0.184308  0.540633  0.459404  1
  Ge  Ge28  1  0.456619  0.379294  0.750000  1
  Ge  Ge29  1  0.957064  0.120448  0.750000  1
  Ge  Ge30  1  0.540190  0.617848  0.250000  1
  Ge  Ge31  1  0.044770  0.876886  0.250000  1
  Ge  Ge32  1  0.691530  0.857811  0.750000  1
  Ge  Ge33  1  0.191407  0.641976  0.750000  1
  Ge  Ge34  1  0.306133  0.147422  0.250000  1
  Ge  Ge35  1  0.813438  0.360878  0.250000  1
