# generated using pymatgen
data_PrTh3(InAu2)2
_symmetry_space_group_name_H-M   'P 1'
_cell_length_a   8.08430400
_cell_length_b   8.08430371
_cell_length_c   3.96696900
_cell_angle_alpha   90.00000000
_cell_angle_beta   90.00000000
_cell_angle_gamma   90.37775513
_symmetry_Int_Tables_number   1
_chemical_formula_structural   PrTh3(InAu2)2
_chemical_formula_sum   'Pr1 Th3 In2 Au4'
_cell_volume   259.25946722
_cell_formula_units_Z   1
loop_
 _symmetry_equiv_pos_site_id
 _symmetry_equiv_pos_as_xyz
  1  'x, y, z'
loop_
 _atom_site_type_symbol
 _atom_site_label
 _atom_site_symmetry_multiplicity
 _atom_site_fract_x
 _atom_site_fract_y
 _atom_site_fract_z
 _atom_site_occupancy
  Pr  Pr0  1  0.823209  0.676791  0.500000  1
  Th  Th1  1  0.675700  0.174536  0.500000  1
  Th  Th2  1  0.325464  0.824300  0.500000  1
  Th  Th3  1  0.174534  0.325466  0.500000  1
  In  In4  1  0.999830  0.998260  0.000000  1
  In  In5  1  0.501740  0.500170  0.000000  1
  Au  Au6  1  0.129337  0.624838  0.000000  1
  Au  Au7  1  0.875162  0.370663  0.000000  1
  Au  Au8  1  0.623180  0.876820  0.000000  1
  Au  Au9  1  0.371843  0.128157  0.000000  1
