# generated using pymatgen
data_TbSm7(Lu3Si4)4
_symmetry_space_group_name_H-M   'P 1'
_cell_length_a   7.33569132
_cell_length_b   7.64166755
_cell_length_c   14.48980285
_cell_angle_alpha   89.96630465
_cell_angle_beta   89.97983722
_cell_angle_gamma   89.97261414
_symmetry_Int_Tables_number   1
_chemical_formula_structural   TbSm7(Lu3Si4)4
_chemical_formula_sum   'Tb1 Sm7 Lu12 Si16'
_cell_volume   812.25335357
_cell_formula_units_Z   1
loop_
 _symmetry_equiv_pos_site_id
 _symmetry_equiv_pos_as_xyz
  1  'x, y, z'
loop_
 _atom_site_type_symbol
 _atom_site_label
 _atom_site_symmetry_multiplicity
 _atom_site_fract_x
 _atom_site_fract_y
 _atom_site_fract_z
 _atom_site_occupancy
  Tb  Tb0  1  0.014461  0.176587  0.098209  1
  Sm  Sm1  1  0.986049  0.824303  0.902477  1
  Sm  Sm2  1  0.485859  0.675982  0.902450  1
  Sm  Sm3  1  0.986053  0.824127  0.597714  1
  Sm  Sm4  1  0.514102  0.323832  0.097824  1
  Sm  Sm5  1  0.013938  0.175828  0.402382  1
  Sm  Sm6  1  0.513894  0.324046  0.401987  1
  Sm  Sm7  1  0.486054  0.676024  0.597849  1
  Lu  Lu8  1  0.161551  0.508150  0.750063  1
  Lu  Lu9  1  0.838648  0.491743  0.249778  1
  Lu  Lu10  1  0.338558  0.008136  0.249880  1
  Lu  Lu11  1  0.661348  0.991990  0.749938  1
  Lu  Lu12  1  0.328682  0.177233  0.623655  1
  Lu  Lu13  1  0.671285  0.822736  0.376130  1
  Lu  Lu14  1  0.171079  0.677393  0.376123  1
  Lu  Lu15  1  0.671291  0.823029  0.123652  1
  Lu  Lu16  1  0.829041  0.322625  0.623682  1
  Lu  Lu17  1  0.328582  0.177229  0.876499  1
  Lu  Lu18  1  0.829219  0.322214  0.876327  1
  Lu  Lu19  1  0.170939  0.677619  0.123734  1
  Si  Si20  1  0.034062  0.114852  0.750064  1
  Si  Si21  1  0.966162  0.885976  0.249670  1
  Si  Si22  1  0.465918  0.615083  0.249949  1
  Si  Si23  1  0.534291  0.385052  0.750043  1
  Si  Si24  1  0.282243  0.874980  0.750009  1
  Si  Si25  1  0.718672  0.125267  0.249430  1
  Si  Si26  1  0.216808  0.374191  0.249489  1
  Si  Si27  1  0.782374  0.624914  0.750035  1
  Si  Si28  1  0.155517  0.466366  0.538996  1
  Si  Si29  1  0.844418  0.533598  0.460939  1
  Si  Si30  1  0.344726  0.966379  0.460843  1
  Si  Si31  1  0.845079  0.532656  0.039389  1
  Si  Si32  1  0.655350  0.033568  0.539083  1
  Si  Si33  1  0.155019  0.465370  0.961309  1
  Si  Si34  1  0.655747  0.033723  0.960992  1
  Si  Si35  1  0.342983  0.967197  0.039407  1
