# generated using pymatgen
data_CeGd5RuO12
_symmetry_space_group_name_H-M   'P 1'
_cell_length_a   6.53741846
_cell_length_b   6.57058305
_cell_length_c   6.55974442
_cell_angle_alpha   98.67818510
_cell_angle_beta   98.58375267
_cell_angle_gamma   98.85648170
_symmetry_Int_Tables_number   1
_chemical_formula_structural   CeGd5RuO12
_chemical_formula_sum   'Ce1 Gd5 Ru1 O12'
_cell_volume   270.89936827
_cell_formula_units_Z   1
loop_
 _symmetry_equiv_pos_site_id
 _symmetry_equiv_pos_as_xyz
  1  'x, y, z'
loop_
 _atom_site_type_symbol
 _atom_site_label
 _atom_site_symmetry_multiplicity
 _atom_site_fract_x
 _atom_site_fract_y
 _atom_site_fract_z
 _atom_site_occupancy
  Ce  Ce0  1  0.859802  0.394758  0.696167  1
  Gd  Gd1  1  0.606742  0.302989  0.140951  1
  Gd  Gd2  1  0.301997  0.135093  0.608874  1
  Gd  Gd3  1  0.695021  0.858098  0.388860  1
  Gd  Gd4  1  0.390634  0.702471  0.862240  1
  Gd  Gd5  1  0.141974  0.611335  0.301463  1
  Ru  Ru6  1  0.998952  0.002544  0.000693  1
  O  O7  1  0.931999  0.040250  0.701544  1
  O  O8  1  0.959652  0.299189  0.067046  1
  O  O9  1  0.596224  0.178962  0.440337  1
  O  O10  1  0.823139  0.561965  0.415397  1
  O  O11  1  0.299707  0.067809  0.959600  1
  O  O12  1  0.570640  0.410768  0.817613  1
  O  O13  1  0.437839  0.587433  0.174518  1
  O  O14  1  0.700864  0.932414  0.038820  1
  O  O15  1  0.170079  0.433370  0.595768  1
  O  O16  1  0.407281  0.819695  0.561012  1
  O  O17  1  0.038301  0.699624  0.931592  1
  O  O18  1  0.069151  0.961232  0.297506  1
