# generated using pymatgen
data_LuCu6BrO8
_symmetry_space_group_name_H-M   'P 1'
_cell_length_a   6.54179865
_cell_length_b   6.54179841
_cell_length_c   6.54179900
_cell_angle_alpha   60.00000209
_cell_angle_beta   60.00000327
_cell_angle_gamma   59.99999808
_symmetry_Int_Tables_number   1
_chemical_formula_structural   LuCu6BrO8
_chemical_formula_sum   'Lu1 Cu6 Br1 O8'
_cell_volume   197.95958704
_cell_formula_units_Z   1
loop_
 _symmetry_equiv_pos_site_id
 _symmetry_equiv_pos_as_xyz
  1  'x, y, z'
loop_
 _atom_site_type_symbol
 _atom_site_label
 _atom_site_symmetry_multiplicity
 _atom_site_fract_x
 _atom_site_fract_y
 _atom_site_fract_z
 _atom_site_occupancy
  Lu  Lu0  1  0.000000  0.000000  0.000000  1
  Cu  Cu1  1  0.000000  0.000000  0.500000  1
  Cu  Cu2  1  0.500000  0.000000  0.500000  1
  Cu  Cu3  1  0.000000  0.500000  0.500000  1
  Cu  Cu4  1  0.500000  0.500000  0.000000  1
  Cu  Cu5  1  0.000000  0.500000  0.000000  1
  Cu  Cu6  1  0.500000  0.000000  0.000000  1
  Br  Br7  1  0.500000  0.500000  0.500000  1
  O  O8  1  0.857515  0.857515  0.427456  1
  O  O9  1  0.857515  0.427456  0.857515  1
  O  O10  1  0.427456  0.857515  0.857515  1
  O  O11  1  0.857515  0.857515  0.857515  1
  O  O12  1  0.142485  0.142485  0.572544  1
  O  O13  1  0.142485  0.572544  0.142485  1
  O  O14  1  0.572544  0.142485  0.142485  1
  O  O15  1  0.142485  0.142485  0.142485  1
