# generated using pymatgen
data_Dy3YAl4OsPt3
_symmetry_space_group_name_H-M   'P 1'
_cell_length_a   4.35887100
_cell_length_b   6.86382999
_cell_length_c   7.89752185
_cell_angle_alpha   89.87101084
_cell_angle_beta   90.00000000
_cell_angle_gamma   90.00000000
_symmetry_Int_Tables_number   1
_chemical_formula_structural   Dy3YAl4OsPt3
_chemical_formula_sum   'Dy3 Y1 Al4 Os1 Pt3'
_cell_volume   236.28179957
_cell_formula_units_Z   1
loop_
 _symmetry_equiv_pos_site_id
 _symmetry_equiv_pos_as_xyz
  1  'x, y, z'
loop_
 _atom_site_type_symbol
 _atom_site_label
 _atom_site_symmetry_multiplicity
 _atom_site_fract_x
 _atom_site_fract_y
 _atom_site_fract_z
 _atom_site_occupancy
  Dy  Dy0  1  0.750000  0.533977  0.814952  1
  Dy  Dy1  1  0.750000  0.022452  0.678424  1
  Dy  Dy2  1  0.250000  0.966428  0.322502  1
  Y  Y3  1  0.250000  0.470582  0.181494  1
  Al  Al4  1  0.250000  0.857015  0.936280  1
  Al  Al5  1  0.750000  0.141268  0.061487  1
  Al  Al6  1  0.750000  0.644580  0.440740  1
  Al  Al7  1  0.250000  0.361331  0.562560  1
  Os  Os8  1  0.250000  0.733056  0.621135  1
  Pt  Pt9  1  0.750000  0.269313  0.379178  1
  Pt  Pt10  1  0.750000  0.770816  0.119677  1
  Pt  Pt11  1  0.250000  0.229183  0.881574  1
