# generated using pymatgen
data_Zr6Sc8Al8Ru7
_symmetry_space_group_name_H-M   'P 1'
_cell_length_a   9.08006169
_cell_length_b   9.08006231
_cell_length_c   9.08006200
_cell_angle_alpha   60.00000113
_cell_angle_beta   59.99999886
_cell_angle_gamma   60.00000151
_symmetry_Int_Tables_number   1
_chemical_formula_structural   Zr6Sc8Al8Ru7
_chemical_formula_sum   'Zr6 Sc8 Al8 Ru7'
_cell_volume   529.36039891
_cell_formula_units_Z   1
loop_
 _symmetry_equiv_pos_site_id
 _symmetry_equiv_pos_as_xyz
  1  'x, y, z'
loop_
 _atom_site_type_symbol
 _atom_site_label
 _atom_site_symmetry_multiplicity
 _atom_site_fract_x
 _atom_site_fract_y
 _atom_site_fract_z
 _atom_site_occupancy
  Zr  Zr0  1  0.675284  0.675284  0.324716  1
  Zr  Zr1  1  0.324716  0.675284  0.324716  1
  Zr  Zr2  1  0.675284  0.324716  0.324716  1
  Zr  Zr3  1  0.324716  0.324716  0.675284  1
  Zr  Zr4  1  0.675284  0.324716  0.675284  1
  Zr  Zr5  1  0.324716  0.675284  0.675284  1
  Sc  Sc6  1  0.876390  0.876390  0.370832  1
  Sc  Sc7  1  0.876390  0.370832  0.876390  1
  Sc  Sc8  1  0.370832  0.876390  0.876390  1
  Sc  Sc9  1  0.876390  0.876390  0.876390  1
  Sc  Sc10  1  0.123610  0.123610  0.629168  1
  Sc  Sc11  1  0.123610  0.629168  0.123610  1
  Sc  Sc12  1  0.629168  0.123610  0.123610  1
  Sc  Sc13  1  0.123610  0.123610  0.123610  1
  Al  Al14  1  0.661396  0.661396  0.015811  1
  Al  Al15  1  0.661396  0.015811  0.661396  1
  Al  Al16  1  0.015811  0.661396  0.661396  1
  Al  Al17  1  0.661396  0.661396  0.661396  1
  Al  Al18  1  0.338604  0.338604  0.984189  1
  Al  Al19  1  0.338604  0.984189  0.338604  1
  Al  Al20  1  0.984189  0.338604  0.338604  1
  Al  Al21  1  0.338604  0.338604  0.338604  1
  Ru  Ru22  1  0.000000  0.000000  0.000000  1
  Ru  Ru23  1  0.000000  0.000000  0.500000  1
  Ru  Ru24  1  0.500000  0.000000  0.500000  1
  Ru  Ru25  1  0.000000  0.500000  0.500000  1
  Ru  Ru26  1  0.500000  0.500000  0.000000  1
  Ru  Ru27  1  0.000000  0.500000  0.000000  1
  Ru  Ru28  1  0.500000  0.000000  0.000000  1
