# generated using pymatgen
data_Pr2Ni2Te
_symmetry_space_group_name_H-M   'P 1'
_cell_length_a   4.15834200
_cell_length_b   4.15834166
_cell_length_c   16.62210900
_cell_angle_alpha   90.00000000
_cell_angle_beta   90.00000000
_cell_angle_gamma   119.99998676
_symmetry_Int_Tables_number   1
_chemical_formula_structural   Pr2Ni2Te
_chemical_formula_sum   'Pr4 Ni4 Te2'
_cell_volume   248.91850845
_cell_formula_units_Z   2
loop_
 _symmetry_equiv_pos_site_id
 _symmetry_equiv_pos_as_xyz
  1  'x, y, z'
loop_
 _atom_site_type_symbol
 _atom_site_label
 _atom_site_symmetry_multiplicity
 _atom_site_fract_x
 _atom_site_fract_y
 _atom_site_fract_z
 _atom_site_occupancy
  Pr  Pr0  1  0.000000  0.000000  0.614941  1
  Pr  Pr1  1  0.000000  0.000000  0.385059  1
  Pr  Pr2  1  0.000000  0.000000  0.114941  1
  Pr  Pr3  1  0.000000  0.000000  0.885059  1
  Ni  Ni4  1  0.666667  0.333333  0.500716  1
  Ni  Ni5  1  0.333333  0.666667  0.000716  1
  Ni  Ni6  1  0.666667  0.333333  0.999284  1
  Ni  Ni7  1  0.333333  0.666667  0.499284  1
  Te  Te8  1  0.666667  0.333333  0.250000  1
  Te  Te9  1  0.333333  0.666667  0.750000  1
