# generated using pymatgen
data_Eu2HoEr(AsPt)4
_symmetry_space_group_name_H-M   'P 1'
_cell_length_a   4.27475700
_cell_length_b   4.27475661
_cell_length_c   16.20535000
_cell_angle_alpha   90.00000000
_cell_angle_beta   90.00000000
_cell_angle_gamma   119.99999525
_symmetry_Int_Tables_number   1
_chemical_formula_structural   Eu2HoEr(AsPt)4
_chemical_formula_sum   'Eu2 Ho1 Er1 As4 Pt4'
_cell_volume   256.45542641
_cell_formula_units_Z   1
loop_
 _symmetry_equiv_pos_site_id
 _symmetry_equiv_pos_as_xyz
  1  'x, y, z'
loop_
 _atom_site_type_symbol
 _atom_site_label
 _atom_site_symmetry_multiplicity
 _atom_site_fract_x
 _atom_site_fract_y
 _atom_site_fract_z
 _atom_site_occupancy
  Eu  Eu0  1  0.000000  0.000000  0.499776  1
  Eu  Eu1  1  0.000000  0.000000  0.000224  1
  Ho  Ho2  1  0.000000  0.000000  0.750000  1
  Er  Er3  1  0.000000  0.000000  0.250000  1
  As  As4  1  0.333333  0.666667  0.877958  1
  As  As5  1  0.666667  0.333333  0.122520  1
  As  As6  1  0.666667  0.333333  0.377480  1
  As  As7  1  0.333333  0.666667  0.622042  1
  Pt  Pt8  1  0.333333  0.666667  0.356917  1
  Pt  Pt9  1  0.666667  0.333333  0.642178  1
  Pt  Pt10  1  0.666667  0.333333  0.857822  1
  Pt  Pt11  1  0.333333  0.666667  0.143083  1
