# generated using pymatgen
data_Hf3Re2Si2GeRu
_symmetry_space_group_name_H-M   'P 1'
_cell_length_a   6.96107537
_cell_length_b   6.96003938
_cell_length_c   3.45057000
_cell_angle_alpha   90.00000000
_cell_angle_beta   90.00000000
_cell_angle_gamma   120.31421418
_symmetry_Int_Tables_number   1
_chemical_formula_structural   Hf3Re2Si2GeRu
_chemical_formula_sum   'Hf3 Re2 Si2 Ge1 Ru1'
_cell_volume   144.31972889
_cell_formula_units_Z   1
loop_
 _symmetry_equiv_pos_site_id
 _symmetry_equiv_pos_as_xyz
  1  'x, y, z'
loop_
 _atom_site_type_symbol
 _atom_site_label
 _atom_site_symmetry_multiplicity
 _atom_site_fract_x
 _atom_site_fract_y
 _atom_site_fract_z
 _atom_site_occupancy
  Hf  Hf0  1  0.395154  0.401670  0.500000  1
  Hf  Hf1  1  0.594223  0.999371  0.500000  1
  Hf  Hf2  1  0.011624  0.599410  0.500000  1
  Re  Re3  1  0.248893  0.994758  0.000000  1
  Re  Re4  1  0.006022  0.253541  0.000000  1
  Si  Si5  1  0.337733  0.668535  0.000000  1
  Si  Si6  1  0.991911  0.990959  0.500000  1
  Ge  Ge7  1  0.668315  0.338669  0.000000  1
  Ru  Ru8  1  0.746128  0.753086  0.000000  1
