# generated using pymatgen
data_CaPrTh2(Al3Rh)6
_symmetry_space_group_name_H-M   'P 1'
_cell_length_a   7.65310709
_cell_length_b   7.64307702
_cell_length_c   9.57485600
_cell_angle_alpha   90.00000000
_cell_angle_beta   90.00000000
_cell_angle_gamma   119.31552461
_symmetry_Int_Tables_number   1
_chemical_formula_structural   CaPrTh2(Al3Rh)6
_chemical_formula_sum   'Ca1 Pr1 Th2 Al18 Rh6'
_cell_volume   488.34101889
_cell_formula_units_Z   1
loop_
 _symmetry_equiv_pos_site_id
 _symmetry_equiv_pos_as_xyz
  1  'x, y, z'
loop_
 _atom_site_type_symbol
 _atom_site_label
 _atom_site_symmetry_multiplicity
 _atom_site_fract_x
 _atom_site_fract_y
 _atom_site_fract_z
 _atom_site_occupancy
  Ca  Ca0  1  0.005724  0.327900  0.250000  1
  Pr  Pr1  1  0.328500  0.005220  0.250000  1
  Th  Th2  1  0.994873  0.670784  0.750000  1
  Th  Th3  1  0.672381  0.996413  0.750000  1
  Al  Al4  1  0.133387  0.134507  0.750000  1
  Al  Al5  1  0.871303  0.871121  0.250000  1
  Al  Al6  1  0.005069  0.335738  0.569437  1
  Al  Al7  1  0.997043  0.661434  0.421780  1
  Al  Al8  1  0.997043  0.661434  0.078220  1
  Al  Al9  1  0.335666  0.005467  0.926776  1
  Al  Al10  1  0.005069  0.335738  0.930563  1
  Al  Al11  1  0.667019  0.999615  0.078273  1
  Al  Al12  1  0.667019  0.999615  0.421727  1
  Al  Al13  1  0.335666  0.005467  0.573224  1
  Al  Al14  1  0.332652  0.334648  0.048517  1
  Al  Al15  1  0.663569  0.663803  0.956791  1
  Al  Al16  1  0.663569  0.663803  0.543209  1
  Al  Al17  1  0.332652  0.334648  0.451483  1
  Al  Al18  1  0.339324  0.544233  0.750000  1
  Al  Al19  1  0.659533  0.450615  0.250000  1
  Al  Al20  1  0.544302  0.340264  0.750000  1
  Al  Al21  1  0.449974  0.658783  0.250000  1
  Rh  Rh22  1  0.671838  0.328909  0.503280  1
  Rh  Rh23  1  0.329727  0.673398  0.502983  1
  Rh  Rh24  1  0.329727  0.673398  0.997017  1
  Rh  Rh25  1  0.671838  0.328909  0.996720  1
  Rh  Rh26  1  0.997765  0.997069  0.503625  1
  Rh  Rh27  1  0.997765  0.997069  0.996375  1
