# generated using pymatgen
data_Cs6Sc2IrRhBr18
_symmetry_space_group_name_H-M   'P 1'
_cell_length_a   7.86696200
_cell_length_b   7.86696105
_cell_length_c   19.52818800
_cell_angle_alpha   90.00000000
_cell_angle_beta   90.00000000
_cell_angle_gamma   119.99998718
_symmetry_Int_Tables_number   1
_chemical_formula_structural   Cs6Sc2IrRhBr18
_chemical_formula_sum   'Cs6 Sc2 Ir1 Rh1 Br18'
_cell_volume   1046.66255565
_cell_formula_units_Z   1
loop_
 _symmetry_equiv_pos_site_id
 _symmetry_equiv_pos_as_xyz
  1  'x, y, z'
loop_
 _atom_site_type_symbol
 _atom_site_label
 _atom_site_symmetry_multiplicity
 _atom_site_fract_x
 _atom_site_fract_y
 _atom_site_fract_z
 _atom_site_occupancy
  Cs  Cs0  1  0.333333  0.666667  0.069982  1
  Cs  Cs1  1  0.666667  0.333333  0.929952  1
  Cs  Cs2  1  0.666667  0.333333  0.570527  1
  Cs  Cs3  1  0.333333  0.666667  0.429547  1
  Cs  Cs4  1  0.000000  0.000000  0.253547  1
  Cs  Cs5  1  0.000000  0.000000  0.746456  1
  Sc  Sc6  1  0.666667  0.333333  0.162409  1
  Sc  Sc7  1  0.333333  0.666667  0.838036  1
  Ir  Ir8  1  0.666667  0.333333  0.331496  1
  Rh  Rh9  1  0.333333  0.666667  0.667662  1
  Br  Br10  1  0.183203  0.366405  0.594882  1
  Br  Br11  1  0.816785  0.633570  0.404987  1
  Br  Br12  1  0.633595  0.816797  0.594882  1
  Br  Br13  1  0.827237  0.654475  0.092171  1
  Br  Br14  1  0.366430  0.183215  0.404987  1
  Br  Br15  1  0.172751  0.345500  0.907842  1
  Br  Br16  1  0.183203  0.816797  0.594882  1
  Br  Br17  1  0.345525  0.172763  0.092171  1
  Br  Br18  1  0.816785  0.183215  0.404987  1
  Br  Br19  1  0.654500  0.827249  0.907842  1
  Br  Br20  1  0.827237  0.172763  0.092171  1
  Br  Br21  1  0.172751  0.827249  0.907842  1
  Br  Br22  1  0.513591  0.027184  0.255710  1
  Br  Br23  1  0.486127  0.972252  0.744536  1
  Br  Br24  1  0.972816  0.486409  0.255710  1
  Br  Br25  1  0.027748  0.513873  0.744536  1
  Br  Br26  1  0.513591  0.486409  0.255710  1
  Br  Br27  1  0.486127  0.513873  0.744536  1
