# generated using pymatgen
data_Hf6Zn23Fe
_symmetry_space_group_name_H-M   'P 1'
_cell_length_a   8.74477982
_cell_length_b   8.74478047
_cell_length_c   8.74478100
_cell_angle_alpha   60.00000935
_cell_angle_beta   60.00000688
_cell_angle_gamma   60.00000487
_symmetry_Int_Tables_number   1
_chemical_formula_structural   Hf6Zn23Fe
_chemical_formula_sum   'Hf6 Zn23 Fe1'
_cell_volume   472.85915271
_cell_formula_units_Z   1
loop_
 _symmetry_equiv_pos_site_id
 _symmetry_equiv_pos_as_xyz
  1  'x, y, z'
loop_
 _atom_site_type_symbol
 _atom_site_label
 _atom_site_symmetry_multiplicity
 _atom_site_fract_x
 _atom_site_fract_y
 _atom_site_fract_z
 _atom_site_occupancy
  Hf  Hf0  1  0.696609  0.303391  0.303391  1
  Hf  Hf1  1  0.303391  0.696609  0.696609  1
  Hf  Hf2  1  0.303391  0.696609  0.303391  1
  Hf  Hf3  1  0.696609  0.303391  0.696609  1
  Hf  Hf4  1  0.303391  0.303391  0.696609  1
  Hf  Hf5  1  0.696609  0.696609  0.303391  1
  Zn  Zn6  1  0.122027  0.122027  0.122027  1
  Zn  Zn7  1  0.877973  0.877973  0.877973  1
  Zn  Zn8  1  0.122027  0.122027  0.633917  1
  Zn  Zn9  1  0.122027  0.633917  0.122027  1
  Zn  Zn10  1  0.877973  0.877973  0.366083  1
  Zn  Zn11  1  0.877973  0.366083  0.877973  1
  Zn  Zn12  1  0.633917  0.122027  0.122027  1
  Zn  Zn13  1  0.366083  0.877973  0.877973  1
  Zn  Zn14  1  0.500000  0.000000  0.000000  1
  Zn  Zn15  1  0.000000  0.500000  0.500000  1
  Zn  Zn16  1  0.000000  0.500000  0.000000  1
  Zn  Zn17  1  0.500000  0.000000  0.500000  1
  Zn  Zn18  1  0.000000  0.000000  0.500000  1
  Zn  Zn19  1  0.500000  0.500000  0.000000  1
  Zn  Zn20  1  0.331512  0.331512  0.331512  1
  Zn  Zn21  1  0.668488  0.668488  0.668488  1
  Zn  Zn22  1  0.331512  0.331512  0.005465  1
  Zn  Zn23  1  0.331512  0.005465  0.331512  1
  Zn  Zn24  1  0.668488  0.668488  0.994535  1
  Zn  Zn25  1  0.668488  0.994535  0.668488  1
  Zn  Zn26  1  0.005465  0.331512  0.331512  1
  Zn  Zn27  1  0.994535  0.668488  0.668488  1
  Zn  Zn28  1  0.000000  0.000000  0.000000  1
  Fe  Fe29  1  0.500000  0.500000  0.500000  1
