# generated using pymatgen
data_Er5CoIrO12
_symmetry_space_group_name_H-M   'P 1'
_cell_length_a   6.76972069
_cell_length_b   6.76972098
_cell_length_c   7.15631930
_cell_angle_alpha   74.53295266
_cell_angle_beta   74.53295076
_cell_angle_gamma   50.81505997
_symmetry_Int_Tables_number   1
_chemical_formula_structural   Er5CoIrO12
_chemical_formula_sum   'Er5 Co1 Ir1 O12'
_cell_volume   242.87937455
_cell_formula_units_Z   1
loop_
 _symmetry_equiv_pos_site_id
 _symmetry_equiv_pos_as_xyz
  1  'x, y, z'
loop_
 _atom_site_type_symbol
 _atom_site_label
 _atom_site_symmetry_multiplicity
 _atom_site_fract_x
 _atom_site_fract_y
 _atom_site_fract_z
 _atom_site_occupancy
  Er  Er0  1  0.288037  0.316244  0.358601  1
  Er  Er1  1  0.683756  0.711963  0.641399  1
  Er  Er2  1  0.306423  0.310920  0.831970  1
  Er  Er3  1  0.689080  0.693577  0.168030  1
  Er  Er4  1  0.000155  0.999845  0.500000  1
  Co  Co5  1  0.254423  0.745577  0.000000  1
  Ir  Ir6  1  0.762313  0.237687  0.000000  1
  O  O7  1  0.901680  0.424853  0.916070  1
  O  O8  1  0.429707  0.902345  0.916953  1
  O  O9  1  0.097655  0.570293  0.083047  1
  O  O10  1  0.575147  0.098320  0.083930  1
  O  O11  1  0.091325  0.600354  0.576497  1
  O  O12  1  0.598511  0.102879  0.570736  1
  O  O13  1  0.897121  0.401489  0.429264  1
  O  O14  1  0.399646  0.908675  0.423503  1
  O  O15  1  0.012808  0.987159  0.821759  1
  O  O16  1  0.012841  0.987192  0.178241  1
  O  O17  1  0.499813  0.500440  0.816666  1
  O  O18  1  0.499560  0.500187  0.183334  1
