# generated using pymatgen
data_Pu3Th4NpN12
_symmetry_space_group_name_H-M   'P 1'
_cell_length_a   5.88564017
_cell_length_b   6.01966290
_cell_length_c   8.50273055
_cell_angle_alpha   89.94008690
_cell_angle_beta   90.11727174
_cell_angle_gamma   89.98426390
_symmetry_Int_Tables_number   1
_chemical_formula_structural   Pu3Th4NpN12
_chemical_formula_sum   'Pu3 Th4 Np1 N12'
_cell_volume   301.24727776
_cell_formula_units_Z   1
loop_
 _symmetry_equiv_pos_site_id
 _symmetry_equiv_pos_as_xyz
  1  'x, y, z'
loop_
 _atom_site_type_symbol
 _atom_site_label
 _atom_site_symmetry_multiplicity
 _atom_site_fract_x
 _atom_site_fract_y
 _atom_site_fract_z
 _atom_site_occupancy
  Pu  Pu0  1  0.000000  0.500000  0.000000  1
  Pu  Pu1  1  0.500000  0.000000  0.500000  1
  Pu  Pu2  1  0.000000  0.500000  0.500000  1
  Th  Th3  1  0.509626  0.549909  0.249868  1
  Th  Th4  1  0.987934  0.051466  0.250424  1
  Th  Th5  1  0.490374  0.450091  0.750132  1
  Th  Th6  1  0.012066  0.948534  0.749576  1
  Np  Np7  1  0.500000  0.000000  0.000000  1
  N  N8  1  0.374932  0.949218  0.245171  1
  N  N9  1  0.120754  0.451212  0.244641  1
  N  N10  1  0.625068  0.050782  0.754829  1
  N  N11  1  0.879246  0.548788  0.755359  1
  N  N12  1  0.787910  0.815937  0.063993  1
  N  N13  1  0.710105  0.313130  0.438934  1
  N  N14  1  0.210327  0.188674  0.562696  1
  N  N15  1  0.303754  0.696770  0.933257  1
  N  N16  1  0.212090  0.184063  0.936007  1
  N  N17  1  0.289895  0.686870  0.561066  1
  N  N18  1  0.789673  0.811326  0.437304  1
  N  N19  1  0.696246  0.303230  0.066743  1
