# generated using pymatgen
data_Nd2ErTm(AsPt)4
_symmetry_space_group_name_H-M   'P 1'
_cell_length_a   4.29451300
_cell_length_b   4.29451208
_cell_length_c   15.83858100
_cell_angle_alpha   90.00000000
_cell_angle_beta   90.00000000
_cell_angle_gamma   120.00001482
_symmetry_Int_Tables_number   1
_chemical_formula_structural   Nd2ErTm(AsPt)4
_chemical_formula_sum   'Nd2 Er1 Tm1 As4 Pt4'
_cell_volume   252.97324223
_cell_formula_units_Z   1
loop_
 _symmetry_equiv_pos_site_id
 _symmetry_equiv_pos_as_xyz
  1  'x, y, z'
loop_
 _atom_site_type_symbol
 _atom_site_label
 _atom_site_symmetry_multiplicity
 _atom_site_fract_x
 _atom_site_fract_y
 _atom_site_fract_z
 _atom_site_occupancy
  Nd  Nd0  1  0.000000  0.000000  0.500052  1
  Nd  Nd1  1  0.000000  0.000000  0.999955  1
  Er  Er2  1  0.000000  0.000000  0.249958  1
  Tm  Tm3  1  0.000000  0.000000  0.750007  1
  As  As4  1  0.333333  0.666667  0.880495  1
  As  As5  1  0.666667  0.333333  0.119256  1
  As  As6  1  0.666667  0.333333  0.380744  1
  As  As7  1  0.333333  0.666667  0.619546  1
  Pt  Pt8  1  0.333333  0.666667  0.356226  1
  Pt  Pt9  1  0.666667  0.333333  0.644182  1
  Pt  Pt10  1  0.666667  0.333333  0.855830  1
  Pt  Pt11  1  0.333333  0.666667  0.143749  1
