# generated using pymatgen
data_Tb4Dy8Tc3Pt
_symmetry_space_group_name_H-M   'P 1'
_cell_length_a   6.31847533
_cell_length_b   7.41233079
_cell_length_c   9.21084600
_cell_angle_alpha   90.00000000
_cell_angle_beta   90.00000000
_cell_angle_gamma   89.97728612
_symmetry_Int_Tables_number   1
_chemical_formula_structural   Tb4Dy8Tc3Pt
_chemical_formula_sum   'Tb4 Dy8 Tc3 Pt1'
_cell_volume   431.38652311
_cell_formula_units_Z   1
loop_
 _symmetry_equiv_pos_site_id
 _symmetry_equiv_pos_as_xyz
  1  'x, y, z'
loop_
 _atom_site_type_symbol
 _atom_site_label
 _atom_site_symmetry_multiplicity
 _atom_site_fract_x
 _atom_site_fract_y
 _atom_site_fract_z
 _atom_site_occupancy
  Tb  Tb0  1  0.871986  0.543393  0.250000  1
  Tb  Tb1  1  0.623751  0.038637  0.250000  1
  Tb  Tb2  1  0.128958  0.455505  0.750000  1
  Tb  Tb3  1  0.370212  0.964703  0.750000  1
  Dy  Dy4  1  0.328924  0.675762  0.067523  1
  Dy  Dy5  1  0.164958  0.177651  0.435497  1
  Dy  Dy6  1  0.668312  0.318790  0.559455  1
  Dy  Dy7  1  0.837005  0.827217  0.939051  1
  Dy  Dy8  1  0.668312  0.318790  0.940545  1
  Dy  Dy9  1  0.837005  0.827217  0.560949  1
  Dy  Dy10  1  0.328924  0.675762  0.432477  1
  Dy  Dy11  1  0.164958  0.177651  0.064503  1
  Tc  Tc12  1  0.039171  0.885655  0.250000  1
  Tc  Tc13  1  0.462761  0.386673  0.250000  1
  Tc  Tc14  1  0.956295  0.113858  0.750000  1
  Pt  Pt15  1  0.548465  0.612736  0.750000  1
