# generated using pymatgen
data_HoEr(Tc2Ge)4
_symmetry_space_group_name_H-M   'P 1'
_cell_length_a   4.20640000
_cell_length_b   7.26003010
_cell_length_c   7.62820691
_cell_angle_alpha   90.05959786
_cell_angle_beta   90.00026986
_cell_angle_gamma   90.00002079
_symmetry_Int_Tables_number   1
_chemical_formula_structural   HoEr(Tc2Ge)4
_chemical_formula_sum   'Ho1 Er1 Tc8 Ge4'
_cell_volume   232.95456205
_cell_formula_units_Z   1
loop_
 _symmetry_equiv_pos_site_id
 _symmetry_equiv_pos_as_xyz
  1  'x, y, z'
loop_
 _atom_site_type_symbol
 _atom_site_label
 _atom_site_symmetry_multiplicity
 _atom_site_fract_x
 _atom_site_fract_y
 _atom_site_fract_z
 _atom_site_occupancy
  Ho  Ho0  1  0.500001  0.000000  0.999995  1
  Er  Er1  1  0.000012  0.499998  0.500015  1
  Tc  Tc2  1  0.000004  0.913157  0.653672  1
  Tc  Tc3  1  0.999997  0.352759  0.105283  1
  Tc  Tc4  1  0.499993  0.586534  0.154040  1
  Tc  Tc5  1  0.999995  0.086837  0.346323  1
  Tc  Tc6  1  0.500000  0.147621  0.605069  1
  Tc  Tc7  1  0.500003  0.413458  0.845954  1
  Tc  Tc8  1  0.999999  0.647235  0.894708  1
  Tc  Tc9  1  0.500002  0.852373  0.394927  1
  Ge  Ge10  1  0.499998  0.715375  0.695357  1
  Ge  Ge11  1  0.499997  0.284669  0.304666  1
  Ge  Ge12  1  0.000002  0.215684  0.804250  1
  Ge  Ge13  1  0.999995  0.784300  0.195737  1
