# generated using pymatgen
data_Th3GaGe2Ir2Rh
_symmetry_space_group_name_H-M   'P 1'
_cell_length_a   7.32722700
_cell_length_b   7.33090321
_cell_length_c   4.02620800
_cell_angle_alpha   90.00000000
_cell_angle_beta   90.00000000
_cell_angle_gamma   119.98341748
_symmetry_Int_Tables_number   1
_chemical_formula_structural   Th3GaGe2Ir2Rh
_chemical_formula_sum   'Th3 Ga1 Ge2 Ir2 Rh1'
_cell_volume   187.32533410
_cell_formula_units_Z   1
loop_
 _symmetry_equiv_pos_site_id
 _symmetry_equiv_pos_as_xyz
  1  'x, y, z'
loop_
 _atom_site_type_symbol
 _atom_site_label
 _atom_site_symmetry_multiplicity
 _atom_site_fract_x
 _atom_site_fract_y
 _atom_site_fract_z
 _atom_site_occupancy
  Th  Th0  1  0.998485  0.412035  0.500000  1
  Th  Th1  1  0.586451  0.587965  0.500000  1
  Th  Th2  1  0.412233  0.000000  0.500000  1
  Ga  Ga3  1  0.754872  0.000000  0.000000  1
  Ge  Ge4  1  0.996585  0.754274  0.000000  1
  Ge  Ge5  1  0.242310  0.245726  0.000000  1
  Ir  Ir6  1  0.334135  0.664631  0.000000  1
  Ir  Ir7  1  0.669505  0.335369  0.000000  1
  Rh  Rh8  1  0.005422  0.000000  0.500000  1
