# generated using pymatgen
data_Dy5YNb2(Co4P3)4
_symmetry_space_group_name_H-M   'P 1'
_cell_length_a   3.70595900
_cell_length_b   10.63038500
_cell_length_c   12.32802100
_cell_angle_alpha   90.00000000
_cell_angle_beta   90.00000000
_cell_angle_gamma   90.00000000
_symmetry_Int_Tables_number   1
_chemical_formula_structural   Dy5YNb2(Co4P3)4
_chemical_formula_sum   'Dy5 Y1 Nb2 Co16 P12'
_cell_volume   485.67189176
_cell_formula_units_Z   1
loop_
 _symmetry_equiv_pos_site_id
 _symmetry_equiv_pos_as_xyz
  1  'x, y, z'
loop_
 _atom_site_type_symbol
 _atom_site_label
 _atom_site_symmetry_multiplicity
 _atom_site_fract_x
 _atom_site_fract_y
 _atom_site_fract_z
 _atom_site_occupancy
  Dy  Dy0  1  0.500000  0.000000  0.473702  1
  Dy  Dy1  1  0.500000  0.820208  0.205227  1
  Dy  Dy2  1  0.500000  0.179792  0.205227  1
  Dy  Dy3  1  0.000000  0.679840  0.794712  1
  Dy  Dy4  1  0.000000  0.320160  0.794712  1
  Y  Y5  1  0.000000  0.500000  0.526248  1
  Nb  Nb6  1  0.500000  0.500000  0.156590  1
  Nb  Nb7  1  0.000000  0.000000  0.843296  1
  Co  Co8  1  0.500000  0.500000  0.702205  1
  Co  Co9  1  0.000000  0.000000  0.298128  1
  Co  Co10  1  0.000000  0.500000  0.985696  1
  Co  Co11  1  0.500000  0.000000  0.014312  1
  Co  Co12  1  0.500000  0.332564  0.991423  1
  Co  Co13  1  0.500000  0.667436  0.991423  1
  Co  Co14  1  0.000000  0.167352  0.008576  1
  Co  Co15  1  0.000000  0.832648  0.008576  1
  Co  Co16  1  0.500000  0.295027  0.432242  1
  Co  Co17  1  0.500000  0.704973  0.432242  1
  Co  Co18  1  0.000000  0.204643  0.567750  1
  Co  Co19  1  0.000000  0.795357  0.567750  1
  Co  Co20  1  0.500000  0.877498  0.704732  1
  Co  Co21  1  0.500000  0.122502  0.704732  1
  Co  Co22  1  0.000000  0.622641  0.295163  1
  Co  Co23  1  0.000000  0.377359  0.295163  1
  P  P24  1  0.500000  0.500000  0.881922  1
  P  P25  1  0.000000  0.000000  0.118185  1
  P  P26  1  0.500000  0.500000  0.355269  1
  P  P27  1  0.000000  0.000000  0.644507  1
  P  P28  1  0.500000  0.310689  0.615603  1
  P  P29  1  0.500000  0.689311  0.615603  1
  P  P30  1  0.000000  0.189081  0.384522  1
  P  P31  1  0.000000  0.810919  0.384522  1
  P  P32  1  0.500000  0.841321  0.893631  1
  P  P33  1  0.500000  0.158679  0.893631  1
  P  P34  1  0.000000  0.658693  0.106389  1
  P  P35  1  0.000000  0.341307  0.106389  1
