# generated using pymatgen
data_Eu2Y(AgSn)3
_symmetry_space_group_name_H-M   'P 1'
_cell_length_a   4.89817200
_cell_length_b   4.89817117
_cell_length_c   11.19689900
_cell_angle_alpha   90.00000000
_cell_angle_beta   90.00000000
_cell_angle_gamma   119.99999212
_symmetry_Int_Tables_number   1
_chemical_formula_structural   Eu2Y(AgSn)3
_chemical_formula_sum   'Eu2 Y1 Ag3 Sn3'
_cell_volume   232.64644245
_cell_formula_units_Z   1
loop_
 _symmetry_equiv_pos_site_id
 _symmetry_equiv_pos_as_xyz
  1  'x, y, z'
loop_
 _atom_site_type_symbol
 _atom_site_label
 _atom_site_symmetry_multiplicity
 _atom_site_fract_x
 _atom_site_fract_y
 _atom_site_fract_z
 _atom_site_occupancy
  Eu  Eu0  1  0.666667  0.333333  0.000984  1
  Eu  Eu1  1  0.666667  0.333333  0.665879  1
  Y  Y2  1  0.666667  0.333333  0.330739  1
  Ag  Ag3  1  0.000000  0.000000  0.820695  1
  Ag  Ag4  1  0.000000  0.000000  0.207631  1
  Ag  Ag5  1  0.333333  0.666667  0.481520  1
  Sn  Sn6  1  0.333333  0.666667  0.850021  1
  Sn  Sn7  1  0.000000  0.000000  0.483996  1
  Sn  Sn8  1  0.333333  0.666667  0.158535  1
