# generated using pymatgen
data_Pr6VCo16TcP12
_symmetry_space_group_name_H-M   'P 1'
_cell_length_a   3.78815100
_cell_length_b   10.71413600
_cell_length_c   12.45990300
_cell_angle_alpha   90.00000000
_cell_angle_beta   90.00000000
_cell_angle_gamma   90.00000000
_symmetry_Int_Tables_number   1
_chemical_formula_structural   Pr6VCo16TcP12
_chemical_formula_sum   'Pr6 V1 Co16 Tc1 P12'
_cell_volume   505.70715502
_cell_formula_units_Z   1
loop_
 _symmetry_equiv_pos_site_id
 _symmetry_equiv_pos_as_xyz
  1  'x, y, z'
loop_
 _atom_site_type_symbol
 _atom_site_label
 _atom_site_symmetry_multiplicity
 _atom_site_fract_x
 _atom_site_fract_y
 _atom_site_fract_z
 _atom_site_occupancy
  Pr  Pr0  1  0.000000  0.500000  0.523925  1
  Pr  Pr1  1  0.500000  0.000000  0.478793  1
  Pr  Pr2  1  0.500000  0.818393  0.204804  1
  Pr  Pr3  1  0.500000  0.181607  0.204804  1
  Pr  Pr4  1  0.000000  0.682095  0.794417  1
  Pr  Pr5  1  0.000000  0.317905  0.794417  1
  V  V6  1  0.000000  0.000000  0.847932  1
  Co  Co7  1  0.500000  0.500000  0.704413  1
  Co  Co8  1  0.000000  0.000000  0.296002  1
  Co  Co9  1  0.000000  0.500000  0.988503  1
  Co  Co10  1  0.500000  0.000000  0.011947  1
  Co  Co11  1  0.500000  0.332239  0.992092  1
  Co  Co12  1  0.500000  0.667761  0.992092  1
  Co  Co13  1  0.000000  0.167612  0.006070  1
  Co  Co14  1  0.000000  0.832388  0.006070  1
  Co  Co15  1  0.500000  0.296785  0.429799  1
  Co  Co16  1  0.500000  0.703215  0.429799  1
  Co  Co17  1  0.000000  0.204383  0.568946  1
  Co  Co18  1  0.000000  0.795617  0.568946  1
  Co  Co19  1  0.500000  0.881142  0.710442  1
  Co  Co20  1  0.500000  0.118858  0.710442  1
  Co  Co21  1  0.000000  0.618131  0.290406  1
  Co  Co22  1  0.000000  0.381869  0.290406  1
  Tc  Tc23  1  0.500000  0.500000  0.154114  1
  P  P24  1  0.500000  0.500000  0.886591  1
  P  P25  1  0.000000  0.000000  0.112681  1
  P  P26  1  0.500000  0.500000  0.342393  1
  P  P27  1  0.000000  0.000000  0.660582  1
  P  P28  1  0.500000  0.305421  0.613726  1
  P  P29  1  0.500000  0.694579  0.613726  1
  P  P30  1  0.000000  0.193605  0.385949  1
  P  P31  1  0.000000  0.806395  0.385949  1
  P  P32  1  0.500000  0.848996  0.895126  1
  P  P33  1  0.500000  0.151004  0.895126  1
  P  P34  1  0.000000  0.652216  0.104285  1
  P  P35  1  0.000000  0.347784  0.104285  1
