# generated using pymatgen
data_Cs3Nd(PSe4)2
_symmetry_space_group_name_H-M   'P 1'
_cell_length_a   10.70713482
_cell_length_b   7.48264500
_cell_length_c   12.94323400
_cell_angle_alpha   90.00000000
_cell_angle_beta   88.47692366
_cell_angle_gamma   90.00000000
_symmetry_Int_Tables_number   1
_chemical_formula_structural   Cs3Nd(PSe4)2
_chemical_formula_sum   'Cs6 Nd2 P4 Se16'
_cell_volume   1036.61562930
_cell_formula_units_Z   2
loop_
 _symmetry_equiv_pos_site_id
 _symmetry_equiv_pos_as_xyz
  1  'x, y, z'
loop_
 _atom_site_type_symbol
 _atom_site_label
 _atom_site_symmetry_multiplicity
 _atom_site_fract_x
 _atom_site_fract_y
 _atom_site_fract_z
 _atom_site_occupancy
  Cs  Cs0  1  0.359908  0.798236  0.101099  1
  Cs  Cs1  1  0.393740  0.308240  0.350031  1
  Cs  Cs2  1  0.829842  0.311668  0.412155  1
  Cs  Cs3  1  0.170158  0.811668  0.587846  1
  Cs  Cs4  1  0.606260  0.808240  0.649969  1
  Cs  Cs5  1  0.640093  0.298236  0.898901  1
  Nd  Nd6  1  0.889216  0.787101  0.145738  1
  Nd  Nd7  1  0.110784  0.287101  0.854262  1
  P  P8  1  0.083286  0.329315  0.148075  1
  P  P9  1  0.637956  0.808710  0.305377  1
  P  P10  1  0.362044  0.308709  0.694623  1
  P  P11  1  0.916714  0.829315  0.851925  1
  Se  Se12  1  0.935701  0.405224  0.036142  1
  Se  Se13  1  0.258236  0.299740  0.052529  1
  Se  Se14  1  0.663083  0.041098  0.198736  1
  Se  Se15  1  0.658978  0.562753  0.206658  1
  Se  Se16  1  0.050248  0.083666  0.243255  1
  Se  Se17  1  0.090035  0.564592  0.254528  1
  Se  Se18  1  0.457042  0.812348  0.389883  1
  Se  Se19  1  0.810125  0.809590  0.398960  1
  Se  Se20  1  0.189876  0.309589  0.601040  1
  Se  Se21  1  0.542957  0.312347  0.610117  1
  Se  Se22  1  0.909965  0.064591  0.745472  1
  Se  Se23  1  0.949752  0.583666  0.756745  1
  Se  Se24  1  0.341022  0.062754  0.793342  1
  Se  Se25  1  0.336917  0.541096  0.801264  1
  Se  Se26  1  0.741763  0.799741  0.947471  1
  Se  Se27  1  0.064299  0.905224  0.963857  1
