# generated using pymatgen
data_Sr3Th(PPd3)8
_symmetry_space_group_name_H-M   'P 1'
_cell_length_a   8.56942422
_cell_length_b   8.56942422
_cell_length_c   8.56942422
_cell_angle_alpha   89.69582981
_cell_angle_beta   90.30417019
_cell_angle_gamma   90.30417019
_symmetry_Int_Tables_number   1
_chemical_formula_structural   Sr3Th(PPd3)8
_chemical_formula_sum   'Sr3 Th1 P8 Pd24'
_cell_volume   629.26942759
_cell_formula_units_Z   1
loop_
 _symmetry_equiv_pos_site_id
 _symmetry_equiv_pos_as_xyz
  1  'x, y, z'
loop_
 _atom_site_type_symbol
 _atom_site_label
 _atom_site_symmetry_multiplicity
 _atom_site_fract_x
 _atom_site_fract_y
 _atom_site_fract_z
 _atom_site_occupancy
  Sr  Sr0  1  0.500000  0.000000  0.500000  1
  Sr  Sr1  1  0.000000  0.500000  0.500000  1
  Sr  Sr2  1  0.000000  0.000000  0.000000  1
  Th  Th3  1  0.500000  0.500000  0.000000  1
  P  P4  1  0.809402  0.305172  0.190839  1
  P  P5  1  0.191811  0.808189  0.308189  1
  P  P6  1  0.694828  0.690839  0.690598  1
  P  P7  1  0.309161  0.190598  0.805172  1
  P  P8  1  0.190598  0.694828  0.809161  1
  P  P9  1  0.808189  0.191811  0.691811  1
  P  P10  1  0.305172  0.309161  0.309402  1
  P  P11  1  0.690839  0.809402  0.194828  1
  Pd  Pd12  1  0.420337  0.843115  0.158911  1
  Pd  Pd13  1  0.578600  0.352975  0.329357  1
  Pd  Pd14  1  0.078922  0.152602  0.662469  1
  Pd  Pd15  1  0.921820  0.652065  0.838096  1
  Pd  Pd16  1  0.170643  0.421400  0.852975  1
  Pd  Pd17  1  0.341089  0.579663  0.343115  1
  Pd  Pd18  1  0.661904  0.078180  0.152065  1
  Pd  Pd19  1  0.837531  0.921078  0.652602  1
  Pd  Pd20  1  0.847398  0.162469  0.421078  1
  Pd  Pd21  1  0.347935  0.338096  0.578180  1
  Pd  Pd22  1  0.156885  0.658911  0.079663  1
  Pd  Pd23  1  0.647025  0.829357  0.921400  1
  Pd  Pd24  1  0.579663  0.156885  0.841089  1
  Pd  Pd25  1  0.421400  0.647025  0.670643  1
  Pd  Pd26  1  0.921078  0.847398  0.337531  1
  Pd  Pd27  1  0.078180  0.347935  0.161904  1
  Pd  Pd28  1  0.829357  0.578600  0.147025  1
  Pd  Pd29  1  0.658911  0.420337  0.656885  1
  Pd  Pd30  1  0.338096  0.921820  0.847935  1
  Pd  Pd31  1  0.162469  0.078922  0.347398  1
  Pd  Pd32  1  0.152602  0.837531  0.578922  1
  Pd  Pd33  1  0.652065  0.661904  0.421820  1
  Pd  Pd34  1  0.843115  0.341089  0.920337  1
  Pd  Pd35  1  0.352975  0.170643  0.078600  1
