# generated using pymatgen
data_Li8Np7ScN16
_symmetry_space_group_name_H-M   'P 1'
_cell_length_a   21.55083506
_cell_length_b   4.33377323
_cell_length_c   4.31836025
_cell_angle_alpha   89.98580381
_cell_angle_beta   90.01847774
_cell_angle_gamma   89.98268612
_symmetry_Int_Tables_number   1
_chemical_formula_structural   Li8Np7ScN16
_chemical_formula_sum   'Li8 Np7 Sc1 N16'
_cell_volume   403.31938787
_cell_formula_units_Z   1
loop_
 _symmetry_equiv_pos_site_id
 _symmetry_equiv_pos_as_xyz
  1  'x, y, z'
loop_
 _atom_site_type_symbol
 _atom_site_label
 _atom_site_symmetry_multiplicity
 _atom_site_fract_x
 _atom_site_fract_y
 _atom_site_fract_z
 _atom_site_occupancy
  Li  Li0  1  0.184587  0.999937  0.748125  1
  Li  Li1  1  0.812320  0.000402  0.250520  1
  Li  Li2  1  0.312422  0.999511  0.249208  1
  Li  Li3  1  0.696673  0.000313  0.751190  1
  Li  Li4  1  0.044352  0.500061  0.749945  1
  Li  Li5  1  0.928485  0.500611  0.250084  1
  Li  Li6  1  0.440341  0.498799  0.250327  1
  Li  Li7  1  0.581059  0.500390  0.750561  1
  Np  Np8  1  0.440989  0.999873  0.750947  1
  Np  Np9  1  0.568993  0.000841  0.250840  1
  Np  Np10  1  0.056090  0.000295  0.250434  1
  Np  Np11  1  0.929059  0.000593  0.750095  1
  Np  Np12  1  0.312575  0.500066  0.749667  1
  Np  Np13  1  0.695708  0.500334  0.251095  1
  Np  Np14  1  0.183936  0.500573  0.249278  1
  Sc  Sc15  1  0.812488  0.500667  0.750981  1
  N  N16  1  0.333109  0.998532  0.748399  1
  N  N17  1  0.674563  0.000321  0.251074  1
  N  N18  1  0.162232  0.999269  0.248420  1
  N  N19  1  0.834830  0.000625  0.750989  1
  N  N20  1  0.419144  0.498371  0.749913  1
  N  N21  1  0.591679  0.499992  0.250547  1
  N  N22  1  0.075006  0.499802  0.249923  1
  N  N23  1  0.919243  0.500522  0.750020  1
  N  N24  1  0.033475  0.999967  0.749569  1
  N  N25  1  0.950540  0.000558  0.250052  1
  N  N26  1  0.462729  0.999133  0.249701  1
  N  N27  1  0.550104  0.000432  0.750343  1
  N  N28  1  0.205745  0.499529  0.747703  1
  N  N29  1  0.790054  0.500751  0.250961  1
  N  N30  1  0.291870  0.498719  0.248077  1
  N  N31  1  0.705598  0.500209  0.751007  1
