# generated using pymatgen
data_Dy2SiPd14
_symmetry_space_group_name_H-M   'P 1'
_cell_length_a   8.91443300
_cell_length_b   8.91443300
_cell_length_c   7.10102000
_cell_angle_alpha   90.00000000
_cell_angle_beta   90.00000000
_cell_angle_gamma   90.00000000
_symmetry_Int_Tables_number   1
_chemical_formula_structural   Dy2SiPd14
_chemical_formula_sum   'Dy4 Si2 Pd28'
_cell_volume   564.29757801
_cell_formula_units_Z   2
loop_
 _symmetry_equiv_pos_site_id
 _symmetry_equiv_pos_as_xyz
  1  'x, y, z'
loop_
 _atom_site_type_symbol
 _atom_site_label
 _atom_site_symmetry_multiplicity
 _atom_site_fract_x
 _atom_site_fract_y
 _atom_site_fract_z
 _atom_site_occupancy
  Dy  Dy0  1  0.500000  0.000000  0.935945  1
  Dy  Dy1  1  0.000000  0.500000  0.064055  1
  Dy  Dy2  1  0.000000  0.000000  0.500000  1
  Dy  Dy3  1  0.500000  0.500000  0.500000  1
  Si  Si4  1  0.500000  0.000000  0.448670  1
  Si  Si5  1  0.000000  0.500000  0.551330  1
  Pd  Pd6  1  0.334535  0.834535  0.616455  1
  Pd  Pd7  1  0.334535  0.165465  0.616455  1
  Pd  Pd8  1  0.665465  0.834535  0.616455  1
  Pd  Pd9  1  0.665465  0.165465  0.616455  1
  Pd  Pd10  1  0.165465  0.665465  0.383545  1
  Pd  Pd11  1  0.165465  0.334535  0.383545  1
  Pd  Pd12  1  0.834535  0.665465  0.383545  1
  Pd  Pd13  1  0.834535  0.334535  0.383545  1
  Pd  Pd14  1  0.500000  0.770109  0.256544  1
  Pd  Pd15  1  0.500000  0.229891  0.256544  1
  Pd  Pd16  1  0.270109  0.000000  0.256544  1
  Pd  Pd17  1  0.729891  0.000000  0.256544  1
  Pd  Pd18  1  0.000000  0.729891  0.743456  1
  Pd  Pd19  1  0.000000  0.270109  0.743456  1
  Pd  Pd20  1  0.229891  0.500000  0.743456  1
  Pd  Pd21  1  0.770109  0.500000  0.743456  1
  Pd  Pd22  1  0.500000  0.348858  0.853439  1
  Pd  Pd23  1  0.500000  0.651142  0.853439  1
  Pd  Pd24  1  0.848858  0.000000  0.853439  1
  Pd  Pd25  1  0.151142  0.000000  0.853439  1
  Pd  Pd26  1  0.000000  0.151142  0.146561  1
  Pd  Pd27  1  0.000000  0.848858  0.146561  1
  Pd  Pd28  1  0.651142  0.500000  0.146561  1
  Pd  Pd29  1  0.348858  0.500000  0.146561  1
  Pd  Pd30  1  0.250000  0.750000  0.000000  1
  Pd  Pd31  1  0.250000  0.250000  0.000000  1
  Pd  Pd32  1  0.750000  0.750000  0.000000  1
  Pd  Pd33  1  0.750000  0.250000  0.000000  1
