# generated using pymatgen
data_TbSm3Dy2NiBr10
_symmetry_space_group_name_H-M   'P 1'
_cell_length_a   7.38950993
_cell_length_b   9.28109023
_cell_length_c   9.35148364
_cell_angle_alpha   107.95009154
_cell_angle_beta   96.66341042
_cell_angle_gamma   105.34186852
_symmetry_Int_Tables_number   1
_chemical_formula_structural   TbSm3Dy2NiBr10
_chemical_formula_sum   'Tb1 Sm3 Dy2 Ni1 Br10'
_cell_volume   574.58338542
_cell_formula_units_Z   1
loop_
 _symmetry_equiv_pos_site_id
 _symmetry_equiv_pos_as_xyz
  1  'x, y, z'
loop_
 _atom_site_type_symbol
 _atom_site_label
 _atom_site_symmetry_multiplicity
 _atom_site_fract_x
 _atom_site_fract_y
 _atom_site_fract_z
 _atom_site_occupancy
  Tb  Tb0  1  0.646609  0.868307  0.825822  1
  Sm  Sm1  1  0.125710  0.047019  0.755831  1
  Sm  Sm2  1  0.874049  0.953234  0.244010  1
  Sm  Sm3  1  0.969047  0.295801  0.092932  1
  Dy  Dy4  1  0.031640  0.709007  0.908685  1
  Dy  Dy5  1  0.351840  0.128861  0.172922  1
  Ni  Ni6  1  0.999359  0.000385  0.999532  1
  Br  Br7  1  0.546548  0.176313  0.916828  1
  Br  Br8  1  0.449052  0.821630  0.081902  1
  Br  Br9  1  0.356533  0.448020  0.271840  1
  Br  Br10  1  0.653852  0.550245  0.731047  1
  Br  Br11  1  0.256287  0.084697  0.453377  1
  Br  Br12  1  0.744488  0.915294  0.546127  1
  Br  Br13  1  0.773192  0.252954  0.344325  1
  Br  Br14  1  0.219512  0.742162  0.658442  1
  Br  Br15  1  0.085486  0.374704  0.826377  1
  Br  Br16  1  0.916801  0.631364  0.170001  1
