# generated using pymatgen
data_Sm8Mo(Pd5Pt7)2
_symmetry_space_group_name_H-M   'P 1'
_cell_length_a   8.47788500
_cell_length_b   8.43959100
_cell_length_c   8.47903200
_cell_angle_alpha   90.00000000
_cell_angle_beta   90.00000000
_cell_angle_gamma   90.00000000
_symmetry_Int_Tables_number   1
_chemical_formula_structural   Sm8Mo(Pd5Pt7)2
_chemical_formula_sum   'Sm8 Mo1 Pd10 Pt14'
_cell_volume   606.67373861
_cell_formula_units_Z   1
loop_
 _symmetry_equiv_pos_site_id
 _symmetry_equiv_pos_as_xyz
  1  'x, y, z'
loop_
 _atom_site_type_symbol
 _atom_site_label
 _atom_site_symmetry_multiplicity
 _atom_site_fract_x
 _atom_site_fract_y
 _atom_site_fract_z
 _atom_site_occupancy
  Sm  Sm0  1  0.250451  0.250446  0.250900  1
  Sm  Sm1  1  0.749549  0.749554  0.749100  1
  Sm  Sm2  1  0.749549  0.749554  0.250900  1
  Sm  Sm3  1  0.749549  0.250446  0.749100  1
  Sm  Sm4  1  0.250451  0.250446  0.749100  1
  Sm  Sm5  1  0.250451  0.749554  0.250900  1
  Sm  Sm6  1  0.250451  0.749554  0.749100  1
  Sm  Sm7  1  0.749549  0.250446  0.250900  1
  Mo  Mo8  1  0.000000  0.000000  0.000000  1
  Pd  Pd9  1  0.500000  0.000000  0.264429  1
  Pd  Pd10  1  0.264412  0.000000  0.500000  1
  Pd  Pd11  1  0.500000  0.000000  0.735571  1
  Pd  Pd12  1  0.735588  0.000000  0.500000  1
  Pd  Pd13  1  0.000000  0.500000  0.264656  1
  Pd  Pd14  1  0.000000  0.500000  0.735344  1
  Pd  Pd15  1  0.500000  0.254813  0.500000  1
  Pd  Pd16  1  0.500000  0.745187  0.500000  1
  Pd  Pd17  1  0.500000  0.500000  0.255863  1
  Pd  Pd18  1  0.500000  0.500000  0.744137  1
  Pt  Pt19  1  0.264391  0.500000  0.000000  1
  Pt  Pt20  1  0.735609  0.500000  0.000000  1
  Pt  Pt21  1  0.000000  0.262969  0.500000  1
  Pt  Pt22  1  0.500000  0.263661  0.000000  1
  Pt  Pt23  1  0.000000  0.737031  0.500000  1
  Pt  Pt24  1  0.500000  0.736339  0.000000  1
  Pt  Pt25  1  0.253772  0.500000  0.500000  1
  Pt  Pt26  1  0.746228  0.500000  0.500000  1
  Pt  Pt27  1  0.302482  0.000000  0.000000  1
  Pt  Pt28  1  0.697518  0.000000  0.000000  1
  Pt  Pt29  1  0.000000  0.303092  0.000000  1
  Pt  Pt30  1  0.000000  0.696908  0.000000  1
  Pt  Pt31  1  0.000000  0.000000  0.301617  1
  Pt  Pt32  1  0.000000  0.000000  0.698383  1
