# generated using pymatgen
data_Li3DyCo16(ReP3)4
_symmetry_space_group_name_H-M   'P 1'
_cell_length_a   3.61828300
_cell_length_b   10.18449966
_cell_length_c   11.70204093
_cell_angle_alpha   89.91809488
_cell_angle_beta   90.00000000
_cell_angle_gamma   90.00000000
_symmetry_Int_Tables_number   1
_chemical_formula_structural   Li3DyCo16(ReP3)4
_chemical_formula_sum   'Li3 Dy1 Co16 Re4 P12'
_cell_volume   431.22447142
_cell_formula_units_Z   1
loop_
 _symmetry_equiv_pos_site_id
 _symmetry_equiv_pos_as_xyz
  1  'x, y, z'
loop_
 _atom_site_type_symbol
 _atom_site_label
 _atom_site_symmetry_multiplicity
 _atom_site_fract_x
 _atom_site_fract_y
 _atom_site_fract_z
 _atom_site_occupancy
  Li  Li0  1  0.250000  0.577747  0.701585  1
  Li  Li1  1  0.250000  0.920787  0.200517  1
  Li  Li2  1  0.750000  0.421570  0.299320  1
  Dy  Dy3  1  0.750000  0.084222  0.794015  1
  Co  Co4  1  0.250000  0.405367  0.488190  1
  Co  Co5  1  0.250000  0.094048  0.988863  1
  Co  Co6  1  0.750000  0.591110  0.512955  1
  Co  Co7  1  0.750000  0.907246  0.013871  1
  Co  Co8  1  0.250000  0.219536  0.177358  1
  Co  Co9  1  0.250000  0.279711  0.677940  1
  Co  Co10  1  0.750000  0.781145  0.822162  1
  Co  Co11  1  0.750000  0.717797  0.323432  1
  Co  Co12  1  0.250000  0.883822  0.697086  1
  Co  Co13  1  0.250000  0.615404  0.201501  1
  Co  Co14  1  0.750000  0.115731  0.299360  1
  Co  Co15  1  0.750000  0.387845  0.800511  1
  Co  Co16  1  0.250000  0.467468  0.936746  1
  Co  Co17  1  0.250000  0.033665  0.430750  1
  Co  Co18  1  0.750000  0.536790  0.066842  1
  Co  Co19  1  0.750000  0.960644  0.562049  1
  Re  Re20  1  0.250000  0.709476  0.990163  1
  Re  Re21  1  0.250000  0.787511  0.486883  1
  Re  Re22  1  0.750000  0.291215  0.015471  1
  Re  Re23  1  0.750000  0.209617  0.513005  1
  P  P24  1  0.250000  0.420273  0.123890  1
  P  P25  1  0.250000  0.080048  0.612285  1
  P  P26  1  0.750000  0.582571  0.879350  1
  P  P27  1  0.750000  0.917991  0.374981  1
  P  P28  1  0.250000  0.270507  0.867542  1
  P  P29  1  0.250000  0.239714  0.363113  1
  P  P30  1  0.750000  0.739925  0.138009  1
  P  P31  1  0.750000  0.757312  0.635230  1
  P  P32  1  0.250000  0.588800  0.387995  1
  P  P33  1  0.250000  0.903932  0.890261  1
  P  P34  1  0.750000  0.408842  0.613046  1
  P  P35  1  0.750000  0.090610  0.113726  1
