# generated using pymatgen
data_Ho6NiI10
_symmetry_space_group_name_H-M   'P 1'
_cell_length_a   7.65319580
_cell_length_b   9.60045791
_cell_length_c   9.61684205
_cell_angle_alpha   107.32155962
_cell_angle_beta   97.01631295
_cell_angle_gamma   104.86215591
_symmetry_Int_Tables_number   1
_chemical_formula_structural   Ho6NiI10
_chemical_formula_sum   'Ho6 Ni1 I10'
_cell_volume   636.71022431
_cell_formula_units_Z   1
loop_
 _symmetry_equiv_pos_site_id
 _symmetry_equiv_pos_as_xyz
  1  'x, y, z'
loop_
 _atom_site_type_symbol
 _atom_site_label
 _atom_site_symmetry_multiplicity
 _atom_site_fract_x
 _atom_site_fract_y
 _atom_site_fract_z
 _atom_site_occupancy
  Ho  Ho0  1  0.340671  0.121998  0.161650  1
  Ho  Ho1  1  0.659329  0.878002  0.838350  1
  Ho  Ho2  1  0.971519  0.280209  0.084226  1
  Ho  Ho3  1  0.028481  0.719791  0.915774  1
  Ho  Ho4  1  0.889321  0.961400  0.236502  1
  Ho  Ho5  1  0.110679  0.038600  0.763498  1
  Ni  Ni6  1  0.000000  0.000000  0.000000  1
  I  I7  1  0.356063  0.454540  0.274273  1
  I  I8  1  0.643937  0.545460  0.725727  1
  I  I9  1  0.778679  0.259857  0.348232  1
  I  I10  1  0.221321  0.740143  0.651768  1
  I  I11  1  0.546745  0.185500  0.906445  1
  I  I12  1  0.453255  0.814500  0.093555  1
  I  I13  1  0.738231  0.910937  0.534834  1
  I  I14  1  0.261769  0.089063  0.465166  1
  I  I15  1  0.914037  0.626869  0.181577  1
  I  I16  1  0.085963  0.373131  0.818423  1
