# generated using pymatgen
data_Ce3Dy13(CdOs)4
_symmetry_space_group_name_H-M   'P 1'
_cell_length_a   9.70313753
_cell_length_b   9.70313786
_cell_length_c   9.59563127
_cell_angle_alpha   59.62868916
_cell_angle_beta   59.62868505
_cell_angle_gamma   59.99999639
_symmetry_Int_Tables_number   1
_chemical_formula_structural   Ce3Dy13(CdOs)4
_chemical_formula_sum   'Ce3 Dy13 Cd4 Os4'
_cell_volume   635.21765712
_cell_formula_units_Z   1
loop_
 _symmetry_equiv_pos_site_id
 _symmetry_equiv_pos_as_xyz
  1  'x, y, z'
loop_
 _atom_site_type_symbol
 _atom_site_label
 _atom_site_symmetry_multiplicity
 _atom_site_fract_x
 _atom_site_fract_y
 _atom_site_fract_z
 _atom_site_occupancy
  Ce  Ce0  1  0.345716  0.965506  0.343063  1
  Ce  Ce1  1  0.965506  0.345716  0.343063  1
  Ce  Ce2  1  0.345716  0.345716  0.343063  1
  Dy  Dy3  1  0.561395  0.561395  0.938431  1
  Dy  Dy4  1  0.938778  0.561395  0.938431  1
  Dy  Dy5  1  0.561395  0.938778  0.938431  1
  Dy  Dy6  1  0.940424  0.940424  0.559739  1
  Dy  Dy7  1  0.559413  0.940424  0.559739  1
  Dy  Dy8  1  0.940424  0.559413  0.559739  1
  Dy  Dy9  1  0.189153  0.189153  0.812515  1
  Dy  Dy10  1  0.809179  0.189153  0.812515  1
  Dy  Dy11  1  0.189152  0.809180  0.812515  1
  Dy  Dy12  1  0.810207  0.810208  0.188390  1
  Dy  Dy13  1  0.191196  0.810207  0.188389  1
  Dy  Dy14  1  0.810207  0.191197  0.188390  1
  Dy  Dy15  1  0.349806  0.349806  0.950581  1
  Cd  Cd16  1  0.580400  0.580400  0.258798  1
  Cd  Cd17  1  0.580741  0.258813  0.579703  1
  Cd  Cd18  1  0.258813  0.580741  0.579703  1
  Cd  Cd19  1  0.580741  0.580741  0.579703  1
  Os  Os20  1  0.142513  0.142513  0.572460  1
  Os  Os21  1  0.137868  0.573386  0.150878  1
  Os  Os22  1  0.573386  0.137868  0.150878  1
  Os  Os23  1  0.137868  0.137868  0.150878  1
