# generated using pymatgen
data_Eu2ZnCuAs2P
_symmetry_space_group_name_H-M   'P 1'
_cell_length_a   8.07036687
_cell_length_b   8.07036495
_cell_length_c   11.65723758
_cell_angle_alpha   54.77476441
_cell_angle_beta   54.77477520
_cell_angle_gamma   29.64342087
_symmetry_Int_Tables_number   1
_chemical_formula_structural   Eu2ZnCuAs2P
_chemical_formula_sum   'Eu4 Zn2 Cu2 As4 P2'
_cell_volume   301.35950032
_cell_formula_units_Z   2
loop_
 _symmetry_equiv_pos_site_id
 _symmetry_equiv_pos_as_xyz
  1  'x, y, z'
loop_
 _atom_site_type_symbol
 _atom_site_label
 _atom_site_symmetry_multiplicity
 _atom_site_fract_x
 _atom_site_fract_y
 _atom_site_fract_z
 _atom_site_occupancy
  Eu  Eu0  1  0.263080  0.263080  0.345834  1
  Eu  Eu1  1  0.736920  0.736920  0.654166  1
  Eu  Eu2  1  0.398493  0.398493  0.940054  1
  Eu  Eu3  1  0.601507  0.601507  0.059946  1
  Zn  Zn4  1  0.415239  0.415239  0.644604  1
  Zn  Zn5  1  0.584761  0.584761  0.355396  1
  Cu  Cu6  1  0.046791  0.046791  0.673522  1
  Cu  Cu7  1  0.953209  0.953209  0.326478  1
  As  As8  1  0.077281  0.077281  0.869354  1
  As  As9  1  0.922719  0.922719  0.130646  1
  As  As10  1  0.158660  0.158660  0.196179  1
  As  As11  1  0.841340  0.841340  0.803821  1
  P  P12  1  0.389852  0.389852  0.456084  1
  P  P13  1  0.610148  0.610148  0.543916  1
