# generated using pymatgen
data_Ti10BSb6H
_symmetry_space_group_name_H-M   'P 1'
_cell_length_a   8.01514200
_cell_length_b   8.01514322
_cell_length_c   5.43479700
_cell_angle_alpha   90.00000000
_cell_angle_beta   90.00000000
_cell_angle_gamma   119.99999495
_symmetry_Int_Tables_number   1
_chemical_formula_structural   Ti10BSb6H
_chemical_formula_sum   'Ti10 B1 Sb6 H1'
_cell_volume   302.36846065
_cell_formula_units_Z   1
loop_
 _symmetry_equiv_pos_site_id
 _symmetry_equiv_pos_as_xyz
  1  'x, y, z'
loop_
 _atom_site_type_symbol
 _atom_site_label
 _atom_site_symmetry_multiplicity
 _atom_site_fract_x
 _atom_site_fract_y
 _atom_site_fract_z
 _atom_site_occupancy
  Ti  Ti0  1  0.228142  0.000000  0.751607  1
  Ti  Ti1  1  0.771858  0.000000  0.248393  1
  Ti  Ti2  1  0.000000  0.228142  0.751607  1
  Ti  Ti3  1  0.000000  0.771858  0.248393  1
  Ti  Ti4  1  0.771858  0.771858  0.751607  1
  Ti  Ti5  1  0.228142  0.228142  0.248393  1
  Ti  Ti6  1  0.333333  0.666667  0.500000  1
  Ti  Ti7  1  0.666667  0.333333  0.500000  1
  Ti  Ti8  1  0.666667  0.333333  0.000000  1
  Ti  Ti9  1  0.333333  0.666667  0.000000  1
  B  B10  1  0.000000  0.000000  0.000000  1
  Sb  Sb11  1  0.604585  0.000000  0.748424  1
  Sb  Sb12  1  0.395415  0.000000  0.251576  1
  Sb  Sb13  1  0.000000  0.604585  0.748424  1
  Sb  Sb14  1  0.000000  0.395415  0.251576  1
  Sb  Sb15  1  0.395415  0.395415  0.748424  1
  Sb  Sb16  1  0.604585  0.604585  0.251576  1
  H  H17  1  0.000000  0.000000  0.500000  1
