# generated using pymatgen
data_CaNpB6Os
_symmetry_space_group_name_H-M   'P 1'
_cell_length_a   3.59700700
_cell_length_b   9.26560600
_cell_length_c   11.37759700
_cell_angle_alpha   90.00000000
_cell_angle_beta   90.00000000
_cell_angle_gamma   90.00000000
_symmetry_Int_Tables_number   1
_chemical_formula_structural   CaNpB6Os
_chemical_formula_sum   'Ca4 Np4 B24 Os4'
_cell_volume   379.19766865
_cell_formula_units_Z   4
loop_
 _symmetry_equiv_pos_site_id
 _symmetry_equiv_pos_as_xyz
  1  'x, y, z'
loop_
 _atom_site_type_symbol
 _atom_site_label
 _atom_site_symmetry_multiplicity
 _atom_site_fract_x
 _atom_site_fract_y
 _atom_site_fract_z
 _atom_site_occupancy
  Ca  Ca0  1  0.000000  0.338574  0.407715  1
  Ca  Ca1  1  0.000000  0.661426  0.592285  1
  Ca  Ca2  1  0.000000  0.838574  0.092285  1
  Ca  Ca3  1  0.000000  0.161426  0.907715  1
  Np  Np4  1  0.000000  0.959691  0.402045  1
  Np  Np5  1  0.000000  0.040309  0.597955  1
  Np  Np6  1  0.000000  0.459691  0.097955  1
  Np  Np7  1  0.000000  0.540309  0.902045  1
  B  B8  1  0.500000  0.553144  0.430563  1
  B  B9  1  0.500000  0.446856  0.569437  1
  B  B10  1  0.500000  0.053144  0.069437  1
  B  B11  1  0.500000  0.946856  0.930563  1
  B  B12  1  0.500000  0.744011  0.421902  1
  B  B13  1  0.500000  0.255989  0.578098  1
  B  B14  1  0.500000  0.244011  0.078098  1
  B  B15  1  0.500000  0.755989  0.921902  1
  B  B16  1  0.500000  0.803836  0.274587  1
  B  B17  1  0.500000  0.196164  0.725412  1
  B  B18  1  0.500000  0.303836  0.225413  1
  B  B19  1  0.500000  0.696164  0.774588  1
  B  B20  1  0.500000  0.644289  0.188536  1
  B  B21  1  0.500000  0.355711  0.811464  1
  B  B22  1  0.500000  0.144289  0.311464  1
  B  B23  1  0.500000  0.855711  0.688536  1
  B  B24  1  0.500000  0.990283  0.219866  1
  B  B25  1  0.500000  0.009717  0.780134  1
  B  B26  1  0.500000  0.490283  0.280134  1
  B  B27  1  0.500000  0.509717  0.719866  1
  B  B28  1  0.500000  0.639345  0.038461  1
  B  B29  1  0.500000  0.360655  0.961539  1
  B  B30  1  0.500000  0.139345  0.461539  1
  B  B31  1  0.500000  0.860655  0.538461  1
  Os  Os32  1  0.000000  0.646901  0.318064  1
  Os  Os33  1  0.000000  0.353099  0.681936  1
  Os  Os34  1  0.000000  0.146901  0.181936  1
  Os  Os35  1  0.000000  0.853099  0.818064  1
