# generated using pymatgen
data_Er4Si4IrRuRh2
_symmetry_space_group_name_H-M   'P 1'
_cell_length_a   4.26061300
_cell_length_b   6.86866709
_cell_length_c   7.27242226
_cell_angle_alpha   89.87311850
_cell_angle_beta   90.00000000
_cell_angle_gamma   90.00000000
_symmetry_Int_Tables_number   1
_chemical_formula_structural   Er4Si4IrRuRh2
_chemical_formula_sum   'Er4 Si4 Ir1 Ru1 Rh2'
_cell_volume   212.82496855
_cell_formula_units_Z   1
loop_
 _symmetry_equiv_pos_site_id
 _symmetry_equiv_pos_as_xyz
  1  'x, y, z'
loop_
 _atom_site_type_symbol
 _atom_site_label
 _atom_site_symmetry_multiplicity
 _atom_site_fract_x
 _atom_site_fract_y
 _atom_site_fract_z
 _atom_site_occupancy
  Er  Er0  1  0.250000  0.494779  0.690119  1
  Er  Er1  1  0.750000  0.506305  0.311357  1
  Er  Er2  1  0.250000  0.996321  0.812702  1
  Er  Er3  1  0.750000  0.002355  0.186772  1
  Si  Si4  1  0.250000  0.296563  0.108996  1
  Si  Si5  1  0.750000  0.703771  0.887670  1
  Si  Si6  1  0.250000  0.797986  0.400009  1
  Si  Si7  1  0.750000  0.200875  0.603673  1
  Ir  Ir8  1  0.250000  0.157268  0.431429  1
  Ru  Ru9  1  0.750000  0.845812  0.566820  1
  Rh  Rh10  1  0.750000  0.342562  0.931261  1
  Rh  Rh11  1  0.250000  0.655404  0.069192  1
