# generated using pymatgen
data_Dy3Cd3Hg2Au
_symmetry_space_group_name_H-M   'P 1'
_cell_length_a   8.08381800
_cell_length_b   8.08381785
_cell_length_c   3.82430000
_cell_angle_alpha   90.00000000
_cell_angle_beta   90.00000000
_cell_angle_gamma   120.00000879
_symmetry_Int_Tables_number   1
_chemical_formula_structural   Dy3Cd3Hg2Au
_chemical_formula_sum   'Dy3 Cd3 Hg2 Au1'
_cell_volume   216.42906996
_cell_formula_units_Z   1
loop_
 _symmetry_equiv_pos_site_id
 _symmetry_equiv_pos_as_xyz
  1  'x, y, z'
loop_
 _atom_site_type_symbol
 _atom_site_label
 _atom_site_symmetry_multiplicity
 _atom_site_fract_x
 _atom_site_fract_y
 _atom_site_fract_z
 _atom_site_occupancy
  Dy  Dy0  1  0.602114  0.013883  0.000000  1
  Dy  Dy1  1  0.986117  0.588231  0.000000  1
  Dy  Dy2  1  0.411769  0.397886  0.000000  1
  Cd  Cd3  1  0.273209  0.001099  0.500000  1
  Cd  Cd4  1  0.998901  0.272110  0.500000  1
  Cd  Cd5  1  0.727890  0.726791  0.500000  1
  Hg  Hg6  1  0.333333  0.666667  0.500000  1
  Hg  Hg7  1  0.000000  0.000000  0.000000  1
  Au  Au8  1  0.666667  0.333333  0.500000  1
