# generated using pymatgen
data_Th8Sc12Si15Bi
_symmetry_space_group_name_H-M   'P 1'
_cell_length_a   7.33558984
_cell_length_b   7.52010099
_cell_length_c   14.25108138
_cell_angle_alpha   89.91196268
_cell_angle_beta   89.04183859
_cell_angle_gamma   90.06927743
_symmetry_Int_Tables_number   1
_chemical_formula_structural   Th8Sc12Si15Bi
_chemical_formula_sum   'Th8 Sc12 Si15 Bi1'
_cell_volume   786.04056416
_cell_formula_units_Z   1
loop_
 _symmetry_equiv_pos_site_id
 _symmetry_equiv_pos_as_xyz
  1  'x, y, z'
loop_
 _atom_site_type_symbol
 _atom_site_label
 _atom_site_symmetry_multiplicity
 _atom_site_fract_x
 _atom_site_fract_y
 _atom_site_fract_z
 _atom_site_occupancy
  Th  Th0  1  0.006502  0.173561  0.096001  1
  Th  Th1  1  0.994311  0.828263  0.905313  1
  Th  Th2  1  0.495270  0.672890  0.904929  1
  Th  Th3  1  0.998615  0.834374  0.598648  1
  Th  Th4  1  0.505515  0.327527  0.096395  1
  Th  Th5  1  0.994054  0.168811  0.398286  1
  Th  Th6  1  0.507846  0.318797  0.397203  1
  Th  Th7  1  0.515359  0.686672  0.600482  1
  Sc  Sc8  1  0.166175  0.502992  0.757432  1
  Sc  Sc9  1  0.835013  0.499263  0.249079  1
  Sc  Sc10  1  0.334159  0.000399  0.248793  1
  Sc  Sc11  1  0.667938  0.998067  0.753761  1
  Sc  Sc12  1  0.353142  0.153073  0.630822  1
  Sc  Sc13  1  0.655362  0.829578  0.372911  1
  Sc  Sc14  1  0.154002  0.678682  0.369138  1
  Sc  Sc15  1  0.664228  0.824241  0.123210  1
  Sc  Sc16  1  0.826339  0.329045  0.626911  1
  Sc  Sc17  1  0.334229  0.174481  0.875799  1
  Sc  Sc18  1  0.835692  0.326193  0.875921  1
  Sc  Sc19  1  0.165165  0.673986  0.124108  1
  Si  Si20  1  0.040285  0.126429  0.750291  1
  Si  Si21  1  0.957259  0.877208  0.246561  1
  Si  Si22  1  0.458652  0.621992  0.248597  1
  Si  Si23  1  0.537480  0.378690  0.751754  1
  Si  Si24  1  0.297094  0.871097  0.753605  1
  Si  Si25  1  0.703131  0.120151  0.245387  1
  Si  Si26  1  0.202846  0.376911  0.248574  1
  Si  Si27  1  0.801179  0.626311  0.752667  1
  Si  Si28  1  0.811402  0.543717  0.456021  1
  Si  Si29  1  0.322186  0.959958  0.458360  1
  Si  Si30  1  0.838996  0.534632  0.040857  1
  Si  Si31  1  0.678595  0.043961  0.539062  1
  Si  Si32  1  0.161410  0.464417  0.960454  1
  Si  Si33  1  0.660004  0.035860  0.959778  1
  Si  Si34  1  0.339270  0.964581  0.040724  1
  Bi  Bi35  1  0.181286  0.453192  0.542165  1
