# generated using pymatgen
data_Yb2FeB2Rh5
_symmetry_space_group_name_H-M   'P 1'
_cell_length_a   9.61247900
_cell_length_b   9.61247900
_cell_length_c   2.99288400
_cell_angle_alpha   90.00000000
_cell_angle_beta   90.00000000
_cell_angle_gamma   90.00000000
_symmetry_Int_Tables_number   1
_chemical_formula_structural   Yb2FeB2Rh5
_chemical_formula_sum   'Yb4 Fe2 B4 Rh10'
_cell_volume   276.54174094
_cell_formula_units_Z   2
loop_
 _symmetry_equiv_pos_site_id
 _symmetry_equiv_pos_as_xyz
  1  'x, y, z'
loop_
 _atom_site_type_symbol
 _atom_site_label
 _atom_site_symmetry_multiplicity
 _atom_site_fract_x
 _atom_site_fract_y
 _atom_site_fract_z
 _atom_site_occupancy
  Yb  Yb0  1  0.824704  0.324704  0.000000  1
  Yb  Yb1  1  0.324704  0.175296  0.000000  1
  Yb  Yb2  1  0.675296  0.824704  0.000000  1
  Yb  Yb3  1  0.175296  0.675296  0.000000  1
  Fe  Fe4  1  0.000000  0.000000  0.000000  1
  Fe  Fe5  1  0.500000  0.500000  0.000000  1
  B  B6  1  0.624227  0.124227  0.000000  1
  B  B7  1  0.124227  0.375773  0.000000  1
  B  B8  1  0.875773  0.624227  0.000000  1
  B  B9  1  0.375773  0.875773  0.000000  1
  Rh  Rh10  1  0.070164  0.217552  0.500000  1
  Rh  Rh11  1  0.217552  0.929836  0.500000  1
  Rh  Rh12  1  0.782448  0.070164  0.500000  1
  Rh  Rh13  1  0.929836  0.782448  0.500000  1
  Rh  Rh14  1  0.429836  0.717552  0.500000  1
  Rh  Rh15  1  0.570164  0.282448  0.500000  1
  Rh  Rh16  1  0.717552  0.570164  0.500000  1
  Rh  Rh17  1  0.282448  0.429836  0.500000  1
  Rh  Rh18  1  0.500000  0.000000  0.500000  1
  Rh  Rh19  1  0.000000  0.500000  0.500000  1
