# generated using pymatgen
data_Er4Al18Ag2Ir3Rh
_symmetry_space_group_name_H-M   'P 1'
_cell_length_a   7.62395865
_cell_length_b   7.62395880
_cell_length_c   9.43318300
_cell_angle_alpha   90.00517409
_cell_angle_beta   90.00516840
_cell_angle_gamma   119.43666969
_symmetry_Int_Tables_number   1
_chemical_formula_structural   Er4Al18Ag2Ir3Rh
_chemical_formula_sum   'Er4 Al18 Ag2 Ir3 Rh1'
_cell_volume   477.51535615
_cell_formula_units_Z   1
loop_
 _symmetry_equiv_pos_site_id
 _symmetry_equiv_pos_as_xyz
  1  'x, y, z'
loop_
 _atom_site_type_symbol
 _atom_site_label
 _atom_site_symmetry_multiplicity
 _atom_site_fract_x
 _atom_site_fract_y
 _atom_site_fract_z
 _atom_site_occupancy
  Er  Er0  1  0.995969  0.677573  0.749864  1
  Er  Er1  1  0.005235  0.323466  0.250405  1
  Er  Er2  1  0.676534  0.994765  0.749595  1
  Er  Er3  1  0.322427  0.004031  0.250136  1
  Al  Al4  1  0.140139  0.139770  0.750046  1
  Al  Al5  1  0.860230  0.859861  0.249954  1
  Al  Al6  1  0.000481  0.345702  0.578662  1
  Al  Al7  1  0.999036  0.654098  0.421764  1
  Al  Al8  1  0.998562  0.653930  0.078279  1
  Al  Al9  1  0.346070  0.001438  0.921721  1
  Al  Al10  1  0.999225  0.345369  0.921580  1
  Al  Al11  1  0.654631  0.000775  0.078420  1
  Al  Al12  1  0.654298  0.999519  0.421338  1
  Al  Al13  1  0.345902  0.000964  0.578236  1
  Al  Al14  1  0.341623  0.341422  0.058554  1
  Al  Al15  1  0.658578  0.658377  0.941446  1
  Al  Al16  1  0.658501  0.658293  0.558349  1
  Al  Al17  1  0.341707  0.341499  0.441651  1
  Al  Al18  1  0.338088  0.551764  0.750162  1
  Al  Al19  1  0.662251  0.446268  0.249265  1
  Al  Al20  1  0.553732  0.337749  0.750735  1
  Al  Al21  1  0.448236  0.661912  0.249838  1
  Ag  Ag22  1  0.999976  0.000024  0.500000  1
  Ag  Ag23  1  0.999688  0.000312  0.000000  1
  Ir  Ir24  1  0.671648  0.328352  0.500000  1
  Ir  Ir25  1  0.328161  0.671839  0.500000  1
  Ir  Ir26  1  0.327888  0.672112  0.000000  1
  Rh  Rh27  1  0.671181  0.328819  0.000000  1
