# generated using pymatgen
data_Y2Si4Ni3(PRu3)3
_symmetry_space_group_name_H-M   'P 1'
_cell_length_a   9.46863600
_cell_length_b   9.46863523
_cell_length_c   3.81604100
_cell_angle_alpha   90.00000000
_cell_angle_beta   90.00000000
_cell_angle_gamma   119.99999571
_symmetry_Int_Tables_number   1
_chemical_formula_structural   Y2Si4Ni3(PRu3)3
_chemical_formula_sum   'Y2 Si4 Ni3 P3 Ru9'
_cell_volume   296.29102064
_cell_formula_units_Z   1
loop_
 _symmetry_equiv_pos_site_id
 _symmetry_equiv_pos_as_xyz
  1  'x, y, z'
loop_
 _atom_site_type_symbol
 _atom_site_label
 _atom_site_symmetry_multiplicity
 _atom_site_fract_x
 _atom_site_fract_y
 _atom_site_fract_z
 _atom_site_occupancy
  Y  Y0  1  0.666667  0.333333  0.000000  1
  Y  Y1  1  0.333333  0.666667  0.500000  1
  Si  Si2  1  0.292418  0.888941  0.000000  1
  Si  Si3  1  0.596523  0.707582  0.000000  1
  Si  Si4  1  0.111059  0.403477  0.000000  1
  Si  Si5  1  0.000000  0.000000  0.000000  1
  Ni  Ni6  1  0.275177  0.120610  0.000000  1
  Ni  Ni7  1  0.845435  0.724823  0.000000  1
  Ni  Ni8  1  0.879390  0.154565  0.000000  1
  P  P9  1  0.399630  0.291418  0.500000  1
  P  P10  1  0.891787  0.600370  0.500000  1
  P  P11  1  0.708582  0.108213  0.500000  1
  Ru  Ru12  1  0.054271  0.627474  0.000000  1
  Ru  Ru13  1  0.573202  0.945729  0.000000  1
  Ru  Ru14  1  0.372526  0.426798  0.000000  1
  Ru  Ru15  1  0.437428  0.061732  0.500000  1
  Ru  Ru16  1  0.624303  0.562572  0.500000  1
  Ru  Ru17  1  0.938268  0.375697  0.500000  1
  Ru  Ru18  1  0.089164  0.881695  0.500000  1
  Ru  Ru19  1  0.792532  0.910836  0.500000  1
  Ru  Ru20  1  0.118305  0.207468  0.500000  1
