# generated using pymatgen
data_Ca6LaSm(Si3Pd)4
_symmetry_space_group_name_H-M   'P 1'
_cell_length_a   8.26819100
_cell_length_b   8.26819036
_cell_length_c   8.46922500
_cell_angle_alpha   90.00000000
_cell_angle_beta   90.00000000
_cell_angle_gamma   119.99999856
_symmetry_Int_Tables_number   1
_chemical_formula_structural   Ca6LaSm(Si3Pd)4
_chemical_formula_sum   'Ca6 La1 Sm1 Si12 Pd4'
_cell_volume   501.41263830
_cell_formula_units_Z   1
loop_
 _symmetry_equiv_pos_site_id
 _symmetry_equiv_pos_as_xyz
  1  'x, y, z'
loop_
 _atom_site_type_symbol
 _atom_site_label
 _atom_site_symmetry_multiplicity
 _atom_site_fract_x
 _atom_site_fract_y
 _atom_site_fract_z
 _atom_site_occupancy
  Ca  Ca0  1  0.500403  0.000810  0.250000  1
  Ca  Ca1  1  0.499553  0.999104  0.750000  1
  Ca  Ca2  1  0.999190  0.499597  0.250000  1
  Ca  Ca3  1  0.000896  0.500447  0.750000  1
  Ca  Ca4  1  0.500403  0.499597  0.250000  1
  Ca  Ca5  1  0.499553  0.500447  0.750000  1
  La  La6  1  0.000000  0.000000  0.250000  1
  Sm  Sm7  1  0.000000  0.000000  0.750000  1
  Si  Si8  1  0.165462  0.330924  0.996963  1
  Si  Si9  1  0.834546  0.669091  0.995948  1
  Si  Si10  1  0.669076  0.834538  0.996963  1
  Si  Si11  1  0.834546  0.669091  0.504052  1
  Si  Si12  1  0.330909  0.165454  0.995948  1
  Si  Si13  1  0.165462  0.330924  0.503037  1
  Si  Si14  1  0.165462  0.834538  0.996963  1
  Si  Si15  1  0.330909  0.165454  0.504052  1
  Si  Si16  1  0.834546  0.165454  0.995948  1
  Si  Si17  1  0.669076  0.834538  0.503037  1
  Si  Si18  1  0.834546  0.165454  0.504052  1
  Si  Si19  1  0.165462  0.834538  0.503037  1
  Pd  Pd20  1  0.333333  0.666667  0.998489  1
  Pd  Pd21  1  0.666667  0.333333  0.997633  1
  Pd  Pd22  1  0.666667  0.333333  0.502367  1
  Pd  Pd23  1  0.333333  0.666667  0.501511  1
