# generated using pymatgen
data_NdTm2Fe(Co4P3)2
_symmetry_space_group_name_H-M   'P 1'
_cell_length_a   3.68390100
_cell_length_b   10.49241600
_cell_length_c   12.15308900
_cell_angle_alpha   90.00000000
_cell_angle_beta   90.00000000
_cell_angle_gamma   90.00000000
_symmetry_Int_Tables_number   1
_chemical_formula_structural   NdTm2Fe(Co4P3)2
_chemical_formula_sum   'Nd2 Tm4 Fe2 Co16 P12'
_cell_volume   469.75361399
_cell_formula_units_Z   2
loop_
 _symmetry_equiv_pos_site_id
 _symmetry_equiv_pos_as_xyz
  1  'x, y, z'
loop_
 _atom_site_type_symbol
 _atom_site_label
 _atom_site_symmetry_multiplicity
 _atom_site_fract_x
 _atom_site_fract_y
 _atom_site_fract_z
 _atom_site_occupancy
  Nd  Nd0  1  0.000000  0.500000  0.522584  1
  Nd  Nd1  1  0.500000  0.000000  0.477416  1
  Tm  Tm2  1  0.500000  0.817943  0.204042  1
  Tm  Tm3  1  0.500000  0.182057  0.204042  1
  Tm  Tm4  1  0.000000  0.682057  0.795958  1
  Tm  Tm5  1  0.000000  0.317943  0.795958  1
  Fe  Fe6  1  0.500000  0.500000  0.155357  1
  Fe  Fe7  1  0.000000  0.000000  0.844643  1
  Co  Co8  1  0.500000  0.500000  0.706315  1
  Co  Co9  1  0.000000  0.000000  0.293685  1
  Co  Co10  1  0.000000  0.500000  0.986615  1
  Co  Co11  1  0.500000  0.000000  0.013385  1
  Co  Co12  1  0.500000  0.332742  0.994388  1
  Co  Co13  1  0.500000  0.667258  0.994388  1
  Co  Co14  1  0.000000  0.167258  0.005612  1
  Co  Co15  1  0.000000  0.832742  0.005612  1
  Co  Co16  1  0.500000  0.296272  0.428756  1
  Co  Co17  1  0.500000  0.703728  0.428756  1
  Co  Co18  1  0.000000  0.203728  0.571244  1
  Co  Co19  1  0.000000  0.796272  0.571244  1
  Co  Co20  1  0.500000  0.878788  0.712411  1
  Co  Co21  1  0.500000  0.121212  0.712411  1
  Co  Co22  1  0.000000  0.621212  0.287589  1
  Co  Co23  1  0.000000  0.378788  0.287589  1
  P  P24  1  0.500000  0.500000  0.883193  1
  P  P25  1  0.000000  0.000000  0.116807  1
  P  P26  1  0.500000  0.500000  0.339078  1
  P  P27  1  0.000000  0.000000  0.660922  1
  P  P28  1  0.500000  0.307983  0.618744  1
  P  P29  1  0.500000  0.692017  0.618744  1
  P  P30  1  0.000000  0.192017  0.381256  1
  P  P31  1  0.000000  0.807983  0.381256  1
  P  P32  1  0.500000  0.846287  0.893029  1
  P  P33  1  0.500000  0.153713  0.893029  1
  P  P34  1  0.000000  0.653713  0.106971  1
  P  P35  1  0.000000  0.346287  0.106971  1
