# generated using pymatgen
data_LuPa3(B4Os)4
_symmetry_space_group_name_H-M   'P 1'
_cell_length_a   3.59096300
_cell_length_b   5.98536124
_cell_length_c   11.60190737
_cell_angle_alpha   90.09018177
_cell_angle_beta   90.00000000
_cell_angle_gamma   90.00000000
_symmetry_Int_Tables_number   1
_chemical_formula_structural   LuPa3(B4Os)4
_chemical_formula_sum   'Lu1 Pa3 B16 Os4'
_cell_volume   249.36193122
_cell_formula_units_Z   1
loop_
 _symmetry_equiv_pos_site_id
 _symmetry_equiv_pos_as_xyz
  1  'x, y, z'
loop_
 _atom_site_type_symbol
 _atom_site_label
 _atom_site_symmetry_multiplicity
 _atom_site_fract_x
 _atom_site_fract_y
 _atom_site_fract_z
 _atom_site_occupancy
  Lu  Lu0  1  0.500000  0.370619  0.148656  1
  Pa  Pa1  1  0.500000  0.128690  0.649860  1
  Pa  Pa2  1  0.500000  0.870945  0.348782  1
  Pa  Pa3  1  0.500000  0.629198  0.851379  1
  B  B4  1  0.000000  0.471266  0.691247  1
  B  B5  1  0.000000  0.525420  0.307249  1
  B  B6  1  0.000000  0.972375  0.809570  1
  B  B7  1  0.000000  0.030007  0.190544  1
  B  B8  1  0.000000  0.289595  0.811981  1
  B  B9  1  0.000000  0.709236  0.187328  1
  B  B10  1  0.000000  0.790834  0.688933  1
  B  B11  1  0.000000  0.210406  0.311481  1
  B  B12  1  0.000000  0.365734  0.970117  1
  B  B13  1  0.000000  0.635385  0.033184  1
  B  B14  1  0.000000  0.864651  0.531899  1
  B  B15  1  0.000000  0.133098  0.466391  1
  B  B16  1  0.000000  0.385492  0.544942  1
  B  B17  1  0.000000  0.611890  0.452863  1
  B  B18  1  0.000000  0.887456  0.955902  1
  B  B19  1  0.000000  0.115836  0.047408  1
  Os  Os20  1  0.500000  0.143335  0.903937  1
  Os  Os21  1  0.500000  0.857727  0.094658  1
  Os  Os22  1  0.500000  0.641649  0.597048  1
  Os  Os23  1  0.500000  0.359157  0.404643  1
