# generated using pymatgen
data_Yb5Sm3Tl4
_symmetry_space_group_name_H-M   'P 1'
_cell_length_a   5.41741800
_cell_length_b   6.95220802
_cell_length_c   9.66278108
_cell_angle_alpha   89.43837515
_cell_angle_beta   90.00000000
_cell_angle_gamma   90.00000000
_symmetry_Int_Tables_number   1
_chemical_formula_structural   Yb5Sm3Tl4
_chemical_formula_sum   'Yb5 Sm3 Tl4'
_cell_volume   363.91200351
_cell_formula_units_Z   1
loop_
 _symmetry_equiv_pos_site_id
 _symmetry_equiv_pos_as_xyz
  1  'x, y, z'
loop_
 _atom_site_type_symbol
 _atom_site_label
 _atom_site_symmetry_multiplicity
 _atom_site_fract_x
 _atom_site_fract_y
 _atom_site_fract_z
 _atom_site_occupancy
  Yb  Yb0  1  0.750000  0.697909  0.421426  1
  Yb  Yb1  1  0.250000  0.986915  0.284180  1
  Yb  Yb2  1  0.250000  0.488457  0.213647  1
  Yb  Yb3  1  0.750000  0.010304  0.717694  1
  Yb  Yb4  1  0.750000  0.510617  0.785919  1
  Sm  Sm5  1  0.250000  0.791088  0.920072  1
  Sm  Sm6  1  0.250000  0.306276  0.579193  1
  Sm  Sm7  1  0.750000  0.207787  0.080002  1
  Tl  Tl8  1  0.250000  0.264467  0.907237  1
  Tl  Tl9  1  0.250000  0.772014  0.593767  1
  Tl  Tl10  1  0.750000  0.733899  0.090483  1
  Tl  Tl11  1  0.750000  0.230267  0.406381  1
