# generated using pymatgen
data_Lu16MgZn3Co4
_symmetry_space_group_name_H-M   'P 1'
_cell_length_a   9.25361004
_cell_length_b   9.18362394
_cell_length_c   9.18362300
_cell_angle_alpha   60.00000700
_cell_angle_beta   60.24987890
_cell_angle_gamma   60.24987336
_symmetry_Int_Tables_number   1
_chemical_formula_structural   Lu16MgZn3Co4
_chemical_formula_sum   'Lu16 Mg1 Zn3 Co4'
_cell_volume   553.92931627
_cell_formula_units_Z   1
loop_
 _symmetry_equiv_pos_site_id
 _symmetry_equiv_pos_as_xyz
  1  'x, y, z'
loop_
 _atom_site_type_symbol
 _atom_site_label
 _atom_site_symmetry_multiplicity
 _atom_site_fract_x
 _atom_site_fract_y
 _atom_site_fract_z
 _atom_site_occupancy
  Lu  Lu0  1  0.349232  0.345925  0.345925  1
  Lu  Lu1  1  0.349232  0.345925  0.958917  1
  Lu  Lu2  1  0.349232  0.958917  0.345925  1
  Lu  Lu3  1  0.945170  0.351610  0.351610  1
  Lu  Lu4  1  0.808059  0.191227  0.191227  1
  Lu  Lu5  1  0.187844  0.812414  0.812414  1
  Lu  Lu6  1  0.187844  0.812414  0.187330  1
  Lu  Lu7  1  0.808059  0.191227  0.809488  1
  Lu  Lu8  1  0.187844  0.187330  0.812414  1
  Lu  Lu9  1  0.808059  0.809488  0.191227  1
  Lu  Lu10  1  0.933341  0.562308  0.562308  1
  Lu  Lu11  1  0.561716  0.937101  0.937101  1
  Lu  Lu12  1  0.561716  0.937101  0.564083  1
  Lu  Lu13  1  0.933341  0.562308  0.942044  1
  Lu  Lu14  1  0.561716  0.564083  0.937101  1
  Lu  Lu15  1  0.933341  0.942044  0.562308  1
  Mg  Mg16  1  0.287768  0.570744  0.570744  1
  Zn  Zn17  1  0.585785  0.577913  0.577913  1
  Zn  Zn18  1  0.585785  0.577913  0.258389  1
  Zn  Zn19  1  0.585785  0.258389  0.577913  1
  Co  Co20  1  0.137188  0.143811  0.143811  1
  Co  Co21  1  0.137188  0.143811  0.575188  1
  Co  Co22  1  0.137188  0.575188  0.143811  1
  Co  Co23  1  0.577572  0.140809  0.140809  1
