# generated using pymatgen
data_Tb2Lu2ReB12Ru
_symmetry_space_group_name_H-M   'P 1'
_cell_length_a   3.64010400
_cell_length_b   9.10096774
_cell_length_c   11.50108737
_cell_angle_alpha   90.17108550
_cell_angle_beta   90.00000000
_cell_angle_gamma   90.00000000
_symmetry_Int_Tables_number   1
_chemical_formula_structural   Tb2Lu2ReB12Ru
_chemical_formula_sum   'Tb4 Lu4 Re2 B24 Ru2'
_cell_volume   381.01171873
_cell_formula_units_Z   2
loop_
 _symmetry_equiv_pos_site_id
 _symmetry_equiv_pos_as_xyz
  1  'x, y, z'
loop_
 _atom_site_type_symbol
 _atom_site_label
 _atom_site_symmetry_multiplicity
 _atom_site_fract_x
 _atom_site_fract_y
 _atom_site_fract_z
 _atom_site_occupancy
  Tb  Tb0  1  0.000000  0.320748  0.412673  1
  Tb  Tb1  1  0.000000  0.679252  0.587327  1
  Tb  Tb2  1  0.000000  0.823894  0.084764  1
  Tb  Tb3  1  0.000000  0.176106  0.915236  1
  Lu  Lu4  1  0.000000  0.943348  0.370694  1
  Lu  Lu5  1  0.000000  0.056652  0.629306  1
  Lu  Lu6  1  0.000000  0.443012  0.129038  1
  Lu  Lu7  1  0.000000  0.556988  0.870962  1
  Re  Re8  1  0.000000  0.139778  0.180683  1
  Re  Re9  1  0.000000  0.860222  0.819317  1
  B  B10  1  0.500000  0.554581  0.432445  1
  B  B11  1  0.500000  0.445419  0.567555  1
  B  B12  1  0.500000  0.053633  0.067322  1
  B  B13  1  0.500000  0.946367  0.932678  1
  B  B14  1  0.500000  0.750343  0.418334  1
  B  B15  1  0.500000  0.249657  0.581666  1
  B  B16  1  0.500000  0.250861  0.081475  1
  B  B17  1  0.500000  0.749139  0.918525  1
  B  B18  1  0.500000  0.791684  0.265989  1
  B  B19  1  0.500000  0.208316  0.734011  1
  B  B20  1  0.500000  0.292858  0.234703  1
  B  B21  1  0.500000  0.707142  0.765297  1
  B  B22  1  0.500000  0.630191  0.185373  1
  B  B23  1  0.500000  0.369809  0.814627  1
  B  B24  1  0.500000  0.130548  0.315577  1
  B  B25  1  0.500000  0.869452  0.684423  1
  B  B26  1  0.500000  0.982132  0.213461  1
  B  B27  1  0.500000  0.017868  0.786539  1
  B  B28  1  0.500000  0.483224  0.287325  1
  B  B29  1  0.500000  0.516776  0.712675  1
  B  B30  1  0.500000  0.600387  0.027731  1
  B  B31  1  0.500000  0.399613  0.972269  1
  B  B32  1  0.500000  0.100765  0.472471  1
  B  B33  1  0.500000  0.899235  0.527529  1
  Ru  Ru34  1  0.000000  0.638922  0.320377  1
  Ru  Ru35  1  0.000000  0.361078  0.679623  1
