# generated using pymatgen
data_Sc22IrOsRu6
_symmetry_space_group_name_H-M   'P 1'
_cell_length_a   9.48186208
_cell_length_b   9.46090274
_cell_length_c   9.48186163
_cell_angle_alpha   60.07309427
_cell_angle_beta   59.86956186
_cell_angle_gamma   60.07309864
_symmetry_Int_Tables_number   1
_chemical_formula_structural   Sc22IrOsRu6
_chemical_formula_sum   'Sc22 Ir1 Os1 Ru6'
_cell_volume   601.52389619
_cell_formula_units_Z   1
loop_
 _symmetry_equiv_pos_site_id
 _symmetry_equiv_pos_as_xyz
  1  'x, y, z'
loop_
 _atom_site_type_symbol
 _atom_site_label
 _atom_site_symmetry_multiplicity
 _atom_site_fract_x
 _atom_site_fract_y
 _atom_site_fract_z
 _atom_site_occupancy
  Sc  Sc0  1  0.802321  0.802549  0.197679  1
  Sc  Sc1  1  0.197503  0.802497  0.197503  1
  Sc  Sc2  1  0.802321  0.197451  0.197679  1
  Sc  Sc3  1  0.197679  0.197451  0.802321  1
  Sc  Sc4  1  0.802497  0.197503  0.802497  1
  Sc  Sc5  1  0.197679  0.802549  0.802321  1
  Sc  Sc6  1  0.614309  0.617071  0.151547  1
  Sc  Sc7  1  0.616281  0.149021  0.616281  1
  Sc  Sc8  1  0.151547  0.617071  0.614309  1
  Sc  Sc9  1  0.616281  0.618418  0.616281  1
  Sc  Sc10  1  0.385691  0.382929  0.848453  1
  Sc  Sc11  1  0.383719  0.850979  0.383719  1
  Sc  Sc12  1  0.848453  0.382929  0.385691  1
  Sc  Sc13  1  0.383719  0.381582  0.383719  1
  Sc  Sc14  1  0.845829  0.842466  0.469239  1
  Sc  Sc15  1  0.843550  0.470101  0.843550  1
  Sc  Sc16  1  0.469239  0.842466  0.845829  1
  Sc  Sc17  1  0.843550  0.842798  0.843550  1
  Sc  Sc18  1  0.154171  0.157534  0.530761  1
  Sc  Sc19  1  0.156450  0.529899  0.156450  1
  Sc  Sc20  1  0.530761  0.157534  0.154171  1
  Sc  Sc21  1  0.156450  0.157202  0.156450  1
  Ir  Ir22  1  0.000000  0.500000  0.000000  1
  Os  Os23  1  0.500000  0.500000  0.500000  1
  Ru  Ru24  1  0.000000  0.000000  0.000000  1
  Ru  Ru25  1  0.000000  0.000000  0.500000  1
  Ru  Ru26  1  0.500000  0.000000  0.500000  1
  Ru  Ru27  1  0.000000  0.500000  0.500000  1
  Ru  Ru28  1  0.500000  0.500000  0.000000  1
  Ru  Ru29  1  0.500000  0.000000  0.000000  1
