# generated using pymatgen
data_Li2YbSb2Pb
_symmetry_space_group_name_H-M   'P 1'
_cell_length_a   4.74725200
_cell_length_b   7.65148500
_cell_length_c   8.40610100
_cell_angle_alpha   90.00000000
_cell_angle_beta   90.00000000
_cell_angle_gamma   90.00000000
_symmetry_Int_Tables_number   1
_chemical_formula_structural   Li2YbSb2Pb
_chemical_formula_sum   'Li4 Yb2 Sb4 Pb2'
_cell_volume   305.33924058
_cell_formula_units_Z   2
loop_
 _symmetry_equiv_pos_site_id
 _symmetry_equiv_pos_as_xyz
  1  'x, y, z'
loop_
 _atom_site_type_symbol
 _atom_site_label
 _atom_site_symmetry_multiplicity
 _atom_site_fract_x
 _atom_site_fract_y
 _atom_site_fract_z
 _atom_site_occupancy
  Li  Li0  1  0.250000  0.146080  0.933548  1
  Li  Li1  1  0.250000  0.646080  0.566452  1
  Li  Li2  1  0.750000  0.849357  0.083428  1
  Li  Li3  1  0.750000  0.349357  0.416572  1
  Yb  Yb4  1  0.750000  0.994694  0.708224  1
  Yb  Yb5  1  0.750000  0.494694  0.791776  1
  Sb  Sb6  1  0.250000  0.266140  0.607937  1
  Sb  Sb7  1  0.250000  0.766140  0.892063  1
  Sb  Sb8  1  0.750000  0.734801  0.415204  1
  Sb  Sb9  1  0.750000  0.234801  0.084796  1
  Pb  Pb10  1  0.250000  0.008927  0.314472  1
  Pb  Pb11  1  0.250000  0.508927  0.185528  1
