# generated using pymatgen
data_CsLa6(CI6)2
_symmetry_space_group_name_H-M   'P 1'
_cell_length_a   9.89622016
_cell_length_b   9.87066641
_cell_length_c   10.34531091
_cell_angle_alpha   71.93942984
_cell_angle_beta   70.90810875
_cell_angle_gamma   72.61203468
_symmetry_Int_Tables_number   1
_chemical_formula_structural   CsLa6(CI6)2
_chemical_formula_sum   'Cs1 La6 C2 I12'
_cell_volume   885.72212923
_cell_formula_units_Z   1
loop_
 _symmetry_equiv_pos_site_id
 _symmetry_equiv_pos_as_xyz
  1  'x, y, z'
loop_
 _atom_site_type_symbol
 _atom_site_label
 _atom_site_symmetry_multiplicity
 _atom_site_fract_x
 _atom_site_fract_y
 _atom_site_fract_z
 _atom_site_occupancy
  Cs  Cs0  1  0.000005  0.499993  0.000000  1
  La  La1  1  0.475457  0.108999  0.192764  1
  La  La2  1  0.772409  0.031463  0.409938  1
  La  La3  1  0.590775  0.729210  0.475259  1
  La  La4  1  0.409214  0.270798  0.524754  1
  La  La5  1  0.227598  0.968541  0.590049  1
  La  La6  1  0.524543  0.891005  0.807239  1
  C  C7  1  0.494225  0.024198  0.429603  1
  C  C8  1  0.505778  0.975817  0.570393  1
  I  I9  1  0.800926  0.159691  0.078721  1
  I  I10  1  0.586787  0.777884  0.142247  1
  I  I11  1  0.350904  0.435585  0.220925  1
  I  I12  1  0.135507  0.070548  0.290767  1
  I  I13  1  0.929109  0.717649  0.353358  1
  I  I14  1  0.719663  0.368295  0.429848  1
  I  I15  1  0.280331  0.631700  0.570159  1
  I  I16  1  0.070885  0.282345  0.646646  1
  I  I17  1  0.864499  0.929442  0.709234  1
  I  I18  1  0.649098  0.564415  0.779076  1
  I  I19  1  0.413212  0.222116  0.857753  1
  I  I20  1  0.199080  0.840306  0.921270  1
