# generated using pymatgen
data_Eu3Nb(Co4P3)2
_symmetry_space_group_name_H-M   'P 1'
_cell_length_a   3.75179400
_cell_length_b   10.72410400
_cell_length_c   12.47801400
_cell_angle_alpha   90.00000000
_cell_angle_beta   90.00000000
_cell_angle_gamma   90.00000000
_symmetry_Int_Tables_number   1
_chemical_formula_structural   Eu3Nb(Co4P3)2
_chemical_formula_sum   'Eu6 Nb2 Co16 P12'
_cell_volume   502.04826448
_cell_formula_units_Z   2
loop_
 _symmetry_equiv_pos_site_id
 _symmetry_equiv_pos_as_xyz
  1  'x, y, z'
loop_
 _atom_site_type_symbol
 _atom_site_label
 _atom_site_symmetry_multiplicity
 _atom_site_fract_x
 _atom_site_fract_y
 _atom_site_fract_z
 _atom_site_occupancy
  Eu  Eu0  1  0.000000  0.500000  0.529561  1
  Eu  Eu1  1  0.500000  0.000000  0.470439  1
  Eu  Eu2  1  0.500000  0.823163  0.206367  1
  Eu  Eu3  1  0.500000  0.176837  0.206367  1
  Eu  Eu4  1  0.000000  0.676837  0.793633  1
  Eu  Eu5  1  0.000000  0.323163  0.793633  1
  Nb  Nb6  1  0.500000  0.500000  0.155972  1
  Nb  Nb7  1  0.000000  0.000000  0.844028  1
  Co  Co8  1  0.500000  0.500000  0.703153  1
  Co  Co9  1  0.000000  0.000000  0.296847  1
  Co  Co10  1  0.000000  0.500000  0.989588  1
  Co  Co11  1  0.500000  0.000000  0.010412  1
  Co  Co12  1  0.500000  0.331959  0.994574  1
  Co  Co13  1  0.500000  0.668041  0.994574  1
  Co  Co14  1  0.000000  0.168041  0.005426  1
  Co  Co15  1  0.000000  0.831959  0.005426  1
  Co  Co16  1  0.500000  0.296745  0.432660  1
  Co  Co17  1  0.500000  0.703255  0.432660  1
  Co  Co18  1  0.000000  0.203255  0.567340  1
  Co  Co19  1  0.000000  0.796745  0.567340  1
  Co  Co20  1  0.500000  0.880311  0.703343  1
  Co  Co21  1  0.500000  0.119689  0.703343  1
  Co  Co22  1  0.000000  0.619689  0.296657  1
  Co  Co23  1  0.000000  0.380311  0.296657  1
  P  P24  1  0.500000  0.500000  0.887698  1
  P  P25  1  0.000000  0.000000  0.112302  1
  P  P26  1  0.500000  0.500000  0.354007  1
  P  P27  1  0.000000  0.000000  0.645993  1
  P  P28  1  0.500000  0.304365  0.614253  1
  P  P29  1  0.500000  0.695635  0.614253  1
  P  P30  1  0.000000  0.195635  0.385747  1
  P  P31  1  0.000000  0.804365  0.385747  1
  P  P32  1  0.500000  0.841545  0.893629  1
  P  P33  1  0.500000  0.158455  0.893629  1
  P  P34  1  0.000000  0.658455  0.106371  1
  P  P35  1  0.000000  0.341545  0.106371  1
