# generated using pymatgen
data_Cs2V5FeTe6
_symmetry_space_group_name_H-M   'P 1'
_cell_length_a   4.39970400
_cell_length_b   10.12723983
_cell_length_c   10.01563100
_cell_angle_alpha   120.39170078
_cell_angle_beta   90.00000000
_cell_angle_gamma   90.00000000
_symmetry_Int_Tables_number   1
_chemical_formula_structural   Cs2V5FeTe6
_chemical_formula_sum   'Cs2 V5 Fe1 Te6'
_cell_volume   384.94240697
_cell_formula_units_Z   1
loop_
 _symmetry_equiv_pos_site_id
 _symmetry_equiv_pos_as_xyz
  1  'x, y, z'
loop_
 _atom_site_type_symbol
 _atom_site_label
 _atom_site_symmetry_multiplicity
 _atom_site_fract_x
 _atom_site_fract_y
 _atom_site_fract_z
 _atom_site_occupancy
  Cs  Cs0  1  0.750000  0.663712  0.322812  1
  Cs  Cs1  1  0.250000  0.338877  0.674518  1
  V  V2  1  0.750000  0.162214  0.149298  1
  V  V3  1  0.750000  0.890689  0.024541  1
  V  V4  1  0.250000  0.027056  0.177290  1
  V  V5  1  0.250000  0.838367  0.852351  1
  V  V6  1  0.250000  0.109207  0.976798  1
  Fe  Fe7  1  0.750000  0.973799  0.835137  1
  Te  Te8  1  0.750000  0.674421  0.703213  1
  Te  Te9  1  0.750000  0.265031  0.943579  1
  Te  Te10  1  0.750000  0.049791  0.350257  1
  Te  Te11  1  0.250000  0.337325  0.289555  1
  Te  Te12  1  0.250000  0.717377  0.041903  1
  Te  Te13  1  0.250000  0.952134  0.658751  1
