# generated using pymatgen
data_Ti6Fe7B4Rh3
_symmetry_space_group_name_H-M   'P 1'
_cell_length_a   8.88287105
_cell_length_b   8.84428815
_cell_length_c   2.91879100
_cell_angle_alpha   90.00000000
_cell_angle_beta   90.00000000
_cell_angle_gamma   89.89363275
_symmetry_Int_Tables_number   1
_chemical_formula_structural   Ti6Fe7B4Rh3
_chemical_formula_sum   'Ti6 Fe7 B4 Rh3'
_cell_volume   229.30762244
_cell_formula_units_Z   1
loop_
 _symmetry_equiv_pos_site_id
 _symmetry_equiv_pos_as_xyz
  1  'x, y, z'
loop_
 _atom_site_type_symbol
 _atom_site_label
 _atom_site_symmetry_multiplicity
 _atom_site_fract_x
 _atom_site_fract_y
 _atom_site_fract_z
 _atom_site_occupancy
  Ti  Ti0  1  0.999980  0.997604  0.000000  1
  Ti  Ti1  1  0.495505  0.515912  0.000000  1
  Ti  Ti2  1  0.835225  0.315442  0.000000  1
  Ti  Ti3  1  0.317464  0.159597  0.000000  1
  Ti  Ti4  1  0.675519  0.833131  0.000000  1
  Ti  Ti5  1  0.172422  0.685256  0.000000  1
  Fe  Fe6  1  0.499552  0.997746  0.500000  1
  Fe  Fe7  1  0.999291  0.499081  0.500000  1
  Fe  Fe8  1  0.067480  0.215041  0.500000  1
  Fe  Fe9  1  0.219275  0.930977  0.500000  1
  Fe  Fe10  1  0.782578  0.067413  0.500000  1
  Fe  Fe11  1  0.933477  0.784479  0.500000  1
  Fe  Fe12  1  0.427015  0.724216  0.500000  1
  B  B13  1  0.627021  0.108450  0.000000  1
  B  B14  1  0.106657  0.369870  0.000000  1
  B  B15  1  0.895811  0.631190  0.000000  1
  B  B16  1  0.376205  0.879655  0.000000  1
  Rh  Rh17  1  0.570069  0.281300  0.500000  1
  Rh  Rh18  1  0.721463  0.574019  0.500000  1
  Rh  Rh19  1  0.277992  0.429621  0.500000  1
