# generated using pymatgen
data_Pr2ZnSi4Pd
_symmetry_space_group_name_H-M   'P 1'
_cell_length_a   8.94015658
_cell_length_b   8.94015686
_cell_length_c   4.17708500
_cell_angle_alpha   90.00000000
_cell_angle_beta   90.00000000
_cell_angle_gamma   152.82997189
_symmetry_Int_Tables_number   1
_chemical_formula_structural   Pr2ZnSi4Pd
_chemical_formula_sum   'Pr2 Zn1 Si4 Pd1'
_cell_volume   152.45107581
_cell_formula_units_Z   1
loop_
 _symmetry_equiv_pos_site_id
 _symmetry_equiv_pos_as_xyz
  1  'x, y, z'
loop_
 _atom_site_type_symbol
 _atom_site_label
 _atom_site_symmetry_multiplicity
 _atom_site_fract_x
 _atom_site_fract_y
 _atom_site_fract_z
 _atom_site_occupancy
  Pr  Pr0  1  0.599767  0.400233  0.250000  1
  Pr  Pr1  1  0.400996  0.599004  0.750000  1
  Zn  Zn2  1  0.749089  0.250911  0.750000  1
  Si  Si3  1  0.965583  0.034417  0.250000  1
  Si  Si4  1  0.034162  0.965838  0.750000  1
  Si  Si5  1  0.829077  0.170923  0.250000  1
  Si  Si6  1  0.170288  0.829712  0.750000  1
  Pd  Pd7  1  0.251037  0.748963  0.250000  1
