# generated using pymatgen
data_RbY7(Sn11Ru3)2
_symmetry_space_group_name_H-M   'P 1'
_cell_length_a   9.86800400
_cell_length_b   9.86800437
_cell_length_c   10.21583800
_cell_angle_alpha   90.00000000
_cell_angle_beta   90.00000000
_cell_angle_gamma   120.00000546
_symmetry_Int_Tables_number   1
_chemical_formula_structural   RbY7(Sn11Ru3)2
_chemical_formula_sum   'Rb1 Y7 Sn22 Ru6'
_cell_volume   861.51581692
_cell_formula_units_Z   1
loop_
 _symmetry_equiv_pos_site_id
 _symmetry_equiv_pos_as_xyz
  1  'x, y, z'
loop_
 _atom_site_type_symbol
 _atom_site_label
 _atom_site_symmetry_multiplicity
 _atom_site_fract_x
 _atom_site_fract_y
 _atom_site_fract_z
 _atom_site_occupancy
  Rb  Rb0  1  0.000000  0.000000  0.500000  1
  Y  Y1  1  0.000000  0.000000  0.000000  1
  Y  Y2  1  0.036420  0.518210  0.307623  1
  Y  Y3  1  0.481790  0.963580  0.307623  1
  Y  Y4  1  0.481790  0.518210  0.307623  1
  Y  Y5  1  0.963580  0.481790  0.692377  1
  Y  Y6  1  0.518210  0.036420  0.692377  1
  Y  Y7  1  0.518210  0.481790  0.692377  1
  Sn  Sn8  1  0.129037  0.870963  0.252551  1
  Sn  Sn9  1  0.741926  0.870963  0.252551  1
  Sn  Sn10  1  0.129037  0.258074  0.252551  1
  Sn  Sn11  1  0.870963  0.129037  0.747449  1
  Sn  Sn12  1  0.258074  0.129037  0.747449  1
  Sn  Sn13  1  0.870963  0.741926  0.747449  1
  Sn  Sn14  1  0.349844  0.000000  0.000000  1
  Sn  Sn15  1  0.650156  0.650156  0.000000  1
  Sn  Sn16  1  0.000000  0.349844  0.000000  1
  Sn  Sn17  1  0.349844  0.349844  0.000000  1
  Sn  Sn18  1  0.000000  0.650156  0.000000  1
  Sn  Sn19  1  0.650156  0.000000  0.000000  1
  Sn  Sn20  1  0.777345  0.554690  0.458031  1
  Sn  Sn21  1  0.777345  0.222655  0.458031  1
  Sn  Sn22  1  0.445310  0.222655  0.458031  1
  Sn  Sn23  1  0.222655  0.445310  0.541969  1
  Sn  Sn24  1  0.222655  0.777345  0.541969  1
  Sn  Sn25  1  0.554690  0.777345  0.541969  1
  Sn  Sn26  1  0.666667  0.333333  0.178889  1
  Sn  Sn27  1  0.333333  0.666667  0.821111  1
  Sn  Sn28  1  0.666667  0.333333  0.877658  1
  Sn  Sn29  1  0.333333  0.666667  0.122342  1
  Ru  Ru30  1  0.167999  0.832001  0.796279  1
  Ru  Ru31  1  0.664000  0.832001  0.796279  1
  Ru  Ru32  1  0.167999  0.336000  0.796279  1
  Ru  Ru33  1  0.832001  0.167999  0.203721  1
  Ru  Ru34  1  0.336000  0.167999  0.203721  1
  Ru  Ru35  1  0.832001  0.664000  0.203721  1
