# generated using pymatgen
data_Zr4Al7Ag
_symmetry_space_group_name_H-M   'P 1'
_cell_length_a   5.35481500
_cell_length_b   5.31505946
_cell_length_c   8.75313700
_cell_angle_alpha   90.00000000
_cell_angle_beta   90.00000000
_cell_angle_gamma   120.24773329
_symmetry_Int_Tables_number   1
_chemical_formula_structural   Zr4Al7Ag
_chemical_formula_sum   'Zr4 Al7 Ag1'
_cell_volume   215.20749598
_cell_formula_units_Z   1
loop_
 _symmetry_equiv_pos_site_id
 _symmetry_equiv_pos_as_xyz
  1  'x, y, z'
loop_
 _atom_site_type_symbol
 _atom_site_label
 _atom_site_symmetry_multiplicity
 _atom_site_fract_x
 _atom_site_fract_y
 _atom_site_fract_z
 _atom_site_occupancy
  Zr  Zr0  1  0.336601  0.673202  0.432001  1
  Zr  Zr1  1  0.666597  0.333193  0.938221  1
  Zr  Zr2  1  0.666597  0.333193  0.561779  1
  Zr  Zr3  1  0.336601  0.673202  0.067999  1
  Al  Al4  1  0.829547  0.172082  0.250000  1
  Al  Al5  1  0.342534  0.172082  0.250000  1
  Al  Al6  1  0.651338  0.821075  0.750000  1
  Al  Al7  1  0.001837  0.003674  0.997285  1
  Al  Al8  1  0.001837  0.003674  0.502715  1
  Al  Al9  1  0.829347  0.658694  0.250000  1
  Al  Al10  1  0.169738  0.821075  0.750000  1
  Ag  Ag11  1  0.167427  0.334852  0.750000  1
