# generated using pymatgen
data_LiY19(Cd3Ir)2
_symmetry_space_group_name_H-M   'P 1'
_cell_length_a   9.63426700
_cell_length_b   9.63426728
_cell_length_c   9.76785000
_cell_angle_alpha   90.00000000
_cell_angle_beta   90.00000000
_cell_angle_gamma   120.00000248
_symmetry_Int_Tables_number   1
_chemical_formula_structural   LiY19(Cd3Ir)2
_chemical_formula_sum   'Li1 Y19 Cd6 Ir2'
_cell_volume   785.17591818
_cell_formula_units_Z   1
loop_
 _symmetry_equiv_pos_site_id
 _symmetry_equiv_pos_as_xyz
  1  'x, y, z'
loop_
 _atom_site_type_symbol
 _atom_site_label
 _atom_site_symmetry_multiplicity
 _atom_site_fract_x
 _atom_site_fract_y
 _atom_site_fract_z
 _atom_site_occupancy
  Li  Li0  1  0.000000  0.000000  0.500000  1
  Y  Y1  1  0.000000  0.000000  0.000000  1
  Y  Y2  1  0.207086  0.792914  0.440314  1
  Y  Y3  1  0.207086  0.414172  0.440314  1
  Y  Y4  1  0.585828  0.792914  0.440314  1
  Y  Y5  1  0.792914  0.207086  0.559686  1
  Y  Y6  1  0.792914  0.585828  0.559686  1
  Y  Y7  1  0.414172  0.207086  0.559686  1
  Y  Y8  1  0.790310  0.209690  0.942281  1
  Y  Y9  1  0.790310  0.580620  0.942281  1
  Y  Y10  1  0.419380  0.209690  0.942281  1
  Y  Y11  1  0.209690  0.790310  0.057719  1
  Y  Y12  1  0.209690  0.419380  0.057719  1
  Y  Y13  1  0.580620  0.790310  0.057719  1
  Y  Y14  1  0.541723  0.458277  0.252291  1
  Y  Y15  1  0.541723  0.083445  0.252291  1
  Y  Y16  1  0.916555  0.458277  0.252291  1
  Y  Y17  1  0.458277  0.541723  0.747709  1
  Y  Y18  1  0.458277  0.916555  0.747709  1
  Y  Y19  1  0.083445  0.541723  0.747709  1
  Cd  Cd20  1  0.888518  0.111482  0.258116  1
  Cd  Cd21  1  0.888518  0.777037  0.258116  1
  Cd  Cd22  1  0.222963  0.111482  0.258116  1
  Cd  Cd23  1  0.111482  0.888518  0.741884  1
  Cd  Cd24  1  0.111482  0.222963  0.741884  1
  Cd  Cd25  1  0.777037  0.888518  0.741884  1
  Ir  Ir26  1  0.333333  0.666667  0.251337  1
  Ir  Ir27  1  0.666667  0.333333  0.748663  1
