# generated using pymatgen
data_DyHoEr2(B6Os)2
_symmetry_space_group_name_H-M   'P 1'
_cell_length_a   3.64023000
_cell_length_b   9.12386601
_cell_length_c   11.50443601
_cell_angle_alpha   89.99577834
_cell_angle_beta   90.00000000
_cell_angle_gamma   90.00000000
_symmetry_Int_Tables_number   1
_chemical_formula_structural   DyHoEr2(B6Os)2
_chemical_formula_sum   'Dy2 Ho2 Er4 B24 Os4'
_cell_volume   382.09649561
_cell_formula_units_Z   2
loop_
 _symmetry_equiv_pos_site_id
 _symmetry_equiv_pos_as_xyz
  1  'x, y, z'
loop_
 _atom_site_type_symbol
 _atom_site_label
 _atom_site_symmetry_multiplicity
 _atom_site_fract_x
 _atom_site_fract_y
 _atom_site_fract_z
 _atom_site_occupancy
  Dy  Dy0  1  0.000000  0.822060  0.086183  1
  Dy  Dy1  1  0.000000  0.177940  0.913817  1
  Ho  Ho2  1  0.000000  0.322017  0.413886  1
  Ho  Ho3  1  0.000000  0.677983  0.586114  1
  Er  Er4  1  0.000000  0.944268  0.373113  1
  Er  Er5  1  0.000000  0.055732  0.626887  1
  Er  Er6  1  0.000000  0.444237  0.127010  1
  Er  Er7  1  0.000000  0.555763  0.872990  1
  B  B8  1  0.500000  0.553984  0.433149  1
  B  B9  1  0.500000  0.446016  0.566851  1
  B  B10  1  0.500000  0.054107  0.067035  1
  B  B11  1  0.500000  0.945893  0.932965  1
  B  B12  1  0.500000  0.748539  0.420071  1
  B  B13  1  0.500000  0.251461  0.579929  1
  B  B14  1  0.500000  0.248626  0.080124  1
  B  B15  1  0.500000  0.751374  0.919876  1
  B  B16  1  0.500000  0.791593  0.266684  1
  B  B17  1  0.500000  0.208407  0.733316  1
  B  B18  1  0.500000  0.291695  0.233499  1
  B  B19  1  0.500000  0.708305  0.766501  1
  B  B20  1  0.500000  0.631665  0.185214  1
  B  B21  1  0.500000  0.368335  0.814786  1
  B  B22  1  0.500000  0.131807  0.314923  1
  B  B23  1  0.500000  0.868193  0.685077  1
  B  B24  1  0.500000  0.983286  0.213355  1
  B  B25  1  0.500000  0.016714  0.786645  1
  B  B26  1  0.500000  0.483094  0.286784  1
  B  B27  1  0.500000  0.516906  0.713216  1
  B  B28  1  0.500000  0.607005  0.029607  1
  B  B29  1  0.500000  0.392995  0.970393  1
  B  B30  1  0.500000  0.107301  0.470307  1
  B  B31  1  0.500000  0.892699  0.529693  1
  Os  Os32  1  0.000000  0.637715  0.321273  1
  Os  Os33  1  0.000000  0.362285  0.678727  1
  Os  Os34  1  0.000000  0.137963  0.179002  1
  Os  Os35  1  0.000000  0.862037  0.820998  1
