# generated using pymatgen
data_Yb2ErGa3Ge2Pt
_symmetry_space_group_name_H-M   'P 1'
_cell_length_a   6.98336439
_cell_length_b   6.98336467
_cell_length_c   4.25736100
_cell_angle_alpha   90.00000000
_cell_angle_beta   90.00000000
_cell_angle_gamma   120.09484752
_symmetry_Int_Tables_number   1
_chemical_formula_structural   Yb2ErGa3Ge2Pt
_chemical_formula_sum   'Yb2 Er1 Ga3 Ge2 Pt1'
_cell_volume   179.63239705
_cell_formula_units_Z   1
loop_
 _symmetry_equiv_pos_site_id
 _symmetry_equiv_pos_as_xyz
  1  'x, y, z'
loop_
 _atom_site_type_symbol
 _atom_site_label
 _atom_site_symmetry_multiplicity
 _atom_site_fract_x
 _atom_site_fract_y
 _atom_site_fract_z
 _atom_site_occupancy
  Yb  Yb0  1  0.416274  0.000500  0.000000  1
  Yb  Yb1  1  0.000500  0.416273  0.000000  1
  Er  Er2  1  0.585040  0.585041  0.000000  1
  Ga  Ga3  1  0.762289  0.000384  0.500001  1
  Ga  Ga4  1  0.237518  0.237518  0.500001  1
  Ga  Ga5  1  0.000384  0.762290  0.500001  1
  Ge  Ge6  1  0.665839  0.337619  0.500001  1
  Ge  Ge7  1  0.337619  0.665839  0.500001  1
  Pt  Pt8  1  0.994535  0.994535  0.000000  1
