# generated using pymatgen
data_Cs6TlTe4F
_symmetry_space_group_name_H-M   'P 1'
_cell_length_a   12.10899100
_cell_length_b   12.10899141
_cell_length_c   8.42736000
_cell_angle_alpha   90.00000000
_cell_angle_beta   90.00000000
_cell_angle_gamma   120.00000162
_symmetry_Int_Tables_number   1
_chemical_formula_structural   Cs6TlTe4F
_chemical_formula_sum   'Cs12 Tl2 Te8 F2'
_cell_volume   1070.13384206
_cell_formula_units_Z   2
loop_
 _symmetry_equiv_pos_site_id
 _symmetry_equiv_pos_as_xyz
  1  'x, y, z'
loop_
 _atom_site_type_symbol
 _atom_site_label
 _atom_site_symmetry_multiplicity
 _atom_site_fract_x
 _atom_site_fract_y
 _atom_site_fract_z
 _atom_site_occupancy
  Cs  Cs0  1  0.112039  0.887961  0.510473  1
  Cs  Cs1  1  0.775922  0.887961  0.510473  1
  Cs  Cs2  1  0.958947  0.479474  0.317839  1
  Cs  Cs3  1  0.520526  0.479474  0.317839  1
  Cs  Cs4  1  0.887961  0.775922  0.010473  1
  Cs  Cs5  1  0.224078  0.112039  0.010473  1
  Cs  Cs6  1  0.520526  0.041053  0.317839  1
  Cs  Cs7  1  0.112039  0.224078  0.510473  1
  Cs  Cs8  1  0.887961  0.112039  0.010473  1
  Cs  Cs9  1  0.041053  0.520526  0.817839  1
  Cs  Cs10  1  0.479474  0.958947  0.817839  1
  Cs  Cs11  1  0.479474  0.520526  0.817839  1
  Tl  Tl12  1  0.666667  0.333333  0.708409  1
  Tl  Tl13  1  0.333333  0.666667  0.208409  1
  Te  Te14  1  0.402225  0.201113  0.603642  1
  Te  Te15  1  0.597775  0.798887  0.103642  1
  Te  Te16  1  0.666667  0.333333  0.048208  1
  Te  Te17  1  0.798887  0.597775  0.603642  1
  Te  Te18  1  0.201113  0.402225  0.103642  1
  Te  Te19  1  0.333333  0.666667  0.548208  1
  Te  Te20  1  0.201113  0.798887  0.103642  1
  Te  Te21  1  0.798887  0.201113  0.603642  1
  F  F22  1  0.000000  0.000000  0.288123  1
  F  F23  1  0.000000  0.000000  0.788123  1
