# generated using pymatgen
data_SmNb3(NiH6)2
_symmetry_space_group_name_H-M   'P 1'
_cell_length_a   5.99377701
_cell_length_b   5.99298168
_cell_length_c   4.61304500
_cell_angle_alpha   90.00000000
_cell_angle_beta   90.00000000
_cell_angle_gamma   120.00575262
_symmetry_Int_Tables_number   1
_chemical_formula_structural   SmNb3(NiH6)2
_chemical_formula_sum   'Sm1 Nb3 Ni2 H12'
_cell_volume   143.49496959
_cell_formula_units_Z   1
loop_
 _symmetry_equiv_pos_site_id
 _symmetry_equiv_pos_as_xyz
  1  'x, y, z'
loop_
 _atom_site_type_symbol
 _atom_site_label
 _atom_site_symmetry_multiplicity
 _atom_site_fract_x
 _atom_site_fract_y
 _atom_site_fract_z
 _atom_site_occupancy
  Sm  Sm0  1  0.000000  0.000000  0.000000  1
  Nb  Nb1  1  0.500000  0.000000  0.500000  1
  Nb  Nb2  1  0.000000  0.500000  0.500000  1
  Nb  Nb3  1  0.500000  0.500000  0.500000  1
  Ni  Ni4  1  0.666704  0.333433  0.000000  1
  Ni  Ni5  1  0.333296  0.666567  0.000000  1
  H  H6  1  0.795669  0.591260  0.761697  1
  H  H7  1  0.204331  0.408740  0.238303  1
  H  H8  1  0.204373  0.795563  0.238251  1
  H  H9  1  0.795627  0.204437  0.238251  1
  H  H10  1  0.591155  0.795584  0.238196  1
  H  H11  1  0.408845  0.204416  0.238196  1
  H  H12  1  0.408845  0.204416  0.761804  1
  H  H13  1  0.204331  0.408740  0.761697  1
  H  H14  1  0.795627  0.204437  0.761749  1
  H  H15  1  0.591155  0.795584  0.761804  1
  H  H16  1  0.795669  0.591260  0.238303  1
  H  H17  1  0.204373  0.795563  0.761749  1
