# generated using pymatgen
data_EuTi(PO3)6
_symmetry_space_group_name_H-M   'P 1'
_cell_length_a   6.91434200
_cell_length_b   6.91434265
_cell_length_c   10.57361200
_cell_angle_alpha   90.00000000
_cell_angle_beta   90.00000000
_cell_angle_gamma   120.00000644
_symmetry_Int_Tables_number   1
_chemical_formula_structural   EuTi(PO3)6
_chemical_formula_sum   'Eu1 Ti1 P6 O18'
_cell_volume   437.77980999
_cell_formula_units_Z   1
loop_
 _symmetry_equiv_pos_site_id
 _symmetry_equiv_pos_as_xyz
  1  'x, y, z'
loop_
 _atom_site_type_symbol
 _atom_site_label
 _atom_site_symmetry_multiplicity
 _atom_site_fract_x
 _atom_site_fract_y
 _atom_site_fract_z
 _atom_site_occupancy
  Eu  Eu0  1  0.000000  0.000000  0.500000  1
  Ti  Ti1  1  0.000000  0.000000  0.000000  1
  P  P2  1  0.737843  0.130036  0.779586  1
  P  P3  1  0.869964  0.262157  0.220414  1
  P  P4  1  0.737843  0.607807  0.220414  1
  P  P5  1  0.869964  0.607807  0.779586  1
  P  P6  1  0.392193  0.262157  0.779586  1
  P  P7  1  0.392193  0.130036  0.220414  1
  O  O8  1  0.901099  0.506309  0.197853  1
  O  O9  1  0.901099  0.394790  0.802147  1
  O  O10  1  0.493691  0.098901  0.802147  1
  O  O11  1  0.605210  0.098901  0.197853  1
  O  O12  1  0.764096  0.063265  0.649852  1
  O  O13  1  0.773076  0.011451  0.890356  1
  O  O14  1  0.493691  0.394790  0.197853  1
  O  O15  1  0.764096  0.700832  0.350148  1
  O  O16  1  0.773076  0.761626  0.109644  1
  O  O17  1  0.605210  0.506309  0.802147  1
  O  O18  1  0.936735  0.235904  0.350148  1
  O  O19  1  0.988549  0.226924  0.109644  1
  O  O20  1  0.238374  0.226924  0.890356  1
  O  O21  1  0.299168  0.235904  0.649852  1
  O  O22  1  0.988549  0.761626  0.890356  1
  O  O23  1  0.936735  0.700832  0.649852  1
  O  O24  1  0.238374  0.011451  0.109644  1
  O  O25  1  0.299168  0.063265  0.350148  1
