# generated using pymatgen
data_ScTi3Co7Si6
_symmetry_space_group_name_H-M   'P 1'
_cell_length_a   6.53111453
_cell_length_b   6.53111450
_cell_length_c   6.51094900
_cell_angle_alpha   109.40869293
_cell_angle_beta   109.40869283
_cell_angle_gamma   109.53367611
_symmetry_Int_Tables_number   1
_chemical_formula_structural   ScTi3Co7Si6
_chemical_formula_sum   'Sc1 Ti3 Co7 Si6'
_cell_volume   213.95948897
_cell_formula_units_Z   1
loop_
 _symmetry_equiv_pos_site_id
 _symmetry_equiv_pos_as_xyz
  1  'x, y, z'
loop_
 _atom_site_type_symbol
 _atom_site_label
 _atom_site_symmetry_multiplicity
 _atom_site_fract_x
 _atom_site_fract_y
 _atom_site_fract_z
 _atom_site_occupancy
  Sc  Sc0  1  0.000000  0.000000  0.500000  1
  Ti  Ti1  1  0.500000  0.000000  0.000000  1
  Ti  Ti2  1  0.000000  0.500000  0.000000  1
  Ti  Ti3  1  0.500000  0.500000  0.500000  1
  Co  Co4  1  0.494939  0.747469  0.247469  1
  Co  Co5  1  0.747469  0.494939  0.247469  1
  Co  Co6  1  0.252531  0.747469  0.500000  1
  Co  Co7  1  0.252531  0.505061  0.752531  1
  Co  Co8  1  0.505061  0.252531  0.752531  1
  Co  Co9  1  0.747469  0.252531  0.500000  1
  Co  Co10  1  0.000000  0.000000  0.000000  1
  Si  Si11  1  0.000000  0.320116  0.317321  1
  Si  Si12  1  0.679884  0.000000  0.682679  1
  Si  Si13  1  0.679884  0.679884  0.997205  1
  Si  Si14  1  0.000000  0.679884  0.682679  1
  Si  Si15  1  0.320116  0.000000  0.317321  1
  Si  Si16  1  0.320116  0.320116  0.002795  1
