# generated using pymatgen
data_Li4La3Y(Si2Pb)2
_symmetry_space_group_name_H-M   'P 1'
_cell_length_a   9.92073649
_cell_length_b   9.92053444
_cell_length_c   6.91983700
_cell_angle_alpha   90.00000000
_cell_angle_beta   90.00000000
_cell_angle_gamma   153.13188967
_symmetry_Int_Tables_number   1
_chemical_formula_structural   Li4La3Y(Si2Pb)2
_chemical_formula_sum   'Li4 La3 Y1 Si4 Pb2'
_cell_volume   307.78962686
_cell_formula_units_Z   1
loop_
 _symmetry_equiv_pos_site_id
 _symmetry_equiv_pos_as_xyz
  1  'x, y, z'
loop_
 _atom_site_type_symbol
 _atom_site_label
 _atom_site_symmetry_multiplicity
 _atom_site_fract_x
 _atom_site_fract_y
 _atom_site_fract_z
 _atom_site_occupancy
  Li  Li0  1  0.817949  0.182086  0.445028  1
  Li  Li1  1  0.181141  0.818857  0.557525  1
  Li  Li2  1  0.817949  0.182086  0.054972  1
  Li  Li3  1  0.181141  0.818857  0.942475  1
  La  La4  1  0.453993  0.546323  0.250000  1
  La  La5  1  0.350046  0.649884  0.750000  1
  La  La6  1  0.650414  0.349471  0.250000  1
  Y  Y7  1  0.546053  0.454128  0.750000  1
  Si  Si8  1  0.945218  0.054908  0.923644  1
  Si  Si9  1  0.057187  0.942965  0.072458  1
  Si  Si10  1  0.945218  0.054908  0.576356  1
  Si  Si11  1  0.057187  0.942965  0.427542  1
  Pb  Pb12  1  0.716345  0.282914  0.750000  1
  Pb  Pb13  1  0.280157  0.719647  0.250000  1
