# generated using pymatgen
data_Cd2In9AgIr4
_symmetry_space_group_name_H-M   'P 1'
_cell_length_a   7.19833877
_cell_length_b   7.13932954
_cell_length_c   7.13453100
_cell_angle_alpha   90.00000000
_cell_angle_beta   90.00000000
_cell_angle_gamma   90.14122693
_symmetry_Int_Tables_number   1
_chemical_formula_structural   Cd2In9AgIr4
_chemical_formula_sum   'Cd2 In9 Ag1 Ir4'
_cell_volume   366.65179901
_cell_formula_units_Z   1
loop_
 _symmetry_equiv_pos_site_id
 _symmetry_equiv_pos_as_xyz
  1  'x, y, z'
loop_
 _atom_site_type_symbol
 _atom_site_label
 _atom_site_symmetry_multiplicity
 _atom_site_fract_x
 _atom_site_fract_y
 _atom_site_fract_z
 _atom_site_occupancy
  Cd  Cd0  1  0.000000  0.500000  0.000000  1
  Cd  Cd1  1  0.500000  0.000000  0.000000  1
  In  In2  1  0.326180  0.349221  0.266738  1
  In  In3  1  0.155002  0.833671  0.763888  1
  In  In4  1  0.155002  0.833671  0.236112  1
  In  In5  1  0.844998  0.166329  0.236112  1
  In  In6  1  0.844998  0.166329  0.763888  1
  In  In7  1  0.673820  0.650779  0.266738  1
  In  In8  1  0.673820  0.650779  0.733262  1
  In  In9  1  0.326180  0.349221  0.733262  1
  In  In10  1  0.500000  0.000000  0.500000  1
  Ag  Ag11  1  0.000000  0.500000  0.500000  1
  Ir  Ir12  1  0.151893  0.149735  0.000000  1
  Ir  Ir13  1  0.641611  0.339944  0.500000  1
  Ir  Ir14  1  0.358389  0.660056  0.500000  1
  Ir  Ir15  1  0.848107  0.850265  0.000000  1
