# generated using pymatgen
data_Pu2CrB8Ir
_symmetry_space_group_name_H-M   'P 1'
_cell_length_a   3.49911900
_cell_length_b   5.96535732
_cell_length_c   11.58838102
_cell_angle_alpha   89.73978744
_cell_angle_beta   90.00000000
_cell_angle_gamma   90.00000000
_symmetry_Int_Tables_number   1
_chemical_formula_structural   Pu2CrB8Ir
_chemical_formula_sum   'Pu4 Cr2 B16 Ir2'
_cell_volume   241.88752050
_cell_formula_units_Z   2
loop_
 _symmetry_equiv_pos_site_id
 _symmetry_equiv_pos_as_xyz
  1  'x, y, z'
loop_
 _atom_site_type_symbol
 _atom_site_label
 _atom_site_symmetry_multiplicity
 _atom_site_fract_x
 _atom_site_fract_y
 _atom_site_fract_z
 _atom_site_occupancy
  Pu  Pu0  1  0.000000  0.625068  0.353086  1
  Pu  Pu1  1  0.000000  0.374932  0.646914  1
  Pu  Pu2  1  0.000000  0.128769  0.153370  1
  Pu  Pu3  1  0.000000  0.871231  0.846630  1
  Cr  Cr4  1  0.000000  0.124121  0.417358  1
  Cr  Cr5  1  0.000000  0.875879  0.582642  1
  B  B6  1  0.500000  0.786749  0.190564  1
  B  B7  1  0.500000  0.213251  0.809436  1
  B  B8  1  0.500000  0.282401  0.317178  1
  B  B9  1  0.500000  0.717599  0.682822  1
  B  B10  1  0.500000  0.865455  0.030985  1
  B  B11  1  0.500000  0.134545  0.969015  1
  B  B12  1  0.500000  0.362156  0.467194  1
  B  B13  1  0.500000  0.637844  0.532806  1
  B  B14  1  0.500000  0.886727  0.454514  1
  B  B15  1  0.500000  0.113273  0.545486  1
  B  B16  1  0.500000  0.385251  0.048624  1
  B  B17  1  0.500000  0.614749  0.951376  1
  B  B18  1  0.500000  0.977115  0.311218  1
  B  B19  1  0.500000  0.022885  0.688782  1
  B  B20  1  0.500000  0.473097  0.195383  1
  B  B21  1  0.500000  0.526903  0.804617  1
  Ir  Ir22  1  0.000000  0.641386  0.094101  1
  Ir  Ir23  1  0.000000  0.358614  0.905899  1
