# generated using pymatgen
data_Na2Cr(Co3As2)3
_symmetry_space_group_name_H-M   'P 1'
_cell_length_a   3.73518200
_cell_length_b   10.70054900
_cell_length_c   12.32649200
_cell_angle_alpha   90.00000000
_cell_angle_beta   90.00000000
_cell_angle_gamma   90.00000000
_symmetry_Int_Tables_number   1
_chemical_formula_structural   Na2Cr(Co3As2)3
_chemical_formula_sum   'Na4 Cr2 Co18 As12'
_cell_volume   492.67137103
_cell_formula_units_Z   2
loop_
 _symmetry_equiv_pos_site_id
 _symmetry_equiv_pos_as_xyz
  1  'x, y, z'
loop_
 _atom_site_type_symbol
 _atom_site_label
 _atom_site_symmetry_multiplicity
 _atom_site_fract_x
 _atom_site_fract_y
 _atom_site_fract_z
 _atom_site_occupancy
  Na  Na0  1  0.250000  0.578782  0.704176  1
  Na  Na1  1  0.250000  0.921218  0.204176  1
  Na  Na2  1  0.750000  0.418202  0.292850  1
  Na  Na3  1  0.750000  0.081798  0.792850  1
  Cr  Cr4  1  0.250000  0.706085  0.988180  1
  Cr  Cr5  1  0.250000  0.793915  0.488180  1
  Co  Co6  1  0.750000  0.291234  0.012028  1
  Co  Co7  1  0.750000  0.208766  0.512028  1
  Co  Co8  1  0.250000  0.405243  0.491304  1
  Co  Co9  1  0.250000  0.094757  0.991304  1
  Co  Co10  1  0.750000  0.592074  0.511228  1
  Co  Co11  1  0.750000  0.907926  0.011228  1
  Co  Co12  1  0.250000  0.215556  0.177134  1
  Co  Co13  1  0.250000  0.284444  0.677134  1
  Co  Co14  1  0.750000  0.786467  0.827002  1
  Co  Co15  1  0.750000  0.713533  0.327002  1
  Co  Co16  1  0.250000  0.881593  0.695832  1
  Co  Co17  1  0.250000  0.618407  0.195832  1
  Co  Co18  1  0.750000  0.121824  0.303820  1
  Co  Co19  1  0.750000  0.378176  0.803820  1
  Co  Co20  1  0.250000  0.463126  0.932943  1
  Co  Co21  1  0.250000  0.036874  0.432943  1
  Co  Co22  1  0.750000  0.535423  0.064146  1
  Co  Co23  1  0.750000  0.964577  0.564146  1
  As  As24  1  0.250000  0.416796  0.114578  1
  As  As25  1  0.250000  0.083204  0.614578  1
  As  As26  1  0.750000  0.580499  0.881096  1
  As  As27  1  0.750000  0.919501  0.381096  1
  As  As28  1  0.250000  0.262698  0.868278  1
  As  As29  1  0.250000  0.237302  0.368278  1
  As  As30  1  0.750000  0.735794  0.136583  1
  As  As31  1  0.750000  0.764206  0.636583  1
  As  As32  1  0.250000  0.590986  0.387274  1
  As  As33  1  0.250000  0.909014  0.887274  1
  As  As34  1  0.750000  0.400161  0.611547  1
  As  As35  1  0.750000  0.099839  0.111547  1
