# generated using pymatgen
data_LaPr9(Si5I3)2
_symmetry_space_group_name_H-M   'P 1'
_cell_length_a   12.21748990
_cell_length_b   12.21748898
_cell_length_c   15.75333858
_cell_angle_alpha   69.70994177
_cell_angle_beta   69.70994264
_cell_angle_gamma   19.73984125
_symmetry_Int_Tables_number   1
_chemical_formula_structural   LaPr9(Si5I3)2
_chemical_formula_sum   'La1 Pr9 Si10 I6'
_cell_volume   743.37956107
_cell_formula_units_Z   1
loop_
 _symmetry_equiv_pos_site_id
 _symmetry_equiv_pos_as_xyz
  1  'x, y, z'
loop_
 _atom_site_type_symbol
 _atom_site_label
 _atom_site_symmetry_multiplicity
 _atom_site_fract_x
 _atom_site_fract_y
 _atom_site_fract_z
 _atom_site_occupancy
  La  La0  1  0.262513  0.262513  0.331357  1
  Pr  Pr1  1  0.337450  0.337450  0.057897  1
  Pr  Pr2  1  0.914613  0.914613  0.564092  1
  Pr  Pr3  1  0.085354  0.085354  0.435808  1
  Pr  Pr4  1  0.017345  0.017345  0.709751  1
  Pr  Pr5  1  0.982627  0.982627  0.290380  1
  Pr  Pr6  1  0.835160  0.835160  0.832806  1
  Pr  Pr7  1  0.737916  0.737916  0.669978  1
  Pr  Pr8  1  0.662450  0.662450  0.941655  1
  Pr  Pr9  1  0.164627  0.164627  0.166762  1
  Si  Si10  1  0.508319  0.508319  0.572897  1
  Si  Si11  1  0.423601  0.423601  0.707376  1
  Si  Si12  1  0.491554  0.491554  0.427196  1
  Si  Si13  1  0.749368  0.749368  0.039755  1
  Si  Si14  1  0.670968  0.670968  0.318796  1
  Si  Si15  1  0.240734  0.240734  0.808995  1
  Si  Si16  1  0.759030  0.759030  0.190660  1
  Si  Si17  1  0.328772  0.328772  0.680631  1
  Si  Si18  1  0.576152  0.576152  0.292623  1
  Si  Si19  1  0.250519  0.250519  0.960067  1
  I  I20  1  0.590985  0.590985  0.794845  1
  I  I21  1  0.061491  0.061491  0.067072  1
  I  I22  1  0.938499  0.938499  0.932787  1
  I  I23  1  0.827569  0.827569  0.438081  1
  I  I24  1  0.409525  0.409525  0.204506  1
  I  I25  1  0.172860  0.172860  0.563228  1
