# generated using pymatgen
data_Tm12Mn(Si4Pt)3
_symmetry_space_group_name_H-M   'P 1'
_cell_length_a   4.19419700
_cell_length_b   10.62088401
_cell_length_c   12.18830501
_cell_angle_alpha   90.00385448
_cell_angle_beta   90.00000000
_cell_angle_gamma   90.00000000
_symmetry_Int_Tables_number   1
_chemical_formula_structural   Tm12Mn(Si4Pt)3
_chemical_formula_sum   'Tm12 Mn1 Si12 Pt3'
_cell_volume   542.94120667
_cell_formula_units_Z   1
loop_
 _symmetry_equiv_pos_site_id
 _symmetry_equiv_pos_as_xyz
  1  'x, y, z'
loop_
 _atom_site_type_symbol
 _atom_site_label
 _atom_site_symmetry_multiplicity
 _atom_site_fract_x
 _atom_site_fract_y
 _atom_site_fract_z
 _atom_site_occupancy
  Tm  Tm0  1  0.250000  0.877582  0.020632  1
  Tm  Tm1  1  0.250000  0.621634  0.522280  1
  Tm  Tm2  1  0.750000  0.121038  0.979835  1
  Tm  Tm3  1  0.750000  0.377389  0.478756  1
  Tm  Tm4  1  0.250000  0.920676  0.601375  1
  Tm  Tm5  1  0.250000  0.580279  0.102611  1
  Tm  Tm6  1  0.750000  0.079057  0.397654  1
  Tm  Tm7  1  0.750000  0.420768  0.899326  1
  Tm  Tm8  1  0.250000  0.661089  0.800060  1
  Tm  Tm9  1  0.250000  0.839212  0.300796  1
  Tm  Tm10  1  0.750000  0.339894  0.198310  1
  Tm  Tm11  1  0.750000  0.159528  0.698831  1
  Mn  Mn12  1  0.250000  0.388587  0.680229  1
  Si  Si13  1  0.250000  0.016571  0.823769  1
  Si  Si14  1  0.250000  0.483678  0.323191  1
  Si  Si15  1  0.750000  0.983216  0.176436  1
  Si  Si16  1  0.750000  0.515236  0.677197  1
  Si  Si17  1  0.250000  0.248087  0.841938  1
  Si  Si18  1  0.250000  0.253885  0.343618  1
  Si  Si19  1  0.750000  0.753930  0.156616  1
  Si  Si20  1  0.750000  0.748226  0.656162  1
  Si  Si21  1  0.250000  0.195318  0.541915  1
  Si  Si22  1  0.250000  0.304790  0.040816  1
  Si  Si23  1  0.750000  0.806832  0.458497  1
  Si  Si24  1  0.750000  0.693135  0.958622  1
  Pt  Pt25  1  0.250000  0.110956  0.180642  1
  Pt  Pt26  1  0.750000  0.610592  0.320037  1
  Pt  Pt27  1  0.750000  0.888815  0.819849  1
