# generated using pymatgen
data_Yb2ErGa9Pd2
_symmetry_space_group_name_H-M   'P 1'
_cell_length_a   8.13417347
_cell_length_b   8.13417349
_cell_length_c   8.13417263
_cell_angle_alpha   148.87353217
_cell_angle_beta   108.30100407
_cell_angle_gamma   80.21000147
_symmetry_Int_Tables_number   1
_chemical_formula_structural   Yb2ErGa9Pd2
_chemical_formula_sum   'Yb2 Er1 Ga9 Pd2'
_cell_volume   258.73355526
_cell_formula_units_Z   1
loop_
 _symmetry_equiv_pos_site_id
 _symmetry_equiv_pos_as_xyz
  1  'x, y, z'
loop_
 _atom_site_type_symbol
 _atom_site_label
 _atom_site_symmetry_multiplicity
 _atom_site_fract_x
 _atom_site_fract_y
 _atom_site_fract_z
 _atom_site_occupancy
  Yb  Yb0  1  0.500146  0.500146  0.000000  1
  Yb  Yb1  1  0.798209  0.798209  0.000000  1
  Er  Er2  1  0.202750  0.202750  0.000000  1
  Ga  Ga3  1  0.080562  0.361162  0.719400  1
  Ga  Ga4  1  0.918081  0.637490  0.280590  1
  Ga  Ga5  1  0.641764  0.361162  0.280600  1
  Ga  Ga6  1  0.356899  0.637490  0.719410  1
  Ga  Ga7  1  0.793485  0.157490  0.635995  1
  Ga  Ga8  1  0.208957  0.843535  0.365422  1
  Ga  Ga9  1  0.521494  0.157490  0.364005  1
  Ga  Ga10  1  0.478114  0.843535  0.634578  1
  Ga  Ga11  1  0.000041  0.500041  0.500000  1
  Pd  Pd12  1  0.821063  0.999749  0.821314  1
  Pd  Pd13  1  0.178436  0.999749  0.178686  1
