# generated using pymatgen
data_ScTa4Nb5N12
_symmetry_space_group_name_H-M   'P 1'
_cell_length_a   5.25840007
_cell_length_b   5.27032125
_cell_length_c   10.41738199
_cell_angle_alpha   89.95414733
_cell_angle_beta   90.03974493
_cell_angle_gamma   120.04224281
_symmetry_Int_Tables_number   1
_chemical_formula_structural   ScTa4Nb5N12
_chemical_formula_sum   'Sc1 Ta4 Nb5 N12'
_cell_volume   249.91639500
_cell_formula_units_Z   1
loop_
 _symmetry_equiv_pos_site_id
 _symmetry_equiv_pos_as_xyz
  1  'x, y, z'
loop_
 _atom_site_type_symbol
 _atom_site_label
 _atom_site_symmetry_multiplicity
 _atom_site_fract_x
 _atom_site_fract_y
 _atom_site_fract_z
 _atom_site_occupancy
  Sc  Sc0  1  0.665397  0.331752  0.000161  1
  Ta  Ta1  1  0.998078  0.676591  0.250768  1
  Ta  Ta2  1  0.334685  0.666600  0.999760  1
  Ta  Ta3  1  0.334895  0.667047  0.499622  1
  Ta  Ta4  1  0.665197  0.332111  0.499698  1
  Nb  Nb5  1  0.677660  0.676124  0.748548  1
  Nb  Nb6  1  0.323872  0.001798  0.748484  1
  Nb  Nb7  1  0.998299  0.322827  0.748618  1
  Nb  Nb8  1  0.324119  0.322503  0.251893  1
  Nb  Nb9  1  0.677304  0.001433  0.251906  1
  N  N10  1  0.662901  0.659397  0.381641  1
  N  N11  1  0.336807  0.996042  0.381545  1
  N  N12  1  0.000044  0.346180  0.380833  1
  N  N13  1  0.341332  0.341510  0.618060  1
  N  N14  1  0.658425  0.999882  0.618082  1
  N  N15  1  0.000089  0.657336  0.618159  1
  N  N16  1  0.340980  0.349398  0.876163  1
  N  N17  1  0.650773  0.991831  0.876139  1
  N  N18  1  0.008642  0.658310  0.875916  1
  N  N19  1  0.654846  0.658847  0.124448  1
  N  N20  1  0.337259  0.987830  0.124478  1
  N  N21  1  0.008398  0.354651  0.125079  1
