# generated using pymatgen
data_Ho3Er5Ti12Si15Sn
_symmetry_space_group_name_H-M   'P 1'
_cell_length_a   7.09144582
_cell_length_b   7.05456333
_cell_length_c   12.98030503
_cell_angle_alpha   89.99083753
_cell_angle_beta   89.73766167
_cell_angle_gamma   89.92511519
_symmetry_Int_Tables_number   1
_chemical_formula_structural   Ho3Er5Ti12Si15Sn
_chemical_formula_sum   'Ho3 Er5 Ti12 Si15 Sn1'
_cell_volume   649.35904700
_cell_formula_units_Z   1
loop_
 _symmetry_equiv_pos_site_id
 _symmetry_equiv_pos_as_xyz
  1  'x, y, z'
loop_
 _atom_site_type_symbol
 _atom_site_label
 _atom_site_symmetry_multiplicity
 _atom_site_fract_x
 _atom_site_fract_y
 _atom_site_fract_z
 _atom_site_occupancy
  Ho  Ho0  1  0.342751  0.999044  0.461331  1
  Ho  Ho1  1  0.505774  0.834967  0.718272  1
  Ho  Ho2  1  0.502410  0.159946  0.216843  1
  Er  Er3  1  0.840953  0.496998  0.282215  1
  Er  Er4  1  0.159388  0.509945  0.786132  1
  Er  Er5  1  0.661866  0.996602  0.968896  1
  Er  Er6  1  0.991843  0.348557  0.527448  1
  Er  Er7  1  0.999747  0.659241  0.034018  1
  Ti  Ti8  1  0.326545  0.326590  0.001230  1
  Ti  Ti9  1  0.173766  0.825905  0.249600  1
  Ti  Ti10  1  0.816731  0.175105  0.752016  1
  Ti  Ti11  1  0.672318  0.673086  0.499441  1
  Ti  Ti12  1  0.152572  0.007864  0.883379  1
  Ti  Ti13  1  0.492854  0.649726  0.126790  1
  Ti  Ti14  1  0.514835  0.354468  0.626523  1
  Ti  Ti15  1  0.654131  0.493471  0.875866  1
  Ti  Ti16  1  0.347299  0.509146  0.372738  1
  Ti  Ti17  1  0.846844  0.992732  0.375529  1
  Ti  Ti18  1  0.009811  0.150894  0.123365  1
  Ti  Ti19  1  0.979104  0.835825  0.618641  1
  Si  Si20  1  0.371089  0.703102  0.935672  1
  Si  Si21  1  0.628092  0.297415  0.432460  1
  Si  Si22  1  0.704750  0.369011  0.067056  1
  Si  Si23  1  0.295897  0.631023  0.565922  1
  Si  Si24  1  0.797580  0.868979  0.183763  1
  Si  Si25  1  0.129898  0.202914  0.315196  1
  Si  Si26  1  0.870740  0.799917  0.816559  1
  Si  Si27  1  0.293666  0.951818  0.066924  1
  Si  Si28  1  0.549438  0.789441  0.313541  1
  Si  Si29  1  0.459444  0.210090  0.820238  1
  Si  Si30  1  0.794260  0.544544  0.686933  1
  Si  Si31  1  0.208775  0.452770  0.185101  1
  Si  Si32  1  0.705735  0.048685  0.564383  1
  Si  Si33  1  0.952964  0.292160  0.935306  1
  Si  Si34  1  0.047035  0.710320  0.432538  1
  Sn  Sn35  1  0.199093  0.127702  0.678134  1
