# generated using pymatgen
data_Er8Ti11Si16W
_symmetry_space_group_name_H-M   'P 1'
_cell_length_a   7.00259006
_cell_length_b   7.00258993
_cell_length_c   12.87129331
_cell_angle_alpha   89.98234081
_cell_angle_beta   90.01765891
_cell_angle_gamma   90.06829181
_symmetry_Int_Tables_number   1
_chemical_formula_structural   Er8Ti11Si16W
_chemical_formula_sum   'Er8 Ti11 Si16 W1'
_cell_volume   631.15966286
_cell_formula_units_Z   1
loop_
 _symmetry_equiv_pos_site_id
 _symmetry_equiv_pos_as_xyz
  1  'x, y, z'
loop_
 _atom_site_type_symbol
 _atom_site_label
 _atom_site_symmetry_multiplicity
 _atom_site_fract_x
 _atom_site_fract_y
 _atom_site_fract_z
 _atom_site_occupancy
  Er  Er0  1  0.341023  0.002673  0.467025  1
  Er  Er1  1  0.497603  0.840397  0.717442  1
  Er  Er2  1  0.500715  0.159104  0.215496  1
  Er  Er3  1  0.840397  0.497603  0.282558  1
  Er  Er4  1  0.159104  0.500715  0.784504  1
  Er  Er5  1  0.657637  0.998850  0.967146  1
  Er  Er6  1  0.002673  0.341023  0.532975  1
  Er  Er7  1  0.998850  0.657637  0.032854  1
  Ti  Ti8  1  0.173889  0.827401  0.249475  1
  Ti  Ti9  1  0.827401  0.173889  0.750525  1
  Ti  Ti10  1  0.672907  0.672907  0.500000  1
  Ti  Ti11  1  0.153330  0.008610  0.876254  1
  Ti  Ti12  1  0.492166  0.650977  0.124047  1
  Ti  Ti13  1  0.506882  0.349275  0.626026  1
  Ti  Ti14  1  0.650977  0.492166  0.875953  1
  Ti  Ti15  1  0.349275  0.506882  0.373974  1
  Ti  Ti16  1  0.848573  0.992771  0.375416  1
  Ti  Ti17  1  0.008610  0.153330  0.123746  1
  Ti  Ti18  1  0.992771  0.848573  0.624584  1
  Si  Si19  1  0.202765  0.131212  0.683784  1
  Si  Si20  1  0.369141  0.701430  0.933609  1
  Si  Si21  1  0.631224  0.296982  0.433597  1
  Si  Si22  1  0.701430  0.369141  0.066391  1
  Si  Si23  1  0.296982  0.631224  0.566403  1
  Si  Si24  1  0.797161  0.868808  0.183610  1
  Si  Si25  1  0.131212  0.202765  0.316216  1
  Si  Si26  1  0.868808  0.797161  0.816390  1
  Si  Si27  1  0.291078  0.954021  0.064595  1
  Si  Si28  1  0.546331  0.791998  0.314676  1
  Si  Si29  1  0.452808  0.208143  0.815440  1
  Si  Si30  1  0.791998  0.546331  0.685324  1
  Si  Si31  1  0.208143  0.452808  0.184560  1
  Si  Si32  1  0.708451  0.047136  0.564856  1
  Si  Si33  1  0.954021  0.291078  0.935405  1
  Si  Si34  1  0.047136  0.708451  0.435144  1
  W  W35  1  0.326528  0.326528  0.000000  1
