# generated using pymatgen
data_Ca3YIr8
_symmetry_space_group_name_H-M   'P 1'
_cell_length_a   5.35771400
_cell_length_b   5.35771363
_cell_length_c   8.75103400
_cell_angle_alpha   90.00000000
_cell_angle_beta   90.00000000
_cell_angle_gamma   120.00000230
_symmetry_Int_Tables_number   1
_chemical_formula_structural   Ca3YIr8
_chemical_formula_sum   'Ca3 Y1 Ir8'
_cell_volume   217.54495504
_cell_formula_units_Z   1
loop_
 _symmetry_equiv_pos_site_id
 _symmetry_equiv_pos_as_xyz
  1  'x, y, z'
loop_
 _atom_site_type_symbol
 _atom_site_label
 _atom_site_symmetry_multiplicity
 _atom_site_fract_x
 _atom_site_fract_y
 _atom_site_fract_z
 _atom_site_occupancy
  Ca  Ca0  1  0.333334  0.666667  0.437140  1
  Ca  Ca1  1  0.666666  0.333334  0.568321  1
  Ca  Ca2  1  0.666666  0.333334  0.927815  1
  Y  Y3  1  0.333334  0.666667  0.069175  1
  Ir  Ir4  1  0.000000  0.000000  0.999063  1
  Ir  Ir5  1  0.341047  0.170524  0.248440  1
  Ir  Ir6  1  0.829476  0.170524  0.248440  1
  Ir  Ir7  1  0.829476  0.658952  0.248440  1
  Ir  Ir8  1  0.000000  0.000000  0.499760  1
  Ir  Ir9  1  0.170334  0.340669  0.751137  1
  Ir  Ir10  1  0.170335  0.829665  0.751137  1
  Ir  Ir11  1  0.659329  0.829665  0.751137  1
