# generated using pymatgen
data_Dy16In2Ag2Ir3Ru
_symmetry_space_group_name_H-M   'P 1'
_cell_length_a   9.61432722
_cell_length_b   9.61432850
_cell_length_c   9.62642044
_cell_angle_alpha   59.81419053
_cell_angle_beta   59.81418635
_cell_angle_gamma   59.87202159
_symmetry_Int_Tables_number   1
_chemical_formula_structural   Dy16In2Ag2Ir3Ru
_chemical_formula_sum   'Dy16 In2 Ag2 Ir3 Ru1'
_cell_volume   626.81991448
_cell_formula_units_Z   1
loop_
 _symmetry_equiv_pos_site_id
 _symmetry_equiv_pos_as_xyz
  1  'x, y, z'
loop_
 _atom_site_type_symbol
 _atom_site_label
 _atom_site_symmetry_multiplicity
 _atom_site_fract_x
 _atom_site_fract_y
 _atom_site_fract_z
 _atom_site_occupancy
  Dy  Dy0  1  0.600147  0.600147  0.600092  1
  Dy  Dy1  1  0.598763  0.598763  0.203194  1
  Dy  Dy2  1  0.598269  0.203378  0.599991  1
  Dy  Dy3  1  0.203378  0.598269  0.599991  1
  Dy  Dy4  1  0.061438  0.439306  0.440407  1
  Dy  Dy5  1  0.439229  0.058754  0.058076  1
  Dy  Dy6  1  0.439306  0.061438  0.440407  1
  Dy  Dy7  1  0.058754  0.439229  0.058076  1
  Dy  Dy8  1  0.441866  0.441866  0.059062  1
  Dy  Dy9  1  0.060099  0.060099  0.436835  1
  Dy  Dy10  1  0.185515  0.810287  0.812414  1
  Dy  Dy11  1  0.808002  0.184601  0.192867  1
  Dy  Dy12  1  0.810287  0.185515  0.812414  1
  Dy  Dy13  1  0.184601  0.808002  0.192867  1
  Dy  Dy14  1  0.809424  0.809424  0.190322  1
  Dy  Dy15  1  0.187060  0.187060  0.813073  1
  In  In16  1  0.834019  0.507791  0.828207  1
  In  In17  1  0.507791  0.834019  0.828207  1
  Ag  Ag18  1  0.833630  0.833630  0.830872  1
  Ag  Ag19  1  0.833848  0.833848  0.500254  1
  Ir  Ir20  1  0.393217  0.393217  0.826662  1
  Ir  Ir21  1  0.393046  0.826492  0.393264  1
  Ir  Ir22  1  0.826492  0.393046  0.393264  1
  Ru  Ru23  1  0.391823  0.391823  0.389180  1
