# generated using pymatgen
data_HoHf3(Al3Rh)6
_symmetry_space_group_name_H-M   'P 1'
_cell_length_a   7.47945505
_cell_length_b   7.47135668
_cell_length_c   9.28253700
_cell_angle_alpha   90.00000000
_cell_angle_beta   90.00000000
_cell_angle_gamma   119.70805617
_symmetry_Int_Tables_number   1
_chemical_formula_structural   HoHf3(Al3Rh)6
_chemical_formula_sum   'Ho1 Hf3 Al18 Rh6'
_cell_volume   450.54363740
_cell_formula_units_Z   1
loop_
 _symmetry_equiv_pos_site_id
 _symmetry_equiv_pos_as_xyz
  1  'x, y, z'
loop_
 _atom_site_type_symbol
 _atom_site_label
 _atom_site_symmetry_multiplicity
 _atom_site_fract_x
 _atom_site_fract_y
 _atom_site_fract_z
 _atom_site_occupancy
  Ho  Ho0  1  0.329000  0.006327  0.250000  1
  Hf  Hf1  1  0.994020  0.671753  0.750000  1
  Hf  Hf2  1  0.005723  0.328886  0.250000  1
  Hf  Hf3  1  0.671779  0.994236  0.750000  1
  Al  Al4  1  0.121528  0.122855  0.750000  1
  Al  Al5  1  0.872244  0.875956  0.250000  1
  Al  Al6  1  0.996624  0.334733  0.578324  1
  Al  Al7  1  0.000276  0.662599  0.426366  1
  Al  Al8  1  0.000276  0.662599  0.073634  1
  Al  Al9  1  0.334998  0.997242  0.918262  1
  Al  Al10  1  0.996624  0.334733  0.921676  1
  Al  Al11  1  0.668046  0.002462  0.073760  1
  Al  Al12  1  0.668046  0.002462  0.426240  1
  Al  Al13  1  0.334998  0.997242  0.581738  1
  Al  Al14  1  0.331087  0.333699  0.053956  1
  Al  Al15  1  0.669160  0.669088  0.938617  1
  Al  Al16  1  0.669160  0.669088  0.561383  1
  Al  Al17  1  0.331087  0.333699  0.446044  1
  Al  Al18  1  0.337826  0.553655  0.750000  1
  Al  Al19  1  0.666588  0.451459  0.250000  1
  Al  Al20  1  0.555612  0.339149  0.750000  1
  Al  Al21  1  0.445483  0.656425  0.250000  1
  Rh  Rh22  1  0.672955  0.327816  0.501386  1
  Rh  Rh23  1  0.327954  0.673126  0.501922  1
  Rh  Rh24  1  0.327954  0.673126  0.998078  1
  Rh  Rh25  1  0.672955  0.327816  0.998614  1
  Rh  Rh26  1  0.998996  0.998885  0.501657  1
  Rh  Rh27  1  0.998996  0.998885  0.998343  1
