# generated using pymatgen
data_Sm8Pd19Pt5Pb
_symmetry_space_group_name_H-M   'P 1'
_cell_length_a   8.50975300
_cell_length_b   8.50135300
_cell_length_c   8.50060400
_cell_angle_alpha   90.00000000
_cell_angle_beta   90.00000000
_cell_angle_gamma   90.00000000
_symmetry_Int_Tables_number   1
_chemical_formula_structural   Sm8Pd19Pt5Pb
_chemical_formula_sum   'Sm8 Pd19 Pt5 Pb1'
_cell_volume   614.97121669
_cell_formula_units_Z   1
loop_
 _symmetry_equiv_pos_site_id
 _symmetry_equiv_pos_as_xyz
  1  'x, y, z'
loop_
 _atom_site_type_symbol
 _atom_site_label
 _atom_site_symmetry_multiplicity
 _atom_site_fract_x
 _atom_site_fract_y
 _atom_site_fract_z
 _atom_site_occupancy
  Sm  Sm0  1  0.252869  0.253348  0.252785  1
  Sm  Sm1  1  0.747168  0.747154  0.746444  1
  Sm  Sm2  1  0.747168  0.747154  0.253556  1
  Sm  Sm3  1  0.747168  0.252846  0.746444  1
  Sm  Sm4  1  0.252869  0.253348  0.747215  1
  Sm  Sm5  1  0.252869  0.746652  0.252785  1
  Sm  Sm6  1  0.252869  0.746652  0.747215  1
  Sm  Sm7  1  0.747168  0.252846  0.253556  1
  Pd  Pd8  1  0.732256  0.500000  0.000000  1
  Pd  Pd9  1  0.999970  0.268136  0.500000  1
  Pd  Pd10  1  0.500135  0.267845  0.000000  1
  Pd  Pd11  1  0.999970  0.731864  0.500000  1
  Pd  Pd12  1  0.500135  0.732155  0.000000  1
  Pd  Pd13  1  0.500060  0.000000  0.267926  1
  Pd  Pd14  1  0.268290  0.000000  0.500000  1
  Pd  Pd15  1  0.500060  0.000000  0.732074  1
  Pd  Pd16  1  0.731832  0.000000  0.500000  1
  Pd  Pd17  1  0.999954  0.500000  0.268058  1
  Pd  Pd18  1  0.999954  0.500000  0.731942  1
  Pd  Pd19  1  0.499946  0.500000  0.255302  1
  Pd  Pd20  1  0.499946  0.500000  0.744698  1
  Pd  Pd21  1  0.318222  0.000000  0.000000  1
  Pd  Pd22  1  0.681906  0.000000  0.000000  1
  Pd  Pd23  1  0.999786  0.318122  0.000000  1
  Pd  Pd24  1  0.999786  0.681878  0.000000  1
  Pd  Pd25  1  0.999964  0.000000  0.317987  1
  Pd  Pd26  1  0.999964  0.000000  0.682013  1
  Pt  Pt27  1  0.267502  0.500000  0.000000  1
  Pt  Pt28  1  0.255184  0.500000  0.500000  1
  Pt  Pt29  1  0.744695  0.500000  0.500000  1
  Pt  Pt30  1  0.500091  0.255174  0.500000  1
  Pt  Pt31  1  0.500091  0.744826  0.500000  1
  Pb  Pb32  1  0.000155  0.000000  0.000000  1
