# generated using pymatgen
data_Dy4B16Mo3W
_symmetry_space_group_name_H-M   'P 1'
_cell_length_a   3.62642200
_cell_length_b   6.03647709
_cell_length_c   11.66229318
_cell_angle_alpha   90.02012272
_cell_angle_beta   90.00000000
_cell_angle_gamma   90.00000000
_symmetry_Int_Tables_number   1
_chemical_formula_structural   Dy4B16Mo3W
_chemical_formula_sum   'Dy4 B16 Mo3 W1'
_cell_volume   255.29706729
_cell_formula_units_Z   1
loop_
 _symmetry_equiv_pos_site_id
 _symmetry_equiv_pos_as_xyz
  1  'x, y, z'
loop_
 _atom_site_type_symbol
 _atom_site_label
 _atom_site_symmetry_multiplicity
 _atom_site_fract_x
 _atom_site_fract_y
 _atom_site_fract_z
 _atom_site_occupancy
  Dy  Dy0  1  0.000000  0.127063  0.149770  1
  Dy  Dy1  1  0.000000  0.872921  0.850123  1
  Dy  Dy2  1  0.000000  0.627093  0.350169  1
  Dy  Dy3  1  0.000000  0.373101  0.649887  1
  B  B4  1  0.500000  0.476701  0.193507  1
  B  B5  1  0.500000  0.523402  0.806449  1
  B  B6  1  0.500000  0.976467  0.306453  1
  B  B7  1  0.500000  0.023223  0.693463  1
  B  B8  1  0.500000  0.287450  0.313618  1
  B  B9  1  0.500000  0.712901  0.686150  1
  B  B10  1  0.500000  0.787131  0.186186  1
  B  B11  1  0.500000  0.212825  0.813750  1
  B  B12  1  0.500000  0.366871  0.468138  1
  B  B13  1  0.500000  0.633524  0.532003  1
  B  B14  1  0.500000  0.866791  0.031927  1
  B  B15  1  0.500000  0.133211  0.968073  1
  B  B16  1  0.500000  0.385985  0.047519  1
  B  B17  1  0.500000  0.614037  0.952486  1
  B  B18  1  0.500000  0.885743  0.452587  1
  B  B19  1  0.500000  0.113896  0.547637  1
  Mo  Mo20  1  0.000000  0.869339  0.584082  1
  Mo  Mo21  1  0.000000  0.629840  0.083650  1
  Mo  Mo22  1  0.000000  0.370080  0.916434  1
  W  W23  1  0.000000  0.130404  0.415938  1
