# generated using pymatgen
data_La9Tb3(Si2Ni)4
_symmetry_space_group_name_H-M   'P 1'
_cell_length_a   4.29217000
_cell_length_b   11.84352686
_cell_length_c   11.63046391
_cell_angle_alpha   89.63989902
_cell_angle_beta   90.00000000
_cell_angle_gamma   90.00000000
_symmetry_Int_Tables_number   1
_chemical_formula_structural   La9Tb3(Si2Ni)4
_chemical_formula_sum   'La9 Tb3 Si8 Ni4'
_cell_volume   591.21633442
_cell_formula_units_Z   1
loop_
 _symmetry_equiv_pos_site_id
 _symmetry_equiv_pos_as_xyz
  1  'x, y, z'
loop_
 _atom_site_type_symbol
 _atom_site_label
 _atom_site_symmetry_multiplicity
 _atom_site_fract_x
 _atom_site_fract_y
 _atom_site_fract_z
 _atom_site_occupancy
  La  La0  1  0.250000  0.057988  0.888865  1
  La  La1  1  0.250000  0.439561  0.383602  1
  La  La2  1  0.750000  0.941226  0.116837  1
  La  La3  1  0.750000  0.555649  0.611259  1
  La  La4  1  0.250000  0.121840  0.561434  1
  La  La5  1  0.250000  0.379814  0.060710  1
  La  La6  1  0.750000  0.880493  0.436876  1
  La  La7  1  0.750000  0.619311  0.940033  1
  La  La8  1  0.250000  0.802054  0.711517  1
  Tb  Tb9  1  0.250000  0.689265  0.209268  1
  Tb  Tb10  1  0.750000  0.193770  0.287167  1
  Tb  Tb11  1  0.750000  0.306401  0.787009  1
  Si  Si12  1  0.250000  0.807846  0.973646  1
  Si  Si13  1  0.250000  0.689272  0.461190  1
  Si  Si14  1  0.750000  0.191034  0.032461  1
  Si  Si15  1  0.750000  0.309968  0.531666  1
  Si  Si16  1  0.250000  0.478830  0.798672  1
  Si  Si17  1  0.250000  0.023863  0.300569  1
  Si  Si18  1  0.750000  0.519140  0.199303  1
  Si  Si19  1  0.750000  0.987058  0.703913  1
  Ni  Ni20  1  0.250000  0.359437  0.630349  1
  Ni  Ni21  1  0.250000  0.143520  0.131431  1
  Ni  Ni22  1  0.750000  0.640311  0.366855  1
  Ni  Ni23  1  0.750000  0.862350  0.875368  1
