# generated using pymatgen
data_Pr16Cd4Ir3Pd
_symmetry_space_group_name_H-M   'P 1'
_cell_length_a   10.02735849
_cell_length_b   10.07296420
_cell_length_c   10.07296400
_cell_angle_alpha   60.00000067
_cell_angle_beta   59.84943542
_cell_angle_gamma   59.84944061
_symmetry_Int_Tables_number   1
_chemical_formula_structural   Pr16Cd4Ir3Pd
_chemical_formula_sum   'Pr16 Cd4 Ir3 Pd1'
_cell_volume   717.78440435
_cell_formula_units_Z   1
loop_
 _symmetry_equiv_pos_site_id
 _symmetry_equiv_pos_as_xyz
  1  'x, y, z'
loop_
 _atom_site_type_symbol
 _atom_site_label
 _atom_site_symmetry_multiplicity
 _atom_site_fract_x
 _atom_site_fract_y
 _atom_site_fract_z
 _atom_site_occupancy
  Pr  Pr0  1  0.345202  0.350960  0.350960  1
  Pr  Pr1  1  0.345202  0.350960  0.952880  1
  Pr  Pr2  1  0.345202  0.952880  0.350960  1
  Pr  Pr3  1  0.958130  0.347290  0.347290  1
  Pr  Pr4  1  0.814118  0.190864  0.190864  1
  Pr  Pr5  1  0.189986  0.810423  0.810423  1
  Pr  Pr6  1  0.189986  0.810423  0.189167  1
  Pr  Pr7  1  0.814118  0.190864  0.804155  1
  Pr  Pr8  1  0.189986  0.189167  0.810423  1
  Pr  Pr9  1  0.814118  0.804155  0.190864  1
  Pr  Pr10  1  0.936871  0.562111  0.562111  1
  Pr  Pr11  1  0.560546  0.937167  0.937167  1
  Pr  Pr12  1  0.560546  0.937167  0.565120  1
  Pr  Pr13  1  0.936871  0.562111  0.938906  1
  Pr  Pr14  1  0.560546  0.565120  0.937167  1
  Pr  Pr15  1  0.936871  0.938906  0.562111  1
  Cd  Cd16  1  0.579258  0.579383  0.579383  1
  Cd  Cd17  1  0.579258  0.579383  0.261974  1
  Cd  Cd18  1  0.579258  0.261974  0.579383  1
  Cd  Cd19  1  0.261957  0.579347  0.579347  1
  Ir  Ir20  1  0.142999  0.141640  0.141640  1
  Ir  Ir21  1  0.142999  0.141640  0.573720  1
  Ir  Ir22  1  0.142999  0.573720  0.141640  1
  Pd  Pd23  1  0.572974  0.142342  0.142342  1
