# generated using pymatgen
data_Ba2PaBiSe6
_symmetry_space_group_name_H-M   'P 1'
_cell_length_a   7.71385237
_cell_length_b   7.71374605
_cell_length_c   7.90071000
_cell_angle_alpha   119.86560600
_cell_angle_beta   119.86515255
_cell_angle_gamma   60.02479492
_symmetry_Int_Tables_number   1
_chemical_formula_structural   Ba2PaBiSe6
_chemical_formula_sum   'Ba2 Pa1 Bi1 Se6'
_cell_volume   333.15791572
_cell_formula_units_Z   1
loop_
 _symmetry_equiv_pos_site_id
 _symmetry_equiv_pos_as_xyz
  1  'x, y, z'
loop_
 _atom_site_type_symbol
 _atom_site_label
 _atom_site_symmetry_multiplicity
 _atom_site_fract_x
 _atom_site_fract_y
 _atom_site_fract_z
 _atom_site_occupancy
  Ba  Ba0  1  0.748018  0.748019  0.228058  1
  Ba  Ba1  1  0.251982  0.251981  0.771941  1
  Pa  Pa2  1  0.000000  0.000000  0.000000  1
  Bi  Bi3  1  0.500000  0.500000  0.500000  1
  Se  Se4  1  0.693855  0.187103  0.182381  1
  Se  Se5  1  0.187108  0.693852  0.182386  1
  Se  Se6  1  0.240937  0.240938  0.343720  1
  Se  Se7  1  0.759063  0.759062  0.656281  1
  Se  Se8  1  0.812891  0.306148  0.817613  1
  Se  Se9  1  0.306145  0.812896  0.817618  1
