# generated using pymatgen
data_Tm5Be5P7Ir19
_symmetry_space_group_name_H-M   'P 1'
_cell_length_a   12.52249712
_cell_length_b   12.44400292
_cell_length_c   3.93776500
_cell_angle_alpha   90.00000000
_cell_angle_beta   90.00000000
_cell_angle_gamma   119.74670484
_symmetry_Int_Tables_number   1
_chemical_formula_structural   Tm5Be5P7Ir19
_chemical_formula_sum   'Tm5 Be5 P7 Ir19'
_cell_volume   532.76330211
_cell_formula_units_Z   1
loop_
 _symmetry_equiv_pos_site_id
 _symmetry_equiv_pos_as_xyz
  1  'x, y, z'
loop_
 _atom_site_type_symbol
 _atom_site_label
 _atom_site_symmetry_multiplicity
 _atom_site_fract_x
 _atom_site_fract_y
 _atom_site_fract_z
 _atom_site_occupancy
  Tm  Tm0  1  0.334294  0.665812  0.500000  1
  Tm  Tm1  1  0.663823  0.320617  0.500000  1
  Tm  Tm2  1  0.188899  0.190793  0.000000  1
  Tm  Tm3  1  0.812504  0.002373  0.000000  1
  Tm  Tm4  1  0.006570  0.817052  0.000000  1
  Be  Be5  1  0.311978  0.834710  0.000000  1
  Be  Be6  1  0.165044  0.477951  0.000000  1
  Be  Be7  1  0.522020  0.686929  0.000000  1
  Be  Be8  1  0.831952  0.307973  0.000000  1
  Be  Be9  1  0.478413  0.164825  0.000000  1
  P  P10  1  0.692347  0.515187  0.000000  1
  P  P11  1  0.366205  0.373347  0.500000  1
  P  P12  1  0.624941  0.999482  0.500000  1
  P  P13  1  0.006207  0.631139  0.500000  1
  P  P14  1  0.817935  0.820406  0.500000  1
  P  P15  1  0.184456  0.003388  0.500000  1
  P  P16  1  0.998981  0.182605  0.500000  1
  Ir  Ir17  1  0.194080  0.818301  0.500000  1
  Ir  Ir18  1  0.181647  0.376534  0.500000  1
  Ir  Ir19  1  0.625065  0.809836  0.500000  1
  Ir  Ir20  1  0.814264  0.189774  0.500000  1
  Ir  Ir21  1  0.376609  0.189345  0.500000  1
  Ir  Ir22  1  0.810131  0.623941  0.500000  1
  Ir  Ir23  1  0.126029  0.639193  0.000000  1
  Ir  Ir24  1  0.358769  0.488002  0.000000  1
  Ir  Ir25  1  0.509815  0.870547  0.000000  1
  Ir  Ir26  1  0.638244  0.125186  0.000000  1
  Ir  Ir27  1  0.496738  0.363828  0.000000  1
  Ir  Ir28  1  0.871218  0.507599  0.000000  1
  Ir  Ir29  1  0.548205  0.556811  0.500000  1
  Ir  Ir30  1  0.444526  0.002676  0.500000  1
  Ir  Ir31  1  0.995946  0.443254  0.500000  1
  Ir  Ir32  1  0.719615  0.716283  0.000000  1
  Ir  Ir33  1  0.282586  0.003105  0.000000  1
  Ir  Ir34  1  0.999479  0.281048  0.000000  1
  Ir  Ir35  1  0.000463  0.000147  0.500000  1
