# generated using pymatgen
data_Dy6Co14P12RuRh3
_symmetry_space_group_name_H-M   'P 1'
_cell_length_a   3.71699800
_cell_length_b   10.64529900
_cell_length_c   12.37112800
_cell_angle_alpha   90.00000000
_cell_angle_beta   90.00000000
_cell_angle_gamma   90.00000000
_symmetry_Int_Tables_number   1
_chemical_formula_structural   Dy6Co14P12RuRh3
_chemical_formula_sum   'Dy6 Co14 P12 Ru1 Rh3'
_cell_volume   489.50765982
_cell_formula_units_Z   1
loop_
 _symmetry_equiv_pos_site_id
 _symmetry_equiv_pos_as_xyz
  1  'x, y, z'
loop_
 _atom_site_type_symbol
 _atom_site_label
 _atom_site_symmetry_multiplicity
 _atom_site_fract_x
 _atom_site_fract_y
 _atom_site_fract_z
 _atom_site_occupancy
  Dy  Dy0  1  0.000000  0.500000  0.520107  1
  Dy  Dy1  1  0.500000  0.000000  0.479488  1
  Dy  Dy2  1  0.500000  0.813237  0.205911  1
  Dy  Dy3  1  0.500000  0.186763  0.205911  1
  Dy  Dy4  1  0.000000  0.685730  0.794527  1
  Dy  Dy5  1  0.000000  0.314270  0.794527  1
  Co  Co6  1  0.000000  0.500000  0.988803  1
  Co  Co7  1  0.500000  0.000000  0.012002  1
  Co  Co8  1  0.500000  0.332823  0.993348  1
  Co  Co9  1  0.500000  0.667177  0.993348  1
  Co  Co10  1  0.000000  0.169025  0.007270  1
  Co  Co11  1  0.000000  0.830975  0.007270  1
  Co  Co12  1  0.500000  0.300473  0.428770  1
  Co  Co13  1  0.500000  0.699527  0.428770  1
  Co  Co14  1  0.000000  0.200231  0.569914  1
  Co  Co15  1  0.000000  0.799769  0.569914  1
  Co  Co16  1  0.500000  0.880248  0.709865  1
  Co  Co17  1  0.500000  0.119752  0.709865  1
  Co  Co18  1  0.000000  0.618895  0.290325  1
  Co  Co19  1  0.000000  0.381105  0.290325  1
  P  P20  1  0.500000  0.500000  0.889521  1
  P  P21  1  0.000000  0.000000  0.109849  1
  P  P22  1  0.500000  0.500000  0.348463  1
  P  P23  1  0.000000  0.000000  0.650044  1
  P  P24  1  0.500000  0.302543  0.613124  1
  P  P25  1  0.500000  0.697457  0.613124  1
  P  P26  1  0.000000  0.197533  0.386530  1
  P  P27  1  0.000000  0.802467  0.386530  1
  P  P28  1  0.500000  0.844661  0.894928  1
  P  P29  1  0.500000  0.155339  0.894928  1
  P  P30  1  0.000000  0.653492  0.106667  1
  P  P31  1  0.000000  0.346508  0.106667  1
  Ru  Ru32  1  0.500000  0.500000  0.159243  1
  Rh  Rh33  1  0.000000  0.000000  0.840453  1
  Rh  Rh34  1  0.500000  0.500000  0.703183  1
  Rh  Rh35  1  0.000000  0.000000  0.296487  1
