# generated using pymatgen
data_Sc4Fe5Re4B8Ru
_symmetry_space_group_name_H-M   'P 1'
_cell_length_a   2.99530800
_cell_length_b   8.34057539
_cell_length_c   9.59954551
_cell_angle_alpha   90.12547976
_cell_angle_beta   90.00000000
_cell_angle_gamma   90.00000000
_symmetry_Int_Tables_number   1
_chemical_formula_structural   Sc4Fe5Re4B8Ru
_chemical_formula_sum   'Sc4 Fe5 Re4 B8 Ru1'
_cell_volume   239.82095541
_cell_formula_units_Z   1
loop_
 _symmetry_equiv_pos_site_id
 _symmetry_equiv_pos_as_xyz
  1  'x, y, z'
loop_
 _atom_site_type_symbol
 _atom_site_label
 _atom_site_symmetry_multiplicity
 _atom_site_fract_x
 _atom_site_fract_y
 _atom_site_fract_z
 _atom_site_occupancy
  Sc  Sc0  1  0.500000  0.835708  0.178487  1
  Sc  Sc1  1  0.500000  0.161441  0.817069  1
  Sc  Sc2  1  0.500000  0.659881  0.682237  1
  Sc  Sc3  1  0.500000  0.344906  0.320464  1
  Fe  Fe4  1  0.000000  0.999666  0.994335  1
  Fe  Fe5  1  0.000000  0.409053  0.755601  1
  Fe  Fe6  1  0.000000  0.592157  0.244221  1
  Fe  Fe7  1  0.000000  0.500076  0.501304  1
  Fe  Fe8  1  0.000000  0.906836  0.744728  1
  Re  Re9  1  0.000000  0.664820  0.953054  1
  Re  Re10  1  0.000000  0.338357  0.042130  1
  Re  Re11  1  0.000000  0.832712  0.458208  1
  Re  Re12  1  0.000000  0.163898  0.551752  1
  B  B13  1  0.500000  0.962855  0.599673  1
  B  B14  1  0.500000  0.032187  0.413779  1
  B  B15  1  0.500000  0.859007  0.898566  1
  B  B16  1  0.500000  0.142249  0.089757  1
  B  B17  1  0.500000  0.640064  0.400822  1
  B  B18  1  0.500000  0.360336  0.600704  1
  B  B19  1  0.500000  0.466358  0.902272  1
  B  B20  1  0.500000  0.535725  0.095285  1
  Ru  Ru21  1  0.000000  0.091705  0.255550  1
