# generated using pymatgen
data_HoEr3(Mn2I)2
_symmetry_space_group_name_H-M   'P 1'
_cell_length_a   3.85933900
_cell_length_b   3.85933908
_cell_length_c   17.44525100
_cell_angle_alpha   90.00000000
_cell_angle_beta   90.00000000
_cell_angle_gamma   119.99999072
_symmetry_Int_Tables_number   1
_chemical_formula_structural   HoEr3(Mn2I)2
_chemical_formula_sum   'Ho1 Er3 Mn4 I2'
_cell_volume   225.02654925
_cell_formula_units_Z   1
loop_
 _symmetry_equiv_pos_site_id
 _symmetry_equiv_pos_as_xyz
  1  'x, y, z'
loop_
 _atom_site_type_symbol
 _atom_site_label
 _atom_site_symmetry_multiplicity
 _atom_site_fract_x
 _atom_site_fract_y
 _atom_site_fract_z
 _atom_site_occupancy
  Ho  Ho0  1  0.000000  0.000000  0.390352  1
  Er  Er1  1  0.000000  0.000000  0.109003  1
  Er  Er2  1  0.000000  0.000000  0.890826  1
  Er  Er3  1  0.000000  0.000000  0.609508  1
  Mn  Mn4  1  0.333333  0.666667  0.509223  1
  Mn  Mn5  1  0.666667  0.333333  0.491599  1
  Mn  Mn6  1  0.666667  0.333333  0.008641  1
  Mn  Mn7  1  0.333333  0.666667  0.991219  1
  I  I8  1  0.333333  0.666667  0.249354  1
  I  I9  1  0.666667  0.333333  0.750276  1
