# generated using pymatgen
data_Er4Lu4B24IrRu3
_symmetry_space_group_name_H-M   'P 1'
_cell_length_a   3.61360100
_cell_length_b   9.05797117
_cell_length_c   11.41427722
_cell_angle_alpha   90.02228387
_cell_angle_beta   90.00000000
_cell_angle_gamma   90.00000000
_symmetry_Int_Tables_number   1
_chemical_formula_structural   Er4Lu4B24IrRu3
_chemical_formula_sum   'Er4 Lu4 B24 Ir1 Ru3'
_cell_volume   373.61088003
_cell_formula_units_Z   1
loop_
 _symmetry_equiv_pos_site_id
 _symmetry_equiv_pos_as_xyz
  1  'x, y, z'
loop_
 _atom_site_type_symbol
 _atom_site_label
 _atom_site_symmetry_multiplicity
 _atom_site_fract_x
 _atom_site_fract_y
 _atom_site_fract_z
 _atom_site_occupancy
  Er  Er0  1  0.000000  0.318482  0.414685  1
  Er  Er1  1  0.000000  0.679576  0.588338  1
  Er  Er2  1  0.000000  0.822267  0.084185  1
  Er  Er3  1  0.000000  0.179244  0.913703  1
  Lu  Lu4  1  0.000000  0.945994  0.373309  1
  Lu  Lu5  1  0.000000  0.056001  0.626897  1
  Lu  Lu6  1  0.000000  0.441817  0.125533  1
  Lu  Lu7  1  0.000000  0.555967  0.873216  1
  B  B8  1  0.500000  0.554076  0.433931  1
  B  B9  1  0.500000  0.445707  0.566660  1
  B  B10  1  0.500000  0.054469  0.066757  1
  B  B11  1  0.500000  0.945767  0.933147  1
  B  B12  1  0.500000  0.751001  0.421035  1
  B  B13  1  0.500000  0.249967  0.580100  1
  B  B14  1  0.500000  0.249554  0.079959  1
  B  B15  1  0.500000  0.750426  0.919978  1
  B  B16  1  0.500000  0.792942  0.264951  1
  B  B17  1  0.500000  0.208066  0.734407  1
  B  B18  1  0.500000  0.292258  0.234849  1
  B  B19  1  0.500000  0.707860  0.765508  1
  B  B20  1  0.500000  0.630975  0.182783  1
  B  B21  1  0.500000  0.369326  0.815788  1
  B  B22  1  0.500000  0.131013  0.316022  1
  B  B23  1  0.500000  0.868882  0.684218  1
  B  B24  1  0.500000  0.982236  0.213359  1
  B  B25  1  0.500000  0.017630  0.786582  1
  B  B26  1  0.500000  0.481151  0.286260  1
  B  B27  1  0.500000  0.517688  0.713475  1
  B  B28  1  0.500000  0.605706  0.029247  1
  B  B29  1  0.500000  0.394430  0.971163  1
  B  B30  1  0.500000  0.105477  0.471105  1
  B  B31  1  0.500000  0.894061  0.528540  1
  Ir  Ir32  1  0.000000  0.638084  0.320909  1
  Ru  Ru33  1  0.000000  0.361935  0.679127  1
  Ru  Ru34  1  0.000000  0.138443  0.179861  1
  Ru  Ru35  1  0.000000  0.861521  0.820417  1
