# generated using pymatgen
data_BaSr4TiMn4O13
_symmetry_space_group_name_H-M   'P 1'
_cell_length_a   3.91742800
_cell_length_b   8.83286301
_cell_length_c   8.83371100
_cell_angle_alpha   89.99565411
_cell_angle_beta   89.99961996
_cell_angle_gamma   89.99819013
_symmetry_Int_Tables_number   1
_chemical_formula_structural   BaSr4TiMn4O13
_chemical_formula_sum   'Ba1 Sr4 Ti1 Mn4 O13'
_cell_volume   305.66499361
_cell_formula_units_Z   1
loop_
 _symmetry_equiv_pos_site_id
 _symmetry_equiv_pos_as_xyz
  1  'x, y, z'
loop_
 _atom_site_type_symbol
 _atom_site_label
 _atom_site_symmetry_multiplicity
 _atom_site_fract_x
 _atom_site_fract_y
 _atom_site_fract_z
 _atom_site_occupancy
  Ba  Ba0  1  0.499987  0.499975  0.499973  1
  Sr  Sr1  1  0.500001  0.285809  0.113150  1
  Sr  Sr2  1  0.500025  0.886873  0.285772  1
  Sr  Sr3  1  0.499989  0.113165  0.714237  1
  Sr  Sr4  1  0.499997  0.714189  0.886897  1
  Ti  Ti5  1  0.000011  0.000084  0.999981  1
  Mn  Mn6  1  0.999981  0.193933  0.399599  1
  Mn  Mn7  1  0.000271  0.805796  0.600381  1
  Mn  Mn8  1  0.000017  0.600326  0.194332  1
  Mn  Mn9  1  0.999820  0.399774  0.805656  1
  O  O10  1  0.000005  0.721158  0.399806  1
  O  O11  1  0.000009  0.787931  0.073664  1
  O  O12  1  0.499995  0.839500  0.587358  1
  O  O13  1  0.000025  0.073625  0.212077  1
  O  O14  1  0.999926  0.600309  0.721120  1
  O  O15  1  0.999994  0.278808  0.600226  1
  O  O16  1  0.999952  0.212104  0.926310  1
  O  O17  1  0.500030  0.160494  0.412691  1
  O  O18  1  0.499902  0.412669  0.839419  1
  O  O19  1  0.500035  0.587338  0.160557  1
  O  O20  1  0.000006  0.926345  0.787926  1
  O  O21  1  0.500004  0.999993  0.999997  1
  O  O22  1  0.000018  0.399801  0.278873  1
