# generated using pymatgen
data_Li3Si3PdRh5
_symmetry_space_group_name_H-M   'P 1'
_cell_length_a   4.11289400
_cell_length_b   5.83468000
_cell_length_c   12.34563500
_cell_angle_alpha   90.00000000
_cell_angle_beta   90.00044101
_cell_angle_gamma   90.00000000
_symmetry_Int_Tables_number   1
_chemical_formula_structural   Li3Si3PdRh5
_chemical_formula_sum   'Li6 Si6 Pd2 Rh10'
_cell_volume   296.26339275
_cell_formula_units_Z   2
loop_
 _symmetry_equiv_pos_site_id
 _symmetry_equiv_pos_as_xyz
  1  'x, y, z'
loop_
 _atom_site_type_symbol
 _atom_site_label
 _atom_site_symmetry_multiplicity
 _atom_site_fract_x
 _atom_site_fract_y
 _atom_site_fract_z
 _atom_site_occupancy
  Li  Li0  1  0.000000  0.500001  0.000000  1
  Li  Li1  1  0.499905  0.000000  0.167638  1
  Li  Li2  1  0.999898  0.500001  0.333263  1
  Li  Li3  1  0.500001  0.000000  0.500000  1
  Li  Li4  1  0.000102  0.500001  0.666737  1
  Li  Li5  1  0.500094  0.000000  0.832362  1
  Si  Si6  1  0.000000  0.000000  0.000000  1
  Si  Si7  1  0.499853  0.500001  0.176252  1
  Si  Si8  1  0.999885  0.000000  0.333875  1
  Si  Si9  1  0.500001  0.500001  0.500000  1
  Si  Si10  1  0.000115  0.000000  0.666125  1
  Si  Si11  1  0.500147  0.500001  0.823749  1
  Pd  Pd12  1  0.499999  0.253294  0.000000  1
  Pd  Pd13  1  0.499999  0.746706  0.000000  1
  Rh  Rh14  1  0.999881  0.250005  0.164746  1
  Rh  Rh15  1  0.999881  0.749995  0.164746  1
  Rh  Rh16  1  0.499892  0.248629  0.334080  1
  Rh  Rh17  1  0.499892  0.751371  0.334080  1
  Rh  Rh18  1  0.000000  0.249999  0.500000  1
  Rh  Rh19  1  0.000000  0.750001  0.500000  1
  Rh  Rh20  1  0.500107  0.248629  0.665920  1
  Rh  Rh21  1  0.500107  0.751371  0.665920  1
  Rh  Rh22  1  0.000119  0.250005  0.835254  1
  Rh  Rh23  1  0.000119  0.749995  0.835254  1
