# generated using pymatgen
data_Ba2Tl3SbPt4
_symmetry_space_group_name_H-M   'P 1'
_cell_length_a   4.98801636
_cell_length_b   4.78760800
_cell_length_c   10.87282800
_cell_angle_alpha   90.00000000
_cell_angle_beta   93.20901299
_cell_angle_gamma   90.00000000
_symmetry_Int_Tables_number   1
_chemical_formula_structural   Ba2Tl3SbPt4
_chemical_formula_sum   'Ba2 Tl3 Sb1 Pt4'
_cell_volume   259.24324550
_cell_formula_units_Z   1
loop_
 _symmetry_equiv_pos_site_id
 _symmetry_equiv_pos_as_xyz
  1  'x, y, z'
loop_
 _atom_site_type_symbol
 _atom_site_label
 _atom_site_symmetry_multiplicity
 _atom_site_fract_x
 _atom_site_fract_y
 _atom_site_fract_z
 _atom_site_occupancy
  Ba  Ba0  1  0.731725  0.249999  0.243842  1
  Ba  Ba1  1  0.254585  0.749999  0.754346  1
  Tl  Tl2  1  0.199129  0.749999  0.112188  1
  Tl  Tl3  1  0.740722  0.749999  0.499808  1
  Tl  Tl4  1  0.252998  0.249999  0.506653  1
  Sb  Sb5  1  0.818879  0.249999  0.894650  1
  Pt  Pt6  1  0.329902  0.249999  0.989191  1
  Pt  Pt7  1  0.225446  0.749999  0.366361  1
  Pt  Pt8  1  0.768003  0.249999  0.648995  1
  Pt  Pt9  1  0.678611  0.749999  0.983963  1
