# generated using pymatgen
data_PrSmDy4(RuBr3)2
_symmetry_space_group_name_H-M   'P 1'
_cell_length_a   4.15078800
_cell_length_b   8.62444948
_cell_length_c   12.01593299
_cell_angle_alpha   87.15264841
_cell_angle_beta   90.00000000
_cell_angle_gamma   90.00000000
_symmetry_Int_Tables_number   1
_chemical_formula_structural   PrSmDy4(RuBr3)2
_chemical_formula_sum   'Pr1 Sm1 Dy4 Ru2 Br6'
_cell_volume   429.61845840
_cell_formula_units_Z   1
loop_
 _symmetry_equiv_pos_site_id
 _symmetry_equiv_pos_as_xyz
  1  'x, y, z'
loop_
 _atom_site_type_symbol
 _atom_site_label
 _atom_site_symmetry_multiplicity
 _atom_site_fract_x
 _atom_site_fract_y
 _atom_site_fract_z
 _atom_site_occupancy
  Pr  Pr0  1  0.750000  0.106847  0.168613  1
  Sm  Sm1  1  0.250000  0.283897  0.399091  1
  Dy  Dy2  1  0.750000  0.721540  0.604650  1
  Dy  Dy3  1  0.250000  0.867893  0.370520  1
  Dy  Dy4  1  0.750000  0.129428  0.631722  1
  Dy  Dy5  1  0.250000  0.888391  0.822752  1
  Ru  Ru6  1  0.250000  0.936756  0.596431  1
  Ru  Ru7  1  0.750000  0.061789  0.404887  1
  Br  Br8  1  0.250000  0.429643  0.632830  1
  Br  Br9  1  0.750000  0.579360  0.375011  1
  Br  Br10  1  0.250000  0.861931  0.103316  1
  Br  Br11  1  0.750000  0.118300  0.889537  1
  Br  Br12  1  0.250000  0.358423  0.144959  1
  Br  Br13  1  0.750000  0.655801  0.855683  1
