# generated using pymatgen
data_NaPrDy5IrI12
_symmetry_space_group_name_H-M   'P 1'
_cell_length_a   9.88655075
_cell_length_b   9.87310835
_cell_length_c   9.82476501
_cell_angle_alpha   106.59129177
_cell_angle_beta   106.86501297
_cell_angle_gamma   107.24249854
_symmetry_Int_Tables_number   1
_chemical_formula_structural   NaPrDy5IrI12
_chemical_formula_sum   'Na1 Pr1 Dy5 Ir1 I12'
_cell_volume   800.82563215
_cell_formula_units_Z   1
loop_
 _symmetry_equiv_pos_site_id
 _symmetry_equiv_pos_as_xyz
  1  'x, y, z'
loop_
 _atom_site_type_symbol
 _atom_site_label
 _atom_site_symmetry_multiplicity
 _atom_site_fract_x
 _atom_site_fract_y
 _atom_site_fract_z
 _atom_site_occupancy
  Na  Na0  1  0.500126  0.500491  0.498949  1
  Pr  Pr1  1  0.899003  0.691870  0.972443  1
  Dy  Dy2  1  0.098300  0.295488  0.027050  1
  Dy  Dy3  1  0.311085  0.029127  0.101744  1
  Dy  Dy4  1  0.027207  0.100700  0.298211  1
  Dy  Dy5  1  0.974019  0.904002  0.702903  1
  Dy  Dy6  1  0.688683  0.968641  0.898769  1
  Ir  Ir7  1  0.000153  0.999285  0.000871  1
  I  I8  1  0.234747  0.684338  0.080434  1
  I  I9  1  0.448923  0.371502  0.141068  1
  I  I10  1  0.682677  0.077005  0.226122  1
  I  I11  1  0.927003  0.785759  0.329517  1
  I  I12  1  0.141784  0.448810  0.368883  1
  I  I13  1  0.368515  0.141631  0.448467  1
  I  I14  1  0.631683  0.860603  0.552790  1
  I  I15  1  0.857404  0.551998  0.618158  1
  I  I16  1  0.076254  0.225255  0.684512  1
  I  I17  1  0.318485  0.926208  0.775371  1
  I  I18  1  0.538346  0.626619  0.852217  1
  I  I19  1  0.775607  0.310669  0.921525  1
