# generated using pymatgen
data_BaTi(CuS2)2
_symmetry_space_group_name_H-M   'P 1'
_cell_length_a   7.36347300
_cell_length_b   9.37840685
_cell_length_c   9.37840649
_cell_angle_alpha   146.36617173
_cell_angle_beta   90.00000000
_cell_angle_gamma   90.00000000
_symmetry_Int_Tables_number   1
_chemical_formula_structural   BaTi(CuS2)2
_chemical_formula_sum   'Ba2 Ti2 Cu4 S8'
_cell_volume   358.72284057
_cell_formula_units_Z   2
loop_
 _symmetry_equiv_pos_site_id
 _symmetry_equiv_pos_as_xyz
  1  'x, y, z'
loop_
 _atom_site_type_symbol
 _atom_site_label
 _atom_site_symmetry_multiplicity
 _atom_site_fract_x
 _atom_site_fract_y
 _atom_site_fract_z
 _atom_site_occupancy
  Ba  Ba0  1  0.749999  0.531487  0.184752  1
  Ba  Ba1  1  0.250000  0.184752  0.531487  1
  Ti  Ti2  1  0.250000  0.716931  0.489308  1
  Ti  Ti3  1  0.749999  0.489308  0.716931  1
  Cu  Cu4  1  0.250000  0.211462  0.993729  1
  Cu  Cu5  1  0.749999  0.993729  0.211462  1
  Cu  Cu6  1  0.000000  0.625482  0.625482  1
  Cu  Cu7  1  0.499999  0.625482  0.625482  1
  S  S8  1  0.250000  0.373732  0.358298  1
  S  S9  1  0.749999  0.358298  0.373732  1
  S  S10  1  0.997694  0.955709  0.734445  1
  S  S11  1  0.002306  0.734445  0.955709  1
  S  S12  1  0.502305  0.955709  0.734445  1
  S  S13  1  0.497694  0.734445  0.955709  1
  S  S14  1  0.250000  0.565705  0.135120  1
  S  S15  1  0.749999  0.135120  0.565705  1
