# generated using pymatgen
data_HoEr12Tm7(CoBi2)4
_symmetry_space_group_name_H-M   'P 1'
_cell_length_a   7.87983763
_cell_length_b   8.82948268
_cell_length_c   12.29449802
_cell_angle_alpha   89.98721062
_cell_angle_beta   90.02302949
_cell_angle_gamma   90.01153550
_symmetry_Int_Tables_number   1
_chemical_formula_structural   HoEr12Tm7(CoBi2)4
_chemical_formula_sum   'Ho1 Er12 Tm7 Co4 Bi8'
_cell_volume   855.38823806
_cell_formula_units_Z   1
loop_
 _symmetry_equiv_pos_site_id
 _symmetry_equiv_pos_as_xyz
  1  'x, y, z'
loop_
 _atom_site_type_symbol
 _atom_site_label
 _atom_site_symmetry_multiplicity
 _atom_site_fract_x
 _atom_site_fract_y
 _atom_site_fract_z
 _atom_site_occupancy
  Ho  Ho0  1  0.446851  0.749681  0.997961  1
  Er  Er1  1  0.347233  0.749986  0.699357  1
  Er  Er2  1  0.652821  0.249993  0.300377  1
  Er  Er3  1  0.846987  0.250188  0.800349  1
  Er  Er4  1  0.152697  0.749908  0.199703  1
  Er  Er5  1  0.884845  0.749764  0.811776  1
  Er  Er6  1  0.114508  0.250363  0.188329  1
  Er  Er7  1  0.385266  0.249923  0.688009  1
  Er  Er8  1  0.614761  0.750017  0.311999  1
  Er  Er9  1  0.175073  0.038099  0.937112  1
  Er  Er10  1  0.054033  0.749971  0.497842  1
  Er  Er11  1  0.946005  0.250047  0.502109  1
  Er  Er12  1  0.554309  0.250207  0.002139  1
  Tm  Tm13  1  0.673699  0.538157  0.562692  1
  Tm  Tm14  1  0.326270  0.461835  0.437274  1
  Tm  Tm15  1  0.173604  0.461795  0.937304  1
  Tm  Tm16  1  0.326267  0.038183  0.437308  1
  Tm  Tm17  1  0.826365  0.538409  0.062839  1
  Tm  Tm18  1  0.673727  0.961872  0.562670  1
  Tm  Tm19  1  0.826174  0.961753  0.062814  1
  Co  Co20  1  0.065367  0.749681  0.992163  1
  Co  Co21  1  0.933085  0.250352  0.008182  1
  Co  Co22  1  0.565734  0.250010  0.507788  1
  Co  Co23  1  0.434330  0.749996  0.492173  1
  Bi  Bi24  1  0.570699  0.509348  0.826642  1
  Bi  Bi25  1  0.429174  0.490424  0.173319  1
  Bi  Bi26  1  0.070699  0.490517  0.673182  1
  Bi  Bi27  1  0.429008  0.009567  0.173228  1
  Bi  Bi28  1  0.929159  0.509538  0.326941  1
  Bi  Bi29  1  0.571447  0.990478  0.826543  1
  Bi  Bi30  1  0.929250  0.990503  0.326860  1
  Bi  Bi31  1  0.070552  0.009436  0.673016  1
