# generated using pymatgen
data_ErLu9(In2Co)4
_symmetry_space_group_name_H-M   'P 1'
_cell_length_a   3.49543000
_cell_length_b   7.84786549
_cell_length_c   17.81689786
_cell_angle_alpha   90.00239780
_cell_angle_beta   90.00000000
_cell_angle_gamma   90.00000000
_symmetry_Int_Tables_number   1
_chemical_formula_structural   ErLu9(In2Co)4
_chemical_formula_sum   'Er1 Lu9 In8 Co4'
_cell_volume   488.74716358
_cell_formula_units_Z   1
loop_
 _symmetry_equiv_pos_site_id
 _symmetry_equiv_pos_as_xyz
  1  'x, y, z'
loop_
 _atom_site_type_symbol
 _atom_site_label
 _atom_site_symmetry_multiplicity
 _atom_site_fract_x
 _atom_site_fract_y
 _atom_site_fract_z
 _atom_site_occupancy
  Er  Er0  1  0.500000  0.000000  0.000000  1
  Lu  Lu1  1  0.500000  0.500000  0.500000  1
  Lu  Lu2  1  0.500000  0.880188  0.408880  1
  Lu  Lu3  1  0.500000  0.119812  0.591120  1
  Lu  Lu4  1  0.500000  0.619227  0.909361  1
  Lu  Lu5  1  0.500000  0.380773  0.090639  1
  Lu  Lu6  1  0.500000  0.245949  0.277359  1
  Lu  Lu7  1  0.500000  0.754051  0.722641  1
  Lu  Lu8  1  0.500000  0.253394  0.778401  1
  Lu  Lu9  1  0.500000  0.746606  0.221599  1
  In  In10  1  0.000000  0.202044  0.431622  1
  In  In11  1  0.000000  0.797956  0.568378  1
  In  In12  1  0.000000  0.298841  0.931872  1
  In  In13  1  0.000000  0.701159  0.068128  1
  In  In14  1  0.000000  0.564685  0.347880  1
  In  In15  1  0.000000  0.435315  0.652120  1
  In  In16  1  0.000000  0.934514  0.848465  1
  In  In17  1  0.000000  0.065486  0.151535  1
  Co  Co18  1  0.000000  0.970261  0.303039  1
  Co  Co19  1  0.000000  0.029739  0.696961  1
  Co  Co20  1  0.000000  0.529130  0.803953  1
  Co  Co21  1  0.000000  0.470870  0.196047  1
