# generated using pymatgen
data_Tb5P12Ru18Rh
_symmetry_space_group_name_H-M   'P 1'
_cell_length_a   3.98965700
_cell_length_b   12.57386223
_cell_length_c   12.53254401
_cell_angle_alpha   119.88681411
_cell_angle_beta   90.00000000
_cell_angle_gamma   90.00000000
_symmetry_Int_Tables_number   1
_chemical_formula_structural   Tb5P12Ru18Rh
_chemical_formula_sum   'Tb5 P12 Ru18 Rh1'
_cell_volume   545.09014078
_cell_formula_units_Z   1
loop_
 _symmetry_equiv_pos_site_id
 _symmetry_equiv_pos_as_xyz
  1  'x, y, z'
loop_
 _atom_site_type_symbol
 _atom_site_label
 _atom_site_symmetry_multiplicity
 _atom_site_fract_x
 _atom_site_fract_y
 _atom_site_fract_z
 _atom_site_occupancy
  Tb  Tb0  1  0.500000  0.999996  0.183243  1
  Tb  Tb1  1  0.500000  0.184165  0.000221  1
  Tb  Tb2  1  0.500000  0.815818  0.816042  1
  Tb  Tb3  1  0.000000  0.335001  0.667252  1
  Tb  Tb4  1  0.000000  0.664997  0.332245  1
  P  P5  1  0.000000  0.999990  0.814100  1
  P  P6  1  0.000000  0.815331  0.000090  1
  P  P7  1  0.000000  0.184669  0.184768  1
  P  P8  1  0.500000  0.306422  0.478430  1
  P  P9  1  0.500000  0.175002  0.696709  1
  P  P10  1  0.500000  0.523345  0.829078  1
  P  P11  1  0.500000  0.824989  0.521703  1
  P  P12  1  0.500000  0.476650  0.305742  1
  P  P13  1  0.500000  0.693581  0.172011  1
  P  P14  1  0.000000  0.999995  0.369897  1
  P  P15  1  0.000000  0.372665  0.999892  1
  P  P16  1  0.000000  0.627341  0.627239  1
  Ru  Ru17  1  0.000000  0.554675  0.000542  1
  Ru  Ru18  1  0.000000  0.445318  0.445864  1
  Ru  Ru19  1  0.500000  0.999994  0.714888  1
  Ru  Ru20  1  0.500000  0.717175  0.000690  1
  Ru  Ru21  1  0.500000  0.282813  0.283511  1
  Ru  Ru22  1  0.000000  0.192468  0.378076  1
  Ru  Ru23  1  0.000000  0.184991  0.807520  1
  Ru  Ru24  1  0.000000  0.623363  0.815581  1
  Ru  Ru25  1  0.000000  0.815005  0.622529  1
  Ru  Ru26  1  0.000000  0.376639  0.192213  1
  Ru  Ru27  1  0.000000  0.807527  0.185597  1
  Ru  Ru28  1  0.500000  0.125733  0.492365  1
  Ru  Ru29  1  0.500000  0.367308  0.875350  1
  Ru  Ru30  1  0.500000  0.507933  0.633825  1
  Ru  Ru31  1  0.500000  0.632687  0.508028  1
  Ru  Ru32  1  0.500000  0.492056  0.125880  1
  Ru  Ru33  1  0.500000  0.874258  0.366619  1
  Ru  Ru34  1  0.000000  0.000001  0.999439  1
  Rh  Rh35  1  0.000000  0.999995  0.552821  1
