# generated using pymatgen
data_Dy4Zn2(ReRu)3
_symmetry_space_group_name_H-M   'P 1'
_cell_length_a   5.32798887
_cell_length_b   5.29324140
_cell_length_c   9.01208700
_cell_angle_alpha   90.00000000
_cell_angle_beta   90.00000000
_cell_angle_gamma   119.79383279
_symmetry_Int_Tables_number   1
_chemical_formula_structural   Dy4Zn2(ReRu)3
_chemical_formula_sum   'Dy4 Zn2 Re3 Ru3'
_cell_volume   220.56647896
_cell_formula_units_Z   1
loop_
 _symmetry_equiv_pos_site_id
 _symmetry_equiv_pos_as_xyz
  1  'x, y, z'
loop_
 _atom_site_type_symbol
 _atom_site_label
 _atom_site_symmetry_multiplicity
 _atom_site_fract_x
 _atom_site_fract_y
 _atom_site_fract_z
 _atom_site_occupancy
  Dy  Dy0  1  0.669191  0.334685  0.562565  1
  Dy  Dy1  1  0.339868  0.669819  0.440556  1
  Dy  Dy2  1  0.339868  0.669819  0.059444  1
  Dy  Dy3  1  0.669191  0.334685  0.937435  1
  Zn  Zn4  1  0.821448  0.659088  0.250000  1
  Zn  Zn5  1  0.821771  0.162011  0.250000  1
  Re  Re6  1  0.169540  0.339221  0.750000  1
  Re  Re7  1  0.169126  0.831164  0.750000  1
  Re  Re8  1  0.657924  0.829159  0.750000  1
  Ru  Ru9  1  0.009279  0.004444  0.495429  1
  Ru  Ru10  1  0.009279  0.004444  0.004571  1
  Ru  Ru11  1  0.323516  0.161461  0.250000  1
