# generated using pymatgen
data_Sc4GaTc24
_symmetry_space_group_name_H-M   'P 1'
_cell_length_a   8.37101746
_cell_length_b   8.37101755
_cell_length_c   8.37101700
_cell_angle_alpha   109.47121931
_cell_angle_beta   109.47121953
_cell_angle_gamma   109.47122495
_symmetry_Int_Tables_number   1
_chemical_formula_structural   Sc4GaTc24
_chemical_formula_sum   'Sc4 Ga1 Tc24'
_cell_volume   451.55725357
_cell_formula_units_Z   1
loop_
 _symmetry_equiv_pos_site_id
 _symmetry_equiv_pos_as_xyz
  1  'x, y, z'
loop_
 _atom_site_type_symbol
 _atom_site_label
 _atom_site_symmetry_multiplicity
 _atom_site_fract_x
 _atom_site_fract_y
 _atom_site_fract_z
 _atom_site_occupancy
  Sc  Sc0  1  0.633066  0.000000  0.000000  1
  Sc  Sc1  1  0.000000  0.633066  0.000000  1
  Sc  Sc2  1  0.000000  0.000000  0.633066  1
  Sc  Sc3  1  0.366934  0.366934  0.366934  1
  Ga  Ga4  1  0.000000  0.000000  0.000000  1
  Tc  Tc5  1  0.392901  0.673556  0.000000  1
  Tc  Tc6  1  0.719344  0.326444  0.326444  1
  Tc  Tc7  1  0.392901  0.000000  0.673556  1
  Tc  Tc8  1  0.673556  0.392901  0.000000  1
  Tc  Tc9  1  0.000000  0.392901  0.673556  1
  Tc  Tc10  1  0.326444  0.719344  0.326444  1
  Tc  Tc11  1  0.326444  0.326444  0.719344  1
  Tc  Tc12  1  0.000000  0.673556  0.392901  1
  Tc  Tc13  1  0.673556  0.000000  0.392901  1
  Tc  Tc14  1  0.607099  0.607099  0.280656  1
  Tc  Tc15  1  0.280656  0.607099  0.607099  1
  Tc  Tc16  1  0.607099  0.280656  0.607099  1
  Tc  Tc17  1  0.373688  0.192246  0.000000  1
  Tc  Tc18  1  0.181442  0.807754  0.807754  1
  Tc  Tc19  1  0.373688  0.000000  0.192246  1
  Tc  Tc20  1  0.192246  0.373688  0.000000  1
  Tc  Tc21  1  0.000000  0.373688  0.192246  1
  Tc  Tc22  1  0.807754  0.181442  0.807754  1
  Tc  Tc23  1  0.807754  0.807754  0.181442  1
  Tc  Tc24  1  0.000000  0.192246  0.373688  1
  Tc  Tc25  1  0.192246  0.000000  0.373688  1
  Tc  Tc26  1  0.626312  0.626312  0.818558  1
  Tc  Tc27  1  0.818558  0.626312  0.626312  1
  Tc  Tc28  1  0.626312  0.818558  0.626312  1
