# generated using pymatgen
data_Ho2BiRh5
_symmetry_space_group_name_H-M   'P 1'
_cell_length_a   5.78429865
_cell_length_b   5.78429765
_cell_length_c   8.54362700
_cell_angle_alpha   90.00000000
_cell_angle_beta   90.00000000
_cell_angle_gamma   97.00736887
_symmetry_Int_Tables_number   1
_chemical_formula_structural   Ho2BiRh5
_chemical_formula_sum   'Ho4 Bi2 Rh10'
_cell_volume   283.71837798
_cell_formula_units_Z   2
loop_
 _symmetry_equiv_pos_site_id
 _symmetry_equiv_pos_as_xyz
  1  'x, y, z'
loop_
 _atom_site_type_symbol
 _atom_site_label
 _atom_site_symmetry_multiplicity
 _atom_site_fract_x
 _atom_site_fract_y
 _atom_site_fract_z
 _atom_site_occupancy
  Ho  Ho0  1  0.781906  0.218094  0.500000  1
  Ho  Ho1  1  0.218094  0.781906  0.000000  1
  Ho  Ho2  1  0.218094  0.781906  0.500000  1
  Ho  Ho3  1  0.781906  0.218094  0.000000  1
  Bi  Bi4  1  0.501160  0.501160  0.750000  1
  Bi  Bi5  1  0.498840  0.498840  0.250000  1
  Rh  Rh6  1  0.731037  0.731037  0.000704  1
  Rh  Rh7  1  0.731037  0.731037  0.499296  1
  Rh  Rh8  1  0.268963  0.268963  0.999296  1
  Rh  Rh9  1  0.268963  0.268963  0.500704  1
  Rh  Rh10  1  0.500008  0.000230  0.750000  1
  Rh  Rh11  1  0.499992  0.999770  0.250000  1
  Rh  Rh12  1  0.000223  0.000223  0.250000  1
  Rh  Rh13  1  0.999777  0.999777  0.750000  1
  Rh  Rh14  1  0.000230  0.500008  0.750000  1
  Rh  Rh15  1  0.999770  0.499992  0.250000  1
