# generated using pymatgen
data_HoTmP7Ru12
_symmetry_space_group_name_H-M   'P 1'
_cell_length_a   9.39927600
_cell_length_b   9.39927568
_cell_length_c   3.95464900
_cell_angle_alpha   90.00000000
_cell_angle_beta   90.00000000
_cell_angle_gamma   119.99999409
_symmetry_Int_Tables_number   1
_chemical_formula_structural   HoTmP7Ru12
_chemical_formula_sum   'Ho1 Tm1 P7 Ru12'
_cell_volume   302.57106276
_cell_formula_units_Z   1
loop_
 _symmetry_equiv_pos_site_id
 _symmetry_equiv_pos_as_xyz
  1  'x, y, z'
loop_
 _atom_site_type_symbol
 _atom_site_label
 _atom_site_symmetry_multiplicity
 _atom_site_fract_x
 _atom_site_fract_y
 _atom_site_fract_z
 _atom_site_occupancy
  Ho  Ho0  1  0.333333  0.666667  0.000000  1
  Tm  Tm1  1  0.666667  0.333333  0.500000  1
  P  P2  1  0.600370  0.718633  0.500000  1
  P  P3  1  0.000000  0.000000  0.000000  1
  P  P4  1  0.281367  0.881738  0.500000  1
  P  P5  1  0.118262  0.399630  0.500000  1
  P  P6  1  0.884678  0.573478  0.000000  1
  P  P7  1  0.426522  0.311199  0.000000  1
  P  P8  1  0.688801  0.115322  0.000000  1
  Ru  Ru9  1  0.556304  0.950275  0.500000  1
  Ru  Ru10  1  0.393972  0.443696  0.500000  1
  Ru  Ru11  1  0.914495  0.121824  0.500000  1
  Ru  Ru12  1  0.207329  0.085505  0.500000  1
  Ru  Ru13  1  0.878176  0.792671  0.500000  1
  Ru  Ru14  1  0.727443  0.892074  0.000000  1
  Ru  Ru15  1  0.107926  0.835367  0.000000  1
  Ru  Ru16  1  0.164633  0.272557  0.000000  1
  Ru  Ru17  1  0.424191  0.067106  0.000000  1
  Ru  Ru18  1  0.932894  0.357087  0.000000  1
  Ru  Ru19  1  0.642913  0.575809  0.000000  1
  Ru  Ru20  1  0.049725  0.606028  0.500000  1
