# generated using pymatgen
data_ErIO4
_symmetry_space_group_name_H-M   'P 1'
_cell_length_a   4.97240876
_cell_length_b   4.97240851
_cell_length_c   7.17076800
_cell_angle_alpha   90.00000000
_cell_angle_beta   90.00000000
_cell_angle_gamma   86.08737883
_symmetry_Int_Tables_number   1
_chemical_formula_structural   ErIO4
_chemical_formula_sum   'Er2 I2 O8'
_cell_volume   176.88291722
_cell_formula_units_Z   2
loop_
 _symmetry_equiv_pos_site_id
 _symmetry_equiv_pos_as_xyz
  1  'x, y, z'
loop_
 _atom_site_type_symbol
 _atom_site_label
 _atom_site_symmetry_multiplicity
 _atom_site_fract_x
 _atom_site_fract_y
 _atom_site_fract_z
 _atom_site_occupancy
  Er  Er0  1  0.000000  0.000000  0.000000  1
  Er  Er1  1  0.000000  0.000000  0.500000  1
  I  I2  1  0.526872  0.526872  0.250001  1
  I  I3  1  0.473128  0.473128  0.750001  1
  O  O4  1  0.831730  0.234481  0.250001  1
  O  O5  1  0.234481  0.831730  0.250001  1
  O  O6  1  0.765518  0.168269  0.750001  1
  O  O7  1  0.168269  0.765518  0.750001  1
  O  O8  1  0.691040  0.691040  0.050375  1
  O  O9  1  0.691040  0.691040  0.449625  1
  O  O10  1  0.308960  0.308960  0.550375  1
  O  O11  1  0.308960  0.308960  0.949625  1
