# generated using pymatgen
data_Sc9Re3MoS
_symmetry_space_group_name_H-M   'P 1'
_cell_length_a   8.56614700
_cell_length_b   8.75324395
_cell_length_c   8.75324100
_cell_angle_alpha   120.01181448
_cell_angle_beta   90.00000000
_cell_angle_gamma   90.00000000
_symmetry_Int_Tables_number   1
_chemical_formula_structural   Sc9Re3MoS
_chemical_formula_sum   'Sc18 Re6 Mo2 S2'
_cell_volume   568.33232427
_cell_formula_units_Z   2
loop_
 _symmetry_equiv_pos_site_id
 _symmetry_equiv_pos_as_xyz
  1  'x, y, z'
loop_
 _atom_site_type_symbol
 _atom_site_label
 _atom_site_symmetry_multiplicity
 _atom_site_fract_x
 _atom_site_fract_y
 _atom_site_fract_z
 _atom_site_occupancy
  Sc  Sc0  1  0.548431  0.803114  0.606231  1
  Sc  Sc1  1  0.548402  0.803133  0.196901  1
  Sc  Sc2  1  0.548466  0.393784  0.196912  1
  Sc  Sc3  1  0.451569  0.196886  0.393769  1
  Sc  Sc4  1  0.451598  0.196867  0.803099  1
  Sc  Sc5  1  0.451534  0.606216  0.803088  1
  Sc  Sc6  1  0.048431  0.196886  0.393769  1
  Sc  Sc7  1  0.048402  0.196867  0.803099  1
  Sc  Sc8  1  0.048466  0.606216  0.803088  1
  Sc  Sc9  1  0.951569  0.803114  0.606231  1
  Sc  Sc10  1  0.951598  0.803133  0.196901  1
  Sc  Sc11  1  0.951534  0.393784  0.196912  1
  Sc  Sc12  1  0.750000  0.457728  0.915487  1
  Sc  Sc13  1  0.750000  0.457662  0.542229  1
  Sc  Sc14  1  0.750000  0.084491  0.542203  1
  Sc  Sc15  1  0.250000  0.542272  0.084513  1
  Sc  Sc16  1  0.250000  0.542338  0.457771  1
  Sc  Sc17  1  0.250000  0.915509  0.457797  1
  Re  Re18  1  0.750000  0.108067  0.216167  1
  Re  Re19  1  0.750000  0.108081  0.891904  1
  Re  Re20  1  0.750000  0.783841  0.891935  1
  Re  Re21  1  0.250000  0.891933  0.783833  1
  Re  Re22  1  0.250000  0.891919  0.108096  1
  Re  Re23  1  0.250000  0.216159  0.108065  1
  Mo  Mo24  1  0.500000  0.000000  0.000000  1
  Mo  Mo25  1  0.000000  0.000000  0.000000  1
  S  S26  1  0.750000  0.666720  0.333325  1
  S  S27  1  0.250000  0.333280  0.666675  1
