# generated using pymatgen
data_Tm4Zn4Ir3Pd
_symmetry_space_group_name_H-M   'P 1'
_cell_length_a   4.02175800
_cell_length_b   6.96379000
_cell_length_c   8.09798415
_cell_angle_alpha   90.16252360
_cell_angle_beta   90.00000000
_cell_angle_gamma   90.00000000
_symmetry_Int_Tables_number   1
_chemical_formula_structural   Tm4Zn4Ir3Pd
_chemical_formula_sum   'Tm4 Zn4 Ir3 Pd1'
_cell_volume   226.79672325
_cell_formula_units_Z   1
loop_
 _symmetry_equiv_pos_site_id
 _symmetry_equiv_pos_as_xyz
  1  'x, y, z'
loop_
 _atom_site_type_symbol
 _atom_site_label
 _atom_site_symmetry_multiplicity
 _atom_site_fract_x
 _atom_site_fract_y
 _atom_site_fract_z
 _atom_site_occupancy
  Tm  Tm0  1  0.750000  0.466274  0.175403  1
  Tm  Tm1  1  0.750000  0.948795  0.316899  1
  Tm  Tm2  1  0.250000  0.541773  0.818182  1
  Tm  Tm3  1  0.250000  0.036252  0.688280  1
  Zn  Zn4  1  0.750000  0.864648  0.935336  1
  Zn  Zn5  1  0.750000  0.366410  0.566113  1
  Zn  Zn6  1  0.250000  0.135777  0.062746  1
  Zn  Zn7  1  0.250000  0.636700  0.435452  1
  Ir  Ir8  1  0.750000  0.249141  0.876477  1
  Ir  Ir9  1  0.750000  0.747799  0.621889  1
  Ir  Ir10  1  0.250000  0.754229  0.124809  1
  Pd  Pd11  1  0.250000  0.252202  0.378415  1
