# generated using pymatgen
data_TbPm(BeSi)2
_symmetry_space_group_name_H-M   'P 1'
_cell_length_a   5.64022599
_cell_length_b   5.64022579
_cell_length_c   5.64022700
_cell_angle_alpha   140.14325877
_cell_angle_beta   107.77262925
_cell_angle_gamma   85.82002838
_symmetry_Int_Tables_number   1
_chemical_formula_structural   TbPm(BeSi)2
_chemical_formula_sum   'Tb1 Pm1 Be2 Si2'
_cell_volume   105.60182246
_cell_formula_units_Z   1
loop_
 _symmetry_equiv_pos_site_id
 _symmetry_equiv_pos_as_xyz
  1  'x, y, z'
loop_
 _atom_site_type_symbol
 _atom_site_label
 _atom_site_symmetry_multiplicity
 _atom_site_fract_x
 _atom_site_fract_y
 _atom_site_fract_z
 _atom_site_occupancy
  Tb  Tb0  1  0.500389  0.500000  0.000389  1
  Pm  Pm1  1  0.000234  0.000000  0.000234  1
  Be  Be2  1  0.582809  0.250032  0.332778  1
  Be  Be3  1  0.082744  0.749967  0.332778  1
  Si  Si4  1  0.916068  0.249157  0.666911  1
  Si  Si5  1  0.417753  0.750842  0.666910  1
