# generated using pymatgen
data_Sr(Cr3S4)2
_symmetry_space_group_name_H-M   'P 1'
_cell_length_a   6.33179206
_cell_length_b   6.33179225
_cell_length_c   6.33179135
_cell_angle_alpha   89.10698894
_cell_angle_beta   89.10699663
_cell_angle_gamma   89.10699157
_symmetry_Int_Tables_number   1
_chemical_formula_structural   Sr(Cr3S4)2
_chemical_formula_sum   'Sr1 Cr6 S8'
_cell_volume   253.76004776
_cell_formula_units_Z   1
loop_
 _symmetry_equiv_pos_site_id
 _symmetry_equiv_pos_as_xyz
  1  'x, y, z'
loop_
 _atom_site_type_symbol
 _atom_site_label
 _atom_site_symmetry_multiplicity
 _atom_site_fract_x
 _atom_site_fract_y
 _atom_site_fract_z
 _atom_site_occupancy
  Sr  Sr0  1  0.000000  0.000000  0.000000  1
  Cr  Cr1  1  0.564111  0.239289  0.417129  1
  Cr  Cr2  1  0.239289  0.417129  0.564111  1
  Cr  Cr3  1  0.417129  0.564111  0.239289  1
  Cr  Cr4  1  0.435889  0.760711  0.582871  1
  Cr  Cr5  1  0.760711  0.582871  0.435889  1
  Cr  Cr6  1  0.582871  0.435889  0.760711  1
  S  S7  1  0.253287  0.253287  0.253287  1
  S  S8  1  0.746713  0.746713  0.746713  1
  S  S9  1  0.392872  0.125371  0.730497  1
  S  S10  1  0.125371  0.730497  0.392872  1
  S  S11  1  0.730497  0.392872  0.125371  1
  S  S12  1  0.607128  0.874629  0.269503  1
  S  S13  1  0.874629  0.269503  0.607128  1
  S  S14  1  0.269503  0.607128  0.874629  1
