# generated using pymatgen
data_Ac16Yb4Sn13Ge3
_symmetry_space_group_name_H-M   'P 1'
_cell_length_a   8.31652900
_cell_length_b   8.91043162
_cell_length_c   16.76763500
_cell_angle_alpha   90.00000000
_cell_angle_beta   90.00000000
_cell_angle_gamma   89.54365736
_symmetry_Int_Tables_number   1
_chemical_formula_structural   Ac16Yb4Sn13Ge3
_chemical_formula_sum   'Ac16 Yb4 Sn13 Ge3'
_cell_volume   1242.50711543
_cell_formula_units_Z   1
loop_
 _symmetry_equiv_pos_site_id
 _symmetry_equiv_pos_as_xyz
  1  'x, y, z'
loop_
 _atom_site_type_symbol
 _atom_site_label
 _atom_site_symmetry_multiplicity
 _atom_site_fract_x
 _atom_site_fract_y
 _atom_site_fract_z
 _atom_site_occupancy
  Ac  Ac0  1  0.659552  0.180779  0.631906  1
  Ac  Ac1  1  0.160927  0.319324  0.868678  1
  Ac  Ac2  1  0.347119  0.817212  0.127654  1
  Ac  Ac3  1  0.831104  0.672130  0.373575  1
  Ac  Ac4  1  0.347119  0.817212  0.372346  1
  Ac  Ac5  1  0.831104  0.672130  0.126425  1
  Ac  Ac6  1  0.659552  0.180779  0.868094  1
  Ac  Ac7  1  0.160927  0.319324  0.631322  1
  Ac  Ac8  1  0.501336  0.681105  0.599243  1
  Ac  Ac9  1  0.002938  0.819333  0.901756  1
  Ac  Ac10  1  0.498098  0.319943  0.096776  1
  Ac  Ac11  1  0.998318  0.186735  0.404401  1
  Ac  Ac12  1  0.498098  0.319943  0.403224  1
  Ac  Ac13  1  0.998318  0.186735  0.095599  1
  Ac  Ac14  1  0.501336  0.681105  0.900757  1
  Ac  Ac15  1  0.002938  0.819333  0.598244  1
  Yb  Yb16  1  0.815793  0.517811  0.750000  1
  Yb  Yb17  1  0.316843  0.979652  0.750000  1
  Yb  Yb18  1  0.182280  0.486967  0.250000  1
  Yb  Yb19  1  0.674653  0.020792  0.250000  1
  Sn  Sn20  1  0.676253  0.970081  0.465479  1
  Sn  Sn21  1  0.175711  0.532736  0.034178  1
  Sn  Sn22  1  0.328106  0.032347  0.963358  1
  Sn  Sn23  1  0.824961  0.467867  0.539545  1
  Sn  Sn24  1  0.328106  0.032347  0.536642  1
  Sn  Sn25  1  0.824961  0.467867  0.960455  1
  Sn  Sn26  1  0.676253  0.970081  0.034521  1
  Sn  Sn27  1  0.175711  0.532736  0.465822  1
  Sn  Sn28  1  0.034678  0.903949  0.250000  1
  Sn  Sn29  1  0.707365  0.864170  0.750000  1
  Sn  Sn30  1  0.204808  0.634575  0.750000  1
  Sn  Sn31  1  0.298819  0.138727  0.250000  1
  Sn  Sn32  1  0.794048  0.363645  0.250000  1
  Ge  Ge33  1  0.462157  0.411449  0.750000  1
  Ge  Ge34  1  0.963887  0.089682  0.750000  1
  Ge  Ge35  1  0.535821  0.589399  0.250000  1
