# generated using pymatgen
data_Tb6Er14Si15Os
_symmetry_space_group_name_H-M   'P 1'
_cell_length_a   7.34793037
_cell_length_b   7.70980604
_cell_length_c   14.46759528
_cell_angle_alpha   89.92451144
_cell_angle_beta   90.01505403
_cell_angle_gamma   90.07273011
_symmetry_Int_Tables_number   1
_chemical_formula_structural   Tb6Er14Si15Os
_chemical_formula_sum   'Tb6 Er14 Si15 Os1'
_cell_volume   819.60404712
_cell_formula_units_Z   1
loop_
 _symmetry_equiv_pos_site_id
 _symmetry_equiv_pos_as_xyz
  1  'x, y, z'
loop_
 _atom_site_type_symbol
 _atom_site_label
 _atom_site_symmetry_multiplicity
 _atom_site_fract_x
 _atom_site_fract_y
 _atom_site_fract_z
 _atom_site_occupancy
  Tb  Tb0  1  0.474483  0.316549  0.096824  1
  Tb  Tb1  1  0.974641  0.182030  0.403102  1
  Tb  Tb2  1  0.475008  0.316893  0.403421  1
  Tb  Tb3  1  0.975181  0.181862  0.096583  1
  Tb  Tb4  1  0.521532  0.672679  0.903436  1
  Tb  Tb5  1  0.025210  0.818454  0.596233  1
  Er  Er6  1  0.671530  0.185379  0.626022  1
  Er  Er7  1  0.191414  0.324800  0.873362  1
  Er  Er8  1  0.318885  0.819677  0.123960  1
  Er  Er9  1  0.817530  0.677409  0.376325  1
  Er  Er10  1  0.319455  0.819350  0.376131  1
  Er  Er11  1  0.818023  0.678166  0.123473  1
  Er  Er12  1  0.671199  0.185229  0.874089  1
  Er  Er13  1  0.192265  0.325541  0.626588  1
  Er  Er14  1  0.521948  0.672103  0.597751  1
  Er  Er15  1  0.026338  0.817102  0.902510  1
  Er  Er16  1  0.840788  0.511493  0.750047  1
  Er  Er17  1  0.354582  0.988653  0.749911  1
  Er  Er18  1  0.150714  0.485589  0.250002  1
  Er  Er19  1  0.650226  0.012854  0.249978  1
  Si  Si20  1  0.647244  0.969521  0.460910  1
  Si  Si21  1  0.149579  0.530563  0.039330  1
  Si  Si22  1  0.346317  0.024862  0.961117  1
  Si  Si23  1  0.853982  0.471291  0.539334  1
  Si  Si24  1  0.348453  0.024286  0.539158  1
  Si  Si25  1  0.855629  0.471701  0.960506  1
  Si  Si26  1  0.646465  0.970665  0.039426  1
  Si  Si27  1  0.149050  0.529430  0.460269  1
  Si  Si28  1  0.980453  0.101902  0.750316  1
  Si  Si29  1  0.522899  0.606762  0.250025  1
  Si  Si30  1  0.020133  0.892152  0.249935  1
  Si  Si31  1  0.739726  0.875733  0.750323  1
  Si  Si32  1  0.229144  0.633683  0.750073  1
  Si  Si33  1  0.268773  0.127867  0.250080  1
  Si  Si34  1  0.770819  0.372031  0.249955  1
  Os  Os35  1  0.480379  0.405738  0.749495  1
