# generated using pymatgen
data_La20Si11Os
_symmetry_space_group_name_H-M   'P 1'
_cell_length_a   7.88692700
_cell_length_b   7.88692700
_cell_length_c   14.45678900
_cell_angle_alpha   90.00000000
_cell_angle_beta   90.00000000
_cell_angle_gamma   90.00000000
_symmetry_Int_Tables_number   1
_chemical_formula_structural   La20Si11Os
_chemical_formula_sum   'La20 Si11 Os1'
_cell_volume   899.26457328
_cell_formula_units_Z   1
loop_
 _symmetry_equiv_pos_site_id
 _symmetry_equiv_pos_as_xyz
  1  'x, y, z'
loop_
 _atom_site_type_symbol
 _atom_site_label
 _atom_site_symmetry_multiplicity
 _atom_site_fract_x
 _atom_site_fract_y
 _atom_site_fract_z
 _atom_site_occupancy
  La  La0  1  0.500000  0.000000  0.774222  1
  La  La1  1  0.329034  0.313967  0.104994  1
  La  La2  1  0.827392  0.815157  0.894319  1
  La  La3  1  0.000000  0.500000  0.223734  1
  La  La4  1  0.835184  0.191613  0.396475  1
  La  La5  1  0.172608  0.184843  0.894319  1
  La  La6  1  0.670966  0.686033  0.104994  1
  La  La7  1  0.000000  0.500000  0.717703  1
  La  La8  1  0.817103  0.827748  0.603783  1
  La  La9  1  0.308387  0.335184  0.396475  1
  La  La10  1  0.186033  0.829034  0.104994  1
  La  La11  1  0.182897  0.172252  0.603783  1
  La  La12  1  0.813967  0.170966  0.104994  1
  La  La13  1  0.327748  0.682897  0.603783  1
  La  La14  1  0.500000  0.000000  0.278054  1
  La  La15  1  0.684843  0.327392  0.894319  1
  La  La16  1  0.672252  0.317103  0.603783  1
  La  La17  1  0.315157  0.672608  0.894319  1
  La  La18  1  0.164816  0.808387  0.396475  1
  La  La19  1  0.691613  0.664816  0.396475  1
  Si  Si20  1  0.613938  0.387354  0.248736  1
  Si  Si21  1  0.887516  0.112879  0.751246  1
  Si  Si22  1  0.500000  0.000000  0.496115  1
  Si  Si23  1  0.887354  0.886062  0.248736  1
  Si  Si24  1  0.000000  0.500000  0.005389  1
  Si  Si25  1  0.112484  0.887121  0.751246  1
  Si  Si26  1  0.387121  0.387516  0.751246  1
  Si  Si27  1  0.112646  0.113938  0.248736  1
  Si  Si28  1  0.386062  0.612646  0.248736  1
  Si  Si29  1  0.612879  0.612484  0.751246  1
  Si  Si30  1  0.500000  0.000000  0.993881  1
  Os  Os31  1  0.000000  0.500000  0.512690  1
