# generated using pymatgen
data_YbEu3Zn4Fe3H22
_symmetry_space_group_name_H-M   'P 1'
_cell_length_a   6.62211504
_cell_length_b   6.62211504
_cell_length_c   6.62211504
_cell_angle_alpha   89.86603790
_cell_angle_beta   89.86603790
_cell_angle_gamma   89.86603790
_symmetry_Int_Tables_number   1
_chemical_formula_structural   YbEu3Zn4Fe3H22
_chemical_formula_sum   'Yb1 Eu3 Zn4 Fe3 H22'
_cell_volume   290.39331036
_cell_formula_units_Z   1
loop_
 _symmetry_equiv_pos_site_id
 _symmetry_equiv_pos_as_xyz
  1  'x, y, z'
loop_
 _atom_site_type_symbol
 _atom_site_label
 _atom_site_symmetry_multiplicity
 _atom_site_fract_x
 _atom_site_fract_y
 _atom_site_fract_z
 _atom_site_occupancy
  Yb  Yb0  1  0.718691  0.718691  0.718691  1
  Eu  Eu1  1  0.287446  0.287446  0.713067  1
  Eu  Eu2  1  0.287446  0.713067  0.287446  1
  Eu  Eu3  1  0.713067  0.287446  0.287446  1
  Zn  Zn4  1  0.784780  0.784780  0.214079  1
  Zn  Zn5  1  0.784780  0.214079  0.784780  1
  Zn  Zn6  1  0.214079  0.784780  0.784780  1
  Zn  Zn7  1  0.212600  0.212600  0.212600  1
  Fe  Fe8  1  0.998225  0.998225  0.502450  1
  Fe  Fe9  1  0.998225  0.502450  0.998225  1
  Fe  Fe10  1  0.502450  0.998225  0.998225  1
  H  H11  1  0.998767  0.501523  0.237434  1
  H  H12  1  0.503814  0.760250  0.996698  1
  H  H13  1  0.760250  0.996698  0.503814  1
  H  H14  1  0.996698  0.760250  0.503814  1
  H  H15  1  0.501523  0.998767  0.237434  1
  H  H16  1  0.760250  0.503814  0.996698  1
  H  H17  1  0.996698  0.503814  0.760250  1
  H  H18  1  0.501523  0.237434  0.998767  1
  H  H19  1  0.998767  0.237434  0.501523  1
  H  H20  1  0.503814  0.996698  0.760250  1
  H  H21  1  0.237434  0.998767  0.501523  1
  H  H22  1  0.237434  0.501523  0.998767  1
  H  H23  1  0.998147  0.998147  0.259537  1
  H  H24  1  0.997817  0.743740  0.997817  1
  H  H25  1  0.743740  0.997817  0.997817  1
  H  H26  1  0.997817  0.997817  0.743740  1
  H  H27  1  0.998147  0.259537  0.998147  1
  H  H28  1  0.259537  0.998147  0.998147  1
  H  H29  1  0.637598  0.637598  0.368303  1
  H  H30  1  0.637598  0.368303  0.637598  1
  H  H31  1  0.368303  0.637598  0.637598  1
  H  H32  1  0.362536  0.362536  0.362536  1
