# generated using pymatgen
data_DyY2Er(Al3Rh)6
_symmetry_space_group_name_H-M   'P 1'
_cell_length_a   7.54816842
_cell_length_b   7.54910377
_cell_length_c   9.47795700
_cell_angle_alpha   90.00000000
_cell_angle_beta   90.00000000
_cell_angle_gamma   119.36389269
_symmetry_Int_Tables_number   1
_chemical_formula_structural   DyY2Er(Al3Rh)6
_chemical_formula_sum   'Dy1 Y2 Er1 Al18 Rh6'
_cell_volume   470.68522422
_cell_formula_units_Z   1
loop_
 _symmetry_equiv_pos_site_id
 _symmetry_equiv_pos_as_xyz
  1  'x, y, z'
loop_
 _atom_site_type_symbol
 _atom_site_label
 _atom_site_symmetry_multiplicity
 _atom_site_fract_x
 _atom_site_fract_y
 _atom_site_fract_z
 _atom_site_occupancy
  Dy  Dy0  1  0.994445  0.671534  0.750000  1
  Y  Y1  1  0.005617  0.328366  0.250000  1
  Y  Y2  1  0.671578  0.994407  0.750000  1
  Er  Er3  1  0.328275  0.005512  0.250000  1
  Al  Al4  1  0.128309  0.128248  0.750000  1
  Al  Al5  1  0.872062  0.871876  0.250000  1
  Al  Al6  1  0.001038  0.335311  0.574866  1
  Al  Al7  1  0.999330  0.664931  0.424614  1
  Al  Al8  1  0.999330  0.664931  0.075386  1
  Al  Al9  1  0.335334  0.001015  0.925452  1
  Al  Al10  1  0.001038  0.335311  0.925134  1
  Al  Al11  1  0.664233  0.999103  0.075192  1
  Al  Al12  1  0.664233  0.999103  0.424808  1
  Al  Al13  1  0.335334  0.001015  0.574548  1
  Al  Al14  1  0.333026  0.332673  0.051111  1
  Al  Al15  1  0.666953  0.666983  0.949871  1
  Al  Al16  1  0.666953  0.666983  0.550129  1
  Al  Al17  1  0.333026  0.332673  0.448889  1
  Al  Al18  1  0.339529  0.549670  0.750000  1
  Al  Al19  1  0.660042  0.449919  0.250000  1
  Al  Al20  1  0.549594  0.339397  0.750000  1
  Al  Al21  1  0.450464  0.661000  0.250000  1
  Rh  Rh22  1  0.671989  0.327876  0.499788  1
  Rh  Rh23  1  0.327813  0.672154  0.499779  1
  Rh  Rh24  1  0.327813  0.672154  0.000221  1
  Rh  Rh25  1  0.671989  0.327876  0.000212  1
  Rh  Rh26  1  0.000326  0.999989  0.499692  1
  Rh  Rh27  1  0.000326  0.999989  0.000308  1
