# generated using pymatgen
data_FeIrCl6
_symmetry_space_group_name_H-M   'P 1'
_cell_length_a   6.13610092
_cell_length_b   6.13610118
_cell_length_c   6.63713232
_cell_angle_alpha   81.39636326
_cell_angle_beta   81.39636241
_cell_angle_gamma   119.97206176
_symmetry_Int_Tables_number   1
_chemical_formula_structural   FeIrCl6
_chemical_formula_sum   'Fe1 Ir1 Cl6'
_cell_volume   206.57222119
_cell_formula_units_Z   1
loop_
 _symmetry_equiv_pos_site_id
 _symmetry_equiv_pos_as_xyz
  1  'x, y, z'
loop_
 _atom_site_type_symbol
 _atom_site_label
 _atom_site_symmetry_multiplicity
 _atom_site_fract_x
 _atom_site_fract_y
 _atom_site_fract_z
 _atom_site_occupancy
  Fe  Fe0  1  0.166737  0.833263  0.000000  1
  Ir  Ir1  1  0.833359  0.166641  0.000000  1
  Cl  Cl2  1  0.439861  0.079124  0.211516  1
  Cl  Cl3  1  0.920876  0.560139  0.788484  1
  Cl  Cl4  1  0.207419  0.215609  0.788234  1
  Cl  Cl5  1  0.784391  0.792581  0.211766  1
  Cl  Cl6  1  0.070812  0.423455  0.211363  1
  Cl  Cl7  1  0.576545  0.929188  0.788637  1
