# generated using pymatgen
data_Mg2Co9P7W3
_symmetry_space_group_name_H-M   'P 1'
_cell_length_a   3.65442300
_cell_length_b   9.03403988
_cell_length_c   9.03404000
_cell_angle_alpha   119.99999410
_cell_angle_beta   90.00000000
_cell_angle_gamma   90.00000000
_symmetry_Int_Tables_number   1
_chemical_formula_structural   Mg2Co9P7W3
_chemical_formula_sum   'Mg2 Co9 P7 W3'
_cell_volume   258.29350500
_cell_formula_units_Z   1
loop_
 _symmetry_equiv_pos_site_id
 _symmetry_equiv_pos_as_xyz
  1  'x, y, z'
loop_
 _atom_site_type_symbol
 _atom_site_label
 _atom_site_symmetry_multiplicity
 _atom_site_fract_x
 _atom_site_fract_y
 _atom_site_fract_z
 _atom_site_occupancy
  Mg  Mg0  1  0.000000  0.666667  0.333333  1
  Mg  Mg1  1  0.500000  0.333333  0.666667  1
  Co  Co2  1  0.000000  0.564385  0.933358  1
  Co  Co3  1  0.000000  0.368972  0.435615  1
  Co  Co4  1  0.000000  0.066642  0.631028  1
  Co  Co5  1  0.500000  0.946581  0.387356  1
  Co  Co6  1  0.500000  0.440774  0.053419  1
  Co  Co7  1  0.500000  0.612644  0.559226  1
  Co  Co8  1  0.000000  0.879017  0.161591  1
  Co  Co9  1  0.000000  0.282573  0.120983  1
  Co  Co10  1  0.000000  0.838409  0.717427  1
  P  P11  1  0.500000  0.709443  0.126631  1
  P  P12  1  0.500000  0.417188  0.290557  1
  P  P13  1  0.500000  0.873369  0.582812  1
  P  P14  1  0.000000  0.000000  0.000000  1
  P  P15  1  0.000000  0.580863  0.697614  1
  P  P16  1  0.000000  0.116751  0.419137  1
  P  P17  1  0.000000  0.302386  0.883249  1
  W  W18  1  0.500000  0.778644  0.903355  1
  W  W19  1  0.500000  0.124712  0.221356  1
  W  W20  1  0.500000  0.096645  0.875288  1
