# generated using pymatgen
data_Y2Tm6B24Ru3W
_symmetry_space_group_name_H-M   'P 1'
_cell_length_a   3.61679500
_cell_length_b   9.12186997
_cell_length_c   11.51446900
_cell_angle_alpha   89.85646975
_cell_angle_beta   90.00000000
_cell_angle_gamma   90.00000000
_symmetry_Int_Tables_number   1
_chemical_formula_structural   Y2Tm6B24Ru3W
_chemical_formula_sum   'Y2 Tm6 B24 Ru3 W1'
_cell_volume   379.88340573
_cell_formula_units_Z   1
loop_
 _symmetry_equiv_pos_site_id
 _symmetry_equiv_pos_as_xyz
  1  'x, y, z'
loop_
 _atom_site_type_symbol
 _atom_site_label
 _atom_site_symmetry_multiplicity
 _atom_site_fract_x
 _atom_site_fract_y
 _atom_site_fract_z
 _atom_site_occupancy
  Y  Y0  1  0.000000  0.320971  0.413595  1
  Y  Y1  1  0.000000  0.678194  0.585635  1
  Tm  Tm2  1  0.000000  0.820208  0.086790  1
  Tm  Tm3  1  0.000000  0.177155  0.914868  1
  Tm  Tm4  1  0.000000  0.946404  0.372909  1
  Tm  Tm5  1  0.000000  0.057716  0.629297  1
  Tm  Tm6  1  0.000000  0.442440  0.125406  1
  Tm  Tm7  1  0.000000  0.556726  0.871266  1
  B  B8  1  0.500000  0.550242  0.436264  1
  B  B9  1  0.500000  0.445461  0.568991  1
  B  B10  1  0.500000  0.053628  0.066217  1
  B  B11  1  0.500000  0.946402  0.933636  1
  B  B12  1  0.500000  0.752987  0.422004  1
  B  B13  1  0.500000  0.251039  0.581940  1
  B  B14  1  0.500000  0.248261  0.079261  1
  B  B15  1  0.500000  0.751270  0.919523  1
  B  B16  1  0.500000  0.796469  0.263219  1
  B  B17  1  0.500000  0.208083  0.735185  1
  B  B18  1  0.500000  0.290336  0.231824  1
  B  B19  1  0.500000  0.709483  0.766326  1
  B  B20  1  0.500000  0.632047  0.181067  1
  B  B21  1  0.500000  0.367862  0.815749  1
  B  B22  1  0.500000  0.131124  0.313909  1
  B  B23  1  0.500000  0.870140  0.685781  1
  B  B24  1  0.500000  0.983415  0.212183  1
  B  B25  1  0.500000  0.017804  0.788572  1
  B  B26  1  0.500000  0.476873  0.285480  1
  B  B27  1  0.500000  0.516224  0.713748  1
  B  B28  1  0.500000  0.605995  0.027281  1
  B  B29  1  0.500000  0.392563  0.969456  1
  B  B30  1  0.500000  0.106075  0.471759  1
  B  B31  1  0.500000  0.897920  0.530395  1
  Ru  Ru32  1  0.000000  0.360551  0.681261  1
  Ru  Ru33  1  0.000000  0.137207  0.177508  1
  Ru  Ru34  1  0.000000  0.862562  0.821186  1
  W  W35  1  0.000000  0.638165  0.320510  1
