# generated using pymatgen
data_TbYFe9Ni3P7
_symmetry_space_group_name_H-M   'P 1'
_cell_length_a   3.63601700
_cell_length_b   9.00064458
_cell_length_c   9.01022115
_cell_angle_alpha   119.67787651
_cell_angle_beta   90.00000000
_cell_angle_gamma   90.00000000
_symmetry_Int_Tables_number   1
_chemical_formula_structural   TbYFe9Ni3P7
_chemical_formula_sum   'Tb1 Y1 Fe9 Ni3 P7'
_cell_volume   256.19235001
_cell_formula_units_Z   1
loop_
 _symmetry_equiv_pos_site_id
 _symmetry_equiv_pos_as_xyz
  1  'x, y, z'
loop_
 _atom_site_type_symbol
 _atom_site_label
 _atom_site_symmetry_multiplicity
 _atom_site_fract_x
 _atom_site_fract_y
 _atom_site_fract_z
 _atom_site_occupancy
  Tb  Tb0  1  0.500000  0.337474  0.668687  1
  Y  Y1  1  0.000000  0.664650  0.332298  1
  Fe  Fe2  1  0.000000  0.571883  0.632414  1
  Fe  Fe3  1  0.000000  0.880035  0.724395  1
  Fe  Fe4  1  0.000000  0.270603  0.154246  1
  Fe  Fe5  1  0.000000  0.847148  0.119973  1
  Fe  Fe6  1  0.500000  0.432285  0.384993  1
  Fe  Fe7  1  0.500000  0.613429  0.048819  1
  Fe  Fe8  1  0.500000  0.125583  0.901147  1
  Fe  Fe9  1  0.500000  0.096531  0.214806  1
  Fe  Fe10  1  0.500000  0.779962  0.877718  1
  Ni  Ni11  1  0.000000  0.371729  0.940420  1
  Ni  Ni12  1  0.000000  0.061815  0.433550  1
  Ni  Ni13  1  0.500000  0.948232  0.563246  1
  P  P14  1  0.000000  0.111743  0.706750  1
  P  P15  1  0.000000  0.303501  0.410771  1
  P  P16  1  0.000000  0.597394  0.890915  1
  P  P17  1  0.500000  0.705135  0.600764  1
  P  P18  1  0.500000  0.401831  0.118415  1
  P  P19  1  0.500000  0.880720  0.278532  1
  P  P20  1  0.000000  0.998315  0.997141  1
