# generated using pymatgen
data_Yb3Dy(FeB4)4
_symmetry_space_group_name_H-M   'P 1'
_cell_length_a   3.34011400
_cell_length_b   5.87775519
_cell_length_c   11.37666102
_cell_angle_alpha   89.90104570
_cell_angle_beta   90.00000000
_cell_angle_gamma   90.00000000
_symmetry_Int_Tables_number   1
_chemical_formula_structural   Yb3Dy(FeB4)4
_chemical_formula_sum   'Yb3 Dy1 Fe4 B16'
_cell_volume   223.35051285
_cell_formula_units_Z   1
loop_
 _symmetry_equiv_pos_site_id
 _symmetry_equiv_pos_as_xyz
  1  'x, y, z'
loop_
 _atom_site_type_symbol
 _atom_site_label
 _atom_site_symmetry_multiplicity
 _atom_site_fract_x
 _atom_site_fract_y
 _atom_site_fract_z
 _atom_site_occupancy
  Yb  Yb0  1  0.000000  0.626367  0.349390  1
  Yb  Yb1  1  0.000000  0.374208  0.649685  1
  Yb  Yb2  1  0.000000  0.126532  0.151906  1
  Dy  Dy3  1  0.000000  0.873773  0.848635  1
  Fe  Fe4  1  0.000000  0.629113  0.083800  1
  Fe  Fe5  1  0.000000  0.371238  0.915141  1
  Fe  Fe6  1  0.000000  0.128669  0.416756  1
  Fe  Fe7  1  0.000000  0.872222  0.584124  1
  B  B8  1  0.500000  0.779033  0.183108  1
  B  B9  1  0.500000  0.221175  0.817113  1
  B  B10  1  0.500000  0.279408  0.317708  1
  B  B11  1  0.500000  0.719838  0.681982  1
  B  B12  1  0.500000  0.860723  0.032515  1
  B  B13  1  0.500000  0.139493  0.968253  1
  B  B14  1  0.500000  0.361333  0.467752  1
  B  B15  1  0.500000  0.638601  0.532066  1
  B  B16  1  0.500000  0.887546  0.453850  1
  B  B17  1  0.500000  0.112447  0.546331  1
  B  B18  1  0.500000  0.387208  0.046938  1
  B  B19  1  0.500000  0.610861  0.953573  1
  B  B20  1  0.500000  0.975625  0.310128  1
  B  B21  1  0.500000  0.024671  0.689585  1
  B  B22  1  0.500000  0.475857  0.190415  1
  B  B23  1  0.500000  0.524058  0.809244  1
