# generated using pymatgen
data_LaAl8GeAu4
_symmetry_space_group_name_H-M   'P 1'
_cell_length_a   6.14038866
_cell_length_b   6.14038975
_cell_length_c   14.96716321
_cell_angle_alpha   101.83702947
_cell_angle_beta   101.83703317
_cell_angle_gamma   90.00000023
_symmetry_Int_Tables_number   1
_chemical_formula_structural   LaAl8GeAu4
_chemical_formula_sum   'La2 Al16 Ge2 Au8'
_cell_volume   540.06017698
_cell_formula_units_Z   2
loop_
 _symmetry_equiv_pos_site_id
 _symmetry_equiv_pos_as_xyz
  1  'x, y, z'
loop_
 _atom_site_type_symbol
 _atom_site_label
 _atom_site_symmetry_multiplicity
 _atom_site_fract_x
 _atom_site_fract_y
 _atom_site_fract_z
 _atom_site_occupancy
  La  La0  1  0.750001  0.250000  0.500000  1
  La  La1  1  0.250000  0.750001  0.500000  1
  Al  Al2  1  0.302042  0.302042  0.105349  1
  Al  Al3  1  0.803307  0.302042  0.105349  1
  Al  Al4  1  0.302042  0.803307  0.105349  1
  Al  Al5  1  0.803307  0.803307  0.105349  1
  Al  Al6  1  0.405885  0.405885  0.310511  1
  Al  Al7  1  0.904625  0.405885  0.310511  1
  Al  Al8  1  0.405885  0.904625  0.310511  1
  Al  Al9  1  0.904625  0.904625  0.310511  1
  Al  Al10  1  0.095374  0.095374  0.689489  1
  Al  Al11  1  0.594115  0.095374  0.689489  1
  Al  Al12  1  0.095374  0.594115  0.689489  1
  Al  Al13  1  0.594115  0.594115  0.689489  1
  Al  Al14  1  0.196694  0.196694  0.894651  1
  Al  Al15  1  0.697957  0.196694  0.894651  1
  Al  Al16  1  0.196694  0.697957  0.894651  1
  Al  Al17  1  0.697957  0.697957  0.894651  1
  Ge  Ge18  1  0.206790  0.206790  0.413582  1
  Ge  Ge19  1  0.793210  0.793210  0.586419  1
  Au  Au20  1  0.000000  0.000000  0.000000  1
  Au  Au21  1  0.500001  0.500001  0.000000  1
  Au  Au22  1  0.605087  0.105087  0.210173  1
  Au  Au23  1  0.105087  0.605087  0.210173  1
  Au  Au24  1  0.703911  0.703911  0.407820  1
  Au  Au25  1  0.296090  0.296090  0.592180  1
  Au  Au26  1  0.894914  0.394913  0.789826  1
  Au  Au27  1  0.394913  0.894914  0.789826  1
