# generated using pymatgen
data_Ba5Sb3Br
_symmetry_space_group_name_H-M   'P 1'
_cell_length_a   10.23539800
_cell_length_b   10.23539827
_cell_length_c   8.03951200
_cell_angle_alpha   90.00000000
_cell_angle_beta   90.00000000
_cell_angle_gamma   119.99999912
_symmetry_Int_Tables_number   1
_chemical_formula_structural   Ba5Sb3Br
_chemical_formula_sum   'Ba10 Sb6 Br2'
_cell_volume   729.40679420
_cell_formula_units_Z   2
loop_
 _symmetry_equiv_pos_site_id
 _symmetry_equiv_pos_as_xyz
  1  'x, y, z'
loop_
 _atom_site_type_symbol
 _atom_site_label
 _atom_site_symmetry_multiplicity
 _atom_site_fract_x
 _atom_site_fract_y
 _atom_site_fract_z
 _atom_site_occupancy
  Ba  Ba0  1  0.263046  0.000000  0.250000  1
  Ba  Ba1  1  0.000000  0.736954  0.750000  1
  Ba  Ba2  1  0.736954  0.736954  0.250000  1
  Ba  Ba3  1  0.263046  0.263046  0.750000  1
  Ba  Ba4  1  0.736954  0.000000  0.750000  1
  Ba  Ba5  1  0.000000  0.263046  0.250000  1
  Ba  Ba6  1  0.666667  0.333333  0.500000  1
  Ba  Ba7  1  0.333333  0.666667  0.000000  1
  Ba  Ba8  1  0.333333  0.666667  0.500000  1
  Ba  Ba9  1  0.666667  0.333333  0.000000  1
  Sb  Sb10  1  0.608720  0.608720  0.750000  1
  Sb  Sb11  1  0.000000  0.608720  0.250000  1
  Sb  Sb12  1  0.608720  0.000000  0.250000  1
  Sb  Sb13  1  0.391280  0.000000  0.750000  1
  Sb  Sb14  1  0.000000  0.391280  0.750000  1
  Sb  Sb15  1  0.391280  0.391280  0.250000  1
  Br  Br16  1  0.000000  0.000000  0.500000  1
  Br  Br17  1  0.000000  0.000000  0.000000  1
