# generated using pymatgen
data_Ba4Si5P3Rh8
_symmetry_space_group_name_H-M   'P 1'
_cell_length_a   6.80647218
_cell_length_b   7.68274649
_cell_length_c   7.88703240
_cell_angle_alpha   88.28084145
_cell_angle_beta   89.92855470
_cell_angle_gamma   89.67919904
_symmetry_Int_Tables_number   1
_chemical_formula_structural   Ba4Si5P3Rh8
_chemical_formula_sum   'Ba4 Si5 P3 Rh8'
_cell_volume   412.23951096
_cell_formula_units_Z   1
loop_
 _symmetry_equiv_pos_site_id
 _symmetry_equiv_pos_as_xyz
  1  'x, y, z'
loop_
 _atom_site_type_symbol
 _atom_site_label
 _atom_site_symmetry_multiplicity
 _atom_site_fract_x
 _atom_site_fract_y
 _atom_site_fract_z
 _atom_site_occupancy
  Ba  Ba0  1  0.374865  0.004916  0.242522  1
  Ba  Ba1  1  0.869854  0.494920  0.758056  1
  Ba  Ba2  1  0.126100  0.497966  0.234809  1
  Ba  Ba3  1  0.622654  0.001037  0.763767  1
  Si  Si4  1  0.857083  0.810845  0.440012  1
  Si  Si5  1  0.923035  0.130288  0.073410  1
  Si  Si6  1  0.579268  0.635277  0.076298  1
  Si  Si7  1  0.081012  0.868882  0.925846  1
  Si  Si8  1  0.354522  0.689296  0.560062  1
  P  P9  1  0.421965  0.367577  0.926214  1
  P  P10  1  0.145181  0.189159  0.560705  1
  P  P11  1  0.645227  0.312834  0.436549  1
  Rh  Rh12  1  0.391726  0.381493  0.620453  1
  Rh  Rh13  1  0.610797  0.609518  0.380279  1
  Rh  Rh14  1  0.111490  0.892993  0.621768  1
  Rh  Rh15  1  0.167105  0.174345  0.856965  1
  Rh  Rh16  1  0.659532  0.327324  0.140731  1
  Rh  Rh17  1  0.834902  0.832211  0.140794  1
  Rh  Rh18  1  0.331896  0.660623  0.859190  1
  Rh  Rh19  1  0.891788  0.118497  0.381571  1
