# generated using pymatgen
data_TaTiCrB2
_symmetry_space_group_name_H-M   'P 1'
_cell_length_a   5.89207872
_cell_length_b   5.89207872
_cell_length_c   3.19491300
_cell_angle_alpha   90.00000000
_cell_angle_beta   90.00000000
_cell_angle_gamma   89.81452044
_symmetry_Int_Tables_number   1
_chemical_formula_structural   TaTiCrB2
_chemical_formula_sum   'Ta2 Ti2 Cr2 B4'
_cell_volume   110.91590871
_cell_formula_units_Z   2
loop_
 _symmetry_equiv_pos_site_id
 _symmetry_equiv_pos_as_xyz
  1  'x, y, z'
loop_
 _atom_site_type_symbol
 _atom_site_label
 _atom_site_symmetry_multiplicity
 _atom_site_fract_x
 _atom_site_fract_y
 _atom_site_fract_z
 _atom_site_occupancy
  Ta  Ta0  1  0.182480  0.317520  0.500000  1
  Ta  Ta1  1  0.817520  0.682480  0.500000  1
  Ti  Ti2  1  0.680759  0.180759  0.500000  1
  Ti  Ti3  1  0.319241  0.819241  0.500000  1
  Cr  Cr4  1  0.500000  0.500000  0.000000  1
  Cr  Cr5  1  0.000000  0.000000  0.000000  1
  B  B6  1  0.112913  0.612913  0.000000  1
  B  B7  1  0.887087  0.387087  0.000000  1
  B  B8  1  0.607284  0.892716  0.000000  1
  B  B9  1  0.392716  0.107284  0.000000  1
