# generated using pymatgen
data_Tm3Si2IrPt
_symmetry_space_group_name_H-M   'P 1'
_cell_length_a   5.54862400
_cell_length_b   5.54862366
_cell_length_c   13.24207500
_cell_angle_alpha   90.00000000
_cell_angle_beta   90.00000000
_cell_angle_gamma   136.92878717
_symmetry_Int_Tables_number   1
_chemical_formula_structural   Tm3Si2IrPt
_chemical_formula_sum   'Tm6 Si4 Ir2 Pt2'
_cell_volume   278.41207407
_cell_formula_units_Z   2
loop_
 _symmetry_equiv_pos_site_id
 _symmetry_equiv_pos_as_xyz
  1  'x, y, z'
loop_
 _atom_site_type_symbol
 _atom_site_label
 _atom_site_symmetry_multiplicity
 _atom_site_fract_x
 _atom_site_fract_y
 _atom_site_fract_z
 _atom_site_occupancy
  Tm  Tm0  1  0.780859  0.219141  0.602196  1
  Tm  Tm1  1  0.510830  0.489170  0.250000  1
  Tm  Tm2  1  0.219141  0.780859  0.397804  1
  Tm  Tm3  1  0.780859  0.219141  0.897804  1
  Tm  Tm4  1  0.489170  0.510830  0.750000  1
  Tm  Tm5  1  0.219141  0.780859  0.102196  1
  Si  Si6  1  0.065550  0.934450  0.589650  1
  Si  Si7  1  0.065550  0.934450  0.910350  1
  Si  Si8  1  0.934450  0.065550  0.410350  1
  Si  Si9  1  0.934450  0.065550  0.089650  1
  Ir  Ir10  1  0.500000  0.500000  0.000000  1
  Ir  Ir11  1  0.500000  0.500000  0.500000  1
  Pt  Pt12  1  0.798216  0.201784  0.250000  1
  Pt  Pt13  1  0.201784  0.798216  0.750000  1
