# generated using pymatgen
data_LiZr7(Si4Mo3)4
_symmetry_space_group_name_H-M   'P 1'
_cell_length_a   6.58923849
_cell_length_b   6.76066357
_cell_length_c   12.71509019
_cell_angle_alpha   90.01167514
_cell_angle_beta   89.94170135
_cell_angle_gamma   90.06094223
_symmetry_Int_Tables_number   1
_chemical_formula_structural   LiZr7(Si4Mo3)4
_chemical_formula_sum   'Li1 Zr7 Si16 Mo12'
_cell_volume   566.42643909
_cell_formula_units_Z   1
loop_
 _symmetry_equiv_pos_site_id
 _symmetry_equiv_pos_as_xyz
  1  'x, y, z'
loop_
 _atom_site_type_symbol
 _atom_site_label
 _atom_site_symmetry_multiplicity
 _atom_site_fract_x
 _atom_site_fract_y
 _atom_site_fract_z
 _atom_site_occupancy
  Li  Li0  1  0.977014  0.163813  0.086375  1
  Zr  Zr1  1  0.006177  0.827135  0.908021  1
  Zr  Zr2  1  0.503170  0.671124  0.909111  1
  Zr  Zr3  1  0.004682  0.831214  0.593615  1
  Zr  Zr4  1  0.500097  0.329360  0.095265  1
  Zr  Zr5  1  0.998490  0.170576  0.407963  1
  Zr  Zr6  1  0.494841  0.329098  0.404714  1
  Zr  Zr7  1  0.506493  0.669753  0.592181  1
  Si  Si8  1  0.034082  0.127173  0.751998  1
  Si  Si9  1  0.969457  0.880305  0.246773  1
  Si  Si10  1  0.464533  0.623653  0.250509  1
  Si  Si11  1  0.533657  0.377132  0.749945  1
  Si  Si12  1  0.302404  0.863039  0.750109  1
  Si  Si13  1  0.709100  0.137555  0.245894  1
  Si  Si14  1  0.188658  0.354445  0.242890  1
  Si  Si15  1  0.800875  0.638191  0.752001  1
  Si  Si16  1  0.167100  0.458815  0.543066  1
  Si  Si17  1  0.834614  0.541902  0.457451  1
  Si  Si18  1  0.334853  0.957764  0.456817  1
  Si  Si19  1  0.839596  0.532475  0.046880  1
  Si  Si20  1  0.667709  0.042661  0.542411  1
  Si  Si21  1  0.164385  0.453685  0.958440  1
  Si  Si22  1  0.665550  0.040769  0.958698  1
  Si  Si23  1  0.323287  0.969326  0.045832  1
  Mo  Mo24  1  0.168090  0.512395  0.752500  1
  Mo  Mo25  1  0.833062  0.495530  0.251185  1
  Mo  Mo26  1  0.337424  0.008831  0.250610  1
  Mo  Mo27  1  0.668516  0.992130  0.750485  1
  Mo  Mo28  1  0.334241  0.163409  0.623149  1
  Mo  Mo29  1  0.668360  0.836680  0.375522  1
  Mo  Mo30  1  0.167032  0.663550  0.375289  1
  Mo  Mo31  1  0.663838  0.831671  0.123630  1
  Mo  Mo32  1  0.832632  0.338031  0.624662  1
  Mo  Mo33  1  0.336397  0.162806  0.875001  1
  Mo  Mo34  1  0.828925  0.336975  0.876808  1
  Mo  Mo35  1  0.170662  0.667026  0.124199  1
