# generated using pymatgen
data_Tb2Y3Si3O
_symmetry_space_group_name_H-M   'P 1'
_cell_length_a   8.43486841
_cell_length_b   8.43486786
_cell_length_c   6.24725700
_cell_angle_alpha   90.00000000
_cell_angle_beta   90.00000000
_cell_angle_gamma   119.96416822
_symmetry_Int_Tables_number   1
_chemical_formula_structural   Tb2Y3Si3O
_chemical_formula_sum   'Tb4 Y6 Si6 O2'
_cell_volume   385.06433399
_cell_formula_units_Z   2
loop_
 _symmetry_equiv_pos_site_id
 _symmetry_equiv_pos_as_xyz
  1  'x, y, z'
loop_
 _atom_site_type_symbol
 _atom_site_label
 _atom_site_symmetry_multiplicity
 _atom_site_fract_x
 _atom_site_fract_y
 _atom_site_fract_z
 _atom_site_occupancy
  Tb  Tb0  1  0.231959  0.000002  0.750000  1
  Tb  Tb1  1  0.768041  0.999998  0.250000  1
  Tb  Tb2  1  0.000002  0.231959  0.750000  1
  Tb  Tb3  1  0.999998  0.768041  0.250000  1
  Y  Y4  1  0.767889  0.767889  0.750000  1
  Y  Y5  1  0.232111  0.232111  0.250000  1
  Y  Y6  1  0.333348  0.666652  0.500000  1
  Y  Y7  1  0.666652  0.333348  0.500000  1
  Y  Y8  1  0.666652  0.333348  0.000000  1
  Y  Y9  1  0.333348  0.666652  0.000000  1
  Si  Si10  1  0.601229  0.999933  0.750000  1
  Si  Si11  1  0.398771  0.000067  0.250000  1
  Si  Si12  1  0.999933  0.601229  0.750000  1
  Si  Si13  1  0.000067  0.398771  0.250000  1
  Si  Si14  1  0.398910  0.398910  0.750000  1
  Si  Si15  1  0.601090  0.601090  0.250000  1
  O  O16  1  0.000000  0.000000  0.500000  1
  O  O17  1  0.000000  0.000000  0.000000  1
