# generated using pymatgen
data_CaLa16Eu3Sn16
_symmetry_space_group_name_H-M   'P 1'
_cell_length_a   8.25056500
_cell_length_b   8.62364525
_cell_length_c   16.47905200
_cell_angle_alpha   90.00000000
_cell_angle_beta   90.00000000
_cell_angle_gamma   90.01384616
_symmetry_Int_Tables_number   1
_chemical_formula_structural   CaLa16Eu3Sn16
_chemical_formula_sum   'Ca1 La16 Eu3 Sn16'
_cell_volume   1172.48362054
_cell_formula_units_Z   1
loop_
 _symmetry_equiv_pos_site_id
 _symmetry_equiv_pos_as_xyz
  1  'x, y, z'
loop_
 _atom_site_type_symbol
 _atom_site_label
 _atom_site_symmetry_multiplicity
 _atom_site_fract_x
 _atom_site_fract_y
 _atom_site_fract_z
 _atom_site_occupancy
  Ca  Ca0  1  0.819867  0.505124  0.750000  1
  La  La1  1  0.651924  0.172495  0.623786  1
  La  La2  1  0.150908  0.328218  0.876449  1
  La  La3  1  0.348240  0.827436  0.123207  1
  La  La4  1  0.848417  0.672445  0.376907  1
  La  La5  1  0.348240  0.827436  0.376793  1
  La  La6  1  0.848417  0.672445  0.123093  1
  La  La7  1  0.651924  0.172495  0.876214  1
  La  La8  1  0.150908  0.328218  0.623551  1
  La  La9  1  0.497962  0.682647  0.597014  1
  La  La10  1  0.997692  0.815806  0.903019  1
  La  La11  1  0.501486  0.316170  0.096361  1
  La  La12  1  0.001888  0.183208  0.403658  1
  La  La13  1  0.501486  0.316170  0.403639  1
  La  La14  1  0.001888  0.183208  0.096342  1
  La  La15  1  0.497962  0.682647  0.902986  1
  La  La16  1  0.997692  0.815806  0.596981  1
  Eu  Eu17  1  0.322811  0.000155  0.750000  1
  Eu  Eu18  1  0.179573  0.496906  0.250000  1
  Eu  Eu19  1  0.680259  0.002949  0.250000  1
  Sn  Sn20  1  0.683443  0.965250  0.462806  1
  Sn  Sn21  1  0.184347  0.534652  0.037393  1
  Sn  Sn22  1  0.316212  0.034131  0.961732  1
  Sn  Sn23  1  0.814680  0.465225  0.538348  1
  Sn  Sn24  1  0.316212  0.034131  0.538268  1
  Sn  Sn25  1  0.814680  0.465225  0.961652  1
  Sn  Sn26  1  0.683443  0.965250  0.037194  1
  Sn  Sn27  1  0.184347  0.534652  0.462607  1
  Sn  Sn28  1  0.452079  0.398453  0.750000  1
  Sn  Sn29  1  0.950645  0.102472  0.750000  1
  Sn  Sn30  1  0.549879  0.602955  0.250000  1
  Sn  Sn31  1  0.050437  0.895783  0.250000  1
  Sn  Sn32  1  0.695562  0.858762  0.750000  1
  Sn  Sn33  1  0.194490  0.640925  0.750000  1
  Sn  Sn34  1  0.304791  0.139657  0.250000  1
  Sn  Sn35  1  0.805210  0.360495  0.250000  1
