# generated using pymatgen
data_Ho2Er(CdGa)3
_symmetry_space_group_name_H-M   'P 1'
_cell_length_a   7.24220246
_cell_length_b   7.24666440
_cell_length_c   4.38694600
_cell_angle_alpha   90.00000000
_cell_angle_beta   90.00000000
_cell_angle_gamma   120.02038701
_symmetry_Int_Tables_number   1
_chemical_formula_structural   Ho2Er(CdGa)3
_chemical_formula_sum   'Ho2 Er1 Cd3 Ga3'
_cell_volume   199.34827217
_cell_formula_units_Z   1
loop_
 _symmetry_equiv_pos_site_id
 _symmetry_equiv_pos_as_xyz
  1  'x, y, z'
loop_
 _atom_site_type_symbol
 _atom_site_label
 _atom_site_symmetry_multiplicity
 _atom_site_fract_x
 _atom_site_fract_y
 _atom_site_fract_z
 _atom_site_occupancy
  Ho  Ho0  1  0.423759  0.423848  0.500000  1
  Ho  Ho1  1  0.576241  0.000088  0.500000  1
  Er  Er2  1  0.000000  0.576169  0.500000  1
  Cd  Cd3  1  0.751453  0.751407  0.000000  1
  Cd  Cd4  1  0.248547  0.999955  0.000000  1
  Cd  Cd5  1  0.000000  0.248704  0.000000  1
  Ga  Ga6  1  0.666972  0.333487  0.000000  1
  Ga  Ga7  1  0.333028  0.666516  0.000000  1
  Ga  Ga8  1  0.000000  0.999827  0.500000  1
