# generated using pymatgen
data_Tb4ErBe3P9Ir19
_symmetry_space_group_name_H-M   'P 1'
_cell_length_a   12.63810200
_cell_length_b   12.63810166
_cell_length_c   3.95435500
_cell_angle_alpha   90.00000000
_cell_angle_beta   90.00000000
_cell_angle_gamma   120.00000088
_symmetry_Int_Tables_number   1
_chemical_formula_structural   Tb4ErBe3P9Ir19
_chemical_formula_sum   'Tb4 Er1 Be3 P9 Ir19'
_cell_volume   546.97815741
_cell_formula_units_Z   1
loop_
 _symmetry_equiv_pos_site_id
 _symmetry_equiv_pos_as_xyz
  1  'x, y, z'
loop_
 _atom_site_type_symbol
 _atom_site_label
 _atom_site_symmetry_multiplicity
 _atom_site_fract_x
 _atom_site_fract_y
 _atom_site_fract_z
 _atom_site_occupancy
  Tb  Tb0  1  0.666667  0.333333  0.000000  1
  Tb  Tb1  1  0.815283  0.809257  0.500000  1
  Tb  Tb2  1  0.190743  0.006025  0.500000  1
  Tb  Tb3  1  0.993975  0.184717  0.500000  1
  Er  Er4  1  0.333333  0.666667  0.000000  1
  Be  Be5  1  0.683299  0.162192  0.500000  1
  Be  Be6  1  0.837808  0.521107  0.500000  1
  Be  Be7  1  0.478893  0.316701  0.500000  1
  P  P8  1  0.178344  0.696628  0.500000  1
  P  P9  1  0.518284  0.821656  0.500000  1
  P  P10  1  0.303372  0.481716  0.500000  1
  P  P11  1  0.639428  0.626339  0.000000  1
  P  P12  1  0.373661  0.013088  0.000000  1
  P  P13  1  0.986912  0.360572  0.000000  1
  P  P14  1  0.179048  0.181900  0.000000  1
  P  P15  1  0.818100  0.997149  0.000000  1
  P  P16  1  0.002851  0.820952  0.000000  1
  Ir  Ir17  1  0.801295  0.175458  0.000000  1
  Ir  Ir18  1  0.824542  0.625837  0.000000  1
  Ir  Ir19  1  0.374163  0.198705  0.000000  1
  Ir  Ir20  1  0.190371  0.812173  0.000000  1
  Ir  Ir21  1  0.621803  0.809629  0.000000  1
  Ir  Ir22  1  0.187827  0.378197  0.000000  1
  Ir  Ir23  1  0.455064  0.446486  0.000000  1
  Ir  Ir24  1  0.553514  0.008578  0.000000  1
  Ir  Ir25  1  0.991422  0.544936  0.000000  1
  Ir  Ir26  1  0.281165  0.288292  0.500000  1
  Ir  Ir27  1  0.711708  0.992873  0.500000  1
  Ir  Ir28  1  0.007127  0.718835  0.500000  1
  Ir  Ir29  1  0.871313  0.354549  0.500000  1
  Ir  Ir30  1  0.645451  0.516765  0.500000  1
  Ir  Ir31  1  0.483235  0.128687  0.500000  1
  Ir  Ir32  1  0.369473  0.870389  0.500000  1
  Ir  Ir33  1  0.500919  0.630527  0.500000  1
  Ir  Ir34  1  0.129611  0.499081  0.500000  1
  Ir  Ir35  1  0.000000  0.000000  0.000000  1
