# generated using pymatgen
data_ErZr(Ni2As)4
_symmetry_space_group_name_H-M   'P 1'
_cell_length_a   7.15141486
_cell_length_b   7.15141486
_cell_length_c   3.76868400
_cell_angle_alpha   90.00000000
_cell_angle_beta   90.00000000
_cell_angle_gamma   89.42873953
_symmetry_Int_Tables_number   1
_chemical_formula_structural   ErZr(Ni2As)4
_chemical_formula_sum   'Er1 Zr1 Ni8 As4'
_cell_volume   192.73122547
_cell_formula_units_Z   1
loop_
 _symmetry_equiv_pos_site_id
 _symmetry_equiv_pos_as_xyz
  1  'x, y, z'
loop_
 _atom_site_type_symbol
 _atom_site_label
 _atom_site_symmetry_multiplicity
 _atom_site_fract_x
 _atom_site_fract_y
 _atom_site_fract_z
 _atom_site_occupancy
  Er  Er0  1  0.500000  0.500000  0.000000  1
  Zr  Zr1  1  0.000000  0.000000  0.500000  1
  Ni  Ni2  1  0.088573  0.345481  0.000000  1
  Ni  Ni3  1  0.844868  0.410019  0.500000  1
  Ni  Ni4  1  0.155132  0.589981  0.500000  1
  Ni  Ni5  1  0.911427  0.654519  0.000000  1
  Ni  Ni6  1  0.410019  0.844868  0.500000  1
  Ni  Ni7  1  0.589981  0.155132  0.500000  1
  Ni  Ni8  1  0.345481  0.088573  0.000000  1
  Ni  Ni9  1  0.654519  0.911427  0.000000  1
  As  As10  1  0.788626  0.211374  0.000000  1
  As  As11  1  0.722975  0.722975  0.500000  1
  As  As12  1  0.277025  0.277025  0.500000  1
  As  As13  1  0.211374  0.788626  0.000000  1
