# generated using pymatgen
data_Ce2Zn2GaPt4
_symmetry_space_group_name_H-M   'P 1'
_cell_length_a   8.26781800
_cell_length_b   8.26781863
_cell_length_c   7.65440500
_cell_angle_alpha   90.00000000
_cell_angle_beta   90.00000000
_cell_angle_gamma   139.66855880
_symmetry_Int_Tables_number   1
_chemical_formula_structural   Ce2Zn2GaPt4
_chemical_formula_sum   'Ce4 Zn4 Ga2 Pt8'
_cell_volume   338.63925202
_cell_formula_units_Z   2
loop_
 _symmetry_equiv_pos_site_id
 _symmetry_equiv_pos_as_xyz
  1  'x, y, z'
loop_
 _atom_site_type_symbol
 _atom_site_label
 _atom_site_symmetry_multiplicity
 _atom_site_fract_x
 _atom_site_fract_y
 _atom_site_fract_z
 _atom_site_occupancy
  Ce  Ce0  1  0.613005  0.386995  0.912783  1
  Ce  Ce1  1  0.386995  0.613005  0.087217  1
  Ce  Ce2  1  0.886995  0.113005  0.412783  1
  Ce  Ce3  1  0.113005  0.886995  0.587217  1
  Zn  Zn4  1  0.524006  0.975994  0.750000  1
  Zn  Zn5  1  0.975994  0.524006  0.250000  1
  Zn  Zn6  1  0.475994  0.024006  0.250000  1
  Zn  Zn7  1  0.024006  0.475994  0.750000  1
  Ga  Ga8  1  0.500000  0.500000  0.500000  1
  Ga  Ga9  1  0.000000  0.000000  0.000000  1
  Pt  Pt10  1  0.692769  0.807231  0.750000  1
  Pt  Pt11  1  0.807231  0.692769  0.250000  1
  Pt  Pt12  1  0.307231  0.192769  0.250000  1
  Pt  Pt13  1  0.192769  0.307231  0.750000  1
  Pt  Pt14  1  0.676016  0.323984  0.530046  1
  Pt  Pt15  1  0.323984  0.676016  0.469954  1
  Pt  Pt16  1  0.823984  0.176016  0.030046  1
  Pt  Pt17  1  0.176016  0.823984  0.969954  1
