# generated using pymatgen
data_Ta10Ga3Si2Ge
_symmetry_space_group_name_H-M   'P 1'
_cell_length_a   6.65643997
_cell_length_b   7.63750384
_cell_length_c   6.65643977
_cell_angle_alpha   115.87607250
_cell_angle_beta   89.91415669
_cell_angle_gamma   115.87607750
_symmetry_Int_Tables_number   1
_chemical_formula_structural   Ta10Ga3Si2Ge
_chemical_formula_sum   'Ta10 Ga3 Si2 Ge1'
_cell_volume   266.38068263
_cell_formula_units_Z   1
loop_
 _symmetry_equiv_pos_site_id
 _symmetry_equiv_pos_as_xyz
  1  'x, y, z'
loop_
 _atom_site_type_symbol
 _atom_site_label
 _atom_site_symmetry_multiplicity
 _atom_site_fract_x
 _atom_site_fract_y
 _atom_site_fract_z
 _atom_site_occupancy
  Ta  Ta0  1  0.999407  0.000000  0.001283  1
  Ta  Ta1  1  0.501283  0.000000  0.499407  1
  Ta  Ta2  1  0.514501  0.697425  0.683095  1
  Ta  Ta3  1  0.183095  0.697425  0.014501  1
  Ta  Ta4  1  0.689741  0.699438  0.189741  1
  Ta  Ta5  1  0.008562  0.697328  0.508562  1
  Ta  Ta6  1  0.485671  0.302575  0.317077  1
  Ta  Ta7  1  0.817077  0.302575  0.985671  1
  Ta  Ta8  1  0.311235  0.302672  0.811235  1
  Ta  Ta9  1  0.990303  0.300562  0.490303  1
  Ga  Ga10  1  0.750388  0.500000  0.750388  1
  Ga  Ga11  1  0.250388  0.500000  0.250388  1
  Ga  Ga12  1  0.365066  0.000000  0.865066  1
  Si  Si13  1  0.869213  0.000000  0.632669  1
  Si  Si14  1  0.132669  0.000000  0.369213  1
  Ge  Ge15  1  0.631399  0.000000  0.131399  1
