# generated using pymatgen
data_Ho2Er4Pb5
_symmetry_space_group_name_H-M   'P 1'
_cell_length_a   11.67242406
_cell_length_b   11.67242471
_cell_length_c   11.67242467
_cell_angle_alpha   132.72309601
_cell_angle_beta   58.89039758
_cell_angle_gamma   146.95272924
_symmetry_Int_Tables_number   1
_chemical_formula_structural   Ho2Er4Pb5
_chemical_formula_sum   'Ho4 Er8 Pb10'
_cell_volume   631.72228408
_cell_formula_units_Z   2
loop_
 _symmetry_equiv_pos_site_id
 _symmetry_equiv_pos_as_xyz
  1  'x, y, z'
loop_
 _atom_site_type_symbol
 _atom_site_label
 _atom_site_symmetry_multiplicity
 _atom_site_fract_x
 _atom_site_fract_y
 _atom_site_fract_z
 _atom_site_occupancy
  Ho  Ho0  1  0.137611  0.113801  0.251413  1
  Ho  Ho1  1  0.862388  0.886201  0.748588  1
  Ho  Ho2  1  0.362388  0.613801  0.976187  1
  Ho  Ho3  1  0.637612  0.386200  0.023811  1
  Er  Er4  1  0.554821  0.250000  0.304820  1
  Er  Er5  1  0.945180  0.250000  0.695180  1
  Er  Er6  1  0.445180  0.750000  0.695180  1
  Er  Er7  1  0.054820  0.750000  0.304820  1
  Er  Er8  1  0.440482  0.242317  0.682799  1
  Er  Er9  1  0.559519  0.757683  0.317201  1
  Er  Er10  1  0.059518  0.742318  0.801836  1
  Er  Er11  1  0.940482  0.257684  0.198165  1
  Pb  Pb12  1  0.293801  0.304898  0.598699  1
  Pb  Pb13  1  0.706199  0.695102  0.401300  1
  Pb  Pb14  1  0.206200  0.804899  0.011097  1
  Pb  Pb15  1  0.793802  0.195101  0.988903  1
  Pb  Pb16  1  0.250000  0.250000  0.000000  1
  Pb  Pb17  1  0.749999  0.749999  0.000000  1
  Pb  Pb18  1  0.072870  0.407163  0.480033  1
  Pb  Pb19  1  0.927131  0.592837  0.519967  1
  Pb  Pb20  1  0.427131  0.907164  0.334294  1
  Pb  Pb21  1  0.572869  0.092836  0.665706  1
