# generated using pymatgen
data_Lu7Tc6Sn23
_symmetry_space_group_name_H-M   'P 1'
_cell_length_a   9.89850900
_cell_length_b   9.89850903
_cell_length_c   10.03774900
_cell_angle_alpha   90.00000000
_cell_angle_beta   90.00000000
_cell_angle_gamma   120.00000324
_symmetry_Int_Tables_number   1
_chemical_formula_structural   Lu7Tc6Sn23
_chemical_formula_sum   'Lu7 Tc6 Sn23'
_cell_volume   851.73896400
_cell_formula_units_Z   1
loop_
 _symmetry_equiv_pos_site_id
 _symmetry_equiv_pos_as_xyz
  1  'x, y, z'
loop_
 _atom_site_type_symbol
 _atom_site_label
 _atom_site_symmetry_multiplicity
 _atom_site_fract_x
 _atom_site_fract_y
 _atom_site_fract_z
 _atom_site_occupancy
  Lu  Lu0  1  0.000000  0.000000  0.000000  1
  Lu  Lu1  1  0.486476  0.513524  0.296923  1
  Lu  Lu2  1  0.513524  0.486476  0.703077  1
  Lu  Lu3  1  0.486476  0.972950  0.296923  1
  Lu  Lu4  1  0.513524  0.027050  0.703077  1
  Lu  Lu5  1  0.027050  0.513524  0.296923  1
  Lu  Lu6  1  0.972950  0.486476  0.703077  1
  Tc  Tc7  1  0.831641  0.168359  0.210336  1
  Tc  Tc8  1  0.168359  0.831641  0.789664  1
  Tc  Tc9  1  0.831641  0.663280  0.210336  1
  Tc  Tc10  1  0.168359  0.336720  0.789664  1
  Tc  Tc11  1  0.336720  0.168359  0.210336  1
  Tc  Tc12  1  0.663280  0.831641  0.789664  1
  Sn  Sn13  1  0.347927  0.000000  0.000000  1
  Sn  Sn14  1  0.652073  0.000000  0.000000  1
  Sn  Sn15  1  0.000000  0.347927  0.000000  1
  Sn  Sn16  1  0.000000  0.652073  0.000000  1
  Sn  Sn17  1  0.652073  0.652073  0.000000  1
  Sn  Sn18  1  0.347927  0.347927  0.000000  1
  Sn  Sn19  1  0.333333  0.666667  0.822233  1
  Sn  Sn20  1  0.666667  0.333333  0.177767  1
  Sn  Sn21  1  0.000000  0.000000  0.500000  1
  Sn  Sn22  1  0.773261  0.226739  0.466901  1
  Sn  Sn23  1  0.226739  0.773261  0.533099  1
  Sn  Sn24  1  0.773261  0.546521  0.466901  1
  Sn  Sn25  1  0.226739  0.453479  0.533099  1
  Sn  Sn26  1  0.453479  0.226739  0.466901  1
  Sn  Sn27  1  0.546521  0.773261  0.533099  1
  Sn  Sn28  1  0.333333  0.666667  0.131028  1
  Sn  Sn29  1  0.666667  0.333333  0.868972  1
  Sn  Sn30  1  0.123848  0.876152  0.269625  1
  Sn  Sn31  1  0.876152  0.123848  0.730375  1
  Sn  Sn32  1  0.123848  0.247696  0.269625  1
  Sn  Sn33  1  0.876152  0.752304  0.730375  1
  Sn  Sn34  1  0.752304  0.876152  0.269625  1
  Sn  Sn35  1  0.247696  0.123848  0.730375  1
