# generated using pymatgen
data_CeSc5(Be2Rh5)2
_symmetry_space_group_name_H-M   'P 1'
_cell_length_a   9.61840821
_cell_length_b   9.61840821
_cell_length_c   3.23425100
_cell_angle_alpha   90.00000000
_cell_angle_beta   90.00000000
_cell_angle_gamma   89.62604974
_symmetry_Int_Tables_number   1
_chemical_formula_structural   CeSc5(Be2Rh5)2
_chemical_formula_sum   'Ce1 Sc5 Be4 Rh10'
_cell_volume   299.20640163
_cell_formula_units_Z   1
loop_
 _symmetry_equiv_pos_site_id
 _symmetry_equiv_pos_as_xyz
  1  'x, y, z'
loop_
 _atom_site_type_symbol
 _atom_site_label
 _atom_site_symmetry_multiplicity
 _atom_site_fract_x
 _atom_site_fract_y
 _atom_site_fract_z
 _atom_site_occupancy
  Ce  Ce0  1  0.825049  0.325049  0.000000  1
  Sc  Sc1  1  0.325324  0.173877  0.000000  1
  Sc  Sc2  1  0.673877  0.825324  0.000000  1
  Sc  Sc3  1  0.176838  0.676838  0.000000  1
  Sc  Sc4  1  0.003007  0.995425  0.000000  1
  Sc  Sc5  1  0.495425  0.503007  0.000000  1
  Be  Be6  1  0.616518  0.116518  0.000000  1
  Be  Be7  1  0.127636  0.378975  0.000000  1
  Be  Be8  1  0.878975  0.627636  0.000000  1
  Be  Be9  1  0.376108  0.876108  0.000000  1
  Rh  Rh10  1  0.075683  0.214831  0.500000  1
  Rh  Rh11  1  0.215948  0.928652  0.500000  1
  Rh  Rh12  1  0.781920  0.067074  0.500000  1
  Rh  Rh13  1  0.928421  0.786322  0.500000  1
  Rh  Rh14  1  0.428652  0.715948  0.500000  1
  Rh  Rh15  1  0.567074  0.281920  0.500000  1
  Rh  Rh16  1  0.714831  0.575683  0.500000  1
  Rh  Rh17  1  0.286322  0.428421  0.500000  1
  Rh  Rh18  1  0.498156  0.998156  0.500000  1
  Rh  Rh19  1  0.004234  0.504234  0.500000  1
