# generated using pymatgen
data_Nd4Ga18PdRu3Pt2
_symmetry_space_group_name_H-M   'P 1'
_cell_length_a   7.70234606
_cell_length_b   7.70234632
_cell_length_c   9.72321493
_cell_angle_alpha   89.93648229
_cell_angle_beta   89.93649225
_cell_angle_gamma   119.87430879
_symmetry_Int_Tables_number   1
_chemical_formula_structural   Nd4Ga18PdRu3Pt2
_chemical_formula_sum   'Nd4 Ga18 Pd1 Ru3 Pt2'
_cell_volume   500.18905702
_cell_formula_units_Z   1
loop_
 _symmetry_equiv_pos_site_id
 _symmetry_equiv_pos_as_xyz
  1  'x, y, z'
loop_
 _atom_site_type_symbol
 _atom_site_label
 _atom_site_symmetry_multiplicity
 _atom_site_fract_x
 _atom_site_fract_y
 _atom_site_fract_z
 _atom_site_occupancy
  Nd  Nd0  1  0.995033  0.669109  0.249881  1
  Nd  Nd1  1  0.001490  0.328220  0.750252  1
  Nd  Nd2  1  0.671780  0.998510  0.249748  1
  Nd  Nd3  1  0.330891  0.004967  0.750119  1
  Ga  Ga4  1  0.135650  0.133410  0.250511  1
  Ga  Ga5  1  0.866590  0.864350  0.749489  1
  Ga  Ga6  1  0.008776  0.340173  0.077951  1
  Ga  Ga7  1  0.003799  0.665298  0.922400  1
  Ga  Ga8  1  0.999504  0.660305  0.575326  1
  Ga  Ga9  1  0.339695  0.000496  0.424674  1
  Ga  Ga10  1  0.002644  0.339568  0.423831  1
  Ga  Ga11  1  0.660432  0.997356  0.576169  1
  Ga  Ga12  1  0.659827  0.991224  0.922049  1
  Ga  Ga13  1  0.334702  0.996201  0.077600  1
  Ga  Ga14  1  0.341688  0.341931  0.559518  1
  Ga  Ga15  1  0.658069  0.658312  0.440482  1
  Ga  Ga16  1  0.657794  0.663725  0.062457  1
  Ga  Ga17  1  0.336275  0.342206  0.937543  1
  Ga  Ga18  1  0.336768  0.550417  0.250703  1
  Ga  Ga19  1  0.664663  0.457505  0.745581  1
  Ga  Ga20  1  0.542495  0.335337  0.254419  1
  Ga  Ga21  1  0.449583  0.663232  0.749297  1
  Pd  Pd22  1  0.000603  0.999397  0.500000  1
  Ru  Ru23  1  0.328739  0.671261  0.000000  1
  Ru  Ru24  1  0.328329  0.671671  0.500000  1
  Ru  Ru25  1  0.672374  0.327626  0.500000  1
  Pt  Pt26  1  0.671243  0.328757  0.000000  1
  Pt  Pt27  1  0.000567  0.999433  0.000000  1
