# generated using pymatgen
data_Sr4Li(SiIr)10
_symmetry_space_group_name_H-M   'P 1'
_cell_length_a   9.27999700
_cell_length_b   8.35461985
_cell_length_c   9.27999700
_cell_angle_alpha   56.26302341
_cell_angle_beta   90.00000000
_cell_angle_gamma   56.26301516
_symmetry_Int_Tables_number   1
_chemical_formula_structural   Sr4Li(SiIr)10
_chemical_formula_sum   'Sr4 Li1 Si10 Ir10'
_cell_volume   445.32829268
_cell_formula_units_Z   1
loop_
 _symmetry_equiv_pos_site_id
 _symmetry_equiv_pos_as_xyz
  1  'x, y, z'
loop_
 _atom_site_type_symbol
 _atom_site_label
 _atom_site_symmetry_multiplicity
 _atom_site_fract_x
 _atom_site_fract_y
 _atom_site_fract_z
 _atom_site_occupancy
  Sr  Sr0  1  0.198383  0.000000  0.600840  1
  Sr  Sr1  1  0.399160  0.000000  0.198383  1
  Sr  Sr2  1  0.600840  0.000000  0.801617  1
  Sr  Sr3  1  0.801617  0.000000  0.399160  1
  Li  Li4  1  0.000000  0.000000  0.000000  1
  Si  Si5  1  0.168051  0.260676  0.769343  1
  Si  Si6  1  0.370730  0.258540  0.370730  1
  Si  Si7  1  0.571274  0.260676  0.969980  1
  Si  Si8  1  0.769343  0.260676  0.571274  1
  Si  Si9  1  0.969980  0.260676  0.168051  1
  Si  Si10  1  0.629270  0.741460  0.629270  1
  Si  Si11  1  0.831949  0.739324  0.230657  1
  Si  Si12  1  0.030019  0.739324  0.831949  1
  Si  Si13  1  0.230657  0.739324  0.428726  1
  Si  Si14  1  0.428726  0.739324  0.030019  1
  Ir  Ir15  1  0.949639  0.498950  0.849589  1
  Ir  Ir16  1  0.150411  0.501050  0.448588  1
  Ir  Ir17  1  0.348540  0.501050  0.050361  1
  Ir  Ir18  1  0.551412  0.498950  0.651460  1
  Ir  Ir19  1  0.750000  0.500000  0.250000  1
  Ir  Ir20  1  0.849589  0.498950  0.551412  1
  Ir  Ir21  1  0.050361  0.501050  0.150411  1
  Ir  Ir22  1  0.250000  0.500000  0.750000  1
  Ir  Ir23  1  0.448588  0.501050  0.348540  1
  Ir  Ir24  1  0.651460  0.498950  0.949639  1
