# generated using pymatgen
data_Nb3In2(BrCl2)3
_symmetry_space_group_name_H-M   'P 1'
_cell_length_a   10.09429721
_cell_length_b   10.09429752
_cell_length_c   9.86479784
_cell_angle_alpha   77.37785129
_cell_angle_beta   77.37784852
_cell_angle_gamma   116.25025393
_symmetry_Int_Tables_number   1
_chemical_formula_structural   Nb3In2(BrCl2)3
_chemical_formula_sum   'Nb6 In4 Br6 Cl12'
_cell_volume   820.69984925
_cell_formula_units_Z   2
loop_
 _symmetry_equiv_pos_site_id
 _symmetry_equiv_pos_as_xyz
  1  'x, y, z'
loop_
 _atom_site_type_symbol
 _atom_site_label
 _atom_site_symmetry_multiplicity
 _atom_site_fract_x
 _atom_site_fract_y
 _atom_site_fract_z
 _atom_site_occupancy
  Nb  Nb0  1  0.614188  0.614188  0.128686  1
  Nb  Nb1  1  0.385812  0.385812  0.871314  1
  Nb  Nb2  1  0.456432  0.285639  0.137536  1
  Nb  Nb3  1  0.543568  0.714361  0.862464  1
  Nb  Nb4  1  0.714361  0.543568  0.862464  1
  Nb  Nb5  1  0.285639  0.456432  0.137536  1
  In  In6  1  0.731941  0.043562  0.327749  1
  In  In7  1  0.268059  0.956438  0.672251  1
  In  In8  1  0.956438  0.268059  0.672251  1
  In  In9  1  0.043562  0.731941  0.327749  1
  Br  Br10  1  0.712447  0.287553  0.000000  1
  Br  Br11  1  0.287553  0.712447  0.000000  1
  Br  Br12  1  0.392024  0.990630  0.329959  1
  Br  Br13  1  0.607976  0.009370  0.670041  1
  Br  Br14  1  0.009370  0.607976  0.670041  1
  Br  Br15  1  0.990630  0.392024  0.329959  1
  Cl  Cl16  1  0.314511  0.112494  0.011661  1
  Cl  Cl17  1  0.685489  0.887506  0.988339  1
  Cl  Cl18  1  0.887506  0.685489  0.988339  1
  Cl  Cl19  1  0.112494  0.314511  0.011661  1
  Cl  Cl20  1  0.757986  0.757986  0.288606  1
  Cl  Cl21  1  0.242014  0.242014  0.711394  1
  Cl  Cl22  1  0.804913  0.804913  0.677566  1
  Cl  Cl23  1  0.195087  0.195087  0.322434  1
  Cl  Cl24  1  0.582415  0.380844  0.312047  1
  Cl  Cl25  1  0.417585  0.619156  0.687953  1
  Cl  Cl26  1  0.619156  0.417585  0.687953  1
  Cl  Cl27  1  0.380844  0.582415  0.312047  1
