# generated using pymatgen
data_Yb14InSnN8
_symmetry_space_group_name_H-M   'P 1'
_cell_length_a   3.53911900
_cell_length_b   11.93504102
_cell_length_c   11.42245094
_cell_angle_alpha   90.32502144
_cell_angle_beta   90.00000000
_cell_angle_gamma   90.00000000
_symmetry_Int_Tables_number   1
_chemical_formula_structural   Yb14InSnN8
_chemical_formula_sum   'Yb14 In1 Sn1 N8'
_cell_volume   482.47120100
_cell_formula_units_Z   1
loop_
 _symmetry_equiv_pos_site_id
 _symmetry_equiv_pos_as_xyz
  1  'x, y, z'
loop_
 _atom_site_type_symbol
 _atom_site_label
 _atom_site_symmetry_multiplicity
 _atom_site_fract_x
 _atom_site_fract_y
 _atom_site_fract_z
 _atom_site_occupancy
  Yb  Yb0  1  0.499974  0.663957  0.244052  1
  Yb  Yb1  1  0.499974  0.336043  0.755948  1
  Yb  Yb2  1  0.501118  0.167502  0.260183  1
  Yb  Yb3  1  0.501118  0.832498  0.739817  1
  Yb  Yb4  1  0.499491  0.500000  0.000000  1
  Yb  Yb5  1  0.500830  0.000000  0.500000  1
  Yb  Yb6  1  0.999841  0.927674  0.267118  1
  Yb  Yb7  1  0.999841  0.072326  0.732882  1
  Yb  Yb8  1  0.000576  0.427990  0.236681  1
  Yb  Yb9  1  0.000576  0.572010  0.763319  1
  Yb  Yb10  1  0.002077  0.764072  0.480895  1
  Yb  Yb11  1  0.002077  0.235928  0.519105  1
  Yb  Yb12  1  0.998566  0.268227  0.018434  1
  Yb  Yb13  1  0.998566  0.731773  0.981566  1
  In  In14  1  0.459787  0.000000  0.000000  1
  Sn  Sn15  1  0.532532  0.500000  0.500000  1
  N  N16  1  0.999601  0.599066  0.130499  1
  N  N17  1  0.999601  0.400934  0.869501  1
  N  N18  1  0.001179  0.100733  0.371160  1
  N  N19  1  0.001179  0.899267  0.628840  1
  N  N20  1  0.500803  0.833507  0.359104  1
  N  N21  1  0.500803  0.166493  0.640896  1
  N  N22  1  0.499945  0.332713  0.139462  1
  N  N23  1  0.499945  0.667287  0.860538  1
