# generated using pymatgen
data_Sr12Ag12Sn11Bi
_symmetry_space_group_name_H-M   'P 1'
_cell_length_a   4.99381900
_cell_length_b   8.48460770
_cell_length_c   23.85865200
_cell_angle_alpha   90.16233263
_cell_angle_beta   90.00000000
_cell_angle_gamma   90.00000000
_symmetry_Int_Tables_number   1
_chemical_formula_structural   Sr12Ag12Sn11Bi
_chemical_formula_sum   'Sr12 Ag12 Sn11 Bi1'
_cell_volume   1010.90122699
_cell_formula_units_Z   1
loop_
 _symmetry_equiv_pos_site_id
 _symmetry_equiv_pos_as_xyz
  1  'x, y, z'
loop_
 _atom_site_type_symbol
 _atom_site_label
 _atom_site_symmetry_multiplicity
 _atom_site_fract_x
 _atom_site_fract_y
 _atom_site_fract_z
 _atom_site_occupancy
  Sr  Sr0  1  0.750000  0.226990  0.497537  1
  Sr  Sr1  1  0.250000  0.789711  0.165824  1
  Sr  Sr2  1  0.250000  0.779183  0.499233  1
  Sr  Sr3  1  0.250000  0.789317  0.834530  1
  Sr  Sr4  1  0.250000  0.712870  0.332469  1
  Sr  Sr5  1  0.750000  0.210547  0.834868  1
  Sr  Sr6  1  0.750000  0.283167  0.998923  1
  Sr  Sr7  1  0.750000  0.286685  0.669252  1
  Sr  Sr8  1  0.750000  0.290908  0.332803  1
  Sr  Sr9  1  0.250000  0.710710  0.667999  1
  Sr  Sr10  1  0.250000  0.716407  0.001901  1
  Sr  Sr11  1  0.750000  0.210664  0.166073  1
  Ag  Ag12  1  0.250000  0.068377  0.596463  1
  Ag  Ag13  1  0.250000  0.085374  0.739897  1
  Ag  Ag14  1  0.750000  0.584451  0.905713  1
  Ag  Ag15  1  0.750000  0.917364  0.405260  1
  Ag  Ag16  1  0.750000  0.596834  0.560590  1
  Ag  Ag17  1  0.750000  0.585449  0.762718  1
  Ag  Ag18  1  0.250000  0.419336  0.425163  1
  Ag  Ag19  1  0.250000  0.414979  0.237876  1
  Ag  Ag20  1  0.750000  0.916800  0.065984  1
  Ag  Ag21  1  0.250000  0.414838  0.094591  1
  Ag  Ag22  1  0.250000  0.082606  0.934555  1
  Ag  Ag23  1  0.750000  0.914516  0.260718  1
  Sn  Sn24  1  0.250000  0.085113  0.398360  1
  Sn  Sn25  1  0.250000  0.087037  0.067491  1
  Sn  Sn26  1  0.250000  0.417202  0.899408  1
  Sn  Sn27  1  0.750000  0.582674  0.100798  1
  Sn  Sn28  1  0.250000  0.418416  0.769985  1
  Sn  Sn29  1  0.750000  0.581504  0.230628  1
  Sn  Sn30  1  0.750000  0.588830  0.429826  1
  Sn  Sn31  1  0.750000  0.913034  0.933092  1
  Sn  Sn32  1  0.250000  0.081450  0.268802  1
  Sn  Sn33  1  0.750000  0.912778  0.601598  1
  Sn  Sn34  1  0.750000  0.917929  0.732817  1
  Bi  Bi35  1  0.250000  0.405954  0.576252  1
