# generated using pymatgen
data_LuU(TcB4)2
_symmetry_space_group_name_H-M   'P 1'
_cell_length_a   3.58343300
_cell_length_b   5.91723257
_cell_length_c   11.44670155
_cell_angle_alpha   89.83066890
_cell_angle_beta   90.00000000
_cell_angle_gamma   90.00000000
_symmetry_Int_Tables_number   1
_chemical_formula_structural   LuU(TcB4)2
_chemical_formula_sum   'Lu2 U2 Tc4 B16'
_cell_volume   242.71487372
_cell_formula_units_Z   2
loop_
 _symmetry_equiv_pos_site_id
 _symmetry_equiv_pos_as_xyz
  1  'x, y, z'
loop_
 _atom_site_type_symbol
 _atom_site_label
 _atom_site_symmetry_multiplicity
 _atom_site_fract_x
 _atom_site_fract_y
 _atom_site_fract_z
 _atom_site_occupancy
  Lu  Lu0  1  0.000000  0.127684  0.147980  1
  Lu  Lu1  1  0.000000  0.872316  0.852020  1
  U  U2  1  0.000000  0.627824  0.348639  1
  U  U3  1  0.000000  0.372176  0.651361  1
  Tc  Tc4  1  0.000000  0.637114  0.091555  1
  Tc  Tc5  1  0.000000  0.362886  0.908445  1
  Tc  Tc6  1  0.000000  0.140838  0.407703  1
  Tc  Tc7  1  0.000000  0.859162  0.592297  1
  B  B8  1  0.500000  0.789796  0.186520  1
  B  B9  1  0.500000  0.210204  0.813480  1
  B  B10  1  0.500000  0.291380  0.313048  1
  B  B11  1  0.500000  0.708620  0.686952  1
  B  B12  1  0.500000  0.865375  0.031071  1
  B  B13  1  0.500000  0.134625  0.968929  1
  B  B14  1  0.500000  0.367801  0.468464  1
  B  B15  1  0.500000  0.632199  0.531536  1
  B  B16  1  0.500000  0.886142  0.452546  1
  B  B17  1  0.500000  0.113858  0.547454  1
  B  B18  1  0.500000  0.385530  0.046791  1
  B  B19  1  0.500000  0.614470  0.953209  1
  B  B20  1  0.500000  0.974987  0.307163  1
  B  B21  1  0.500000  0.025013  0.692837  1
  B  B22  1  0.500000  0.477691  0.192440  1
  B  B23  1  0.500000  0.522309  0.807560  1
