# generated using pymatgen
data_Ce8TaNb9(Si8W)2
_symmetry_space_group_name_H-M   'P 1'
_cell_length_a   7.08276638
_cell_length_b   7.08408601
_cell_length_c   13.18808025
_cell_angle_alpha   90.01674026
_cell_angle_beta   89.98793190
_cell_angle_gamma   90.08641815
_symmetry_Int_Tables_number   1
_chemical_formula_structural   Ce8TaNb9(Si8W)2
_chemical_formula_sum   'Ce8 Ta1 Nb9 Si16 W2'
_cell_volume   661.71015855
_cell_formula_units_Z   1
loop_
 _symmetry_equiv_pos_site_id
 _symmetry_equiv_pos_as_xyz
  1  'x, y, z'
loop_
 _atom_site_type_symbol
 _atom_site_label
 _atom_site_symmetry_multiplicity
 _atom_site_fract_x
 _atom_site_fract_y
 _atom_site_fract_z
 _atom_site_occupancy
  Ce  Ce0  1  0.995246  0.332863  0.217809  1
  Ce  Ce1  1  0.004768  0.667628  0.718172  1
  Ce  Ce2  1  0.166277  0.494915  0.467546  1
  Ce  Ce3  1  0.503596  0.834197  0.032195  1
  Ce  Ce4  1  0.833160  0.505686  0.967449  1
  Ce  Ce5  1  0.496640  0.165570  0.532489  1
  Ce  Ce6  1  0.333234  0.996434  0.781982  1
  Ce  Ce7  1  0.666378  0.002789  0.281966  1
  Ta  Ta8  1  0.167030  0.167560  0.999493  1
  Nb  Nb9  1  0.832834  0.832248  0.499786  1
  Nb  Nb10  1  0.329626  0.668641  0.250494  1
  Nb  Nb11  1  0.670346  0.331465  0.751050  1
  Nb  Nb12  1  0.504904  0.661283  0.623977  1
  Nb  Nb13  1  0.340912  0.496026  0.876727  1
  Nb  Nb14  1  0.494838  0.338220  0.123380  1
  Nb  Nb15  1  0.659047  0.503827  0.376374  1
  Nb  Nb16  1  0.997875  0.158590  0.626249  1
  Nb  Nb17  1  0.002263  0.841506  0.125560  1
  Si  Si18  1  0.290972  0.038821  0.186735  1
  Si  Si19  1  0.709156  0.961260  0.687520  1
  Si  Si20  1  0.456956  0.793506  0.434851  1
  Si  Si21  1  0.206338  0.539808  0.064399  1
  Si  Si22  1  0.542161  0.205775  0.934900  1
  Si  Si23  1  0.793412  0.459608  0.564827  1
  Si  Si24  1  0.038469  0.290984  0.815316  1
  Si  Si25  1  0.961607  0.709599  0.314868  1
  Si  Si26  1  0.371830  0.292190  0.314440  1
  Si  Si27  1  0.628419  0.707808  0.814738  1
  Si  Si28  1  0.202671  0.873134  0.561218  1
  Si  Si29  1  0.123818  0.800518  0.935706  1
  Si  Si30  1  0.797834  0.127150  0.061209  1
  Si  Si31  1  0.876829  0.199791  0.435650  1
  Si  Si32  1  0.297805  0.374180  0.686678  1
  Si  Si33  1  0.701784  0.625986  0.186294  1
  W  W34  1  0.160038  0.995014  0.373632  1
  W  W35  1  0.840928  0.005421  0.874318  1
