# generated using pymatgen
data_Ba12La3Er(Ga4O15)2
_symmetry_space_group_name_H-M   'P 1'
_cell_length_a   6.09112229
_cell_length_b   8.18269593
_cell_length_c   18.91000625
_cell_angle_alpha   90.79889066
_cell_angle_beta   89.93910072
_cell_angle_gamma   89.95861462
_symmetry_Int_Tables_number   1
_chemical_formula_structural   Ba12La3Er(Ga4O15)2
_chemical_formula_sum   'Ba12 La3 Er1 Ga8 O30'
_cell_volume   942.41637379
_cell_formula_units_Z   1
loop_
 _symmetry_equiv_pos_site_id
 _symmetry_equiv_pos_as_xyz
  1  'x, y, z'
loop_
 _atom_site_type_symbol
 _atom_site_label
 _atom_site_symmetry_multiplicity
 _atom_site_fract_x
 _atom_site_fract_y
 _atom_site_fract_z
 _atom_site_occupancy
  Ba  Ba0  1  0.758287  0.035541  0.096656  1
  Ba  Ba1  1  0.760474  0.499390  0.418386  1
  Ba  Ba2  1  0.249565  0.492852  0.575905  1
  Ba  Ba3  1  0.241142  0.967267  0.904170  1
  Ba  Ba4  1  0.335568  0.495741  0.252554  1
  Ba  Ba5  1  0.756940  0.497835  0.081126  1
  Ba  Ba6  1  0.712961  0.002680  0.747792  1
  Ba  Ba7  1  0.281615  0.000068  0.254409  1
  Ba  Ba8  1  0.240666  0.504443  0.919816  1
  Ba  Ba9  1  0.655881  0.500395  0.749836  1
  Ba  Ba10  1  0.250259  0.029694  0.588228  1
  Ba  Ba11  1  0.756198  0.973996  0.408432  1
  La  La12  1  0.746346  0.244852  0.909997  1
  La  La13  1  0.750580  0.751247  0.589189  1
  La  La14  1  0.251847  0.757243  0.091584  1
  Er  Er15  1  0.256301  0.247062  0.410402  1
  Ga  Ga16  1  0.260754  0.752358  0.438359  1
  Ga  Ga17  1  0.781986  0.771686  0.236742  1
  Ga  Ga18  1  0.778406  0.228422  0.269093  1
  Ga  Ga19  1  0.255845  0.246767  0.061015  1
  Ga  Ga20  1  0.741743  0.755378  0.940287  1
  Ga  Ga21  1  0.215225  0.228510  0.762535  1
  Ga  Ga22  1  0.214219  0.770841  0.734035  1
  Ga  Ga23  1  0.750222  0.244505  0.555054  1
  O  O24  1  0.244579  0.529353  0.408266  1
  O  O25  1  0.522185  0.761451  0.490313  1
  O  O26  1  0.936313  0.271470  0.797485  1
  O  O27  1  0.032493  0.229608  0.991471  1
  O  O28  1  0.795017  0.001056  0.252268  1
  O  O29  1  0.326787  0.688921  0.815988  1
  O  O30  1  0.047319  0.270754  0.312434  1
  O  O31  1  0.579694  0.751199  0.161211  1
  O  O32  1  0.552786  0.249067  0.338567  1
  O  O33  1  0.331173  0.306213  0.680328  1
  O  O34  1  0.472796  0.762546  0.989333  1
  O  O35  1  0.237930  0.956603  0.392504  1
  O  O36  1  0.933316  0.728418  0.701494  1
  O  O37  1  0.419344  0.745986  0.659165  1
  O  O38  1  0.660114  0.691662  0.317522  1
  O  O39  1  0.210772  0.999173  0.749578  1
  O  O40  1  0.772229  0.053545  0.607234  1
  O  O41  1  0.765392  0.459390  0.588951  1
  O  O42  1  0.965028  0.772672  0.010092  1
  O  O43  1  0.767442  0.538345  0.907578  1
  O  O44  1  0.227491  0.058424  0.115371  1
  O  O45  1  0.769488  0.944961  0.886607  1
  O  O46  1  0.524457  0.238927  0.011913  1
  O  O47  1  0.420575  0.253496  0.837931  1
  O  O48  1  0.029983  0.764744  0.505413  1
  O  O49  1  0.682547  0.314838  0.186293  1
  O  O50  1  0.063151  0.728025  0.204389  1
  O  O51  1  0.987343  0.232037  0.488705  1
  O  O52  1  0.232403  0.463276  0.094383  1
  O  O53  1  0.486823  0.235065  0.501609  1
