# generated using pymatgen
data_Y8Tm12SiBi11
_symmetry_space_group_name_H-M   'P 1'
_cell_length_a   8.14833109
_cell_length_b   9.38949000
_cell_length_c   11.99542853
_cell_angle_alpha   90.00000000
_cell_angle_beta   90.19667023
_cell_angle_gamma   90.00000000
_symmetry_Int_Tables_number   1
_chemical_formula_structural   Y8Tm12SiBi11
_chemical_formula_sum   'Y8 Tm12 Si1 Bi11'
_cell_volume   917.74891614
_cell_formula_units_Z   1
loop_
 _symmetry_equiv_pos_site_id
 _symmetry_equiv_pos_as_xyz
  1  'x, y, z'
loop_
 _atom_site_type_symbol
 _atom_site_label
 _atom_site_symmetry_multiplicity
 _atom_site_fract_x
 _atom_site_fract_y
 _atom_site_fract_z
 _atom_site_occupancy
  Y  Y0  1  0.190895  0.750000  0.723972  1
  Y  Y1  1  0.668827  0.750000  0.790805  1
  Y  Y2  1  0.812918  0.250000  0.280658  1
  Y  Y3  1  0.314916  0.250000  0.219709  1
  Y  Y4  1  0.354388  0.750000  0.204511  1
  Y  Y5  1  0.851508  0.750000  0.284184  1
  Y  Y6  1  0.649452  0.250000  0.784538  1
  Y  Y7  1  0.148345  0.250000  0.717165  1
  Tm  Tm8  1  0.037409  0.750000  0.989296  1
  Tm  Tm9  1  0.525456  0.750000  0.511294  1
  Tm  Tm10  1  0.980277  0.250000  0.009325  1
  Tm  Tm11  1  0.476360  0.250000  0.489082  1
  Tm  Tm12  1  0.311262  0.452074  0.940809  1
  Tm  Tm13  1  0.807399  0.064993  0.559401  1
  Tm  Tm14  1  0.682090  0.926993  0.053886  1
  Tm  Tm15  1  0.192806  0.565923  0.439557  1
  Tm  Tm16  1  0.682090  0.573007  0.053886  1
  Tm  Tm17  1  0.192806  0.934077  0.439557  1
  Tm  Tm18  1  0.311262  0.047926  0.940809  1
  Tm  Tm19  1  0.807399  0.435007  0.559401  1
  Si  Si20  1  0.410083  0.750000  0.963455  1
  Bi  Bi21  1  0.434670  0.004521  0.672551  1
  Bi  Bi22  1  0.933854  0.498389  0.827685  1
  Bi  Bi23  1  0.564854  0.504937  0.327004  1
  Bi  Bi24  1  0.064477  0.996668  0.172512  1
  Bi  Bi25  1  0.564854  0.995063  0.327004  1
  Bi  Bi26  1  0.064477  0.503332  0.172512  1
  Bi  Bi27  1  0.434670  0.495479  0.672551  1
  Bi  Bi28  1  0.933854  0.001611  0.827685  1
  Bi  Bi29  1  0.908303  0.750000  0.544916  1
  Bi  Bi30  1  0.594067  0.250000  0.042239  1
  Bi  Bi31  1  0.093972  0.250000  0.458040  1
