# generated using pymatgen
data_Ho4FeCo3HgI
_symmetry_space_group_name_H-M   'P 1'
_cell_length_a   3.92446200
_cell_length_b   3.92446305
_cell_length_c   16.75952400
_cell_angle_alpha   90.00000000
_cell_angle_beta   90.00000000
_cell_angle_gamma   119.99999115
_symmetry_Int_Tables_number   1
_chemical_formula_structural   Ho4FeCo3HgI
_chemical_formula_sum   'Ho4 Fe1 Co3 Hg1 I1'
_cell_volume   223.53870093
_cell_formula_units_Z   1
loop_
 _symmetry_equiv_pos_site_id
 _symmetry_equiv_pos_as_xyz
  1  'x, y, z'
loop_
 _atom_site_type_symbol
 _atom_site_label
 _atom_site_symmetry_multiplicity
 _atom_site_fract_x
 _atom_site_fract_y
 _atom_site_fract_z
 _atom_site_occupancy
  Ho  Ho0  1  0.000000  0.000000  0.112810  1
  Ho  Ho1  1  0.000000  0.000000  0.900158  1
  Ho  Ho2  1  0.000000  0.000000  0.602508  1
  Ho  Ho3  1  0.000000  0.000000  0.384968  1
  Fe  Fe4  1  0.333333  0.666667  0.497446  1
  Co  Co5  1  0.666667  0.333333  0.495262  1
  Co  Co6  1  0.666667  0.333333  0.003945  1
  Co  Co7  1  0.333333  0.666667  0.003001  1
  Hg  Hg8  1  0.333333  0.666667  0.249224  1
  I  I9  1  0.666667  0.333333  0.750679  1
