# generated using pymatgen
data_Eu2LuHfO6
_symmetry_space_group_name_H-M   'P 1'
_cell_length_a   5.72091552
_cell_length_b   5.91158600
_cell_length_c   9.97389500
_cell_angle_alpha   90.00000000
_cell_angle_beta   124.86803442
_cell_angle_gamma   90.00000000
_symmetry_Int_Tables_number   1
_chemical_formula_structural   Eu2LuHfO6
_chemical_formula_sum   'Eu4 Lu2 Hf2 O12'
_cell_volume   276.75632056
_cell_formula_units_Z   2
loop_
 _symmetry_equiv_pos_site_id
 _symmetry_equiv_pos_as_xyz
  1  'x, y, z'
loop_
 _atom_site_type_symbol
 _atom_site_label
 _atom_site_symmetry_multiplicity
 _atom_site_fract_x
 _atom_site_fract_y
 _atom_site_fract_z
 _atom_site_occupancy
  Eu  Eu0  1  0.239560  0.448404  0.750922  1
  Eu  Eu1  1  0.239560  0.051596  0.250922  1
  Eu  Eu2  1  0.760440  0.551596  0.249078  1
  Eu  Eu3  1  0.760440  0.948404  0.749078  1
  Lu  Lu4  1  0.500000  0.500000  0.500000  1
  Lu  Lu5  1  0.500000  0.000000  0.000000  1
  Hf  Hf6  1  0.000000  0.500000  0.000000  1
  Hf  Hf7  1  0.000000  0.000000  0.500000  1
  O  O8  1  0.350511  0.042882  0.743049  1
  O  O9  1  0.350511  0.457118  0.243049  1
  O  O10  1  0.649489  0.957118  0.256951  1
  O  O11  1  0.649489  0.542882  0.756951  1
  O  O12  1  0.758231  0.192359  0.554333  1
  O  O13  1  0.758231  0.307641  0.054333  1
  O  O14  1  0.241769  0.807641  0.445667  1
  O  O15  1  0.241769  0.692359  0.945667  1
  O  O16  1  0.131479  0.205593  0.941685  1
  O  O17  1  0.131479  0.294407  0.441685  1
  O  O18  1  0.868521  0.794407  0.058315  1
  O  O19  1  0.868521  0.705593  0.558315  1
