# generated using pymatgen
data_Sc4Tc2OsRu5
_symmetry_space_group_name_H-M   'P 1'
_cell_length_a   5.16602466
_cell_length_b   5.16206984
_cell_length_c   8.73841000
_cell_angle_alpha   90.00000000
_cell_angle_beta   90.00000000
_cell_angle_gamma   120.61482796
_symmetry_Int_Tables_number   1
_chemical_formula_structural   Sc4Tc2OsRu5
_chemical_formula_sum   'Sc4 Tc2 Os1 Ru5'
_cell_volume   200.54843979
_cell_formula_units_Z   1
loop_
 _symmetry_equiv_pos_site_id
 _symmetry_equiv_pos_as_xyz
  1  'x, y, z'
loop_
 _atom_site_type_symbol
 _atom_site_label
 _atom_site_symmetry_multiplicity
 _atom_site_fract_x
 _atom_site_fract_y
 _atom_site_fract_z
 _atom_site_occupancy
  Sc  Sc0  1  0.336231  0.667777  0.433147  1
  Sc  Sc1  1  0.668030  0.335999  0.566667  1
  Sc  Sc2  1  0.668030  0.335999  0.933333  1
  Sc  Sc3  1  0.336231  0.667777  0.066853  1
  Tc  Tc4  1  0.163020  0.336699  0.750000  1
  Tc  Tc5  1  0.333008  0.166324  0.250000  1
  Os  Os6  1  0.162717  0.824172  0.750000  1
  Ru  Ru7  1  0.814790  0.648266  0.250000  1
  Ru  Ru8  1  0.648049  0.822367  0.750000  1
  Ru  Ru9  1  0.026107  0.015142  0.000929  1
  Ru  Ru10  1  0.817678  0.164334  0.250000  1
  Ru  Ru11  1  0.026107  0.015142  0.499071  1
