# generated using pymatgen
data_Sr5Sn2Bi
_symmetry_space_group_name_H-M   'P 1'
_cell_length_a   10.16026655
_cell_length_b   10.16026656
_cell_length_c   10.16026704
_cell_angle_alpha   129.29924402
_cell_angle_beta   129.29924460
_cell_angle_gamma   74.52955029
_symmetry_Int_Tables_number   1
_chemical_formula_structural   Sr5Sn2Bi
_chemical_formula_sum   'Sr10 Sn4 Bi2'
_cell_volume   612.07058304
_cell_formula_units_Z   2
loop_
 _symmetry_equiv_pos_site_id
 _symmetry_equiv_pos_as_xyz
  1  'x, y, z'
loop_
 _atom_site_type_symbol
 _atom_site_label
 _atom_site_symmetry_multiplicity
 _atom_site_fract_x
 _atom_site_fract_y
 _atom_site_fract_z
 _atom_site_occupancy
  Sr  Sr0  1  0.500000  0.500000  0.000000  1
  Sr  Sr1  1  0.000000  0.000000  0.000000  1
  Sr  Sr2  1  0.527539  0.027539  0.840301  1
  Sr  Sr3  1  0.187238  0.687238  0.159699  1
  Sr  Sr4  1  0.027539  0.187238  0.500000  1
  Sr  Sr5  1  0.687238  0.527539  0.500000  1
  Sr  Sr6  1  0.472461  0.972461  0.159699  1
  Sr  Sr7  1  0.812762  0.312762  0.840301  1
  Sr  Sr8  1  0.972461  0.812762  0.500000  1
  Sr  Sr9  1  0.312762  0.472461  0.500000  1
  Sn  Sn10  1  0.877694  0.377694  0.255389  1
  Sn  Sn11  1  0.122306  0.622306  0.744611  1
  Sn  Sn12  1  0.377694  0.122306  0.500000  1
  Sn  Sn13  1  0.622306  0.877694  0.500000  1
  Bi  Bi14  1  0.250000  0.250000  0.000000  1
  Bi  Bi15  1  0.750000  0.750000  0.000000  1
