# generated using pymatgen
data_Th2MnFe11P7
_symmetry_space_group_name_H-M   'P 1'
_cell_length_a   9.09458719
_cell_length_b   9.08253011
_cell_length_c   3.69684600
_cell_angle_alpha   90.00000000
_cell_angle_beta   90.00000000
_cell_angle_gamma   119.96045638
_symmetry_Int_Tables_number   1
_chemical_formula_structural   Th2MnFe11P7
_chemical_formula_sum   'Th2 Mn1 Fe11 P7'
_cell_volume   264.56034179
_cell_formula_units_Z   1
loop_
 _symmetry_equiv_pos_site_id
 _symmetry_equiv_pos_as_xyz
  1  'x, y, z'
loop_
 _atom_site_type_symbol
 _atom_site_label
 _atom_site_symmetry_multiplicity
 _atom_site_fract_x
 _atom_site_fract_y
 _atom_site_fract_z
 _atom_site_occupancy
  Th  Th0  1  0.665426  0.332618  0.000000  1
  Th  Th1  1  0.331537  0.666420  0.500000  1
  Mn  Mn2  1  0.890178  0.786413  0.000000  1
  Fe  Fe3  1  0.426515  0.060887  0.500000  1
  Fe  Fe4  1  0.938379  0.364097  0.500000  1
  Fe  Fe5  1  0.633879  0.573622  0.500000  1
  Fe  Fe6  1  0.150560  0.272580  0.500000  1
  Fe  Fe7  1  0.730312  0.880141  0.500000  1
  Fe  Fe8  1  0.119889  0.851034  0.500000  1
  Fe  Fe9  1  0.380899  0.433713  0.000000  1
  Fe  Fe10  1  0.565657  0.947121  0.000000  1
  Fe  Fe11  1  0.051545  0.616899  0.000000  1
  Fe  Fe12  1  0.218421  0.100798  0.000000  1
  Fe  Fe13  1  0.900668  0.114191  0.000000  1
  P  P14  1  0.103057  0.392345  0.000000  1
  P  P15  1  0.600868  0.707808  0.000000  1
  P  P16  1  0.290492  0.897730  0.000000  1
  P  P17  1  0.002467  0.004573  0.500000  1
  P  P18  1  0.403584  0.302292  0.500000  1
  P  P19  1  0.696805  0.101579  0.500000  1
  P  P20  1  0.898861  0.593140  0.500000  1
