# generated using pymatgen
data_Yb3Er(FeB4)4
_symmetry_space_group_name_H-M   'P 1'
_cell_length_a   3.34673100
_cell_length_b   5.89017352
_cell_length_c   11.39504799
_cell_angle_alpha   89.95207846
_cell_angle_beta   90.00000000
_cell_angle_gamma   90.00000000
_symmetry_Int_Tables_number   1
_chemical_formula_structural   Yb3Er(FeB4)4
_chemical_formula_sum   'Yb3 Er1 Fe4 B16'
_cell_volume   224.62852324
_cell_formula_units_Z   1
loop_
 _symmetry_equiv_pos_site_id
 _symmetry_equiv_pos_as_xyz
  1  'x, y, z'
loop_
 _atom_site_type_symbol
 _atom_site_label
 _atom_site_symmetry_multiplicity
 _atom_site_fract_x
 _atom_site_fract_y
 _atom_site_fract_z
 _atom_site_occupancy
  Yb  Yb0  1  0.000000  0.873376  0.348229  1
  Yb  Yb1  1  0.000000  0.626015  0.850154  1
  Yb  Yb2  1  0.000000  0.373562  0.150561  1
  Er  Er3  1  0.000000  0.126123  0.651333  1
  Fe  Fe4  1  0.000000  0.127791  0.915046  1
  Fe  Fe5  1  0.000000  0.871676  0.082731  1
  Fe  Fe6  1  0.000000  0.629141  0.585561  1
  Fe  Fe7  1  0.000000  0.370463  0.416997  1
  B  B8  1  0.500000  0.361066  0.967595  1
  B  B9  1  0.500000  0.638937  0.031865  1
  B  B10  1  0.500000  0.860766  0.532183  1
  B  B11  1  0.500000  0.138943  0.468195  1
  B  B12  1  0.500000  0.475350  0.690910  1
  B  B13  1  0.500000  0.523976  0.309971  1
  B  B14  1  0.500000  0.975732  0.809610  1
  B  B15  1  0.500000  0.024365  0.189686  1
  B  B16  1  0.500000  0.280144  0.817344  1
  B  B17  1  0.500000  0.720743  0.182051  1
  B  B18  1  0.500000  0.779926  0.683038  1
  B  B19  1  0.500000  0.220844  0.317175  1
  B  B20  1  0.500000  0.388557  0.546935  1
  B  B21  1  0.500000  0.612362  0.453630  1
  B  B22  1  0.500000  0.887754  0.953304  1
  B  B23  1  0.500000  0.112386  0.045896  1
