# generated using pymatgen
data_Yb3PuRu8
_symmetry_space_group_name_H-M   'P 1'
_cell_length_a   5.27337600
_cell_length_b   5.27337723
_cell_length_c   8.73233100
_cell_angle_alpha   90.00000000
_cell_angle_beta   90.00000000
_cell_angle_gamma   119.99999228
_symmetry_Int_Tables_number   1
_chemical_formula_structural   Yb3PuRu8
_chemical_formula_sum   'Yb3 Pu1 Ru8'
_cell_volume   210.29959326
_cell_formula_units_Z   1
loop_
 _symmetry_equiv_pos_site_id
 _symmetry_equiv_pos_as_xyz
  1  'x, y, z'
loop_
 _atom_site_type_symbol
 _atom_site_label
 _atom_site_symmetry_multiplicity
 _atom_site_fract_x
 _atom_site_fract_y
 _atom_site_fract_z
 _atom_site_occupancy
  Yb  Yb0  1  0.333333  0.666667  0.437330  1
  Yb  Yb1  1  0.666667  0.333333  0.565726  1
  Yb  Yb2  1  0.666667  0.333333  0.931189  1
  Pu  Pu3  1  0.333333  0.666667  0.069415  1
  Ru  Ru4  1  0.170710  0.341421  0.751576  1
  Ru  Ru5  1  0.170710  0.829290  0.751576  1
  Ru  Ru6  1  0.342844  0.171422  0.248008  1
  Ru  Ru7  1  0.828578  0.657156  0.248008  1
  Ru  Ru8  1  0.658579  0.829290  0.751576  1
  Ru  Ru9  1  0.000000  0.000000  0.999988  1
  Ru  Ru10  1  0.828578  0.171422  0.248008  1
  Ru  Ru11  1  0.000000  0.000000  0.497600  1
