# generated using pymatgen
data_La3Tm2P12Ir10Ru9
_symmetry_space_group_name_H-M   'P 1'
_cell_length_a   12.73614400
_cell_length_b   12.73614365
_cell_length_c   3.97838500
_cell_angle_alpha   90.00000000
_cell_angle_beta   90.00000000
_cell_angle_gamma   119.99999052
_symmetry_Int_Tables_number   1
_chemical_formula_structural   La3Tm2P12Ir10Ru9
_chemical_formula_sum   'La3 Tm2 P12 Ir10 Ru9'
_cell_volume   558.87333812
_cell_formula_units_Z   1
loop_
 _symmetry_equiv_pos_site_id
 _symmetry_equiv_pos_as_xyz
  1  'x, y, z'
loop_
 _atom_site_type_symbol
 _atom_site_label
 _atom_site_symmetry_multiplicity
 _atom_site_fract_x
 _atom_site_fract_y
 _atom_site_fract_z
 _atom_site_occupancy
  La  La0  1  0.187988  0.187988  0.000000  1
  La  La1  1  0.812012  0.000000  0.000000  1
  La  La2  1  0.000000  0.812012  0.000000  1
  Tm  Tm3  1  0.333333  0.666667  0.500000  1
  Tm  Tm4  1  0.666667  0.333333  0.500000  1
  P  P5  1  0.306921  0.824470  0.000000  1
  P  P6  1  0.175530  0.482451  0.000000  1
  P  P7  1  0.517549  0.693079  0.000000  1
  P  P8  1  0.824470  0.306921  0.000000  1
  P  P9  1  0.482451  0.175530  0.000000  1
  P  P10  1  0.693079  0.517549  0.000000  1
  P  P11  1  0.367709  0.367709  0.500000  1
  P  P12  1  0.632291  0.000000  0.500000  1
  P  P13  1  0.000000  0.632291  0.500000  1
  P  P14  1  0.813609  0.813609  0.500000  1
  P  P15  1  0.186391  0.000000  0.500000  1
  P  P16  1  0.000000  0.186391  0.500000  1
  Ir  Ir17  1  0.130272  0.634429  0.000000  1
  Ir  Ir18  1  0.365571  0.495842  0.000000  1
  Ir  Ir19  1  0.504158  0.869728  0.000000  1
  Ir  Ir20  1  0.634429  0.130272  0.000000  1
  Ir  Ir21  1  0.495842  0.365571  0.000000  1
  Ir  Ir22  1  0.869728  0.504158  0.000000  1
  Ir  Ir23  1  0.709296  0.709296  0.000000  1
  Ir  Ir24  1  0.290704  0.000000  0.000000  1
  Ir  Ir25  1  0.000000  0.290704  0.000000  1
  Ir  Ir26  1  0.000000  0.000000  0.500000  1
  Ru  Ru27  1  0.200505  0.817182  0.500000  1
  Ru  Ru28  1  0.182818  0.383323  0.500000  1
  Ru  Ru29  1  0.616677  0.799495  0.500000  1
  Ru  Ru30  1  0.817182  0.200505  0.500000  1
  Ru  Ru31  1  0.383323  0.182818  0.500000  1
  Ru  Ru32  1  0.799495  0.616677  0.500000  1
  Ru  Ru33  1  0.547754  0.547754  0.500000  1
  Ru  Ru34  1  0.452246  0.000000  0.500000  1
  Ru  Ru35  1  0.000000  0.452246  0.500000  1
