# generated using pymatgen
data_Zr4Ta4Si3P
_symmetry_space_group_name_H-M   'P 1'
_cell_length_a   3.63682100
_cell_length_b   6.98262906
_cell_length_c   8.44349901
_cell_angle_alpha   89.74185316
_cell_angle_beta   90.00000000
_cell_angle_gamma   90.00000000
_symmetry_Int_Tables_number   1
_chemical_formula_structural   Zr4Ta4Si3P
_chemical_formula_sum   'Zr4 Ta4 Si3 P1'
_cell_volume   214.41686722
_cell_formula_units_Z   1
loop_
 _symmetry_equiv_pos_site_id
 _symmetry_equiv_pos_as_xyz
  1  'x, y, z'
loop_
 _atom_site_type_symbol
 _atom_site_label
 _atom_site_symmetry_multiplicity
 _atom_site_fract_x
 _atom_site_fract_y
 _atom_site_fract_z
 _atom_site_occupancy
  Zr  Zr0  1  0.250000  0.041823  0.670401  1
  Zr  Zr1  1  0.250000  0.537516  0.833086  1
  Zr  Zr2  1  0.750000  0.460478  0.168478  1
  Zr  Zr3  1  0.750000  0.958600  0.332136  1
  Ta  Ta4  1  0.750000  0.867271  0.939738  1
  Ta  Ta5  1  0.250000  0.632095  0.440721  1
  Ta  Ta6  1  0.750000  0.364011  0.561304  1
  Ta  Ta7  1  0.250000  0.137994  0.055573  1
  Si  Si8  1  0.250000  0.256089  0.358097  1
  Si  Si9  1  0.250000  0.759588  0.141031  1
  Si  Si10  1  0.750000  0.742539  0.641265  1
  P  P11  1  0.750000  0.241996  0.858168  1
