# generated using pymatgen
data_Ho4Mn5V(Fe7P6)2
_symmetry_space_group_name_H-M   'P 1'
_cell_length_a   3.64051100
_cell_length_b   10.27655781
_cell_length_c   12.15276177
_cell_angle_alpha   90.28951252
_cell_angle_beta   90.00000000
_cell_angle_gamma   90.00000000
_symmetry_Int_Tables_number   1
_chemical_formula_structural   Ho4Mn5V(Fe7P6)2
_chemical_formula_sum   'Ho4 Mn5 V1 Fe14 P12'
_cell_volume   454.65236823
_cell_formula_units_Z   1
loop_
 _symmetry_equiv_pos_site_id
 _symmetry_equiv_pos_as_xyz
  1  'x, y, z'
loop_
 _atom_site_type_symbol
 _atom_site_label
 _atom_site_symmetry_multiplicity
 _atom_site_fract_x
 _atom_site_fract_y
 _atom_site_fract_z
 _atom_site_occupancy
  Ho  Ho0  1  0.250000  0.580344  0.710514  1
  Ho  Ho1  1  0.250000  0.920541  0.210391  1
  Ho  Ho2  1  0.750000  0.419108  0.288933  1
  Ho  Ho3  1  0.750000  0.080131  0.790320  1
  Mn  Mn4  1  0.250000  0.704481  0.991798  1
  Mn  Mn5  1  0.250000  0.794812  0.491248  1
  Mn  Mn6  1  0.750000  0.206461  0.506746  1
  Mn  Mn7  1  0.250000  0.408023  0.490496  1
  Mn  Mn8  1  0.250000  0.089424  0.990685  1
  V  V9  1  0.750000  0.298566  0.006592  1
  Fe  Fe10  1  0.750000  0.589466  0.510189  1
  Fe  Fe11  1  0.750000  0.909839  0.011103  1
  Fe  Fe12  1  0.250000  0.217912  0.172315  1
  Fe  Fe13  1  0.250000  0.280624  0.670215  1
  Fe  Fe14  1  0.750000  0.777838  0.828576  1
  Fe  Fe15  1  0.750000  0.721714  0.327931  1
  Fe  Fe16  1  0.250000  0.876502  0.694984  1
  Fe  Fe17  1  0.250000  0.622308  0.194911  1
  Fe  Fe18  1  0.750000  0.122369  0.305191  1
  Fe  Fe19  1  0.750000  0.376593  0.802935  1
  Fe  Fe20  1  0.250000  0.465467  0.935847  1
  Fe  Fe21  1  0.250000  0.037125  0.436851  1
  Fe  Fe22  1  0.750000  0.538923  0.065065  1
  Fe  Fe23  1  0.750000  0.962057  0.565044  1
  P  P24  1  0.250000  0.421574  0.112813  1
  P  P25  1  0.250000  0.077038  0.613736  1
  P  P26  1  0.750000  0.574870  0.886355  1
  P  P27  1  0.750000  0.924160  0.387057  1
  P  P28  1  0.250000  0.271451  0.859354  1
  P  P29  1  0.250000  0.229778  0.360359  1
  P  P30  1  0.750000  0.732743  0.140168  1
  P  P31  1  0.750000  0.768236  0.639936  1
  P  P32  1  0.250000  0.603329  0.380693  1
  P  P33  1  0.250000  0.894914  0.880688  1
  P  P34  1  0.750000  0.397454  0.619104  1
  P  P35  1  0.750000  0.103825  0.120853  1
