# generated using pymatgen
data_Zr2Si7(Ir3Rh)3
_symmetry_space_group_name_H-M   'P 1'
_cell_length_a   9.71016100
_cell_length_b   9.71016093
_cell_length_c   3.84414500
_cell_angle_alpha   90.00000000
_cell_angle_beta   90.00000000
_cell_angle_gamma   120.00000638
_symmetry_Int_Tables_number   1
_chemical_formula_structural   Zr2Si7(Ir3Rh)3
_chemical_formula_sum   'Zr2 Si7 Ir9 Rh3'
_cell_volume   313.89415085
_cell_formula_units_Z   1
loop_
 _symmetry_equiv_pos_site_id
 _symmetry_equiv_pos_as_xyz
  1  'x, y, z'
loop_
 _atom_site_type_symbol
 _atom_site_label
 _atom_site_symmetry_multiplicity
 _atom_site_fract_x
 _atom_site_fract_y
 _atom_site_fract_z
 _atom_site_occupancy
  Zr  Zr0  1  0.333333  0.666667  0.739047  1
  Zr  Zr1  1  0.666667  0.333333  0.240786  1
  Si  Si2  1  0.000000  0.000000  0.706372  1
  Si  Si3  1  0.406921  0.291584  0.740191  1
  Si  Si4  1  0.708416  0.115336  0.740191  1
  Si  Si5  1  0.884664  0.593079  0.740191  1
  Si  Si6  1  0.594779  0.709236  0.239140  1
  Si  Si7  1  0.290764  0.885544  0.239140  1
  Si  Si8  1  0.114456  0.405221  0.239140  1
  Ir  Ir9  1  0.446804  0.071390  0.739966  1
  Ir  Ir10  1  0.928610  0.375413  0.739966  1
  Ir  Ir11  1  0.624587  0.553196  0.739966  1
  Ir  Ir12  1  0.552152  0.934296  0.239309  1
  Ir  Ir13  1  0.065704  0.617857  0.239309  1
  Ir  Ir14  1  0.382143  0.447848  0.239309  1
  Ir  Ir15  1  0.150544  0.274982  0.738538  1
  Ir  Ir16  1  0.725018  0.875563  0.738538  1
  Ir  Ir17  1  0.124437  0.849456  0.738538  1
  Rh  Rh18  1  0.861534  0.747541  0.240788  1
  Rh  Rh19  1  0.252459  0.113992  0.240788  1
  Rh  Rh20  1  0.886008  0.138466  0.240788  1
