# generated using pymatgen
data_Zr6Nb5AlGa10Os7
_symmetry_space_group_name_H-M   'P 1'
_cell_length_a   8.93211277
_cell_length_b   8.90361427
_cell_length_c   8.88555957
_cell_angle_alpha   59.73278849
_cell_angle_beta   59.82653650
_cell_angle_gamma   59.89406356
_symmetry_Int_Tables_number   1
_chemical_formula_structural   Zr6Nb5AlGa10Os7
_chemical_formula_sum   'Zr6 Nb5 Al1 Ga10 Os7'
_cell_volume   497.60957333
_cell_formula_units_Z   1
loop_
 _symmetry_equiv_pos_site_id
 _symmetry_equiv_pos_as_xyz
  1  'x, y, z'
loop_
 _atom_site_type_symbol
 _atom_site_label
 _atom_site_symmetry_multiplicity
 _atom_site_fract_x
 _atom_site_fract_y
 _atom_site_fract_z
 _atom_site_occupancy
  Zr  Zr0  1  0.702155  0.703965  0.300529  1
  Zr  Zr1  1  0.293349  0.703965  0.300529  1
  Zr  Zr2  1  0.703310  0.293222  0.300156  1
  Zr  Zr3  1  0.305471  0.305478  0.703840  1
  Zr  Zr4  1  0.685211  0.305478  0.703840  1
  Zr  Zr5  1  0.306145  0.685809  0.701900  1
  Nb  Nb6  1  0.878157  0.878052  0.365636  1
  Nb  Nb7  1  0.874029  0.371002  0.880942  1
  Nb  Nb8  1  0.371902  0.873912  0.880421  1
  Nb  Nb9  1  0.873766  0.873912  0.880421  1
  Nb  Nb10  1  0.127079  0.126567  0.619275  1
  Al  Al11  1  0.121279  0.637908  0.119533  1
  Ga  Ga12  1  0.644411  0.118894  0.118234  1
  Ga  Ga13  1  0.118460  0.118894  0.118234  1
  Ga  Ga14  1  0.653668  0.653579  0.039086  1
  Ga  Ga15  1  0.657523  0.029417  0.655536  1
  Ga  Ga16  1  0.029406  0.657371  0.655655  1
  Ga  Ga17  1  0.657567  0.657371  0.655655  1
  Ga  Ga18  1  0.336479  0.338557  0.988485  1
  Ga  Ga19  1  0.341731  0.978420  0.338116  1
  Ga  Ga20  1  0.978197  0.343073  0.337626  1
  Ga  Ga21  1  0.341103  0.343073  0.337626  1
  Os  Os22  1  0.007377  0.001675  0.983570  1
  Os  Os23  1  0.998597  0.999280  0.505204  1
  Os  Os24  1  0.496919  0.999280  0.505204  1
  Os  Os25  1  0.998428  0.498457  0.504687  1
  Os  Os26  1  0.500093  0.502788  0.999960  1
  Os  Os27  1  0.997159  0.502788  0.999960  1
  Os  Os28  1  0.501025  0.997813  0.000137  1
