# generated using pymatgen
data_Ta10ZnGa4
_symmetry_space_group_name_H-M   'P 1'
_cell_length_a   9.89865200
_cell_length_b   9.89865200
_cell_length_c   5.20796500
_cell_angle_alpha   90.00000000
_cell_angle_beta   90.00000000
_cell_angle_gamma   90.00000000
_symmetry_Int_Tables_number   1
_chemical_formula_structural   Ta10ZnGa4
_chemical_formula_sum   'Ta20 Zn2 Ga8'
_cell_volume   510.29365644
_cell_formula_units_Z   2
loop_
 _symmetry_equiv_pos_site_id
 _symmetry_equiv_pos_as_xyz
  1  'x, y, z'
loop_
 _atom_site_type_symbol
 _atom_site_label
 _atom_site_symmetry_multiplicity
 _atom_site_fract_x
 _atom_site_fract_y
 _atom_site_fract_z
 _atom_site_occupancy
  Ta  Ta0  1  0.399052  0.399052  0.000000  1
  Ta  Ta1  1  0.899052  0.100948  0.500000  1
  Ta  Ta2  1  0.100948  0.899052  0.500000  1
  Ta  Ta3  1  0.600948  0.600948  0.000000  1
  Ta  Ta4  1  0.130398  0.464533  0.000000  1
  Ta  Ta5  1  0.964533  0.369602  0.500000  1
  Ta  Ta6  1  0.035467  0.630398  0.500000  1
  Ta  Ta7  1  0.869602  0.535467  0.000000  1
  Ta  Ta8  1  0.369602  0.964533  0.500000  1
  Ta  Ta9  1  0.630398  0.035467  0.500000  1
  Ta  Ta10  1  0.464533  0.130398  0.000000  1
  Ta  Ta11  1  0.535467  0.869602  0.000000  1
  Ta  Ta12  1  0.181647  0.181647  0.251361  1
  Ta  Ta13  1  0.681647  0.318353  0.751361  1
  Ta  Ta14  1  0.318353  0.681647  0.751361  1
  Ta  Ta15  1  0.818353  0.818353  0.251361  1
  Ta  Ta16  1  0.318353  0.681647  0.248639  1
  Ta  Ta17  1  0.681647  0.318353  0.248639  1
  Ta  Ta18  1  0.181647  0.181647  0.748639  1
  Ta  Ta19  1  0.818353  0.818353  0.748639  1
  Zn  Zn20  1  0.000000  0.000000  0.000000  1
  Zn  Zn21  1  0.500000  0.500000  0.500000  1
  Ga  Ga22  1  0.261463  0.934266  0.000000  1
  Ga  Ga23  1  0.434266  0.238537  0.500000  1
  Ga  Ga24  1  0.565734  0.761463  0.500000  1
  Ga  Ga25  1  0.738537  0.065734  0.000000  1
  Ga  Ga26  1  0.238537  0.434266  0.500000  1
  Ga  Ga27  1  0.761463  0.565734  0.500000  1
  Ga  Ga28  1  0.934266  0.261463  0.000000  1
  Ga  Ga29  1  0.065734  0.738537  0.000000  1
