# generated using pymatgen
data_Ca9Pr8Dy3Si16
_symmetry_space_group_name_H-M   'P 1'
_cell_length_a   7.52040849
_cell_length_b   7.95018988
_cell_length_c   15.13033330
_cell_angle_alpha   89.95663310
_cell_angle_beta   90.06346346
_cell_angle_gamma   89.96815485
_symmetry_Int_Tables_number   1
_chemical_formula_structural   Ca9Pr8Dy3Si16
_chemical_formula_sum   'Ca9 Pr8 Dy3 Si16'
_cell_volume   904.62163375
_cell_formula_units_Z   1
loop_
 _symmetry_equiv_pos_site_id
 _symmetry_equiv_pos_as_xyz
  1  'x, y, z'
loop_
 _atom_site_type_symbol
 _atom_site_label
 _atom_site_symmetry_multiplicity
 _atom_site_fract_x
 _atom_site_fract_y
 _atom_site_fract_z
 _atom_site_occupancy
  Ca  Ca0  1  0.645152  0.995949  0.249309  1
  Ca  Ca1  1  0.149605  0.502882  0.249005  1
  Ca  Ca2  1  0.851580  0.494409  0.750043  1
  Ca  Ca3  1  0.351247  0.005379  0.749974  1
  Ca  Ca4  1  0.681073  0.818673  0.878398  1
  Ca  Ca5  1  0.181500  0.680162  0.620574  1
  Ca  Ca6  1  0.818949  0.320193  0.121102  1
  Ca  Ca7  1  0.319218  0.180954  0.379559  1
  Ca  Ca8  1  0.317678  0.179805  0.121992  1
  Pr  Pr9  1  0.972085  0.815679  0.098734  1
  Pr  Pr10  1  0.471930  0.684624  0.402346  1
  Pr  Pr11  1  0.527572  0.314802  0.902361  1
  Pr  Pr12  1  0.027415  0.183929  0.598081  1
  Pr  Pr13  1  0.028421  0.185420  0.899472  1
  Pr  Pr14  1  0.528819  0.314214  0.599769  1
  Pr  Pr15  1  0.471420  0.686555  0.099619  1
  Pr  Pr16  1  0.971133  0.814159  0.400802  1
  Dy  Dy17  1  0.821013  0.318161  0.376371  1
  Dy  Dy18  1  0.181010  0.680798  0.875683  1
  Dy  Dy19  1  0.680659  0.819054  0.623727  1
  Si  Si20  1  0.759855  0.621423  0.252522  1
  Si  Si21  1  0.254791  0.876652  0.250859  1
  Si  Si22  1  0.742081  0.119729  0.747816  1
  Si  Si23  1  0.241849  0.379930  0.751761  1
  Si  Si24  1  0.026557  0.096732  0.253019  1
  Si  Si25  1  0.533727  0.404857  0.253666  1
  Si  Si26  1  0.469808  0.599609  0.750206  1
  Si  Si27  1  0.969456  0.900356  0.749409  1
  Si  Si28  1  0.863674  0.528855  0.959997  1
  Si  Si29  1  0.365329  0.971793  0.539574  1
  Si  Si30  1  0.640008  0.027146  0.037086  1
  Si  Si31  1  0.134958  0.471155  0.460902  1
  Si  Si32  1  0.148275  0.475872  0.034293  1
  Si  Si33  1  0.652732  0.032288  0.465327  1
  Si  Si34  1  0.352027  0.965746  0.961598  1
  Si  Si35  1  0.847395  0.532057  0.535043  1
