# generated using pymatgen
data_Nd4Al10Ga14PtRh
_symmetry_space_group_name_H-M   'P 1'
_cell_length_a   6.04929164
_cell_length_b   6.04847342
_cell_length_c   15.80172420
_cell_angle_alpha   89.99344568
_cell_angle_beta   90.28717800
_cell_angle_gamma   90.01530868
_symmetry_Int_Tables_number   1
_chemical_formula_structural   Nd4Al10Ga14PtRh
_chemical_formula_sum   'Nd4 Al10 Ga14 Pt1 Rh1'
_cell_volume   578.16167861
_cell_formula_units_Z   1
loop_
 _symmetry_equiv_pos_site_id
 _symmetry_equiv_pos_as_xyz
  1  'x, y, z'
loop_
 _atom_site_type_symbol
 _atom_site_label
 _atom_site_symmetry_multiplicity
 _atom_site_fract_x
 _atom_site_fract_y
 _atom_site_fract_z
 _atom_site_occupancy
  Nd  Nd0  1  0.752260  0.250683  0.249164  1
  Nd  Nd1  1  0.252336  0.749147  0.247983  1
  Nd  Nd2  1  0.248389  0.749611  0.751639  1
  Nd  Nd3  1  0.748486  0.250382  0.750361  1
  Al  Al4  1  0.502837  0.002680  0.912998  1
  Al  Al5  1  0.996587  0.003519  0.913134  1
  Al  Al6  1  0.502734  0.497395  0.913136  1
  Al  Al7  1  0.996641  0.496492  0.913047  1
  Al  Al8  1  0.503187  0.003488  0.086749  1
  Al  Al9  1  0.997065  0.002689  0.086787  1
  Al  Al10  1  0.503341  0.496381  0.086749  1
  Al  Al11  1  0.997249  0.497541  0.086751  1
  Al  Al12  1  0.583317  0.080728  0.433503  1
  Al  Al13  1  0.084562  0.918102  0.433228  1
  Ga  Ga14  1  0.250615  0.250135  0.187838  1
  Ga  Ga15  1  0.750702  0.749872  0.187832  1
  Ga  Ga16  1  0.748652  0.749865  0.812178  1
  Ga  Ga17  1  0.248727  0.250199  0.812190  1
  Ga  Ga18  1  0.253119  0.246363  0.344034  1
  Ga  Ga19  1  0.753118  0.753737  0.344021  1
  Ga  Ga20  1  0.747868  0.748488  0.655819  1
  Ga  Ga21  1  0.248021  0.251440  0.655826  1
  Ga  Ga22  1  0.420223  0.582078  0.430742  1
  Ga  Ga23  1  0.921114  0.419052  0.431031  1
  Ga  Ga24  1  0.415573  0.919834  0.568964  1
  Ga  Ga25  1  0.916847  0.079085  0.568702  1
  Ga  Ga26  1  0.577863  0.418347  0.567636  1
  Ga  Ga27  1  0.078722  0.582637  0.568012  1
  Pt  Pt28  1  0.249893  0.750121  0.999954  1
  Rh  Rh29  1  0.749952  0.249909  0.999989  1
