# generated using pymatgen
data_Er6Tm2Cd2IrRu
_symmetry_space_group_name_H-M   'P 1'
_cell_length_a   9.54512169
_cell_length_b   9.54512219
_cell_length_c   9.58509600
_cell_angle_alpha   59.86136915
_cell_angle_beta   59.86136738
_cell_angle_gamma   59.71723880
_symmetry_Int_Tables_number   1
_chemical_formula_structural   Er6Tm2Cd2IrRu
_chemical_formula_sum   'Er12 Tm4 Cd4 Ir2 Ru2'
_cell_volume   614.89141775
_cell_formula_units_Z   2
loop_
 _symmetry_equiv_pos_site_id
 _symmetry_equiv_pos_as_xyz
  1  'x, y, z'
loop_
 _atom_site_type_symbol
 _atom_site_label
 _atom_site_symmetry_multiplicity
 _atom_site_fract_x
 _atom_site_fract_y
 _atom_site_fract_z
 _atom_site_occupancy
  Er  Er0  1  0.061792  0.438074  0.440101  1
  Er  Er1  1  0.438074  0.061792  0.060033  1
  Er  Er2  1  0.438074  0.061792  0.440101  1
  Er  Er3  1  0.061792  0.438074  0.060033  1
  Er  Er4  1  0.438221  0.438221  0.061779  1
  Er  Er5  1  0.059337  0.059337  0.440663  1
  Er  Er6  1  0.188077  0.810100  0.813316  1
  Er  Er7  1  0.810100  0.188077  0.188506  1
  Er  Er8  1  0.810100  0.188077  0.813316  1
  Er  Er9  1  0.188077  0.810100  0.188506  1
  Er  Er10  1  0.811316  0.811316  0.188684  1
  Er  Er11  1  0.188190  0.188190  0.811810  1
  Tm  Tm12  1  0.598084  0.598084  0.598014  1
  Tm  Tm13  1  0.598084  0.598084  0.205817  1
  Tm  Tm14  1  0.596644  0.209733  0.596811  1
  Tm  Tm15  1  0.209733  0.596644  0.596811  1
  Cd  Cd16  1  0.830398  0.830398  0.830377  1
  Cd  Cd17  1  0.830398  0.830398  0.508826  1
  Cd  Cd18  1  0.830850  0.507692  0.830729  1
  Cd  Cd19  1  0.507692  0.830850  0.830729  1
  Ir  Ir20  1  0.394169  0.826045  0.389893  1
  Ir  Ir21  1  0.826045  0.394169  0.389893  1
  Ru  Ru22  1  0.392376  0.392376  0.387974  1
  Ru  Ru23  1  0.392376  0.392376  0.827272  1
