# generated using pymatgen
data_Ho4Co13As12Ru7
_symmetry_space_group_name_H-M   'P 1'
_cell_length_a   3.84663500
_cell_length_b   10.86213763
_cell_length_c   12.32928884
_cell_angle_alpha   89.99837088
_cell_angle_beta   90.00000000
_cell_angle_gamma   90.00000000
_symmetry_Int_Tables_number   1
_chemical_formula_structural   Ho4Co13As12Ru7
_chemical_formula_sum   'Ho4 Co13 As12 Ru7'
_cell_volume   515.15071517
_cell_formula_units_Z   1
loop_
 _symmetry_equiv_pos_site_id
 _symmetry_equiv_pos_as_xyz
  1  'x, y, z'
loop_
 _atom_site_type_symbol
 _atom_site_label
 _atom_site_symmetry_multiplicity
 _atom_site_fract_x
 _atom_site_fract_y
 _atom_site_fract_z
 _atom_site_occupancy
  Ho  Ho0  1  0.250000  0.584782  0.705671  1
  Ho  Ho1  1  0.250000  0.914235  0.204287  1
  Ho  Ho2  1  0.750000  0.414980  0.294057  1
  Ho  Ho3  1  0.750000  0.084407  0.794788  1
  Co  Co4  1  0.750000  0.904011  0.012972  1
  Co  Co5  1  0.250000  0.219211  0.177407  1
  Co  Co6  1  0.250000  0.280015  0.678244  1
  Co  Co7  1  0.750000  0.782799  0.824676  1
  Co  Co8  1  0.750000  0.720126  0.320237  1
  Co  Co9  1  0.250000  0.885106  0.698205  1
  Co  Co10  1  0.250000  0.616375  0.196743  1
  Co  Co11  1  0.750000  0.112844  0.301282  1
  Co  Co12  1  0.750000  0.384046  0.802726  1
  Co  Co13  1  0.250000  0.466899  0.932631  1
  Co  Co14  1  0.250000  0.033629  0.432277  1
  Co  Co15  1  0.750000  0.535519  0.068029  1
  Co  Co16  1  0.750000  0.965801  0.566975  1
  As  As17  1  0.250000  0.419258  0.114235  1
  As  As18  1  0.250000  0.081038  0.614495  1
  As  As19  1  0.750000  0.581790  0.885639  1
  As  As20  1  0.750000  0.918036  0.385383  1
  As  As21  1  0.250000  0.271978  0.866691  1
  As  As22  1  0.250000  0.227099  0.365046  1
  As  As23  1  0.750000  0.731963  0.131095  1
  As  As24  1  0.750000  0.772779  0.635810  1
  As  As25  1  0.250000  0.600234  0.383574  1
  As  As26  1  0.250000  0.900453  0.886479  1
  As  As27  1  0.750000  0.399948  0.615775  1
  As  As28  1  0.750000  0.095946  0.114276  1
  Ru  Ru29  1  0.250000  0.710682  0.989306  1
  Ru  Ru30  1  0.250000  0.793760  0.486154  1
  Ru  Ru31  1  0.750000  0.291410  0.013559  1
  Ru  Ru32  1  0.750000  0.206092  0.513560  1
  Ru  Ru33  1  0.250000  0.404058  0.485069  1
  Ru  Ru34  1  0.250000  0.092264  0.988129  1
  Ru  Ru35  1  0.750000  0.596422  0.514520  1
