# generated using pymatgen
data_La7Pr9(CoHg3)2
_symmetry_space_group_name_H-M   'P 1'
_cell_length_a   10.76258600
_cell_length_b   10.76258746
_cell_length_c   7.30681300
_cell_angle_alpha   90.00000000
_cell_angle_beta   90.00000000
_cell_angle_gamma   120.00000165
_symmetry_Int_Tables_number   1
_chemical_formula_structural   La7Pr9(CoHg3)2
_chemical_formula_sum   'La7 Pr9 Co2 Hg6'
_cell_volume   732.97969824
_cell_formula_units_Z   1
loop_
 _symmetry_equiv_pos_site_id
 _symmetry_equiv_pos_as_xyz
  1  'x, y, z'
loop_
 _atom_site_type_symbol
 _atom_site_label
 _atom_site_symmetry_multiplicity
 _atom_site_fract_x
 _atom_site_fract_y
 _atom_site_fract_z
 _atom_site_occupancy
  La  La0  1  0.170766  0.829234  0.980961  1
  La  La1  1  0.343170  0.171586  0.480855  1
  La  La2  1  0.828414  0.656830  0.480855  1
  La  La3  1  0.170766  0.341529  0.980961  1
  La  La4  1  0.658471  0.829234  0.980961  1
  La  La5  1  0.828414  0.171586  0.480855  1
  La  La6  1  0.333333  0.666667  0.699566  1
  Pr  Pr7  1  0.666667  0.333333  0.188792  1
  Pr  Pr8  1  0.458530  0.541470  0.291009  1
  Pr  Pr9  1  0.915828  0.457915  0.790930  1
  Pr  Pr10  1  0.542085  0.084172  0.790930  1
  Pr  Pr11  1  0.458530  0.917058  0.291009  1
  Pr  Pr12  1  0.082942  0.541470  0.291009  1
  Pr  Pr13  1  0.542085  0.457915  0.790930  1
  Pr  Pr14  1  0.000000  0.000000  0.291818  1
  Pr  Pr15  1  0.000000  0.000000  0.792480  1
  Co  Co16  1  0.333333  0.666667  0.048051  1
  Co  Co17  1  0.666667  0.333333  0.557084  1
  Hg  Hg18  1  0.167198  0.832802  0.535817  1
  Hg  Hg19  1  0.335510  0.167755  0.036496  1
  Hg  Hg20  1  0.832245  0.664490  0.036496  1
  Hg  Hg21  1  0.167198  0.334396  0.535817  1
  Hg  Hg22  1  0.665604  0.832802  0.535817  1
  Hg  Hg23  1  0.832245  0.167755  0.036496  1
