# generated using pymatgen
data_RbPPtS4
_symmetry_space_group_name_H-M   'P 1'
_cell_length_a   8.86059900
_cell_length_b   8.86059900
_cell_length_c   11.39820200
_cell_angle_alpha   90.00000000
_cell_angle_beta   90.00000000
_cell_angle_gamma   90.00000000
_symmetry_Int_Tables_number   1
_chemical_formula_structural   RbPPtS4
_chemical_formula_sum   'Rb4 P4 Pt4 S16'
_cell_volume   894.87528552
_cell_formula_units_Z   4
loop_
 _symmetry_equiv_pos_site_id
 _symmetry_equiv_pos_as_xyz
  1  'x, y, z'
loop_
 _atom_site_type_symbol
 _atom_site_label
 _atom_site_symmetry_multiplicity
 _atom_site_fract_x
 _atom_site_fract_y
 _atom_site_fract_z
 _atom_site_occupancy
  Rb  Rb0  1  0.000000  0.500000  0.750000  1
  Rb  Rb1  1  0.500000  0.000000  0.750000  1
  Rb  Rb2  1  0.500000  0.000000  0.250000  1
  Rb  Rb3  1  0.000000  0.500000  0.250000  1
  P  P4  1  0.749029  0.749029  0.000000  1
  P  P5  1  0.250971  0.250971  0.000000  1
  P  P6  1  0.249029  0.750971  0.500000  1
  P  P7  1  0.750971  0.249029  0.500000  1
  Pt  Pt8  1  0.500000  0.500000  0.500000  1
  Pt  Pt9  1  0.000000  0.000000  0.000000  1
  Pt  Pt10  1  0.500000  0.500000  0.000000  1
  Pt  Pt11  1  0.000000  0.000000  0.500000  1
  S  S12  1  0.359390  0.359390  0.136336  1
  S  S13  1  0.640610  0.640610  0.136336  1
  S  S14  1  0.140610  0.859390  0.363664  1
  S  S15  1  0.859390  0.140610  0.363664  1
  S  S16  1  0.640610  0.640610  0.863664  1
  S  S17  1  0.359390  0.359390  0.863664  1
  S  S18  1  0.140610  0.859390  0.636336  1
  S  S19  1  0.859390  0.140610  0.636336  1
  S  S20  1  0.517796  0.236183  0.500000  1
  S  S21  1  0.482204  0.763817  0.500000  1
  S  S22  1  0.982204  0.736183  0.000000  1
  S  S23  1  0.017796  0.263817  0.000000  1
  S  S24  1  0.763817  0.482204  0.500000  1
  S  S25  1  0.236183  0.517796  0.500000  1
  S  S26  1  0.263817  0.017796  0.000000  1
  S  S27  1  0.736183  0.982204  0.000000  1
