# generated using pymatgen
data_Sc6In5GaAu6
_symmetry_space_group_name_H-M   'P 1'
_cell_length_a   7.69321103
_cell_length_b   7.68351291
_cell_length_c   7.22071964
_cell_angle_alpha   90.00000106
_cell_angle_beta   89.97535380
_cell_angle_gamma   119.95832205
_symmetry_Int_Tables_number   1
_chemical_formula_structural   Sc6In5GaAu6
_chemical_formula_sum   'Sc6 In5 Ga1 Au6'
_cell_volume   369.79477584
_cell_formula_units_Z   1
loop_
 _symmetry_equiv_pos_site_id
 _symmetry_equiv_pos_as_xyz
  1  'x, y, z'
loop_
 _atom_site_type_symbol
 _atom_site_label
 _atom_site_symmetry_multiplicity
 _atom_site_fract_x
 _atom_site_fract_y
 _atom_site_fract_z
 _atom_site_occupancy
  Sc  Sc0  1  0.600308  0.985673  0.751225  1
  Sc  Sc1  1  0.015937  0.609861  0.747158  1
  Sc  Sc2  1  0.384088  0.400251  0.747563  1
  Sc  Sc3  1  0.984063  0.593925  0.252842  1
  Sc  Sc4  1  0.615912  0.016163  0.252437  1
  Sc  Sc5  1  0.399692  0.385365  0.248775  1
  In  In6  1  0.732719  0.729791  0.999543  1
  In  In7  1  0.267281  0.997072  0.000457  1
  In  In8  1  0.000000  0.275718  0.000000  1
  In  In9  1  0.718268  0.716696  0.499668  1
  In  In10  1  0.281732  0.998429  0.500332  1
  Ga  Ga11  1  0.000000  0.282631  0.500000  1
  Au  Au12  1  0.000176  0.011664  0.735203  1
  Au  Au13  1  0.999824  0.011488  0.264797  1
  Au  Au14  1  0.663992  0.331904  0.966629  1
  Au  Au15  1  0.675206  0.330329  0.531788  1
  Au  Au16  1  0.324794  0.655125  0.468212  1
  Au  Au17  1  0.336008  0.667914  0.033371  1
