# generated using pymatgen
data_NdDy3Co12(CuB3)2
_symmetry_space_group_name_H-M   'P 1'
_cell_length_a   5.06469300
_cell_length_b   5.06469429
_cell_length_c   12.78330700
_cell_angle_alpha   90.00000000
_cell_angle_beta   90.00000000
_cell_angle_gamma   119.99999811
_symmetry_Int_Tables_number   1
_chemical_formula_structural   NdDy3Co12(CuB3)2
_chemical_formula_sum   'Nd1 Dy3 Co12 Cu2 B6'
_cell_volume   283.97507326
_cell_formula_units_Z   1
loop_
 _symmetry_equiv_pos_site_id
 _symmetry_equiv_pos_as_xyz
  1  'x, y, z'
loop_
 _atom_site_type_symbol
 _atom_site_label
 _atom_site_symmetry_multiplicity
 _atom_site_fract_x
 _atom_site_fract_y
 _atom_site_fract_z
 _atom_site_occupancy
  Nd  Nd0  1  0.000000  0.000000  0.000000  1
  Dy  Dy1  1  0.000000  0.000000  0.263144  1
  Dy  Dy2  1  0.000000  0.000000  0.500000  1
  Dy  Dy3  1  0.000000  0.000000  0.736856  1
  Co  Co4  1  0.500000  0.000000  0.613139  1
  Co  Co5  1  0.500000  0.000000  0.837258  1
  Co  Co6  1  0.500000  0.500000  0.837258  1
  Co  Co7  1  0.500000  0.500000  0.386861  1
  Co  Co8  1  0.000000  0.500000  0.613139  1
  Co  Co9  1  0.000000  0.500000  0.162742  1
  Co  Co10  1  0.000000  0.500000  0.837258  1
  Co  Co11  1  0.500000  0.500000  0.162742  1
  Co  Co12  1  0.500000  0.000000  0.386861  1
  Co  Co13  1  0.500000  0.000000  0.162742  1
  Co  Co14  1  0.500000  0.500000  0.613139  1
  Co  Co15  1  0.000000  0.500000  0.386861  1
  Cu  Cu16  1  0.333333  0.666667  0.000000  1
  Cu  Cu17  1  0.666667  0.333333  0.000000  1
  B  B18  1  0.666667  0.333333  0.728890  1
  B  B19  1  0.333333  0.666667  0.728890  1
  B  B20  1  0.333333  0.666667  0.271110  1
  B  B21  1  0.666667  0.333333  0.500000  1
  B  B22  1  0.666667  0.333333  0.271110  1
  B  B23  1  0.333333  0.666667  0.500000  1
