# generated using pymatgen
data_Tb4Er4Tc(B8Os)3
_symmetry_space_group_name_H-M   'P 1'
_cell_length_a   3.65672200
_cell_length_b   9.13733429
_cell_length_c   11.53458900
_cell_angle_alpha   89.95283279
_cell_angle_beta   90.00000000
_cell_angle_gamma   90.00000000
_symmetry_Int_Tables_number   1
_chemical_formula_structural   Tb4Er4Tc(B8Os)3
_chemical_formula_sum   'Tb4 Er4 Tc1 B24 Os3'
_cell_volume   385.40153118
_cell_formula_units_Z   1
loop_
 _symmetry_equiv_pos_site_id
 _symmetry_equiv_pos_as_xyz
  1  'x, y, z'
loop_
 _atom_site_type_symbol
 _atom_site_label
 _atom_site_symmetry_multiplicity
 _atom_site_fract_x
 _atom_site_fract_y
 _atom_site_fract_z
 _atom_site_occupancy
  Tb  Tb0  1  0.000000  0.323767  0.413008  1
  Tb  Tb1  1  0.000000  0.677304  0.583732  1
  Tb  Tb2  1  0.000000  0.820480  0.087887  1
  Tb  Tb3  1  0.000000  0.177549  0.914746  1
  Er  Er4  1  0.000000  0.942744  0.372456  1
  Er  Er5  1  0.000000  0.056801  0.627566  1
  Er  Er6  1  0.000000  0.444688  0.128329  1
  Er  Er7  1  0.000000  0.556535  0.872093  1
  Tc  Tc8  1  0.000000  0.637977  0.320758  1
  B  B9  1  0.500000  0.553435  0.432485  1
  B  B10  1  0.500000  0.446025  0.567741  1
  B  B11  1  0.500000  0.054107  0.067644  1
  B  B12  1  0.500000  0.945839  0.932654  1
  B  B13  1  0.500000  0.748679  0.418825  1
  B  B14  1  0.500000  0.251383  0.581066  1
  B  B15  1  0.500000  0.248906  0.080940  1
  B  B16  1  0.500000  0.751151  0.918987  1
  B  B17  1  0.500000  0.791349  0.266409  1
  B  B18  1  0.500000  0.208899  0.733623  1
  B  B19  1  0.500000  0.291066  0.233070  1
  B  B20  1  0.500000  0.709294  0.766392  1
  B  B21  1  0.500000  0.631104  0.185667  1
  B  B22  1  0.500000  0.368728  0.814835  1
  B  B23  1  0.500000  0.131065  0.314222  1
  B  B24  1  0.500000  0.869205  0.685360  1
  B  B25  1  0.500000  0.983109  0.213268  1
  B  B26  1  0.500000  0.016807  0.787139  1
  B  B27  1  0.500000  0.482773  0.286784  1
  B  B28  1  0.500000  0.516532  0.713285  1
  B  B29  1  0.500000  0.605230  0.028645  1
  B  B30  1  0.500000  0.394566  0.970685  1
  B  B31  1  0.500000  0.105717  0.470951  1
  B  B32  1  0.500000  0.895367  0.529449  1
  Os  Os33  1  0.000000  0.361722  0.679798  1
  Os  Os34  1  0.000000  0.137842  0.178737  1
  Os  Os35  1  0.000000  0.862257  0.820766  1
