# generated using pymatgen
data_Tm14Lu6(CoIr3)3
_symmetry_space_group_name_H-M   'P 1'
_cell_length_a   10.69557409
_cell_length_b   10.69655901
_cell_length_c   6.30091100
_cell_angle_alpha   90.00161765
_cell_angle_beta   89.99274667
_cell_angle_gamma   89.99897176
_symmetry_Int_Tables_number   1
_chemical_formula_structural   Tm14Lu6(CoIr3)3
_chemical_formula_sum   'Tm14 Lu6 Co3 Ir9'
_cell_volume   720.86100520
_cell_formula_units_Z   1
loop_
 _symmetry_equiv_pos_site_id
 _symmetry_equiv_pos_as_xyz
  1  'x, y, z'
loop_
 _atom_site_type_symbol
 _atom_site_label
 _atom_site_symmetry_multiplicity
 _atom_site_fract_x
 _atom_site_fract_y
 _atom_site_fract_z
 _atom_site_occupancy
  Tm  Tm0  1  0.705398  0.085409  0.879853  1
  Tm  Tm1  1  0.705480  0.914474  0.379681  1
  Tm  Tm2  1  0.584637  0.794747  0.880155  1
  Tm  Tm3  1  0.584862  0.205408  0.379977  1
  Tm  Tm4  1  0.413992  0.794826  0.379814  1
  Tm  Tm5  1  0.414145  0.205113  0.879889  1
  Tm  Tm6  1  0.208312  0.412757  0.623898  1
  Tm  Tm7  1  0.207648  0.587913  0.119607  1
  Tm  Tm8  1  0.792436  0.411888  0.119651  1
  Tm  Tm9  1  0.791865  0.587456  0.623851  1
  Tm  Tm10  1  0.912161  0.707631  0.119545  1
  Tm  Tm11  1  0.912827  0.291739  0.623864  1
  Tm  Tm12  1  0.087842  0.708699  0.623666  1
  Tm  Tm13  1  0.088494  0.291872  0.119680  1
  Lu  Lu14  1  0.294497  0.085062  0.380518  1
  Lu  Lu15  1  0.294520  0.915163  0.880627  1
  Lu  Lu16  1  0.000360  0.000053  0.496858  1
  Lu  Lu17  1  0.000317  0.999822  0.996941  1
  Lu  Lu18  1  0.499824  0.499730  0.997991  1
  Lu  Lu19  1  0.499822  0.500270  0.497797  1
  Co  Co20  1  0.498987  0.000383  0.125643  1
  Co  Co21  1  0.499055  0.999968  0.625928  1
  Co  Co22  1  0.000263  0.500100  0.875526  1
  Ir  Ir23  1  0.845833  0.152062  0.249159  1
  Ir  Ir24  1  0.846377  0.847369  0.748600  1
  Ir  Ir25  1  0.154421  0.151680  0.748015  1
  Ir  Ir26  1  0.155119  0.848628  0.248438  1
  Ir  Ir27  1  0.652791  0.346461  0.748766  1
  Ir  Ir28  1  0.652188  0.654160  0.249281  1
  Ir  Ir29  1  0.347926  0.344718  0.250484  1
  Ir  Ir30  1  0.347412  0.654509  0.749844  1
  Ir  Ir31  1  0.000189  0.499928  0.376451  1
