# generated using pymatgen
data_Rb2(TaBr3)3
_symmetry_space_group_name_H-M   'P 1'
_cell_length_a   10.58590900
_cell_length_b   10.58590943
_cell_length_c   10.49011813
_cell_angle_alpha   76.69022064
_cell_angle_beta   76.69021999
_cell_angle_gamma   116.43657640
_symmetry_Int_Tables_number   1
_chemical_formula_structural   Rb2(TaBr3)3
_chemical_formula_sum   'Rb4 Ta6 Br18'
_cell_volume   946.72850710
_cell_formula_units_Z   2
loop_
 _symmetry_equiv_pos_site_id
 _symmetry_equiv_pos_as_xyz
  1  'x, y, z'
loop_
 _atom_site_type_symbol
 _atom_site_label
 _atom_site_symmetry_multiplicity
 _atom_site_fract_x
 _atom_site_fract_y
 _atom_site_fract_z
 _atom_site_occupancy
  Rb  Rb0  1  0.732537  0.051586  0.326405  1
  Rb  Rb1  1  0.267463  0.948414  0.673595  1
  Rb  Rb2  1  0.948414  0.267463  0.673595  1
  Rb  Rb3  1  0.051586  0.732537  0.326405  1
  Ta  Ta4  1  0.607813  0.607813  0.119504  1
  Ta  Ta5  1  0.392187  0.392187  0.880496  1
  Ta  Ta6  1  0.456997  0.293982  0.131017  1
  Ta  Ta7  1  0.543003  0.706018  0.868983  1
  Ta  Ta8  1  0.706018  0.543003  0.868983  1
  Ta  Ta9  1  0.293982  0.456997  0.131017  1
  Br  Br10  1  0.703197  0.296803  0.000000  1
  Br  Br11  1  0.296803  0.703197  0.000000  1
  Br  Br12  1  0.395112  0.007610  0.314241  1
  Br  Br13  1  0.604888  0.992390  0.685759  1
  Br  Br14  1  0.992390  0.604888  0.685759  1
  Br  Br15  1  0.007610  0.395112  0.314241  1
  Br  Br16  1  0.314152  0.109975  0.014404  1
  Br  Br17  1  0.685848  0.890025  0.985596  1
  Br  Br18  1  0.890025  0.685848  0.985596  1
  Br  Br19  1  0.109975  0.314152  0.014404  1
  Br  Br20  1  0.754777  0.754777  0.280550  1
  Br  Br21  1  0.245223  0.245223  0.719450  1
  Br  Br22  1  0.810815  0.810815  0.674249  1
  Br  Br23  1  0.189185  0.189185  0.325751  1
  Br  Br24  1  0.579669  0.377135  0.309962  1
  Br  Br25  1  0.420331  0.622865  0.690038  1
  Br  Br26  1  0.622865  0.420331  0.690038  1
  Br  Br27  1  0.377135  0.579669  0.309962  1
