# generated using pymatgen
data_CeTh7(Si3Tc)4
_symmetry_space_group_name_H-M   'P 1'
_cell_length_a   8.38468530
_cell_length_b   8.35327511
_cell_length_c   8.13555400
_cell_angle_alpha   90.00000000
_cell_angle_beta   90.00000000
_cell_angle_gamma   119.87615059
_symmetry_Int_Tables_number   1
_chemical_formula_structural   CeTh7(Si3Tc)4
_chemical_formula_sum   'Ce1 Th7 Si12 Tc4'
_cell_volume   494.08532912
_cell_formula_units_Z   1
loop_
 _symmetry_equiv_pos_site_id
 _symmetry_equiv_pos_as_xyz
  1  'x, y, z'
loop_
 _atom_site_type_symbol
 _atom_site_label
 _atom_site_symmetry_multiplicity
 _atom_site_fract_x
 _atom_site_fract_y
 _atom_site_fract_z
 _atom_site_occupancy
  Ce  Ce0  1  0.999600  0.499799  0.750000  1
  Th  Th1  1  0.000058  0.000029  0.250000  1
  Th  Th2  1  0.999977  0.999988  0.750000  1
  Th  Th3  1  0.499989  0.500012  0.250000  1
  Th  Th4  1  0.499989  0.999976  0.250000  1
  Th  Th5  1  0.000107  0.500054  0.250000  1
  Th  Th6  1  0.500068  0.499991  0.750000  1
  Th  Th7  1  0.500068  0.000077  0.750000  1
  Si  Si8  1  0.164488  0.832503  0.501901  1
  Si  Si9  1  0.164488  0.331986  0.501901  1
  Si  Si10  1  0.671154  0.835577  0.499727  1
  Si  Si11  1  0.835521  0.167486  0.501516  1
  Si  Si12  1  0.835521  0.668034  0.501516  1
  Si  Si13  1  0.328875  0.164437  0.499537  1
  Si  Si14  1  0.835521  0.167486  0.998484  1
  Si  Si15  1  0.835521  0.668034  0.998484  1
  Si  Si16  1  0.328875  0.164437  0.000463  1
  Si  Si17  1  0.164488  0.832503  0.998099  1
  Si  Si18  1  0.164488  0.331986  0.998099  1
  Si  Si19  1  0.671154  0.835577  0.000273  1
  Tc  Tc20  1  0.335512  0.667757  0.499490  1
  Tc  Tc21  1  0.664516  0.332257  0.499538  1
  Tc  Tc22  1  0.664516  0.332257  0.000462  1
  Tc  Tc23  1  0.335512  0.667757  0.000510  1
