# generated using pymatgen
data_HoLuP7Ru12
_symmetry_space_group_name_H-M   'P 1'
_cell_length_a   9.39496600
_cell_length_b   9.39496531
_cell_length_c   3.94794700
_cell_angle_alpha   90.00000000
_cell_angle_beta   90.00000000
_cell_angle_gamma   119.99999540
_symmetry_Int_Tables_number   1
_chemical_formula_structural   HoLuP7Ru12
_chemical_formula_sum   'Ho1 Lu1 P7 Ru12'
_cell_volume   301.78132360
_cell_formula_units_Z   1
loop_
 _symmetry_equiv_pos_site_id
 _symmetry_equiv_pos_as_xyz
  1  'x, y, z'
loop_
 _atom_site_type_symbol
 _atom_site_label
 _atom_site_symmetry_multiplicity
 _atom_site_fract_x
 _atom_site_fract_y
 _atom_site_fract_z
 _atom_site_occupancy
  Ho  Ho0  1  0.333333  0.666667  0.000000  1
  Lu  Lu1  1  0.666667  0.333333  0.500000  1
  P  P2  1  0.600322  0.718656  0.500000  1
  P  P3  1  0.000000  0.000000  0.000000  1
  P  P4  1  0.281344  0.881667  0.500000  1
  P  P5  1  0.118333  0.399678  0.500000  1
  P  P6  1  0.884195  0.573041  0.000000  1
  P  P7  1  0.426959  0.311153  0.000000  1
  P  P8  1  0.688847  0.115805  0.000000  1
  Ru  Ru9  1  0.556376  0.950641  0.500000  1
  Ru  Ru10  1  0.394266  0.443624  0.500000  1
  Ru  Ru11  1  0.914643  0.121906  0.500000  1
  Ru  Ru12  1  0.207263  0.085357  0.500000  1
  Ru  Ru13  1  0.878094  0.792737  0.500000  1
  Ru  Ru14  1  0.727331  0.892031  0.000000  1
  Ru  Ru15  1  0.107969  0.835299  0.000000  1
  Ru  Ru16  1  0.164701  0.272669  0.000000  1
  Ru  Ru17  1  0.424826  0.067897  0.000000  1
  Ru  Ru18  1  0.932103  0.356930  0.000000  1
  Ru  Ru19  1  0.643070  0.575174  0.000000  1
  Ru  Ru20  1  0.049359  0.605734  0.500000  1
