# generated using pymatgen
data_Nb2CrP2Rh
_symmetry_space_group_name_H-M   'P 1'
_cell_length_a   3.63418300
_cell_length_b   6.38581000
_cell_length_c   7.29375700
_cell_angle_alpha   90.00000000
_cell_angle_beta   90.00000000
_cell_angle_gamma   90.00000000
_symmetry_Int_Tables_number   1
_chemical_formula_structural   Nb2CrP2Rh
_chemical_formula_sum   'Nb4 Cr2 P4 Rh2'
_cell_volume   169.26769308
_cell_formula_units_Z   2
loop_
 _symmetry_equiv_pos_site_id
 _symmetry_equiv_pos_as_xyz
  1  'x, y, z'
loop_
 _atom_site_type_symbol
 _atom_site_label
 _atom_site_symmetry_multiplicity
 _atom_site_fract_x
 _atom_site_fract_y
 _atom_site_fract_z
 _atom_site_occupancy
  Nb  Nb0  1  0.250000  0.038188  0.831164  1
  Nb  Nb1  1  0.250000  0.516705  0.672427  1
  Nb  Nb2  1  0.750000  0.461812  0.331164  1
  Nb  Nb3  1  0.750000  0.983295  0.172427  1
  Cr  Cr4  1  0.750000  0.356818  0.937146  1
  Cr  Cr5  1  0.250000  0.143182  0.437146  1
  P  P6  1  0.250000  0.768498  0.370389  1
  P  P7  1  0.250000  0.268426  0.128649  1
  P  P8  1  0.750000  0.231574  0.628649  1
  P  P9  1  0.750000  0.731502  0.870389  1
  Rh  Rh10  1  0.750000  0.854213  0.560224  1
  Rh  Rh11  1  0.250000  0.645787  0.060224  1
