# generated using pymatgen
data_Zr3Pa2FeSb3
_symmetry_space_group_name_H-M   'P 1'
_cell_length_a   8.96312631
_cell_length_b   8.96312534
_cell_length_c   5.93472600
_cell_angle_alpha   90.00000000
_cell_angle_beta   90.00000000
_cell_angle_gamma   121.52173756
_symmetry_Int_Tables_number   1
_chemical_formula_structural   Zr3Pa2FeSb3
_chemical_formula_sum   'Zr6 Pa4 Fe2 Sb6'
_cell_volume   406.42876056
_cell_formula_units_Z   2
loop_
 _symmetry_equiv_pos_site_id
 _symmetry_equiv_pos_as_xyz
  1  'x, y, z'
loop_
 _atom_site_type_symbol
 _atom_site_label
 _atom_site_symmetry_multiplicity
 _atom_site_fract_x
 _atom_site_fract_y
 _atom_site_fract_z
 _atom_site_occupancy
  Zr  Zr0  1  0.741332  0.009316  0.250000  1
  Zr  Zr1  1  0.009316  0.741332  0.250000  1
  Zr  Zr2  1  0.665426  0.335788  0.999685  1
  Zr  Zr3  1  0.335788  0.665426  0.999685  1
  Zr  Zr4  1  0.335788  0.665426  0.500315  1
  Zr  Zr5  1  0.665426  0.335788  0.500315  1
  Pa  Pa6  1  0.770672  0.770672  0.750000  1
  Pa  Pa7  1  0.245808  0.003182  0.750000  1
  Pa  Pa8  1  0.003182  0.245808  0.750000  1
  Pa  Pa9  1  0.225622  0.225622  0.250000  1
  Fe  Fe10  1  0.995035  0.995035  0.014051  1
  Fe  Fe11  1  0.995035  0.995035  0.485949  1
  Sb  Sb12  1  0.405194  0.405194  0.750000  1
  Sb  Sb13  1  0.601466  0.001421  0.750000  1
  Sb  Sb14  1  0.001421  0.601466  0.750000  1
  Sb  Sb15  1  0.613925  0.613925  0.250000  1
  Sb  Sb16  1  0.394840  0.994722  0.250000  1
  Sb  Sb17  1  0.994722  0.394840  0.250000  1
