# generated using pymatgen
data_Sc8Mn8V3Si16Tc
_symmetry_space_group_name_H-M   'P 1'
_cell_length_a   6.50604955
_cell_length_b   6.49932336
_cell_length_c   12.14916265
_cell_angle_alpha   89.92311724
_cell_angle_beta   90.04466839
_cell_angle_gamma   89.74586804
_symmetry_Int_Tables_number   1
_chemical_formula_structural   Sc8Mn8V3Si16Tc
_chemical_formula_sum   'Sc8 Mn8 V3 Si16 Tc1'
_cell_volume   513.72069408
_cell_formula_units_Z   1
loop_
 _symmetry_equiv_pos_site_id
 _symmetry_equiv_pos_as_xyz
  1  'x, y, z'
loop_
 _atom_site_type_symbol
 _atom_site_label
 _atom_site_symmetry_multiplicity
 _atom_site_fract_x
 _atom_site_fract_y
 _atom_site_fract_z
 _atom_site_occupancy
  Sc  Sc0  1  0.002827  0.664338  0.027546  1
  Sc  Sc1  1  0.834152  0.501102  0.279288  1
  Sc  Sc2  1  0.165968  0.498705  0.779615  1
  Sc  Sc3  1  0.498773  0.831973  0.720883  1
  Sc  Sc4  1  0.499085  0.165378  0.221013  1
  Sc  Sc5  1  0.997866  0.334683  0.527013  1
  Sc  Sc6  1  0.660821  0.002224  0.973051  1
  Sc  Sc7  1  0.335077  0.998167  0.470227  1
  Mn  Mn8  1  0.164061  0.834535  0.250050  1
  Mn  Mn9  1  0.837950  0.162185  0.751112  1
  Mn  Mn10  1  0.668939  0.668627  0.498890  1
  Mn  Mn11  1  0.978802  0.177941  0.128431  1
  Mn  Mn12  1  0.329535  0.493742  0.371807  1
  Mn  Mn13  1  0.677147  0.497901  0.872630  1
  Mn  Mn14  1  0.500435  0.331510  0.627098  1
  Mn  Mn15  1  0.510650  0.677635  0.127896  1
  V  V16  1  0.003448  0.830432  0.623890  1
  V  V17  1  0.168685  0.991637  0.871889  1
  V  V18  1  0.829962  0.003516  0.376656  1
  Si  Si19  1  0.278316  0.966513  0.070607  1
  Si  Si20  1  0.525725  0.784457  0.314822  1
  Si  Si21  1  0.474363  0.212757  0.813861  1
  Si  Si22  1  0.786907  0.525849  0.684332  1
  Si  Si23  1  0.214571  0.476465  0.185364  1
  Si  Si24  1  0.707367  0.037821  0.568194  1
  Si  Si25  1  0.964224  0.286336  0.935705  1
  Si  Si26  1  0.039595  0.707905  0.430899  1
  Si  Si27  1  0.693952  0.387288  0.065321  1
  Si  Si28  1  0.124303  0.197117  0.313648  1
  Si  Si29  1  0.872999  0.795819  0.817208  1
  Si  Si30  1  0.202913  0.126275  0.681820  1
  Si  Si31  1  0.805775  0.879437  0.183688  1
  Si  Si32  1  0.309875  0.615271  0.562987  1
  Si  Si33  1  0.387194  0.693770  0.935586  1
  Si  Si34  1  0.615725  0.308978  0.435777  1
  Tc  Tc35  1  0.332016  0.331710  0.001196  1
