# generated using pymatgen
data_Th2Ga9Ir2Os
_symmetry_space_group_name_H-M   'P 1'
_cell_length_a   7.70675630
_cell_length_b   7.70675648
_cell_length_c   9.53454751
_cell_angle_alpha   90.07707566
_cell_angle_beta   90.07707303
_cell_angle_gamma   119.78982255
_symmetry_Int_Tables_number   1
_chemical_formula_structural   Th2Ga9Ir2Os
_chemical_formula_sum   'Th4 Ga18 Ir4 Os2'
_cell_volume   491.46015813
_cell_formula_units_Z   2
loop_
 _symmetry_equiv_pos_site_id
 _symmetry_equiv_pos_as_xyz
  1  'x, y, z'
loop_
 _atom_site_type_symbol
 _atom_site_label
 _atom_site_symmetry_multiplicity
 _atom_site_fract_x
 _atom_site_fract_y
 _atom_site_fract_z
 _atom_site_occupancy
  Th  Th0  1  0.996141  0.667342  0.248863  1
  Th  Th1  1  0.003859  0.332658  0.751137  1
  Th  Th2  1  0.667342  0.996141  0.248863  1
  Th  Th3  1  0.332658  0.003859  0.751137  1
  Ga  Ga4  1  0.131828  0.131828  0.250098  1
  Ga  Ga5  1  0.868172  0.868172  0.749902  1
  Ga  Ga6  1  0.004107  0.335391  0.078324  1
  Ga  Ga7  1  0.995893  0.664609  0.921676  1
  Ga  Ga8  1  0.995880  0.665523  0.579175  1
  Ga  Ga9  1  0.334477  0.004120  0.420825  1
  Ga  Ga10  1  0.004120  0.334477  0.420825  1
  Ga  Ga11  1  0.665523  0.995880  0.579175  1
  Ga  Ga12  1  0.664609  0.995893  0.921676  1
  Ga  Ga13  1  0.335391  0.004107  0.078324  1
  Ga  Ga14  1  0.336116  0.336116  0.562644  1
  Ga  Ga15  1  0.663884  0.663884  0.437356  1
  Ga  Ga16  1  0.661635  0.661635  0.060561  1
  Ga  Ga17  1  0.338365  0.338365  0.939439  1
  Ga  Ga18  1  0.338387  0.542773  0.248967  1
  Ga  Ga19  1  0.661613  0.457227  0.751033  1
  Ga  Ga20  1  0.542773  0.338387  0.248967  1
  Ga  Ga21  1  0.457227  0.661613  0.751033  1
  Ir  Ir22  1  0.328068  0.671932  0.500000  1
  Ir  Ir23  1  0.671932  0.328068  0.500000  1
  Ir  Ir24  1  0.000000  0.000000  0.000000  1
  Ir  Ir25  1  0.000000  0.000000  0.500000  1
  Os  Os26  1  0.673185  0.326815  0.000000  1
  Os  Os27  1  0.326815  0.673185  0.000000  1
