# generated using pymatgen
data_PaFeI8
_symmetry_space_group_name_H-M   'P 1'
_cell_length_a   11.45461998
_cell_length_b   11.45461938
_cell_length_c   10.33735200
_cell_angle_alpha   90.00000000
_cell_angle_beta   90.00000000
_cell_angle_gamma   127.53307235
_symmetry_Int_Tables_number   1
_chemical_formula_structural   PaFeI8
_chemical_formula_sum   'Pa2 Fe2 I16'
_cell_volume   1075.58524523
_cell_formula_units_Z   2
loop_
 _symmetry_equiv_pos_site_id
 _symmetry_equiv_pos_as_xyz
  1  'x, y, z'
loop_
 _atom_site_type_symbol
 _atom_site_label
 _atom_site_symmetry_multiplicity
 _atom_site_fract_x
 _atom_site_fract_y
 _atom_site_fract_z
 _atom_site_occupancy
  Pa  Pa0  1  0.618811  0.381189  0.250000  1
  Pa  Pa1  1  0.381189  0.618811  0.750000  1
  Fe  Fe2  1  0.812450  0.187550  0.250000  1
  Fe  Fe3  1  0.187550  0.812450  0.750000  1
  I  I4  1  0.528003  0.063695  0.250000  1
  I  I5  1  0.063695  0.528003  0.750000  1
  I  I6  1  0.471997  0.936305  0.750000  1
  I  I7  1  0.936305  0.471997  0.250000  1
  I  I8  1  0.629500  0.370500  0.970024  1
  I  I9  1  0.370500  0.629500  0.029976  1
  I  I10  1  0.629500  0.370500  0.529976  1
  I  I11  1  0.370500  0.629500  0.470024  1
  I  I12  1  0.311247  0.257065  0.250000  1
  I  I13  1  0.257065  0.311247  0.750000  1
  I  I14  1  0.688753  0.742935  0.750000  1
  I  I15  1  0.742935  0.688753  0.250000  1
  I  I16  1  0.878369  0.121631  0.451851  1
  I  I17  1  0.121631  0.878369  0.548149  1
  I  I18  1  0.878369  0.121631  0.048149  1
  I  I19  1  0.121631  0.878369  0.951851  1
