# generated using pymatgen
data_KLu(SeO4)2
_symmetry_space_group_name_H-M   'P 1'
_cell_length_a   5.30650579
_cell_length_b   5.33081669
_cell_length_c   8.40392323
_cell_angle_alpha   87.39725742
_cell_angle_beta   87.11837489
_cell_angle_gamma   65.15341522
_symmetry_Int_Tables_number   1
_chemical_formula_structural   KLu(SeO4)2
_chemical_formula_sum   'K1 Lu1 Se2 O8'
_cell_volume   215.37487729
_cell_formula_units_Z   1
loop_
 _symmetry_equiv_pos_site_id
 _symmetry_equiv_pos_as_xyz
  1  'x, y, z'
loop_
 _atom_site_type_symbol
 _atom_site_label
 _atom_site_symmetry_multiplicity
 _atom_site_fract_x
 _atom_site_fract_y
 _atom_site_fract_z
 _atom_site_occupancy
  K  K0  1  0.000129  0.000081  0.499991  1
  Lu  Lu1  1  0.999969  0.999959  0.000011  1
  Se  Se2  1  0.629416  0.633521  0.212585  1
  Se  Se3  1  0.370551  0.366452  0.787428  1
  O  O4  1  0.253121  0.708751  0.814592  1
  O  O5  1  0.281795  0.775903  0.194407  1
  O  O6  1  0.746909  0.291186  0.185462  1
  O  O7  1  0.718156  0.224136  0.805618  1
  O  O8  1  0.237564  0.238554  0.937866  1
  O  O9  1  0.762359  0.761323  0.062077  1
  O  O10  1  0.295272  0.311118  0.609219  1
  O  O11  1  0.704757  0.689016  0.390744  1
