# generated using pymatgen
data_Mg3ScCo16(MoP3)4
_symmetry_space_group_name_H-M   'P 1'
_cell_length_a   3.62995700
_cell_length_b   10.30698769
_cell_length_c   11.79546635
_cell_angle_alpha   89.89079697
_cell_angle_beta   90.00000000
_cell_angle_gamma   90.00000000
_symmetry_Int_Tables_number   1
_chemical_formula_structural   Mg3ScCo16(MoP3)4
_chemical_formula_sum   'Mg3 Sc1 Co16 Mo4 P12'
_cell_volume   441.31385756
_cell_formula_units_Z   1
loop_
 _symmetry_equiv_pos_site_id
 _symmetry_equiv_pos_as_xyz
  1  'x, y, z'
loop_
 _atom_site_type_symbol
 _atom_site_label
 _atom_site_symmetry_multiplicity
 _atom_site_fract_x
 _atom_site_fract_y
 _atom_site_fract_z
 _atom_site_occupancy
  Mg  Mg0  1  0.250000  0.579026  0.704081  1
  Mg  Mg1  1  0.250000  0.920064  0.203677  1
  Mg  Mg2  1  0.750000  0.420227  0.296155  1
  Sc  Sc3  1  0.750000  0.083409  0.794144  1
  Co  Co4  1  0.250000  0.407003  0.484895  1
  Co  Co5  1  0.250000  0.093144  0.984583  1
  Co  Co6  1  0.750000  0.592113  0.516315  1
  Co  Co7  1  0.750000  0.908526  0.014445  1
  Co  Co8  1  0.250000  0.220819  0.177597  1
  Co  Co9  1  0.250000  0.277845  0.677985  1
  Co  Co10  1  0.750000  0.780173  0.821928  1
  Co  Co11  1  0.750000  0.720885  0.322567  1
  Co  Co12  1  0.250000  0.888429  0.701217  1
  Co  Co13  1  0.250000  0.610878  0.202603  1
  Co  Co14  1  0.750000  0.110830  0.297684  1
  Co  Co15  1  0.750000  0.388960  0.797689  1
  Co  Co16  1  0.250000  0.465711  0.933055  1
  Co  Co17  1  0.250000  0.034286  0.433351  1
  Co  Co18  1  0.750000  0.534870  0.066678  1
  Co  Co19  1  0.750000  0.964480  0.567233  1
  Mo  Mo20  1  0.250000  0.709883  0.989249  1
  Mo  Mo21  1  0.250000  0.789956  0.489043  1
  Mo  Mo22  1  0.750000  0.290078  0.011442  1
  Mo  Mo23  1  0.750000  0.209611  0.511720  1
  P  P24  1  0.250000  0.419544  0.118475  1
  P  P25  1  0.250000  0.079772  0.617796  1
  P  P26  1  0.750000  0.581104  0.881446  1
  P  P27  1  0.750000  0.919325  0.381419  1
  P  P28  1  0.250000  0.265226  0.863266  1
  P  P29  1  0.250000  0.235654  0.362725  1
  P  P30  1  0.750000  0.736013  0.137400  1
  P  P31  1  0.750000  0.763045  0.637489  1
  P  P32  1  0.250000  0.592067  0.389446  1
  P  P33  1  0.250000  0.907618  0.888884  1
  P  P34  1  0.750000  0.407296  0.611255  1
  P  P35  1  0.750000  0.092134  0.111064  1
