# generated using pymatgen
data_Zr3Al12FeOs3
_symmetry_space_group_name_H-M   'P 1'
_cell_length_a   8.64833900
_cell_length_b   8.64833901
_cell_length_c   9.30645000
_cell_angle_alpha   90.00000000
_cell_angle_beta   90.00000000
_cell_angle_gamma   120.00000378
_symmetry_Int_Tables_number   1
_chemical_formula_structural   Zr3Al12FeOs3
_chemical_formula_sum   'Zr6 Al24 Fe2 Os6'
_cell_volume   602.80948048
_cell_formula_units_Z   2
loop_
 _symmetry_equiv_pos_site_id
 _symmetry_equiv_pos_as_xyz
  1  'x, y, z'
loop_
 _atom_site_type_symbol
 _atom_site_label
 _atom_site_symmetry_multiplicity
 _atom_site_fract_x
 _atom_site_fract_y
 _atom_site_fract_z
 _atom_site_occupancy
  Zr  Zr0  1  0.194537  0.389073  0.250000  1
  Zr  Zr1  1  0.805463  0.610927  0.750000  1
  Zr  Zr2  1  0.610927  0.805463  0.250000  1
  Zr  Zr3  1  0.389073  0.194537  0.750000  1
  Zr  Zr4  1  0.194537  0.805463  0.250000  1
  Zr  Zr5  1  0.805463  0.194537  0.750000  1
  Al  Al6  1  0.333333  0.666667  0.034025  1
  Al  Al7  1  0.666667  0.333333  0.965975  1
  Al  Al8  1  0.666667  0.333333  0.534025  1
  Al  Al9  1  0.333333  0.666667  0.465975  1
  Al  Al10  1  0.159315  0.318631  0.574903  1
  Al  Al11  1  0.840685  0.681369  0.425097  1
  Al  Al12  1  0.681369  0.840685  0.574903  1
  Al  Al13  1  0.840685  0.681369  0.074903  1
  Al  Al14  1  0.318631  0.159315  0.425097  1
  Al  Al15  1  0.159315  0.318631  0.925097  1
  Al  Al16  1  0.159315  0.840685  0.574903  1
  Al  Al17  1  0.318631  0.159315  0.074903  1
  Al  Al18  1  0.840685  0.159315  0.425097  1
  Al  Al19  1  0.681369  0.840685  0.925097  1
  Al  Al20  1  0.840685  0.159315  0.074903  1
  Al  Al21  1  0.159315  0.840685  0.925097  1
  Al  Al22  1  0.559180  0.118362  0.250000  1
  Al  Al23  1  0.440820  0.881638  0.750000  1
  Al  Al24  1  0.881638  0.440820  0.250000  1
  Al  Al25  1  0.118362  0.559180  0.750000  1
  Al  Al26  1  0.559180  0.440820  0.250000  1
  Al  Al27  1  0.440820  0.559180  0.750000  1
  Al  Al28  1  0.000000  0.000000  0.250000  1
  Al  Al29  1  0.000000  0.000000  0.750000  1
  Fe  Fe30  1  0.000000  0.000000  0.000000  1
  Fe  Fe31  1  0.000000  0.000000  0.500000  1
  Os  Os32  1  0.500000  0.000000  0.000000  1
  Os  Os33  1  0.000000  0.500000  0.000000  1
  Os  Os34  1  0.500000  0.000000  0.500000  1
  Os  Os35  1  0.500000  0.500000  0.000000  1
  Os  Os36  1  0.000000  0.500000  0.500000  1
  Os  Os37  1  0.500000  0.500000  0.500000  1
