# generated using pymatgen
data_K3Mn2Cu3S8
_symmetry_space_group_name_H-M   'P 1'
_cell_length_a   11.94618374
_cell_length_b   11.94616959
_cell_length_c   14.00762582
_cell_angle_alpha   60.34936750
_cell_angle_beta   60.34892249
_cell_angle_gamma   26.40743299
_symmetry_Int_Tables_number   1
_chemical_formula_structural   K3Mn2Cu3S8
_chemical_formula_sum   'K6 Mn4 Cu6 S16'
_cell_volume   765.73636706
_cell_formula_units_Z   2
loop_
 _symmetry_equiv_pos_site_id
 _symmetry_equiv_pos_as_xyz
  1  'x, y, z'
loop_
 _atom_site_type_symbol
 _atom_site_label
 _atom_site_symmetry_multiplicity
 _atom_site_fract_x
 _atom_site_fract_y
 _atom_site_fract_z
 _atom_site_occupancy
  K  K0  1  0.730619  0.651326  0.404206  1
  K  K1  1  0.348679  0.269376  0.095795  1
  K  K2  1  0.269381  0.348674  0.595794  1
  K  K3  1  0.651321  0.730624  0.904205  1
  K  K4  1  0.000000  0.000000  0.000000  1
  K  K5  1  0.000000  0.000000  0.500000  1
  Mn  Mn6  1  0.157571  0.590513  0.279986  1
  Mn  Mn7  1  0.409488  0.842427  0.220011  1
  Mn  Mn8  1  0.842429  0.409487  0.720014  1
  Mn  Mn9  1  0.590512  0.157573  0.779989  1
  Cu  Cu10  1  0.278192  0.721817  0.249999  1
  Cu  Cu11  1  0.721808  0.278183  0.750001  1
  Cu  Cu12  1  0.905901  0.342078  0.218112  1
  Cu  Cu13  1  0.657921  0.094097  0.281886  1
  Cu  Cu14  1  0.094099  0.657922  0.781888  1
  Cu  Cu15  1  0.342079  0.905903  0.718114  1
  S  S16  1  0.967063  0.844348  0.373210  1
  S  S17  1  0.155689  0.032899  0.126789  1
  S  S18  1  0.032937  0.155652  0.626790  1
  S  S19  1  0.844311  0.967101  0.873211  1
  S  S20  1  0.463053  0.451007  0.162680  1
  S  S21  1  0.548957  0.536980  0.337323  1
  S  S22  1  0.536947  0.548993  0.837320  1
  S  S23  1  0.451043  0.463020  0.662677  1
  S  S24  1  0.893637  0.794055  0.190270  1
  S  S25  1  0.205985  0.106325  0.309730  1
  S  S26  1  0.106363  0.205945  0.809730  1
  S  S27  1  0.794015  0.893675  0.690270  1
  S  S28  1  0.719428  0.696182  0.114944  1
  S  S29  1  0.303858  0.280534  0.385056  1
  S  S30  1  0.280572  0.303818  0.885056  1
  S  S31  1  0.696142  0.719466  0.614944  1
