# generated using pymatgen
data_Th3Pa(ZnRh)4
_symmetry_space_group_name_H-M   'P 1'
_cell_length_a   3.92669300
_cell_length_b   7.49644500
_cell_length_c   16.48213100
_cell_angle_alpha   90.00000000
_cell_angle_beta   90.00000000
_cell_angle_gamma   90.00000000
_symmetry_Int_Tables_number   1
_chemical_formula_structural   Th3Pa(ZnRh)4
_chemical_formula_sum   'Th6 Pa2 Zn8 Rh8'
_cell_volume   485.17193262
_cell_formula_units_Z   2
loop_
 _symmetry_equiv_pos_site_id
 _symmetry_equiv_pos_as_xyz
  1  'x, y, z'
loop_
 _atom_site_type_symbol
 _atom_site_label
 _atom_site_symmetry_multiplicity
 _atom_site_fract_x
 _atom_site_fract_y
 _atom_site_fract_z
 _atom_site_occupancy
  Th  Th0  1  0.250000  0.063618  0.713728  1
  Th  Th1  1  0.250000  0.169408  0.940375  1
  Th  Th2  1  0.750000  0.940225  0.284493  1
  Th  Th3  1  0.250000  0.559775  0.784493  1
  Th  Th4  1  0.750000  0.436382  0.213728  1
  Th  Th5  1  0.750000  0.330592  0.440375  1
  Pa  Pa6  1  0.250000  0.676088  0.560658  1
  Pa  Pa7  1  0.750000  0.823912  0.060658  1
  Zn  Zn8  1  0.250000  0.106528  0.153393  1
  Zn  Zn9  1  0.750000  0.504845  0.941659  1
  Zn  Zn10  1  0.750000  0.007686  0.559072  1
  Zn  Zn11  1  0.750000  0.393472  0.653393  1
  Zn  Zn12  1  0.750000  0.885352  0.845850  1
  Zn  Zn13  1  0.250000  0.492314  0.059072  1
  Zn  Zn14  1  0.250000  0.614648  0.345850  1
  Zn  Zn15  1  0.250000  0.995155  0.441659  1
  Rh  Rh16  1  0.750000  0.738675  0.445411  1
  Rh  Rh17  1  0.750000  0.259698  0.815044  1
  Rh  Rh18  1  0.750000  0.755909  0.677473  1
  Rh  Rh19  1  0.250000  0.744091  0.177473  1
  Rh  Rh20  1  0.250000  0.761325  0.945411  1
  Rh  Rh21  1  0.250000  0.266214  0.562846  1
  Rh  Rh22  1  0.750000  0.233786  0.062846  1
  Rh  Rh23  1  0.250000  0.240302  0.315044  1
