# generated using pymatgen
data_Nd4ErSn4
_symmetry_space_group_name_H-M   'P 1'
_cell_length_a   8.22094200
_cell_length_b   8.38227000
_cell_length_c   15.89228000
_cell_angle_alpha   90.00000000
_cell_angle_beta   90.00000000
_cell_angle_gamma   90.00000000
_symmetry_Int_Tables_number   1
_chemical_formula_structural   Nd4ErSn4
_chemical_formula_sum   'Nd16 Er4 Sn16'
_cell_volume   1095.13948602
_cell_formula_units_Z   4
loop_
 _symmetry_equiv_pos_site_id
 _symmetry_equiv_pos_as_xyz
  1  'x, y, z'
loop_
 _atom_site_type_symbol
 _atom_site_label
 _atom_site_symmetry_multiplicity
 _atom_site_fract_x
 _atom_site_fract_y
 _atom_site_fract_z
 _atom_site_occupancy
  Nd  Nd0  1  0.017537  0.180922  0.401109  1
  Nd  Nd1  1  0.368449  0.836835  0.120592  1
  Nd  Nd2  1  0.131551  0.336835  0.620592  1
  Nd  Nd3  1  0.482463  0.680922  0.901109  1
  Nd  Nd4  1  0.868449  0.663165  0.120592  1
  Nd  Nd5  1  0.131551  0.336835  0.879408  1
  Nd  Nd6  1  0.482463  0.680922  0.598891  1
  Nd  Nd7  1  0.631551  0.163165  0.620592  1
  Nd  Nd8  1  0.868449  0.663165  0.379408  1
  Nd  Nd9  1  0.017537  0.180922  0.098891  1
  Nd  Nd10  1  0.982463  0.819078  0.901109  1
  Nd  Nd11  1  0.631551  0.163165  0.879408  1
  Nd  Nd12  1  0.517537  0.319078  0.098891  1
  Nd  Nd13  1  0.368449  0.836835  0.379408  1
  Nd  Nd14  1  0.982463  0.819078  0.598891  1
  Nd  Nd15  1  0.517537  0.319078  0.401109  1
  Er  Er16  1  0.199756  0.501984  0.250000  1
  Er  Er17  1  0.699756  0.998016  0.250000  1
  Er  Er18  1  0.300244  0.001984  0.750000  1
  Er  Er19  1  0.800244  0.498016  0.750000  1
  Sn  Sn20  1  0.791454  0.464484  0.543350  1
  Sn  Sn21  1  0.708546  0.964484  0.456650  1
  Sn  Sn22  1  0.675918  0.854599  0.750000  1
  Sn  Sn23  1  0.208546  0.535516  0.456650  1
  Sn  Sn24  1  0.291454  0.035516  0.956650  1
  Sn  Sn25  1  0.824082  0.354599  0.250000  1
  Sn  Sn26  1  0.791454  0.464484  0.956650  1
  Sn  Sn27  1  0.565177  0.616042  0.250000  1
  Sn  Sn28  1  0.208546  0.535516  0.043350  1
  Sn  Sn29  1  0.434823  0.383958  0.750000  1
  Sn  Sn30  1  0.175918  0.645401  0.750000  1
  Sn  Sn31  1  0.934823  0.116042  0.750000  1
  Sn  Sn32  1  0.291454  0.035516  0.543350  1
  Sn  Sn33  1  0.708546  0.964484  0.043350  1
  Sn  Sn34  1  0.324082  0.145401  0.250000  1
  Sn  Sn35  1  0.065177  0.883958  0.250000  1
