# generated using pymatgen
data_Sr6SmLu(BO3)6
_symmetry_space_group_name_H-M   'P 1'
_cell_length_a   7.92572671
_cell_length_b   7.92572507
_cell_length_c   7.92572520
_cell_angle_alpha   105.05296570
_cell_angle_beta   105.05296409
_cell_angle_gamma   105.05297611
_symmetry_Int_Tables_number   1
_chemical_formula_structural   Sr6SmLu(BO3)6
_chemical_formula_sum   'Sr6 Sm1 Lu1 B6 O18'
_cell_volume   434.77990448
_cell_formula_units_Z   1
loop_
 _symmetry_equiv_pos_site_id
 _symmetry_equiv_pos_as_xyz
  1  'x, y, z'
loop_
 _atom_site_type_symbol
 _atom_site_label
 _atom_site_symmetry_multiplicity
 _atom_site_fract_x
 _atom_site_fract_y
 _atom_site_fract_z
 _atom_site_occupancy
  Sr  Sr0  1  0.362601  0.734072  0.858943  1
  Sr  Sr1  1  0.858943  0.362601  0.734072  1
  Sr  Sr2  1  0.734072  0.858943  0.362601  1
  Sr  Sr3  1  0.637399  0.265928  0.141057  1
  Sr  Sr4  1  0.141057  0.637399  0.265928  1
  Sr  Sr5  1  0.265928  0.141057  0.637399  1
  Sm  Sm6  1  0.000000  0.000000  0.000000  1
  Lu  Lu7  1  0.500000  0.500000  0.500000  1
  B  B8  1  0.705539  0.609819  0.957504  1
  B  B9  1  0.957504  0.705539  0.609819  1
  B  B10  1  0.609819  0.957504  0.705539  1
  B  B11  1  0.042496  0.294461  0.390181  1
  B  B12  1  0.390181  0.042496  0.294461  1
  B  B13  1  0.294461  0.390181  0.042496  1
  O  O14  1  0.045279  0.810144  0.522997  1
  O  O15  1  0.522997  0.045279  0.810144  1
  O  O16  1  0.441400  0.494045  0.212728  1
  O  O17  1  0.494045  0.212728  0.441400  1
  O  O18  1  0.212728  0.441400  0.494045  1
  O  O19  1  0.787272  0.558600  0.505955  1
  O  O20  1  0.558600  0.505955  0.787272  1
  O  O21  1  0.505955  0.787272  0.558600  1
  O  O22  1  0.259971  0.199352  0.968076  1
  O  O23  1  0.199352  0.968076  0.259971  1
  O  O24  1  0.968076  0.259971  0.199352  1
  O  O25  1  0.740029  0.800648  0.031924  1
  O  O26  1  0.800648  0.031924  0.740029  1
  O  O27  1  0.031924  0.740029  0.800648  1
  O  O28  1  0.189856  0.477003  0.954721  1
  O  O29  1  0.477003  0.954721  0.189856  1
  O  O30  1  0.954721  0.189856  0.477003  1
  O  O31  1  0.810144  0.522997  0.045279  1
