# generated using pymatgen
data_Ta3Ga(SiRh5)2
_symmetry_space_group_name_H-M   'P 1'
_cell_length_a   4.00698700
_cell_length_b   5.48938757
_cell_length_c   10.62059186
_cell_angle_alpha   88.56855669
_cell_angle_beta   90.00000000
_cell_angle_gamma   90.00000000
_symmetry_Int_Tables_number   1
_chemical_formula_structural   Ta3Ga(SiRh5)2
_chemical_formula_sum   'Ta3 Ga1 Si2 Rh10'
_cell_volume   233.53662312
_cell_formula_units_Z   1
loop_
 _symmetry_equiv_pos_site_id
 _symmetry_equiv_pos_as_xyz
  1  'x, y, z'
loop_
 _atom_site_type_symbol
 _atom_site_label
 _atom_site_symmetry_multiplicity
 _atom_site_fract_x
 _atom_site_fract_y
 _atom_site_fract_z
 _atom_site_occupancy
  Ta  Ta0  1  0.500000  0.171179  0.641945  1
  Ta  Ta1  1  0.500000  0.838395  0.352966  1
  Ta  Ta2  1  0.500000  0.659414  0.863490  1
  Ga  Ga3  1  0.500000  0.348397  0.149436  1
  Si  Si4  1  0.000000  0.503557  0.500317  1
  Si  Si5  1  0.000000  0.985661  0.997211  1
  Rh  Rh6  1  0.500000  0.323070  0.399515  1
  Rh  Rh7  1  0.500000  0.684731  0.604739  1
  Rh  Rh8  1  0.500000  0.816043  0.101095  1
  Rh  Rh9  1  0.500000  0.171951  0.893048  1
  Rh  Rh10  1  0.000000  0.422742  0.740391  1
  Rh  Rh11  1  0.000000  0.592274  0.266406  1
  Rh  Rh12  1  0.000000  0.920738  0.757925  1
  Rh  Rh13  1  0.000000  0.084878  0.230819  1
  Rh  Rh14  1  0.000000  0.475140  0.003034  1
  Rh  Rh15  1  0.000000  0.001831  0.497662  1
