# generated using pymatgen
data_Nd4Fe5(P4Ir5)3
_symmetry_space_group_name_H-M   'P 1'
_cell_length_a   3.93898300
_cell_length_b   10.75223133
_cell_length_c   12.39315488
_cell_angle_alpha   89.71270274
_cell_angle_beta   90.00000000
_cell_angle_gamma   90.00000000
_symmetry_Int_Tables_number   1
_chemical_formula_structural   Nd4Fe5(P4Ir5)3
_chemical_formula_sum   'Nd4 Fe5 P12 Ir15'
_cell_volume   524.87891085
_cell_formula_units_Z   1
loop_
 _symmetry_equiv_pos_site_id
 _symmetry_equiv_pos_as_xyz
  1  'x, y, z'
loop_
 _atom_site_type_symbol
 _atom_site_label
 _atom_site_symmetry_multiplicity
 _atom_site_fract_x
 _atom_site_fract_y
 _atom_site_fract_z
 _atom_site_occupancy
  Nd  Nd0  1  0.250000  0.578123  0.711262  1
  Nd  Nd1  1  0.250000  0.918443  0.209110  1
  Nd  Nd2  1  0.750000  0.417934  0.289885  1
  Nd  Nd3  1  0.750000  0.086091  0.790355  1
  Fe  Fe4  1  0.750000  0.376431  0.803485  1
  Fe  Fe5  1  0.250000  0.459907  0.933026  1
  Fe  Fe6  1  0.250000  0.039012  0.433276  1
  Fe  Fe7  1  0.750000  0.543198  0.063861  1
  Fe  Fe8  1  0.750000  0.960294  0.567900  1
  P  P9  1  0.250000  0.433651  0.104033  1
  P  P10  1  0.250000  0.068993  0.605088  1
  P  P11  1  0.750000  0.557277  0.888882  1
  P  P12  1  0.750000  0.932048  0.396039  1
  P  P13  1  0.250000  0.277468  0.864576  1
  P  P14  1  0.250000  0.227978  0.370836  1
  P  P15  1  0.750000  0.729415  0.129930  1
  P  P16  1  0.750000  0.770248  0.630153  1
  P  P17  1  0.250000  0.597907  0.388076  1
  P  P18  1  0.250000  0.903211  0.888824  1
  P  P19  1  0.750000  0.398436  0.623428  1
  P  P20  1  0.750000  0.100354  0.110140  1
  Ir  Ir21  1  0.250000  0.720981  0.986876  1
  Ir  Ir22  1  0.250000  0.774513  0.491839  1
  Ir  Ir23  1  0.750000  0.281786  0.009850  1
  Ir  Ir24  1  0.750000  0.224874  0.511208  1
  Ir  Ir25  1  0.250000  0.407785  0.480304  1
  Ir  Ir26  1  0.250000  0.095217  0.981439  1
  Ir  Ir27  1  0.750000  0.587710  0.519906  1
  Ir  Ir28  1  0.750000  0.908871  0.015132  1
  Ir  Ir29  1  0.250000  0.234992  0.174196  1
  Ir  Ir30  1  0.250000  0.270607  0.674453  1
  Ir  Ir31  1  0.750000  0.761570  0.824718  1
  Ir  Ir32  1  0.750000  0.733439  0.326841  1
  Ir  Ir33  1  0.250000  0.881673  0.702646  1
  Ir  Ir34  1  0.250000  0.620412  0.199640  1
  Ir  Ir35  1  0.750000  0.119152  0.298786  1
