# generated using pymatgen
data_Hf2Si2OsRh
_symmetry_space_group_name_H-M   'P 1'
_cell_length_a   3.99250900
_cell_length_b   6.45206109
_cell_length_c   7.45191529
_cell_angle_alpha   90.22765898
_cell_angle_beta   90.00000000
_cell_angle_gamma   90.00000000
_symmetry_Int_Tables_number   1
_chemical_formula_structural   Hf2Si2OsRh
_chemical_formula_sum   'Hf4 Si4 Os2 Rh2'
_cell_volume   191.95916681
_cell_formula_units_Z   2
loop_
 _symmetry_equiv_pos_site_id
 _symmetry_equiv_pos_as_xyz
  1  'x, y, z'
loop_
 _atom_site_type_symbol
 _atom_site_label
 _atom_site_symmetry_multiplicity
 _atom_site_fract_x
 _atom_site_fract_y
 _atom_site_fract_z
 _atom_site_occupancy
  Hf  Hf0  1  0.250000  0.519806  0.186970  1
  Hf  Hf1  1  0.750000  0.480194  0.813030  1
  Hf  Hf2  1  0.250000  0.015882  0.318248  1
  Hf  Hf3  1  0.750000  0.984118  0.681752  1
  Si  Si4  1  0.250000  0.783893  0.881490  1
  Si  Si5  1  0.750000  0.216107  0.118510  1
  Si  Si6  1  0.250000  0.274740  0.620759  1
  Si  Si7  1  0.750000  0.725260  0.379241  1
  Os  Os8  1  0.750000  0.838510  0.059453  1
  Os  Os9  1  0.250000  0.161490  0.940547  1
  Rh  Rh10  1  0.750000  0.346430  0.430776  1
  Rh  Rh11  1  0.250000  0.653570  0.569224  1
