# generated using pymatgen
data_Sr4Si6HgIr
_symmetry_space_group_name_H-M   'P 1'
_cell_length_a   11.89452226
_cell_length_b   10.30022420
_cell_length_c   8.40688421
_cell_angle_alpha   78.24228273
_cell_angle_beta   57.97253995
_cell_angle_gamma   43.78518440
_symmetry_Int_Tables_number   1
_chemical_formula_structural   Sr4Si6HgIr
_chemical_formula_sum   'Sr8 Si12 Hg2 Ir2'
_cell_volume   575.37957464
_cell_formula_units_Z   2
loop_
 _symmetry_equiv_pos_site_id
 _symmetry_equiv_pos_as_xyz
  1  'x, y, z'
loop_
 _atom_site_type_symbol
 _atom_site_label
 _atom_site_symmetry_multiplicity
 _atom_site_fract_x
 _atom_site_fract_y
 _atom_site_fract_z
 _atom_site_occupancy
  Sr  Sr0  1  0.133968  0.115551  0.870804  1
  Sr  Sr1  1  0.870805  0.879676  0.133967  1
  Sr  Sr2  1  0.134450  0.116033  0.370324  1
  Sr  Sr3  1  0.370325  0.379196  0.134449  1
  Sr  Sr4  1  0.618125  0.634911  0.377802  1
  Sr  Sr5  1  0.377802  0.369162  0.618125  1
  Sr  Sr6  1  0.615090  0.631875  0.880838  1
  Sr  Sr7  1  0.880839  0.872199  0.615089  1
  Si  Si8  1  0.904265  0.592401  0.439918  1
  Si  Si9  1  0.091880  0.404429  0.580274  1
  Si  Si10  1  0.439918  0.063416  0.904265  1
  Si  Si11  1  0.580274  0.923416  0.091880  1
  Si  Si12  1  0.326584  0.669726  0.845571  1
  Si  Si13  1  0.657599  0.345735  0.186584  1
  Si  Si14  1  0.845571  0.158120  0.326584  1
  Si  Si15  1  0.186584  0.810082  0.657599  1
  Si  Si16  1  0.905836  0.594165  0.905835  1
  Si  Si17  1  0.578053  0.921948  0.578052  1
  Si  Si18  1  0.328053  0.671948  0.328053  1
  Si  Si19  1  0.655835  0.344165  0.655835  1
  Hg  Hg20  1  0.083037  0.416963  0.083037  1
  Hg  Hg21  1  0.833037  0.166963  0.833037  1
  Ir  Ir22  1  0.166037  0.833963  0.166037  1
  Ir  Ir23  1  0.416037  0.083963  0.416037  1
