# generated using pymatgen
data_Er4Ga18Ir2Pd3Rh
_symmetry_space_group_name_H-M   'P 1'
_cell_length_a   7.61060058
_cell_length_b   7.61059955
_cell_length_c   9.47321001
_cell_angle_alpha   89.96172546
_cell_angle_beta   89.96173154
_cell_angle_gamma   119.81674196
_symmetry_Int_Tables_number   1
_chemical_formula_structural   Er4Ga18Ir2Pd3Rh
_chemical_formula_sum   'Er4 Ga18 Ir2 Pd3 Rh1'
_cell_volume   476.06278822
_cell_formula_units_Z   1
loop_
 _symmetry_equiv_pos_site_id
 _symmetry_equiv_pos_as_xyz
  1  'x, y, z'
loop_
 _atom_site_type_symbol
 _atom_site_label
 _atom_site_symmetry_multiplicity
 _atom_site_fract_x
 _atom_site_fract_y
 _atom_site_fract_z
 _atom_site_occupancy
  Er  Er0  1  0.996599  0.668823  0.749699  1
  Er  Er1  1  0.002575  0.330652  0.249732  1
  Er  Er2  1  0.669348  0.997425  0.750268  1
  Er  Er3  1  0.331177  0.003401  0.250301  1
  Ga  Ga4  1  0.129342  0.127738  0.750526  1
  Ga  Ga5  1  0.872262  0.870658  0.249474  1
  Ga  Ga6  1  0.001173  0.336376  0.581289  1
  Ga  Ga7  1  0.003866  0.665415  0.419320  1
  Ga  Ga8  1  0.001330  0.663379  0.079177  1
  Ga  Ga9  1  0.336621  0.998670  0.920823  1
  Ga  Ga10  1  0.998305  0.337286  0.919911  1
  Ga  Ga11  1  0.662714  0.001695  0.080089  1
  Ga  Ga12  1  0.663624  0.998827  0.418711  1
  Ga  Ga13  1  0.334585  0.996134  0.580680  1
  Ga  Ga14  1  0.333308  0.333592  0.068385  1
  Ga  Ga15  1  0.666408  0.666692  0.931615  1
  Ga  Ga16  1  0.665359  0.667718  0.571403  1
  Ga  Ga17  1  0.332282  0.334641  0.428597  1
  Ga  Ga18  1  0.337107  0.546182  0.750021  1
  Ga  Ga19  1  0.664261  0.456137  0.248372  1
  Ga  Ga20  1  0.543863  0.335739  0.751628  1
  Ga  Ga21  1  0.453818  0.662893  0.249979  1
  Ir  Ir22  1  0.328445  0.671555  0.000000  1
  Ir  Ir23  1  0.671355  0.328645  0.000000  1
  Pd  Pd24  1  0.670678  0.329322  0.500000  1
  Pd  Pd25  1  0.000367  0.999633  0.500000  1
  Pd  Pd26  1  0.999476  0.000524  0.000000  1
  Rh  Rh27  1  0.329752  0.670248  0.500000  1
