# generated using pymatgen
data_Li12Dy3Y9(WO6)8
_symmetry_space_group_name_H-M   'P 1'
_cell_length_a   10.69001154
_cell_length_b   10.68845576
_cell_length_c   10.68848501
_cell_angle_alpha   109.46832389
_cell_angle_beta   109.47425788
_cell_angle_gamma   109.47429830
_symmetry_Int_Tables_number   1
_chemical_formula_structural   Li12Dy3Y9(WO6)8
_chemical_formula_sum   'Li12 Dy3 Y9 W8 O48'
_cell_volume   940.09154919
_cell_formula_units_Z   1
loop_
 _symmetry_equiv_pos_site_id
 _symmetry_equiv_pos_as_xyz
  1  'x, y, z'
loop_
 _atom_site_type_symbol
 _atom_site_label
 _atom_site_symmetry_multiplicity
 _atom_site_fract_x
 _atom_site_fract_y
 _atom_site_fract_z
 _atom_site_occupancy
  Li  Li0  1  0.749902  0.374891  0.124978  1
  Li  Li1  1  0.875075  0.750087  0.124977  1
  Li  Li2  1  0.125000  0.374907  0.249987  1
  Li  Li3  1  0.624987  0.875081  0.249989  1
  Li  Li4  1  0.249902  0.124927  0.374841  1
  Li  Li5  1  0.624934  0.249913  0.374839  1
  Li  Li6  1  0.375017  0.750016  0.625031  1
  Li  Li7  1  0.750012  0.875012  0.625029  1
  Li  Li8  1  0.375007  0.124987  0.750092  1
  Li  Li9  1  0.875086  0.625108  0.750096  1
  Li  Li10  1  0.250012  0.625085  0.875067  1
  Li  Li11  1  0.125059  0.249986  0.875071  1
  Dy  Dy12  1  0.374959  0.249882  0.124979  1
  Dy  Dy13  1  0.250019  0.875094  0.124978  1
  Dy  Dy14  1  0.874954  0.124953  0.249905  1
  Y  Y15  1  0.374959  0.624960  0.249917  1
  Y  Y16  1  0.749968  0.624924  0.374982  1
  Y  Y17  1  0.125014  0.750057  0.374984  1
  Y  Y18  1  0.874952  0.249944  0.624925  1
  Y  Y19  1  0.249971  0.374983  0.624925  1
  Y  Y20  1  0.625015  0.375016  0.750031  1
  Y  Y21  1  0.125079  0.875076  0.750157  1
  Y  Y22  1  0.625086  0.750139  0.875108  1
  Y  Y23  1  0.750021  0.124969  0.875108  1
  W  W24  1  0.000297  0.000180  0.000369  1
  W  W25  1  0.500071  0.000189  0.000367  1
  W  W26  1  0.000111  0.500212  0.000020  1
  W  W27  1  0.499912  0.499809  0.000022  1
  W  W28  1  0.999907  0.000032  0.499823  1
  W  W29  1  0.499886  0.999963  0.499805  1
  W  W30  1  0.999914  0.499789  0.499822  1
  W  W31  1  0.499916  0.499840  0.499802  1
  O  O32  1  0.201177  0.619301  0.027477  1
  O  O33  1  0.326297  0.408173  0.027476  1
  O  O34  1  0.701425  0.173750  0.082706  1
  O  O35  1  0.881282  0.908956  0.082705  1
  O  O36  1  0.619286  0.918234  0.091892  1
  O  O37  1  0.972607  0.173659  0.091892  1
  O  O38  1  0.027727  0.701516  0.118824  1
  O  O39  1  0.591097  0.417308  0.118826  1
  O  O40  1  0.201597  0.082232  0.173683  1
  O  O41  1  0.472085  0.091451  0.173681  1
  O  O42  1  0.118820  0.527280  0.201097  1
  O  O43  1  0.582276  0.673813  0.201096  1
  O  O44  1  0.326187  0.417284  0.298466  1
  O  O45  1  0.472279  0.881180  0.298463  1
  O  O46  1  0.917698  0.798856  0.326149  1
  O  O47  1  0.908451  0.527293  0.326150  1
  O  O48  1  0.581839  0.408111  0.380654  1
  O  O49  1  0.298816  0.972541  0.380654  1
  O  O50  1  0.826298  0.027459  0.408150  1
  O  O51  1  0.081853  0.380692  0.408150  1
  O  O52  1  0.091127  0.118826  0.417311  1
  O  O53  1  0.826187  0.298486  0.417311  1
  O  O54  1  0.591477  0.673769  0.472689  1
  O  O55  1  0.381213  0.798922  0.472688  1
  O  O56  1  0.618842  0.201140  0.527266  1
  O  O57  1  0.408424  0.326126  0.527265  1
  O  O58  1  0.173767  0.700994  0.582254  1
  O  O59  1  0.908487  0.881259  0.582253  1
  O  O60  1  0.917659  0.618690  0.591452  1
  O  O61  1  0.173795  0.972763  0.591453  1
  O  O62  1  0.701010  0.027241  0.618655  1
  O  O63  1  0.417644  0.591415  0.618653  1
  O  O64  1  0.082290  0.201076  0.673791  1
  O  O65  1  0.091504  0.472717  0.673793  1
  O  O66  1  0.527207  0.118749  0.700978  1
  O  O67  1  0.673772  0.582229  0.700978  1
  O  O68  1  0.881193  0.472706  0.798875  1
  O  O69  1  0.417683  0.326173  0.798876  1
  O  O70  1  0.527170  0.908553  0.826336  1
  O  O71  1  0.799164  0.917782  0.826336  1
  O  O72  1  0.972800  0.299010  0.881258  1
  O  O73  1  0.408458  0.582248  0.881256  1
  O  O74  1  0.381298  0.082683  0.908990  1
  O  O75  1  0.027690  0.826305  0.908990  1
  O  O76  1  0.298986  0.826398  0.918254  1
  O  O77  1  0.119268  0.091856  0.918255  1
  O  O78  1  0.798984  0.381299  0.972779  1
  O  O79  1  0.673796  0.591480  0.972782  1
