# generated using pymatgen
data_K2FeCoSe4
_symmetry_space_group_name_H-M   'P 1'
_cell_length_a   6.88532230
_cell_length_b   6.88515779
_cell_length_c   5.55349235
_cell_angle_alpha   78.23669323
_cell_angle_beta   78.23666272
_cell_angle_gamma   116.27630890
_symmetry_Int_Tables_number   1
_chemical_formula_structural   K2FeCoSe4
_chemical_formula_sum   'K2 Fe1 Co1 Se4'
_cell_volume   217.75159299
_cell_formula_units_Z   1
loop_
 _symmetry_equiv_pos_site_id
 _symmetry_equiv_pos_as_xyz
  1  'x, y, z'
loop_
 _atom_site_type_symbol
 _atom_site_label
 _atom_site_symmetry_multiplicity
 _atom_site_fract_x
 _atom_site_fract_y
 _atom_site_fract_z
 _atom_site_occupancy
  K  K0  1  0.362708  0.637286  0.250002  1
  K  K1  1  0.637404  0.362614  0.749998  1
  Fe  Fe2  1  0.000667  0.999321  0.750001  1
  Co  Co3  1  0.999480  0.000538  0.249989  1
  Se  Se4  1  0.083555  0.310200  0.899888  1
  Se  Se5  1  0.689801  0.916436  0.600106  1
  Se  Se6  1  0.915979  0.689588  0.100456  1
  Se  Se7  1  0.310406  0.084017  0.399560  1
