# generated using pymatgen
data_Tm5Si12Ir19
_symmetry_space_group_name_H-M   'P 1'
_cell_length_a   12.80696700
_cell_length_b   12.80696645
_cell_length_c   3.97267000
_cell_angle_alpha   90.00000000
_cell_angle_beta   90.00000000
_cell_angle_gamma   119.99999367
_symmetry_Int_Tables_number   1
_chemical_formula_structural   Tm5Si12Ir19
_chemical_formula_sum   'Tm5 Si12 Ir19'
_cell_volume   564.29436377
_cell_formula_units_Z   1
loop_
 _symmetry_equiv_pos_site_id
 _symmetry_equiv_pos_as_xyz
  1  'x, y, z'
loop_
 _atom_site_type_symbol
 _atom_site_label
 _atom_site_symmetry_multiplicity
 _atom_site_fract_x
 _atom_site_fract_y
 _atom_site_fract_z
 _atom_site_occupancy
  Tm  Tm0  1  0.333333  0.666667  0.500000  1
  Tm  Tm1  1  0.666667  0.333333  0.500000  1
  Tm  Tm2  1  0.184335  0.184335  0.000000  1
  Tm  Tm3  1  0.815665  0.000000  0.000000  1
  Tm  Tm4  1  0.000000  0.815665  0.000000  1
  Si  Si5  1  0.312775  0.831047  0.000000  1
  Si  Si6  1  0.168953  0.481728  0.000000  1
  Si  Si7  1  0.518272  0.687225  0.000000  1
  Si  Si8  1  0.831047  0.312775  0.000000  1
  Si  Si9  1  0.481728  0.168953  0.000000  1
  Si  Si10  1  0.687225  0.518272  0.000000  1
  Si  Si11  1  0.366659  0.366659  0.500000  1
  Si  Si12  1  0.633341  0.000000  0.500000  1
  Si  Si13  1  0.000000  0.633341  0.500000  1
  Si  Si14  1  0.819012  0.819012  0.500000  1
  Si  Si15  1  0.180988  0.000000  0.500000  1
  Si  Si16  1  0.000000  0.180988  0.500000  1
  Ir  Ir17  1  0.193924  0.817671  0.500000  1
  Ir  Ir18  1  0.182329  0.376253  0.500000  1
  Ir  Ir19  1  0.623747  0.806076  0.500000  1
  Ir  Ir20  1  0.817671  0.193924  0.500000  1
  Ir  Ir21  1  0.376253  0.182329  0.500000  1
  Ir  Ir22  1  0.806076  0.623747  0.500000  1
  Ir  Ir23  1  0.126856  0.639059  0.000000  1
  Ir  Ir24  1  0.360941  0.487796  0.000000  1
  Ir  Ir25  1  0.512204  0.873144  0.000000  1
  Ir  Ir26  1  0.639059  0.126856  0.000000  1
  Ir  Ir27  1  0.487796  0.360941  0.000000  1
  Ir  Ir28  1  0.873144  0.512204  0.000000  1
  Ir  Ir29  1  0.552081  0.552081  0.500000  1
  Ir  Ir30  1  0.447919  0.000000  0.500000  1
  Ir  Ir31  1  0.000000  0.447919  0.500000  1
  Ir  Ir32  1  0.717252  0.717252  0.000000  1
  Ir  Ir33  1  0.282748  0.000000  0.000000  1
  Ir  Ir34  1  0.000000  0.282748  0.000000  1
  Ir  Ir35  1  0.000000  0.000000  0.500000  1
