# generated using pymatgen
data_U6As7Se
_symmetry_space_group_name_H-M   'P 1'
_cell_length_a   7.38834339
_cell_length_b   7.39776021
_cell_length_c   7.39776075
_cell_angle_alpha   109.49699195
_cell_angle_beta   109.44543639
_cell_angle_gamma   109.44543494
_symmetry_Int_Tables_number   1
_chemical_formula_structural   U6As7Se
_chemical_formula_sum   'U6 As7 Se1'
_cell_volume   311.36072019
_cell_formula_units_Z   1
loop_
 _symmetry_equiv_pos_site_id
 _symmetry_equiv_pos_as_xyz
  1  'x, y, z'
loop_
 _atom_site_type_symbol
 _atom_site_label
 _atom_site_symmetry_multiplicity
 _atom_site_fract_x
 _atom_site_fract_y
 _atom_site_fract_z
 _atom_site_occupancy
  U  U0  1  0.875966  0.248193  0.125621  1
  U  U1  1  0.127773  0.877428  0.251807  1
  U  U2  1  0.372903  0.624603  0.748092  1
  U  U3  1  0.248301  0.123490  0.875397  1
  U  U4  1  0.750346  0.374379  0.622572  1
  U  U5  1  0.624811  0.751908  0.376510  1
  As  As6  1  0.500497  0.999805  0.658846  1
  As  As7  1  0.158337  0.500000  0.000000  1
  As  As8  1  0.341595  0.341575  0.341031  1
  As  As9  1  0.000564  0.158969  0.500544  1
  As  As10  1  0.841652  0.841154  0.840959  1
  As  As11  1  0.000692  0.659041  0.500195  1
  As  As12  1  0.500019  0.999456  0.158425  1
  Se  Se13  1  0.656544  0.500000  0.000000  1
