# generated using pymatgen
data_Pa2BeCo4P3
_symmetry_space_group_name_H-M   'P 1'
_cell_length_a   3.84219800
_cell_length_b   3.84219800
_cell_length_c   9.25176100
_cell_angle_alpha   90.00000000
_cell_angle_beta   90.00000000
_cell_angle_gamma   90.00000000
_symmetry_Int_Tables_number   1
_chemical_formula_structural   Pa2BeCo4P3
_chemical_formula_sum   'Pa2 Be1 Co4 P3'
_cell_volume   136.57898735
_cell_formula_units_Z   1
loop_
 _symmetry_equiv_pos_site_id
 _symmetry_equiv_pos_as_xyz
  1  'x, y, z'
loop_
 _atom_site_type_symbol
 _atom_site_label
 _atom_site_symmetry_multiplicity
 _atom_site_fract_x
 _atom_site_fract_y
 _atom_site_fract_z
 _atom_site_occupancy
  Pa  Pa0  1  0.500000  0.000000  0.243894  1
  Pa  Pa1  1  0.000000  0.500000  0.756106  1
  Be  Be2  1  0.500000  0.500000  0.000000  1
  Co  Co3  1  0.000000  0.500000  0.127772  1
  Co  Co4  1  0.500000  0.000000  0.872228  1
  Co  Co5  1  0.000000  0.000000  0.500000  1
  Co  Co6  1  0.500000  0.500000  0.500000  1
  P  P7  1  0.000000  0.500000  0.368224  1
  P  P8  1  0.500000  0.000000  0.631776  1
  P  P9  1  0.000000  0.000000  0.000000  1
