# generated using pymatgen
data_Hf17ScRe8POs
_symmetry_space_group_name_H-M   'P 1'
_cell_length_a   8.58413541
_cell_length_b   8.58417478
_cell_length_c   8.60485900
_cell_angle_alpha   90.00000000
_cell_angle_beta   90.00000000
_cell_angle_gamma   119.88370306
_symmetry_Int_Tables_number   1
_chemical_formula_structural   Hf17ScRe8POs
_chemical_formula_sum   'Hf17 Sc1 Re8 P1 Os1'
_cell_volume   549.76520913
_cell_formula_units_Z   1
loop_
 _symmetry_equiv_pos_site_id
 _symmetry_equiv_pos_as_xyz
  1  'x, y, z'
loop_
 _atom_site_type_symbol
 _atom_site_label
 _atom_site_symmetry_multiplicity
 _atom_site_fract_x
 _atom_site_fract_y
 _atom_site_fract_z
 _atom_site_occupancy
  Hf  Hf0  1  0.197170  0.802830  0.448312  1
  Hf  Hf1  1  0.197083  0.393859  0.448097  1
  Hf  Hf2  1  0.606141  0.802916  0.448097  1
  Hf  Hf3  1  0.804835  0.195168  0.548869  1
  Hf  Hf4  1  0.804702  0.609636  0.548854  1
  Hf  Hf5  1  0.390364  0.195300  0.548854  1
  Hf  Hf6  1  0.804835  0.195168  0.951131  1
  Hf  Hf7  1  0.804702  0.609636  0.951146  1
  Hf  Hf8  1  0.390364  0.195300  0.951146  1
  Hf  Hf9  1  0.197170  0.802830  0.051688  1
  Hf  Hf10  1  0.197083  0.393859  0.051903  1
  Hf  Hf11  1  0.606141  0.802916  0.051903  1
  Hf  Hf12  1  0.540978  0.459022  0.250000  1
  Hf  Hf13  1  0.540625  0.081667  0.250000  1
  Hf  Hf14  1  0.918337  0.459377  0.250000  1
  Hf  Hf15  1  0.460566  0.920939  0.750000  1
  Hf  Hf16  1  0.079062  0.539435  0.750000  1
  Sc  Sc17  1  0.460048  0.539954  0.750000  1
  Re  Re18  1  0.889288  0.110713  0.250000  1
  Re  Re19  1  0.889396  0.778528  0.250000  1
  Re  Re20  1  0.221472  0.110604  0.250000  1
  Re  Re21  1  0.109460  0.890538  0.750000  1
  Re  Re22  1  0.109080  0.219064  0.750000  1
  Re  Re23  1  0.780931  0.890915  0.750000  1
  Re  Re24  1  0.999972  0.000024  0.498660  1
  Re  Re25  1  0.999972  0.000024  0.001340  1
  P  P26  1  0.666965  0.333035  0.750000  1
  Os  Os27  1  0.333259  0.666741  0.250000  1
