# generated using pymatgen
data_Ho5GaBi3
_symmetry_space_group_name_H-M   'P 1'
_cell_length_a   8.10217200
_cell_length_b   15.48953800
_cell_length_c   8.15070000
_cell_angle_alpha   90.00000000
_cell_angle_beta   90.00000000
_cell_angle_gamma   90.00000000
_symmetry_Int_Tables_number   1
_chemical_formula_structural   Ho5GaBi3
_chemical_formula_sum   'Ho20 Ga4 Bi12'
_cell_volume   1022.90389300
_cell_formula_units_Z   4
loop_
 _symmetry_equiv_pos_site_id
 _symmetry_equiv_pos_as_xyz
  1  'x, y, z'
loop_
 _atom_site_type_symbol
 _atom_site_label
 _atom_site_symmetry_multiplicity
 _atom_site_fract_x
 _atom_site_fract_y
 _atom_site_fract_z
 _atom_site_occupancy
  Ho  Ho0  1  0.220743  0.250000  0.014228  1
  Ho  Ho1  1  0.106564  0.622516  0.147391  1
  Ho  Ho2  1  0.106564  0.877484  0.147391  1
  Ho  Ho3  1  0.558474  0.114869  0.184389  1
  Ho  Ho4  1  0.558474  0.385131  0.184389  1
  Ho  Ho5  1  0.058474  0.114869  0.315611  1
  Ho  Ho6  1  0.058474  0.385131  0.315611  1
  Ho  Ho7  1  0.606563  0.622516  0.352609  1
  Ho  Ho8  1  0.606563  0.877484  0.352609  1
  Ho  Ho9  1  0.720743  0.250000  0.485772  1
  Ho  Ho10  1  0.279257  0.750000  0.514228  1
  Ho  Ho11  1  0.393436  0.122516  0.647391  1
  Ho  Ho12  1  0.393436  0.377484  0.647391  1
  Ho  Ho13  1  0.941526  0.614869  0.684390  1
  Ho  Ho14  1  0.941526  0.885131  0.684390  1
  Ho  Ho15  1  0.441526  0.614869  0.815611  1
  Ho  Ho16  1  0.441526  0.885131  0.815611  1
  Ho  Ho17  1  0.893436  0.122516  0.852609  1
  Ho  Ho18  1  0.893436  0.377484  0.852609  1
  Ho  Ho19  1  0.779257  0.750000  0.985772  1
  Ga  Ga20  1  0.870916  0.250000  0.147875  1
  Ga  Ga21  1  0.370916  0.250000  0.352125  1
  Ga  Ga22  1  0.629083  0.750000  0.647875  1
  Ga  Ga23  1  0.129083  0.750000  0.852125  1
  Bi  Bi24  1  0.759089  0.544643  0.025674  1
  Bi  Bi25  1  0.759089  0.955357  0.025674  1
  Bi  Bi26  1  0.408893  0.750000  0.124429  1
  Bi  Bi27  1  0.908893  0.750000  0.375571  1
  Bi  Bi28  1  0.259089  0.544643  0.474326  1
  Bi  Bi29  1  0.259089  0.955357  0.474326  1
  Bi  Bi30  1  0.740911  0.044643  0.525674  1
  Bi  Bi31  1  0.740911  0.455357  0.525674  1
  Bi  Bi32  1  0.091107  0.250000  0.624429  1
  Bi  Bi33  1  0.591107  0.250000  0.875571  1
  Bi  Bi34  1  0.240910  0.044643  0.974326  1
  Bi  Bi35  1  0.240910  0.455357  0.974326  1
