# generated using pymatgen
data_Nd4In2Ag3Ru
_symmetry_space_group_name_H-M   'P 1'
_cell_length_a   8.08453367
_cell_length_b   8.08453412
_cell_length_c   3.90913500
_cell_angle_alpha   90.00000000
_cell_angle_beta   90.00000000
_cell_angle_gamma   90.71892685
_symmetry_Int_Tables_number   1
_chemical_formula_structural   Nd4In2Ag3Ru
_chemical_formula_sum   'Nd4 In2 Ag3 Ru1'
_cell_volume   255.47973211
_cell_formula_units_Z   1
loop_
 _symmetry_equiv_pos_site_id
 _symmetry_equiv_pos_as_xyz
  1  'x, y, z'
loop_
 _atom_site_type_symbol
 _atom_site_label
 _atom_site_symmetry_multiplicity
 _atom_site_fract_x
 _atom_site_fract_y
 _atom_site_fract_z
 _atom_site_occupancy
  Nd  Nd0  1  0.682974  0.145844  0.500000  1
  Nd  Nd1  1  0.354156  0.817026  0.500000  1
  Nd  Nd2  1  0.803987  0.696013  0.500000  1
  Nd  Nd3  1  0.173901  0.326099  0.500000  1
  In  In4  1  0.500546  0.499924  0.000000  1
  In  In5  1  0.000076  0.999454  0.000000  1
  Ag  Ag6  1  0.374405  0.125595  0.000000  1
  Ag  Ag7  1  0.117617  0.631043  0.000000  1
  Ag  Ag8  1  0.868957  0.382383  0.000000  1
  Ru  Ru9  1  0.623381  0.876619  0.000000  1
