# generated using pymatgen
data_La4CoH12Rh
_symmetry_space_group_name_H-M   'P 1'
_cell_length_a   7.30079297
_cell_length_b   7.30079236
_cell_length_c   5.35724933
_cell_angle_alpha   89.94091510
_cell_angle_beta   89.94091632
_cell_angle_gamma   137.31421538
_symmetry_Int_Tables_number   1
_chemical_formula_structural   La4CoH12Rh
_chemical_formula_sum   'La4 Co1 H12 Rh1'
_cell_volume   193.59552217
_cell_formula_units_Z   1
loop_
 _symmetry_equiv_pos_site_id
 _symmetry_equiv_pos_as_xyz
  1  'x, y, z'
loop_
 _atom_site_type_symbol
 _atom_site_label
 _atom_site_symmetry_multiplicity
 _atom_site_fract_x
 _atom_site_fract_y
 _atom_site_fract_z
 _atom_site_occupancy
  La  La0  1  0.137409  0.862591  0.500000  1
  La  La1  1  0.636620  0.363380  0.000000  1
  La  La2  1  0.862591  0.137409  0.500000  1
  La  La3  1  0.363380  0.636620  0.000000  1
  Co  Co4  1  0.000000  0.000000  0.000000  1
  H  H5  1  0.000081  0.499804  0.751848  1
  H  H6  1  0.500196  0.999919  0.248152  1
  H  H7  1  0.999919  0.500196  0.248152  1
  H  H8  1  0.499804  0.000081  0.751848  1
  H  H9  1  0.372663  0.627337  0.500000  1
  H  H10  1  0.880649  0.119351  0.000000  1
  H  H11  1  0.627337  0.372663  0.500000  1
  H  H12  1  0.119351  0.880649  0.000000  1
  H  H13  1  0.230447  0.230447  0.770155  1
  H  H14  1  0.769553  0.769553  0.229845  1
  H  H15  1  0.227808  0.227808  0.227677  1
  H  H16  1  0.772192  0.772192  0.772323  1
  Rh  Rh17  1  0.500000  0.500000  0.500000  1
