# generated using pymatgen
data_Sr9Co4(CuO7)2
_symmetry_space_group_name_H-M   'P 1'
_cell_length_a   11.28010374
_cell_length_b   11.28010254
_cell_length_c   11.36439549
_cell_angle_alpha   81.45080635
_cell_angle_beta   81.45080783
_cell_angle_gamma   18.81458919
_symmetry_Int_Tables_number   1
_chemical_formula_structural   Sr9Co4(CuO7)2
_chemical_formula_sum   'Sr9 Co4 Cu2 O14'
_cell_volume   461.02437109
_cell_formula_units_Z   1
loop_
 _symmetry_equiv_pos_site_id
 _symmetry_equiv_pos_as_xyz
  1  'x, y, z'
loop_
 _atom_site_type_symbol
 _atom_site_label
 _atom_site_symmetry_multiplicity
 _atom_site_fract_x
 _atom_site_fract_y
 _atom_site_fract_z
 _atom_site_occupancy
  Sr  Sr0  1  0.693218  0.693218  0.429248  1
  Sr  Sr1  1  0.687195  0.687195  0.102533  1
  Sr  Sr2  1  0.686372  0.686372  0.775433  1
  Sr  Sr3  1  0.313628  0.313628  0.224567  1
  Sr  Sr4  1  0.509624  0.509624  0.190496  1
  Sr  Sr5  1  0.500000  0.500000  0.500000  1
  Sr  Sr6  1  0.306782  0.306782  0.570752  1
  Sr  Sr7  1  0.490376  0.490376  0.809504  1
  Sr  Sr8  1  0.312805  0.312805  0.897467  1
  Co  Co9  1  0.890936  0.890936  0.701612  1
  Co  Co10  1  0.897686  0.897686  0.039304  1
  Co  Co11  1  0.102314  0.102314  0.960696  1
  Co  Co12  1  0.109064  0.109064  0.298388  1
  Cu  Cu13  1  0.106310  0.106310  0.623935  1
  Cu  Cu14  1  0.893690  0.893690  0.376065  1
  O  O15  1  0.201754  0.201754  0.269847  1
  O  O16  1  0.803128  0.803128  0.070907  1
  O  O17  1  0.975675  0.975675  0.350520  1
  O  O18  1  0.087474  0.087474  0.134769  1
  O  O19  1  0.809406  0.809406  0.401250  1
  O  O20  1  0.593678  0.593678  0.354011  1
  O  O21  1  0.196872  0.196872  0.929093  1
  O  O22  1  0.798246  0.798246  0.730153  1
  O  O23  1  0.418559  0.418559  0.090063  1
  O  O24  1  0.190594  0.190594  0.598750  1
  O  O25  1  0.024325  0.024325  0.649480  1
  O  O26  1  0.581441  0.581441  0.909937  1
  O  O27  1  0.912526  0.912526  0.865231  1
  O  O28  1  0.406322  0.406322  0.645989  1
