# generated using pymatgen
data_TbTh2(AlCo)3
_symmetry_space_group_name_H-M   'P 1'
_cell_length_a   7.00902600
_cell_length_b   7.13175704
_cell_length_c   3.86862800
_cell_angle_alpha   90.00000000
_cell_angle_beta   90.00000000
_cell_angle_gamma   119.43234217
_symmetry_Int_Tables_number   1
_chemical_formula_structural   TbTh2(AlCo)3
_chemical_formula_sum   'Tb1 Th2 Al3 Co3'
_cell_volume   168.42156824
_cell_formula_units_Z   1
loop_
 _symmetry_equiv_pos_site_id
 _symmetry_equiv_pos_as_xyz
  1  'x, y, z'
loop_
 _atom_site_type_symbol
 _atom_site_label
 _atom_site_symmetry_multiplicity
 _atom_site_fract_x
 _atom_site_fract_y
 _atom_site_fract_z
 _atom_site_occupancy
  Tb  Tb0  1  0.583686  0.000000  0.000000  1
  Th  Th1  1  0.998801  0.575542  0.000000  1
  Th  Th2  1  0.423259  0.424458  0.000000  1
  Al  Al3  1  0.238354  0.000000  0.500000  1
  Al  Al4  1  0.993583  0.221952  0.500000  1
  Al  Al5  1  0.771631  0.778048  0.500000  1
  Co  Co6  1  0.313547  0.643496  0.500000  1
  Co  Co7  1  0.670051  0.356504  0.500000  1
  Co  Co8  1  0.007090  0.000000  0.000000  1
