# generated using pymatgen
data_Y12Ho4Cd4Os3Pd
_symmetry_space_group_name_H-M   'P 1'
_cell_length_a   9.65429758
_cell_length_b   9.75548334
_cell_length_c   9.75544083
_cell_angle_alpha   59.67036066
_cell_angle_beta   59.28949013
_cell_angle_gamma   59.28954452
_symmetry_Int_Tables_number   1
_chemical_formula_structural   Y12Ho4Cd4Os3Pd
_chemical_formula_sum   'Y12 Ho4 Cd4 Os3 Pd1'
_cell_volume   641.03714242
_cell_formula_units_Z   1
loop_
 _symmetry_equiv_pos_site_id
 _symmetry_equiv_pos_as_xyz
  1  'x, y, z'
loop_
 _atom_site_type_symbol
 _atom_site_label
 _atom_site_symmetry_multiplicity
 _atom_site_fract_x
 _atom_site_fract_y
 _atom_site_fract_z
 _atom_site_occupancy
  Y  Y0  1  0.814307  0.190339  0.190349  1
  Y  Y1  1  0.183540  0.810298  0.810315  1
  Y  Y2  1  0.187153  0.810817  0.190814  1
  Y  Y3  1  0.813880  0.190364  0.802329  1
  Y  Y4  1  0.187155  0.190820  0.810824  1
  Y  Y5  1  0.813885  0.802322  0.190367  1
  Y  Y6  1  0.938762  0.559026  0.559018  1
  Y  Y7  1  0.553864  0.940135  0.940132  1
  Y  Y8  1  0.552634  0.940260  0.566891  1
  Y  Y9  1  0.936575  0.560101  0.939918  1
  Y  Y10  1  0.552636  0.566892  0.940267  1
  Y  Y11  1  0.936563  0.939911  0.560108  1
  Ho  Ho12  1  0.347934  0.351324  0.351306  1
  Ho  Ho13  1  0.345621  0.352223  0.954315  1
  Ho  Ho14  1  0.345615  0.954325  0.352212  1
  Ho  Ho15  1  0.968335  0.343874  0.343883  1
  Cd  Cd16  1  0.580514  0.579550  0.579544  1
  Cd  Cd17  1  0.580881  0.579651  0.258446  1
  Cd  Cd18  1  0.580886  0.258445  0.579644  1
  Cd  Cd19  1  0.255612  0.581692  0.581688  1
  Os  Os20  1  0.148411  0.138460  0.138454  1
  Os  Os21  1  0.150036  0.141288  0.575335  1
  Os  Os22  1  0.150036  0.575313  0.141302  1
  Pd  Pd23  1  0.575168  0.142570  0.142540  1
