# generated using pymatgen
data_Pd2RuF18
_symmetry_space_group_name_H-M   'P 1'
_cell_length_a   5.16441535
_cell_length_b   8.42111389
_cell_length_c   8.47446466
_cell_angle_alpha   61.90991630
_cell_angle_beta   84.53257140
_cell_angle_gamma   84.69803702
_symmetry_Int_Tables_number   1
_chemical_formula_structural   Pd2RuF18
_chemical_formula_sum   'Pd2 Ru1 F18'
_cell_volume   323.18896186
_cell_formula_units_Z   1
loop_
 _symmetry_equiv_pos_site_id
 _symmetry_equiv_pos_as_xyz
  1  'x, y, z'
loop_
 _atom_site_type_symbol
 _atom_site_label
 _atom_site_symmetry_multiplicity
 _atom_site_fract_x
 _atom_site_fract_y
 _atom_site_fract_z
 _atom_site_occupancy
  Pd  Pd0  1  0.561406  0.335255  0.335398  1
  Pd  Pd1  1  0.438731  0.663907  0.664878  1
  Ru  Ru2  1  0.999969  0.000832  0.999667  1
  F  F3  1  0.872791  0.777136  0.072718  1
  F  F4  1  0.685597  0.075327  0.075953  1
  F  F5  1  0.743046  0.416038  0.107866  1
  F  F6  1  0.125022  0.921613  0.223310  1
  F  F7  1  0.379800  0.564009  0.254632  1
  F  F8  1  0.296832  0.252644  0.256005  1
  F  F9  1  0.826559  0.417786  0.414775  1
  F  F10  1  0.743975  0.107097  0.415950  1
  F  F11  1  0.619549  0.745613  0.436752  1
  F  F12  1  0.380706  0.254346  0.563518  1
  F  F13  1  0.255775  0.891828  0.585045  1
  F  F14  1  0.173923  0.581733  0.584893  1
  F  F15  1  0.702874  0.746226  0.744871  1
  F  F16  1  0.620652  0.435305  0.744974  1
  F  F17  1  0.874812  0.080143  0.776117  1
  F  F18  1  0.256962  0.582359  0.892437  1
  F  F19  1  0.314066  0.926259  0.923516  1
  F  F20  1  0.126956  0.224546  0.926734  1
