# generated using pymatgen
data_Ta6Si6Mo5Ru
_symmetry_space_group_name_H-M   'P 1'
_cell_length_a   7.67351034
_cell_length_b   7.68286693
_cell_length_c   7.67411006
_cell_angle_alpha   126.47166128
_cell_angle_beta   128.26754464
_cell_angle_gamma   77.62621734
_symmetry_Int_Tables_number   1
_chemical_formula_structural   Ta6Si6Mo5Ru
_chemical_formula_sum   'Ta6 Si6 Mo5 Ru1'
_cell_volume   277.03109469
_cell_formula_units_Z   1
loop_
 _symmetry_equiv_pos_site_id
 _symmetry_equiv_pos_as_xyz
  1  'x, y, z'
loop_
 _atom_site_type_symbol
 _atom_site_label
 _atom_site_symmetry_multiplicity
 _atom_site_fract_x
 _atom_site_fract_y
 _atom_site_fract_z
 _atom_site_occupancy
  Ta  Ta0  1  0.951048  0.915078  0.465671  1
  Ta  Ta1  1  0.056338  0.502072  0.949582  1
  Ta  Ta2  1  0.551305  0.504459  0.448415  1
  Ta  Ta3  1  0.449428  0.913975  0.961060  1
  Ta  Ta4  1  0.745963  0.091110  0.849113  1
  Ta  Ta5  1  0.242981  0.093028  0.344492  1
  Si  Si6  1  0.752812  0.503306  0.249910  1
  Si  Si7  1  0.256091  0.502912  0.749774  1
  Si  Si8  1  0.665092  0.177963  0.512091  1
  Si  Si9  1  0.329109  0.834006  0.500488  1
  Si  Si10  1  0.165172  0.172544  0.006456  1
  Si  Si11  1  0.829102  0.828497  0.002272  1
  Mo  Mo12  1  0.501342  0.761620  0.260126  1
  Mo  Mo13  1  0.999375  0.759406  0.761561  1
  Mo  Mo14  1  0.871420  0.244754  0.374498  1
  Mo  Mo15  1  0.129311  0.503105  0.370709  1
  Mo  Mo16  1  0.372112  0.246531  0.874560  1
  Ru  Ru17  1  0.631999  0.503434  0.877021  1
