# generated using pymatgen
data_Er17Tm3(FeSb2)4
_symmetry_space_group_name_H-M   'P 1'
_cell_length_a   7.77183304
_cell_length_b   8.75368539
_cell_length_c   12.09963205
_cell_angle_alpha   90.00991243
_cell_angle_beta   89.99985295
_cell_angle_gamma   90.01689128
_symmetry_Int_Tables_number   1
_chemical_formula_structural   Er17Tm3(FeSb2)4
_chemical_formula_sum   'Er17 Tm3 Fe4 Sb8'
_cell_volume   823.16431357
_cell_formula_units_Z   1
loop_
 _symmetry_equiv_pos_site_id
 _symmetry_equiv_pos_as_xyz
  1  'x, y, z'
loop_
 _atom_site_type_symbol
 _atom_site_label
 _atom_site_symmetry_multiplicity
 _atom_site_fract_x
 _atom_site_fract_y
 _atom_site_fract_z
 _atom_site_occupancy
  Er  Er0  1  0.156665  0.750074  0.204974  1
  Er  Er1  1  0.656764  0.249825  0.294946  1
  Er  Er2  1  0.843341  0.250094  0.795132  1
  Er  Er3  1  0.343183  0.750070  0.704998  1
  Er  Er4  1  0.448947  0.749872  0.996194  1
  Er  Er5  1  0.949436  0.249852  0.503734  1
  Er  Er6  1  0.550853  0.249831  0.003865  1
  Er  Er7  1  0.051288  0.750312  0.496166  1
  Er  Er8  1  0.622745  0.750206  0.308830  1
  Er  Er9  1  0.122962  0.250104  0.190959  1
  Er  Er10  1  0.376806  0.249662  0.691114  1
  Er  Er11  1  0.877070  0.750016  0.809146  1
  Er  Er12  1  0.675497  0.535339  0.564444  1
  Er  Er13  1  0.175190  0.035210  0.935687  1
  Er  Er14  1  0.675219  0.964574  0.564332  1
  Er  Er15  1  0.824855  0.535390  0.064360  1
  Er  Er16  1  0.324650  0.464812  0.435583  1
  Tm  Tm17  1  0.825323  0.964414  0.064577  1
  Tm  Tm18  1  0.325419  0.035741  0.435453  1
  Tm  Tm19  1  0.174776  0.464470  0.935528  1
  Fe  Fe20  1  0.429399  0.750195  0.489985  1
  Fe  Fe21  1  0.930173  0.250155  0.009818  1
  Fe  Fe22  1  0.569711  0.249727  0.509770  1
  Fe  Fe23  1  0.069862  0.750168  0.990214  1
  Sb  Sb24  1  0.931228  0.992789  0.327752  1
  Sb  Sb25  1  0.431110  0.007232  0.172092  1
  Sb  Sb26  1  0.069176  0.492727  0.672302  1
  Sb  Sb27  1  0.568631  0.507150  0.827896  1
  Sb  Sb28  1  0.068918  0.007290  0.672287  1
  Sb  Sb29  1  0.569086  0.992686  0.827825  1
  Sb  Sb30  1  0.930773  0.507328  0.327848  1
  Sb  Sb31  1  0.430946  0.492683  0.172185  1
