# generated using pymatgen
data_Rb4Ba2ZrAs4
_symmetry_space_group_name_H-M   'P 1'
_cell_length_a   10.93091305
_cell_length_b   10.93091274
_cell_length_c   8.24062001
_cell_angle_alpha   88.43296992
_cell_angle_beta   88.43297051
_cell_angle_gamma   119.68188101
_symmetry_Int_Tables_number   1
_chemical_formula_structural   Rb4Ba2ZrAs4
_chemical_formula_sum   'Rb8 Ba4 Zr2 As8'
_cell_volume   854.16610419
_cell_formula_units_Z   2
loop_
 _symmetry_equiv_pos_site_id
 _symmetry_equiv_pos_as_xyz
  1  'x, y, z'
loop_
 _atom_site_type_symbol
 _atom_site_label
 _atom_site_symmetry_multiplicity
 _atom_site_fract_x
 _atom_site_fract_y
 _atom_site_fract_z
 _atom_site_occupancy
  Rb  Rb0  1  0.473414  0.941750  0.385773  1
  Rb  Rb1  1  0.941750  0.473414  0.885773  1
  Rb  Rb2  1  0.867133  0.723436  0.173806  1
  Rb  Rb3  1  0.267654  0.127953  0.232449  1
  Rb  Rb4  1  0.857459  0.139882  0.199558  1
  Rb  Rb5  1  0.127953  0.267654  0.732449  1
  Rb  Rb6  1  0.723436  0.867133  0.673806  1
  Rb  Rb7  1  0.139882  0.857459  0.699558  1
  Ba  Ba8  1  0.067886  0.533614  0.394072  1
  Ba  Ba9  1  0.474837  0.533183  0.378868  1
  Ba  Ba10  1  0.533614  0.067886  0.894072  1
  Ba  Ba11  1  0.533183  0.474837  0.878868  1
  Zr  Zr12  1  0.664357  0.333698  0.488710  1
  Zr  Zr13  1  0.333698  0.664357  0.988710  1
  As  As14  1  0.642787  0.328305  0.166319  1
  As  As15  1  0.328305  0.642787  0.666319  1
  As  As16  1  0.211813  0.407099  0.126663  1
  As  As17  1  0.599318  0.794258  0.075899  1
  As  As18  1  0.208805  0.801166  0.095553  1
  As  As19  1  0.794258  0.599318  0.575899  1
  As  As20  1  0.407099  0.211813  0.626663  1
  As  As21  1  0.801166  0.208805  0.595553  1
