# generated using pymatgen
data_La2MgZn13Ni3
_symmetry_space_group_name_H-M   'P 1'
_cell_length_a   6.82855760
_cell_length_b   6.82855656
_cell_length_c   6.82855785
_cell_angle_alpha   83.03107513
_cell_angle_beta   96.96891463
_cell_angle_gamma   96.96892391
_symmetry_Int_Tables_number   1
_chemical_formula_structural   La2MgZn13Ni3
_chemical_formula_sum   'La2 Mg1 Zn13 Ni3'
_cell_volume   311.88084570
_cell_formula_units_Z   1
loop_
 _symmetry_equiv_pos_site_id
 _symmetry_equiv_pos_as_xyz
  1  'x, y, z'
loop_
 _atom_site_type_symbol
 _atom_site_label
 _atom_site_symmetry_multiplicity
 _atom_site_fract_x
 _atom_site_fract_y
 _atom_site_fract_z
 _atom_site_occupancy
  La  La0  1  0.655866  0.344133  0.344134  1
  La  La1  1  0.341155  0.658844  0.658844  1
  Mg  Mg2  1  0.898631  0.101367  0.101368  1
  Zn  Zn3  1  0.291486  0.291190  0.000130  1
  Zn  Zn4  1  0.708810  0.708514  0.000130  1
  Zn  Zn5  1  0.342964  0.657037  0.146209  1
  Zn  Zn6  1  0.999870  0.708514  0.291189  1
  Zn  Zn7  1  0.291486  0.000130  0.291190  1
  Zn  Zn8  1  0.653849  0.852778  0.346150  1
  Zn  Zn9  1  0.147222  0.346151  0.346152  1
  Zn  Zn10  1  0.853791  0.657037  0.657036  1
  Zn  Zn11  1  0.342963  0.146208  0.657037  1
  Zn  Zn12  1  0.999870  0.291190  0.708513  1
  Zn  Zn13  1  0.708810  0.000130  0.708514  1
  Zn  Zn14  1  0.653849  0.346151  0.852778  1
  Zn  Zn15  1  0.110279  0.889721  0.889720  1
  Ni  Ni16  1  0.496958  0.998931  0.998931  1
  Ni  Ni17  1  0.001069  0.503041  0.998931  1
  Ni  Ni18  1  0.001069  0.998931  0.503042  1
