# generated using pymatgen
data_Rb6GaTe4Cl
_symmetry_space_group_name_H-M   'P 1'
_cell_length_a   11.70451000
_cell_length_b   11.70450863
_cell_length_c   8.44803300
_cell_angle_alpha   90.00000000
_cell_angle_beta   90.00000000
_cell_angle_gamma   119.99999821
_symmetry_Int_Tables_number   1
_chemical_formula_structural   Rb6GaTe4Cl
_chemical_formula_sum   'Rb12 Ga2 Te8 Cl2'
_cell_volume   1002.28830888
_cell_formula_units_Z   2
loop_
 _symmetry_equiv_pos_site_id
 _symmetry_equiv_pos_as_xyz
  1  'x, y, z'
loop_
 _atom_site_type_symbol
 _atom_site_label
 _atom_site_symmetry_multiplicity
 _atom_site_fract_x
 _atom_site_fract_y
 _atom_site_fract_z
 _atom_site_occupancy
  Rb  Rb0  1  0.126679  0.873321  0.518518  1
  Rb  Rb1  1  0.746641  0.873321  0.518518  1
  Rb  Rb2  1  0.959031  0.479516  0.318259  1
  Rb  Rb3  1  0.520484  0.479516  0.318259  1
  Rb  Rb4  1  0.873321  0.746641  0.018518  1
  Rb  Rb5  1  0.253359  0.126679  0.018518  1
  Rb  Rb6  1  0.520484  0.040969  0.318259  1
  Rb  Rb7  1  0.126679  0.253359  0.518518  1
  Rb  Rb8  1  0.873321  0.126679  0.018518  1
  Rb  Rb9  1  0.040969  0.520484  0.818259  1
  Rb  Rb10  1  0.479516  0.959031  0.818259  1
  Rb  Rb11  1  0.479516  0.520484  0.818259  1
  Ga  Ga12  1  0.666667  0.333333  0.708030  1
  Ga  Ga13  1  0.333333  0.666667  0.208030  1
  Te  Te14  1  0.414928  0.207464  0.606556  1
  Te  Te15  1  0.585072  0.792536  0.106556  1
  Te  Te16  1  0.666667  0.333333  0.027256  1
  Te  Te17  1  0.792536  0.585072  0.606556  1
  Te  Te18  1  0.207464  0.414928  0.106556  1
  Te  Te19  1  0.333333  0.666667  0.527256  1
  Te  Te20  1  0.207464  0.792536  0.106556  1
  Te  Te21  1  0.792536  0.207464  0.606556  1
  Cl  Cl22  1  0.000000  0.000000  0.275318  1
  Cl  Cl23  1  0.000000  0.000000  0.775318  1
