# generated using pymatgen
data_ReSb12IrPt2
_symmetry_space_group_name_H-M   'P 1'
_cell_length_a   8.21689001
_cell_length_b   8.17266504
_cell_length_c   8.20889431
_cell_angle_alpha   109.33532393
_cell_angle_beta   109.62110516
_cell_angle_gamma   109.43071362
_symmetry_Int_Tables_number   1
_chemical_formula_structural   ReSb12IrPt2
_chemical_formula_sum   'Re1 Sb12 Ir1 Pt2'
_cell_volume   424.49629152
_cell_formula_units_Z   1
loop_
 _symmetry_equiv_pos_site_id
 _symmetry_equiv_pos_as_xyz
  1  'x, y, z'
loop_
 _atom_site_type_symbol
 _atom_site_label
 _atom_site_symmetry_multiplicity
 _atom_site_fract_x
 _atom_site_fract_y
 _atom_site_fract_z
 _atom_site_occupancy
  Re  Re0  1  0.000000  0.500000  0.000000  1
  Sb  Sb1  1  0.847066  0.652435  0.501223  1
  Sb  Sb2  1  0.845920  0.335245  0.178794  1
  Sb  Sb3  1  0.154080  0.664755  0.821206  1
  Sb  Sb4  1  0.335067  0.492804  0.149776  1
  Sb  Sb5  1  0.152934  0.347565  0.498777  1
  Sb  Sb6  1  0.655334  0.810581  0.151333  1
  Sb  Sb7  1  0.185291  0.841945  0.335246  1
  Sb  Sb8  1  0.664933  0.507196  0.850224  1
  Sb  Sb9  1  0.814709  0.158055  0.664754  1
  Sb  Sb10  1  0.344666  0.189419  0.848667  1
  Sb  Sb11  1  0.503785  0.850029  0.661094  1
  Sb  Sb12  1  0.496215  0.149971  0.338906  1
  Ir  Ir13  1  0.500000  0.000000  0.000000  1
  Pt  Pt14  1  0.000000  0.000000  0.500000  1
  Pt  Pt15  1  0.500000  0.500000  0.500000  1
