# generated using pymatgen
data_Dy3In3HgRu2
_symmetry_space_group_name_H-M   'P 1'
_cell_length_a   7.98852000
_cell_length_b   7.98852064
_cell_length_c   3.66876800
_cell_angle_alpha   90.00000000
_cell_angle_beta   90.00000000
_cell_angle_gamma   119.99999734
_symmetry_Int_Tables_number   1
_chemical_formula_structural   Dy3In3HgRu2
_chemical_formula_sum   'Dy3 In3 Hg1 Ru2'
_cell_volume   202.76060633
_cell_formula_units_Z   1
loop_
 _symmetry_equiv_pos_site_id
 _symmetry_equiv_pos_as_xyz
  1  'x, y, z'
loop_
 _atom_site_type_symbol
 _atom_site_label
 _atom_site_symmetry_multiplicity
 _atom_site_fract_x
 _atom_site_fract_y
 _atom_site_fract_z
 _atom_site_occupancy
  Dy  Dy0  1  0.378288  0.413954  0.500000  1
  Dy  Dy1  1  0.586046  0.964333  0.500000  1
  Dy  Dy2  1  0.035667  0.621712  0.500000  1
  In  In3  1  0.736255  0.737195  0.000000  1
  In  In4  1  0.000939  0.263745  0.000000  1
  In  In5  1  0.262805  0.999061  0.000000  1
  Hg  Hg6  1  0.666667  0.333333  0.000000  1
  Ru  Ru7  1  0.333333  0.666667  0.000000  1
  Ru  Ru8  1  0.000000  0.000000  0.500000  1
