# generated using pymatgen
data_Dy2MnIr2Ru
_symmetry_space_group_name_H-M   'P 1'
_cell_length_a   5.44379974
_cell_length_b   5.44379993
_cell_length_c   5.16811516
_cell_angle_alpha   58.80454861
_cell_angle_beta   58.80455179
_cell_angle_gamma   60.88544362
_symmetry_Int_Tables_number   1
_chemical_formula_structural   Dy2MnIr2Ru
_chemical_formula_sum   'Dy2 Mn1 Ir2 Ru1'
_cell_volume   106.96529928
_cell_formula_units_Z   1
loop_
 _symmetry_equiv_pos_site_id
 _symmetry_equiv_pos_as_xyz
  1  'x, y, z'
loop_
 _atom_site_type_symbol
 _atom_site_label
 _atom_site_symmetry_multiplicity
 _atom_site_fract_x
 _atom_site_fract_y
 _atom_site_fract_z
 _atom_site_occupancy
  Dy  Dy0  1  0.998255  0.998255  0.003463  1
  Dy  Dy1  1  0.251745  0.251745  0.246537  1
  Mn  Mn2  1  0.625000  0.625000  0.125000  1
  Ir  Ir3  1  0.125000  0.625000  0.625000  1
  Ir  Ir4  1  0.625000  0.125000  0.625000  1
  Ru  Ru5  1  0.625000  0.625000  0.625000  1
