# generated using pymatgen
data_Co7Re12Si4Ni
_symmetry_space_group_name_H-M   'P 1'
_cell_length_a   7.54036395
_cell_length_b   7.54245286
_cell_length_c   7.54244784
_cell_angle_alpha   60.14134299
_cell_angle_beta   60.13801006
_cell_angle_gamma   60.12809546
_symmetry_Int_Tables_number   1
_chemical_formula_structural   Co7Re12Si4Ni
_chemical_formula_sum   'Co7 Re12 Si4 Ni1'
_cell_volume   304.25402824
_cell_formula_units_Z   1
loop_
 _symmetry_equiv_pos_site_id
 _symmetry_equiv_pos_as_xyz
  1  'x, y, z'
loop_
 _atom_site_type_symbol
 _atom_site_label
 _atom_site_symmetry_multiplicity
 _atom_site_fract_x
 _atom_site_fract_y
 _atom_site_fract_z
 _atom_site_occupancy
  Co  Co0  1  0.742779  0.419246  0.419204  1
  Co  Co1  1  0.419119  0.742958  0.419163  1
  Co  Co2  1  0.419112  0.419217  0.742909  1
  Co  Co3  1  0.419124  0.419137  0.419098  1
  Co  Co4  1  0.507670  0.830599  0.830622  1
  Co  Co5  1  0.830565  0.507490  0.830555  1
  Co  Co6  1  0.830599  0.830569  0.507497  1
  Re  Re7  1  0.818010  0.818184  0.183368  1
  Re  Re8  1  0.181959  0.181892  0.818248  1
  Re  Re9  1  0.818009  0.183301  0.818158  1
  Re  Re10  1  0.181911  0.818253  0.181927  1
  Re  Re11  1  0.183498  0.818145  0.818130  1
  Re  Re12  1  0.818159  0.181915  0.181991  1
  Re  Re13  1  0.432071  0.432136  0.068347  1
  Re  Re14  1  0.068091  0.068097  0.430384  1
  Re  Re15  1  0.432093  0.068333  0.432131  1
  Re  Re16  1  0.068083  0.430384  0.068135  1
  Re  Re17  1  0.068270  0.432161  0.432135  1
  Re  Re18  1  0.430390  0.068056  0.068092  1
  Si  Si19  1  0.125692  0.624065  0.623925  1
  Si  Si20  1  0.624101  0.125438  0.624237  1
  Si  Si21  1  0.623986  0.624266  0.125547  1
  Si  Si22  1  0.624654  0.624985  0.624825  1
  Ni  Ni23  1  0.832052  0.831171  0.831372  1
