# generated using pymatgen
data_La2NdMg3Pd2Ru
_symmetry_space_group_name_H-M   'P 1'
_cell_length_a   7.70250003
_cell_length_b   7.71334445
_cell_length_c   4.12491900
_cell_angle_alpha   90.00000000
_cell_angle_beta   90.00000000
_cell_angle_gamma   120.76011297
_symmetry_Int_Tables_number   1
_chemical_formula_structural   La2NdMg3Pd2Ru
_chemical_formula_sum   'La2 Nd1 Mg3 Pd2 Ru1'
_cell_volume   210.59246816
_cell_formula_units_Z   1
loop_
 _symmetry_equiv_pos_site_id
 _symmetry_equiv_pos_as_xyz
  1  'x, y, z'
loop_
 _atom_site_type_symbol
 _atom_site_label
 _atom_site_symmetry_multiplicity
 _atom_site_fract_x
 _atom_site_fract_y
 _atom_site_fract_z
 _atom_site_occupancy
  La  La0  1  0.572002  0.981055  0.000000  1
  La  La1  1  0.017664  0.588622  0.000000  1
  Nd  Nd2  1  0.407426  0.422142  0.000000  1
  Mg  Mg3  1  0.241815  0.004780  0.500000  1
  Mg  Mg4  1  0.001394  0.239601  0.500000  1
  Mg  Mg5  1  0.757450  0.755153  0.500000  1
  Pd  Pd6  1  0.667376  0.334501  0.500000  1
  Pd  Pd7  1  0.001253  0.001172  0.000000  1
  Ru  Ru8  1  0.333620  0.672975  0.500000  1
