# generated using pymatgen
data_Ho2Tc7Ge4Mo
_symmetry_space_group_name_H-M   'P 1'
_cell_length_a   7.69329285
_cell_length_b   7.14286457
_cell_length_c   4.26575900
_cell_angle_alpha   90.00000000
_cell_angle_beta   90.00000000
_cell_angle_gamma   89.82977203
_symmetry_Int_Tables_number   1
_chemical_formula_structural   Ho2Tc7Ge4Mo
_chemical_formula_sum   'Ho2 Tc7 Ge4 Mo1'
_cell_volume   234.41158915
_cell_formula_units_Z   1
loop_
 _symmetry_equiv_pos_site_id
 _symmetry_equiv_pos_as_xyz
  1  'x, y, z'
loop_
 _atom_site_type_symbol
 _atom_site_label
 _atom_site_symmetry_multiplicity
 _atom_site_fract_x
 _atom_site_fract_y
 _atom_site_fract_z
 _atom_site_occupancy
  Ho  Ho0  1  0.003640  0.001564  0.000000  1
  Ho  Ho1  1  0.501631  0.499799  0.500000  1
  Tc  Tc2  1  0.390129  0.848455  0.000000  1
  Tc  Tc3  1  0.652609  0.913099  0.500000  1
  Tc  Tc4  1  0.108156  0.352584  0.500000  1
  Tc  Tc5  1  0.342280  0.088793  0.500000  1
  Tc  Tc6  1  0.892577  0.649090  0.500000  1
  Tc  Tc7  1  0.150544  0.590129  0.000000  1
  Tc  Tc8  1  0.846778  0.410506  0.000000  1
  Ge  Ge9  1  0.305297  0.285196  0.000000  1
  Ge  Ge10  1  0.695665  0.719886  0.000000  1
  Ge  Ge11  1  0.808410  0.219940  0.500000  1
  Ge  Ge12  1  0.194783  0.779966  0.500000  1
  Mo  Mo13  1  0.607501  0.140993  0.000000  1
