# generated using pymatgen
data_Nd4GeB4Ir9
_symmetry_space_group_name_H-M   'P 1'
_cell_length_a   10.89017904
_cell_length_b   10.89017948
_cell_length_c   10.89018017
_cell_angle_alpha   29.77392400
_cell_angle_beta   29.77391995
_cell_angle_gamma   29.77392519
_symmetry_Int_Tables_number   1
_chemical_formula_structural   Nd4GeB4Ir9
_chemical_formula_sum   'Nd4 Ge1 B4 Ir9'
_cell_volume   282.00938224
_cell_formula_units_Z   1
loop_
 _symmetry_equiv_pos_site_id
 _symmetry_equiv_pos_as_xyz
  1  'x, y, z'
loop_
 _atom_site_type_symbol
 _atom_site_label
 _atom_site_symmetry_multiplicity
 _atom_site_fract_x
 _atom_site_fract_y
 _atom_site_fract_z
 _atom_site_occupancy
  Nd  Nd0  1  0.149147  0.149147  0.149147  1
  Nd  Nd1  1  0.950271  0.950271  0.950271  1
  Nd  Nd2  1  0.850853  0.850853  0.850853  1
  Nd  Nd3  1  0.049729  0.049729  0.049729  1
  Ge  Ge4  1  0.500000  0.500000  0.500000  1
  B  B5  1  0.616335  0.616335  0.616335  1
  B  B6  1  0.717966  0.717966  0.717966  1
  B  B7  1  0.383665  0.383665  0.383665  1
  B  B8  1  0.282034  0.282034  0.282034  1
  Ir  Ir9  1  0.403946  0.901398  0.403946  1
  Ir  Ir10  1  0.901398  0.403946  0.403946  1
  Ir  Ir11  1  0.500000  0.500000  0.000000  1
  Ir  Ir12  1  0.500000  0.000000  0.500000  1
  Ir  Ir13  1  0.000000  0.500000  0.500000  1
  Ir  Ir14  1  0.596054  0.098602  0.596054  1
  Ir  Ir15  1  0.596054  0.596054  0.098602  1
  Ir  Ir16  1  0.098602  0.596054  0.596054  1
  Ir  Ir17  1  0.403946  0.403946  0.901398  1
