# generated using pymatgen
data_CaYb2(InAs2)2
_symmetry_space_group_name_H-M   'P 1'
_cell_length_a   4.37168500
_cell_length_b   6.60266700
_cell_length_c   16.23606300
_cell_angle_alpha   90.00000000
_cell_angle_beta   90.00000000
_cell_angle_gamma   90.00000000
_symmetry_Int_Tables_number   1
_chemical_formula_structural   CaYb2(InAs2)2
_chemical_formula_sum   'Ca2 Yb4 In4 As8'
_cell_volume   468.65039117
_cell_formula_units_Z   2
loop_
 _symmetry_equiv_pos_site_id
 _symmetry_equiv_pos_as_xyz
  1  'x, y, z'
loop_
 _atom_site_type_symbol
 _atom_site_label
 _atom_site_symmetry_multiplicity
 _atom_site_fract_x
 _atom_site_fract_y
 _atom_site_fract_z
 _atom_site_occupancy
  Ca  Ca0  1  0.000000  0.723491  0.195401  1
  Ca  Ca1  1  0.500000  0.223491  0.304599  1
  Yb  Yb2  1  0.000000  0.278254  0.804273  1
  Yb  Yb3  1  0.500000  0.778254  0.695727  1
  Yb  Yb4  1  0.000000  0.000202  0.999770  1
  Yb  Yb5  1  0.500000  0.500202  0.500230  1
  In  In6  1  0.000000  0.858202  0.411963  1
  In  In7  1  0.500000  0.358202  0.088037  1
  In  In8  1  0.000000  0.141594  0.588922  1
  In  In9  1  0.500000  0.641594  0.911078  1
  As  As10  1  0.500000  0.238192  0.928150  1
  As  As11  1  0.500000  0.761456  0.071025  1
  As  As12  1  0.000000  0.224279  0.172907  1
  As  As13  1  0.000000  0.261456  0.428975  1
  As  As14  1  0.500000  0.724279  0.327093  1
  As  As15  1  0.000000  0.774330  0.825941  1
  As  As16  1  0.000000  0.738192  0.571850  1
  As  As17  1  0.500000  0.274330  0.674059  1
