# generated using pymatgen
data_BN7F24
_symmetry_space_group_name_H-M   'P 1'
_cell_length_a   15.46474072
_cell_length_b   4.80576186
_cell_length_c   7.82237096
_cell_angle_alpha   80.92722775
_cell_angle_beta   91.69935147
_cell_angle_gamma   92.66282127
_symmetry_Int_Tables_number   1
_chemical_formula_structural   BN7F24
_chemical_formula_sum   'B1 N7 F24'
_cell_volume   573.31725526
_cell_formula_units_Z   1
loop_
 _symmetry_equiv_pos_site_id
 _symmetry_equiv_pos_as_xyz
  1  'x, y, z'
loop_
 _atom_site_type_symbol
 _atom_site_label
 _atom_site_symmetry_multiplicity
 _atom_site_fract_x
 _atom_site_fract_y
 _atom_site_fract_z
 _atom_site_occupancy
  B  B0  1  0.868137  0.890253  0.758313  1
  N  N1  1  0.140012  0.041565  0.264412  1
  N  N2  1  0.630365  0.822785  0.299522  1
  N  N3  1  0.891257  0.455244  0.296747  1
  N  N4  1  0.598716  0.415463  0.814954  1
  N  N5  1  0.389296  0.473416  0.258262  1
  N  N6  1  0.353103  0.994663  0.810919  1
  N  N7  1  0.128484  0.483405  0.742449  1
  F  F8  1  0.207014  0.341199  0.758287  1
  F  F9  1  0.356524  0.911789  0.646288  1
  F  F10  1  0.870873  0.091878  0.856701  1
  F  F11  1  0.411802  0.229720  0.794094  1
  F  F12  1  0.792774  0.796284  0.699341  1
  F  F13  1  0.824093  0.347366  0.410705  1
  F  F14  1  0.401916  0.787970  0.913447  1
  F  F15  1  0.594847  0.711997  0.791945  1
  F  F16  1  0.069293  0.271280  0.701245  1
  F  F17  1  0.303746  0.356720  0.274067  1
  F  F18  1  0.633026  0.373779  0.656564  1
  F  F19  1  0.057796  0.143948  0.287225  1
  F  F20  1  0.941229  0.782766  0.718209  1
  F  F21  1  0.152808  0.859912  0.422311  1
  F  F22  1  0.633413  0.101012  0.335882  1
  F  F23  1  0.407886  0.529065  0.427093  1
  F  F24  1  0.559795  0.828053  0.179997  1
  F  F25  1  0.120093  0.847656  0.149992  1
  F  F26  1  0.110181  0.487927  0.917172  1
  F  F27  1  0.701213  0.830099  0.189608  1
  F  F28  1  0.436748  0.231087  0.254466  1
  F  F29  1  0.850386  0.447754  0.133910  1
  F  F30  1  0.670963  0.369022  0.928409  1
  F  F31  1  0.892211  0.744928  0.307465  1
