# generated using pymatgen
data_Eu5Si2Sn
_symmetry_space_group_name_H-M   'P 1'
_cell_length_a   9.59642874
_cell_length_b   9.59642888
_cell_length_c   9.59643000
_cell_angle_alpha   131.03102005
_cell_angle_beta   131.03102074
_cell_angle_gamma   71.76380257
_symmetry_Int_Tables_number   1
_chemical_formula_structural   Eu5Si2Sn
_chemical_formula_sum   'Eu10 Si4 Sn2'
_cell_volume   491.96407002
_cell_formula_units_Z   2
loop_
 _symmetry_equiv_pos_site_id
 _symmetry_equiv_pos_as_xyz
  1  'x, y, z'
loop_
 _atom_site_type_symbol
 _atom_site_label
 _atom_site_symmetry_multiplicity
 _atom_site_fract_x
 _atom_site_fract_y
 _atom_site_fract_z
 _atom_site_occupancy
  Eu  Eu0  1  0.814579  0.314579  0.853259  1
  Eu  Eu1  1  0.185421  0.685421  0.146741  1
  Eu  Eu2  1  0.461320  0.961320  0.146741  1
  Eu  Eu3  1  0.314579  0.461320  0.500000  1
  Eu  Eu4  1  0.038680  0.185421  0.500000  1
  Eu  Eu5  1  0.538680  0.038680  0.853259  1
  Eu  Eu6  1  0.685421  0.538680  0.500000  1
  Eu  Eu7  1  0.961320  0.814579  0.500000  1
  Eu  Eu8  1  0.000000  0.000000  0.000000  1
  Eu  Eu9  1  0.500000  0.500000  0.000000  1
  Si  Si10  1  0.110141  0.610141  0.720282  1
  Si  Si11  1  0.889859  0.389859  0.279718  1
  Si  Si12  1  0.610141  0.889859  0.500000  1
  Si  Si13  1  0.389859  0.110141  0.500000  1
  Sn  Sn14  1  0.250000  0.250000  0.000000  1
  Sn  Sn15  1  0.750000  0.750000  0.000000  1
