# generated using pymatgen
data_SrTb5SmPtI12
_symmetry_space_group_name_H-M   'P 1'
_cell_length_a   9.86171601
_cell_length_b   9.85784635
_cell_length_c   9.86957939
_cell_angle_alpha   106.33619684
_cell_angle_beta   106.47638811
_cell_angle_gamma   106.31323001
_symmetry_Int_Tables_number   1
_chemical_formula_structural   SrTb5SmPtI12
_chemical_formula_sum   'Sr1 Tb5 Sm1 Pt1 I12'
_cell_volume   812.29046601
_cell_formula_units_Z   1
loop_
 _symmetry_equiv_pos_site_id
 _symmetry_equiv_pos_as_xyz
  1  'x, y, z'
loop_
 _atom_site_type_symbol
 _atom_site_label
 _atom_site_symmetry_multiplicity
 _atom_site_fract_x
 _atom_site_fract_y
 _atom_site_fract_z
 _atom_site_occupancy
  Sr  Sr0  1  0.499978  0.500062  0.499826  1
  Tb  Tb1  1  0.298807  0.095616  0.022140  1
  Tb  Tb2  1  0.022173  0.298943  0.094757  1
  Tb  Tb3  1  0.903888  0.977560  0.700575  1
  Tb  Tb4  1  0.700836  0.904456  0.976688  1
  Tb  Tb5  1  0.977224  0.700665  0.903144  1
  Sm  Sm6  1  0.097069  0.021926  0.303483  1
  Pt  Pt7  1  0.999804  0.999711  0.999527  1
  I  I8  1  0.073079  0.672276  0.220376  1
  I  I9  1  0.224254  0.074622  0.680191  1
  I  I10  1  0.676835  0.222857  0.073767  1
  I  I11  1  0.926044  0.323486  0.776890  1
  I  I12  1  0.771567  0.924466  0.322449  1
  I  I13  1  0.323151  0.777093  0.926107  1
  I  I14  1  0.455450  0.139742  0.370688  1
  I  I15  1  0.370691  0.450223  0.137784  1
  I  I16  1  0.138124  0.375058  0.450837  1
  I  I17  1  0.549551  0.862308  0.629238  1
  I  I18  1  0.629355  0.549782  0.862067  1
  I  I19  1  0.862120  0.629150  0.549468  1
