# generated using pymatgen
data_Er6Al24ZnCuRu6
_symmetry_space_group_name_H-M   'P 1'
_cell_length_a   8.80907569
_cell_length_b   8.80907360
_cell_length_c   9.46672031
_cell_angle_alpha   90.15952147
_cell_angle_beta   89.84047735
_cell_angle_gamma   119.34172355
_symmetry_Int_Tables_number   1
_chemical_formula_structural   Er6Al24ZnCuRu6
_chemical_formula_sum   'Er6 Al24 Zn1 Cu1 Ru6'
_cell_volume   640.37036235
_cell_formula_units_Z   1
loop_
 _symmetry_equiv_pos_site_id
 _symmetry_equiv_pos_as_xyz
  1  'x, y, z'
loop_
 _atom_site_type_symbol
 _atom_site_label
 _atom_site_symmetry_multiplicity
 _atom_site_fract_x
 _atom_site_fract_y
 _atom_site_fract_z
 _atom_site_occupancy
  Er  Er0  1  0.188243  0.384888  0.249560  1
  Er  Er1  1  0.811757  0.615112  0.750440  1
  Er  Er2  1  0.615112  0.811757  0.249560  1
  Er  Er3  1  0.384888  0.188243  0.750440  1
  Er  Er4  1  0.194590  0.805410  0.251430  1
  Er  Er5  1  0.805410  0.194590  0.748570  1
  Al  Al6  1  0.329037  0.670963  0.022464  1
  Al  Al7  1  0.670963  0.329037  0.977536  1
  Al  Al8  1  0.667979  0.332021  0.521780  1
  Al  Al9  1  0.332021  0.667979  0.478220  1
  Al  Al10  1  0.156475  0.323304  0.577050  1
  Al  Al11  1  0.843525  0.676696  0.422950  1
  Al  Al12  1  0.676696  0.843525  0.577050  1
  Al  Al13  1  0.848464  0.678342  0.079270  1
  Al  Al14  1  0.323304  0.156475  0.422950  1
  Al  Al15  1  0.151536  0.321658  0.920730  1
  Al  Al16  1  0.163854  0.836146  0.577579  1
  Al  Al17  1  0.321658  0.151536  0.079270  1
  Al  Al18  1  0.836146  0.163854  0.422421  1
  Al  Al19  1  0.678342  0.848464  0.920730  1
  Al  Al20  1  0.836559  0.163441  0.078694  1
  Al  Al21  1  0.163441  0.836559  0.921306  1
  Al  Al22  1  0.560412  0.122126  0.250120  1
  Al  Al23  1  0.439588  0.877874  0.749880  1
  Al  Al24  1  0.877874  0.439588  0.250120  1
  Al  Al25  1  0.122126  0.560412  0.749880  1
  Al  Al26  1  0.561921  0.438079  0.256080  1
  Al  Al27  1  0.438079  0.561921  0.743920  1
  Al  Al28  1  0.997653  0.002347  0.250413  1
  Al  Al29  1  0.002347  0.997653  0.749587  1
  Zn  Zn30  1  0.500000  0.500000  0.000000  1
  Cu  Cu31  1  0.500000  0.500000  0.500000  1
  Ru  Ru32  1  0.500000  0.000000  0.000000  1
  Ru  Ru33  1  0.000000  0.500000  0.000000  1
  Ru  Ru34  1  0.500000  0.000000  0.500000  1
  Ru  Ru35  1  0.000000  0.500000  0.500000  1
  Ru  Ru36  1  0.000000  0.000000  0.000000  1
  Ru  Ru37  1  0.000000  0.000000  0.500000  1
