# generated using pymatgen
data_MoWBr4
_symmetry_space_group_name_H-M   'P 1'
_cell_length_a   10.03397173
_cell_length_b   10.03397088
_cell_length_c   12.23849600
_cell_angle_alpha   90.00000000
_cell_angle_beta   90.00000000
_cell_angle_gamma   106.08036053
_symmetry_Int_Tables_number   1
_chemical_formula_structural   MoWBr4
_chemical_formula_sum   'Mo6 W6 Br24'
_cell_volume   1183.96883600
_cell_formula_units_Z   6
loop_
 _symmetry_equiv_pos_site_id
 _symmetry_equiv_pos_as_xyz
  1  'x, y, z'
loop_
 _atom_site_type_symbol
 _atom_site_label
 _atom_site_symmetry_multiplicity
 _atom_site_fract_x
 _atom_site_fract_y
 _atom_site_fract_z
 _atom_site_occupancy
  Mo  Mo0  1  0.071945  0.071945  0.862021  1
  Mo  Mo1  1  0.428055  0.428055  0.362021  1
  Mo  Mo2  1  0.570308  0.570308  0.637997  1
  Mo  Mo3  1  0.929692  0.929692  0.137997  1
  Mo  Mo4  1  0.861774  0.861774  0.930251  1
  Mo  Mo5  1  0.638226  0.638226  0.430251  1
  W  W6  1  0.361416  0.361416  0.568879  1
  W  W7  1  0.138584  0.138584  0.068879  1
  W  W8  1  0.382933  0.615664  0.500050  1
  W  W9  1  0.117067  0.884336  0.000050  1
  W  W10  1  0.615664  0.382933  0.500050  1
  W  W11  1  0.884336  0.117067  0.000050  1
  Br  Br12  1  0.656037  0.656037  0.842173  1
  Br  Br13  1  0.843963  0.843963  0.342173  1
  Br  Br14  1  0.157243  0.157243  0.655812  1
  Br  Br15  1  0.342757  0.342757  0.155812  1
  Br  Br16  1  0.222670  0.776455  0.501053  1
  Br  Br17  1  0.277330  0.723545  0.001053  1
  Br  Br18  1  0.776455  0.222670  0.501053  1
  Br  Br19  1  0.723545  0.277330  0.001053  1
  Br  Br20  1  0.325448  0.092918  0.932774  1
  Br  Br21  1  0.174552  0.407082  0.432774  1
  Br  Br22  1  0.591529  0.822958  0.566903  1
  Br  Br23  1  0.908471  0.677042  0.066903  1
  Br  Br24  1  0.953398  0.185672  0.205381  1
  Br  Br25  1  0.546602  0.314328  0.705381  1
  Br  Br26  1  0.683414  0.451123  0.295272  1
  Br  Br27  1  0.816586  0.048877  0.795272  1
  Br  Br28  1  0.048877  0.816586  0.795272  1
  Br  Br29  1  0.451123  0.683414  0.295272  1
  Br  Br30  1  0.314328  0.546602  0.705381  1
  Br  Br31  1  0.185672  0.953398  0.205381  1
  Br  Br32  1  0.092918  0.325448  0.932774  1
  Br  Br33  1  0.407082  0.174552  0.432774  1
  Br  Br34  1  0.822958  0.591529  0.566903  1
  Br  Br35  1  0.677042  0.908471  0.066903  1
