# generated using pymatgen
data_Na20NbV(InAs6)2
_symmetry_space_group_name_H-M   'P 1'
_cell_length_a   7.54593333
_cell_length_b   8.47776373
_cell_length_c   16.03049144
_cell_angle_alpha   58.78191193
_cell_angle_beta   90.01740321
_cell_angle_gamma   90.03389832
_symmetry_Int_Tables_number   1
_chemical_formula_structural   Na20NbV(InAs6)2
_chemical_formula_sum   'Na20 Nb1 V1 In2 As12'
_cell_volume   877.01913686
_cell_formula_units_Z   1
loop_
 _symmetry_equiv_pos_site_id
 _symmetry_equiv_pos_as_xyz
  1  'x, y, z'
loop_
 _atom_site_type_symbol
 _atom_site_label
 _atom_site_symmetry_multiplicity
 _atom_site_fract_x
 _atom_site_fract_y
 _atom_site_fract_z
 _atom_site_occupancy
  Na  Na0  1  0.738706  0.936713  0.244953  1
  Na  Na1  1  0.262284  0.937119  0.743873  1
  Na  Na2  1  0.769924  0.056420  0.757542  1
  Na  Na3  1  0.228808  0.056941  0.259204  1
  Na  Na4  1  0.264484  0.249567  0.419617  1
  Na  Na5  1  0.736681  0.250889  0.918880  1
  Na  Na6  1  0.215185  0.751254  0.580882  1
  Na  Na7  1  0.785184  0.748779  0.081180  1
  Na  Na8  1  0.091964  0.342241  0.584014  1
  Na  Na9  1  0.908179  0.343732  0.084109  1
  Na  Na10  1  0.407244  0.653349  0.419767  1
  Na  Na11  1  0.593691  0.654064  0.918328  1
  Na  Na12  1  0.596190  0.333940  0.244026  1
  Na  Na13  1  0.404757  0.336087  0.742520  1
  Na  Na14  1  0.902370  0.668297  0.758239  1
  Na  Na15  1  0.096938  0.666913  0.259013  1
  Na  Na16  1  0.771306  0.417873  0.409887  1
  Na  Na17  1  0.227570  0.421011  0.908765  1
  Na  Na18  1  0.739382  0.582077  0.588375  1
  Na  Na19  1  0.260162  0.579763  0.088663  1
  Nb  Nb20  1  0.389479  0.988722  0.079559  1
  V  V21  1  0.611434  0.988619  0.579513  1
  In  In22  1  0.890464  0.013966  0.415013  1
  In  In23  1  0.108116  0.014037  0.914020  1
  As  As24  1  0.989680  0.338297  0.262093  1
  As  As25  1  0.010919  0.338779  0.762001  1
  As  As26  1  0.519684  0.702372  0.719907  1
  As  As27  1  0.484188  0.690975  0.225878  1
  As  As28  1  0.933869  0.021835  0.581093  1
  As  As29  1  0.055087  0.022033  0.080735  1
  As  As30  1  0.527404  0.978153  0.435315  1
  As  As31  1  0.474937  0.978754  0.929555  1
  As  As32  1  0.007695  0.709603  0.421733  1
  As  As33  1  0.992434  0.709435  0.921700  1
  As  As34  1  0.492413  0.253042  0.580106  1
  As  As35  1  0.511187  0.264348  0.079942  1
