# generated using pymatgen
data_Ac2Si4As2Pd21
_symmetry_space_group_name_H-M   'P 1'
_cell_length_a   8.80038535
_cell_length_b   8.76234315
_cell_length_c   8.76234400
_cell_angle_alpha   60.26266934
_cell_angle_beta   59.85628096
_cell_angle_gamma   59.85626850
_symmetry_Int_Tables_number   1
_chemical_formula_structural   Ac2Si4As2Pd21
_chemical_formula_sum   'Ac2 Si4 As2 Pd21'
_cell_volume   477.67365507
_cell_formula_units_Z   1
loop_
 _symmetry_equiv_pos_site_id
 _symmetry_equiv_pos_as_xyz
  1  'x, y, z'
loop_
 _atom_site_type_symbol
 _atom_site_label
 _atom_site_symmetry_multiplicity
 _atom_site_fract_x
 _atom_site_fract_y
 _atom_site_fract_z
 _atom_site_occupancy
  Ac  Ac0  1  0.750134  0.750540  0.749194  1
  Ac  Ac1  1  0.249866  0.250806  0.249460  1
  Si  Si2  1  0.737804  0.262349  0.262042  1
  Si  Si3  1  0.262516  0.262939  0.737061  1
  Si  Si4  1  0.737484  0.262939  0.737061  1
  Si  Si5  1  0.262196  0.737958  0.737651  1
  As  As6  1  0.737539  0.738265  0.261736  1
  As  As7  1  0.262461  0.738264  0.261735  1
  Pd  Pd8  1  0.000000  0.001883  0.998117  1
  Pd  Pd9  1  0.616764  0.606966  0.159506  1
  Pd  Pd10  1  0.613081  0.159632  0.614208  1
  Pd  Pd11  1  0.159860  0.609926  0.619188  1
  Pd  Pd12  1  0.611025  0.609927  0.619189  1
  Pd  Pd13  1  0.386919  0.385792  0.840368  1
  Pd  Pd14  1  0.383236  0.840494  0.393034  1
  Pd  Pd15  1  0.840140  0.380812  0.390074  1
  Pd  Pd16  1  0.388975  0.380811  0.390073  1
  Pd  Pd17  1  0.995001  0.007020  0.345518  1
  Pd  Pd18  1  0.652461  0.007019  0.345519  1
  Pd  Pd19  1  0.000000  0.652147  0.347853  1
  Pd  Pd20  1  0.656928  0.344725  0.999730  1
  Pd  Pd21  1  0.998617  0.344724  0.999730  1
  Pd  Pd22  1  0.000000  0.342918  0.657082  1
  Pd  Pd23  1  0.347539  0.654481  0.992981  1
  Pd  Pd24  1  0.343072  0.000270  0.655275  1
  Pd  Pd25  1  0.345285  0.005822  0.994178  1
  Pd  Pd26  1  0.001383  0.000270  0.655276  1
  Pd  Pd27  1  0.004999  0.654482  0.992980  1
  Pd  Pd28  1  0.654715  0.005822  0.994178  1
