# generated using pymatgen
data_RbAlFeF6
_symmetry_space_group_name_H-M   'P 1'
_cell_length_a   7.20315700
_cell_length_b   7.17491000
_cell_length_c   10.20956500
_cell_angle_alpha   90.00000000
_cell_angle_beta   90.00000000
_cell_angle_gamma   90.00000000
_symmetry_Int_Tables_number   1
_chemical_formula_structural   RbAlFeF6
_chemical_formula_sum   'Rb4 Al4 Fe4 F24'
_cell_volume   527.65077091
_cell_formula_units_Z   4
loop_
 _symmetry_equiv_pos_site_id
 _symmetry_equiv_pos_as_xyz
  1  'x, y, z'
loop_
 _atom_site_type_symbol
 _atom_site_label
 _atom_site_symmetry_multiplicity
 _atom_site_fract_x
 _atom_site_fract_y
 _atom_site_fract_z
 _atom_site_occupancy
  Rb  Rb0  1  0.250000  0.513391  0.126080  1
  Rb  Rb1  1  0.750000  0.486609  0.873920  1
  Rb  Rb2  1  0.750000  0.986609  0.626080  1
  Rb  Rb3  1  0.250000  0.013391  0.373920  1
  Al  Al4  1  0.000000  0.500000  0.500000  1
  Al  Al5  1  0.000000  0.000000  0.000000  1
  Al  Al6  1  0.500000  0.500000  0.500000  1
  Al  Al7  1  0.500000  0.000000  0.000000  1
  Fe  Fe8  1  0.250000  0.724850  0.760760  1
  Fe  Fe9  1  0.750000  0.275150  0.239240  1
  Fe  Fe10  1  0.750000  0.775150  0.260760  1
  Fe  Fe11  1  0.250000  0.224850  0.739240  1
  F  F12  1  0.045899  0.790786  0.904796  1
  F  F13  1  0.954101  0.209214  0.095204  1
  F  F14  1  0.954101  0.709214  0.404796  1
  F  F15  1  0.545899  0.209214  0.095204  1
  F  F16  1  0.045899  0.290786  0.595204  1
  F  F17  1  0.454101  0.790786  0.904796  1
  F  F18  1  0.454101  0.290786  0.595204  1
  F  F19  1  0.545899  0.709214  0.404796  1
  F  F20  1  0.250000  0.035364  0.031683  1
  F  F21  1  0.750000  0.964636  0.968317  1
  F  F22  1  0.750000  0.464636  0.531683  1
  F  F23  1  0.250000  0.535364  0.468317  1
  F  F24  1  0.486614  0.641754  0.647329  1
  F  F25  1  0.513386  0.358246  0.352671  1
  F  F26  1  0.513386  0.858246  0.147329  1
  F  F27  1  0.986614  0.358246  0.352671  1
  F  F28  1  0.486614  0.141754  0.852671  1
  F  F29  1  0.013386  0.641754  0.647329  1
  F  F30  1  0.013386  0.141754  0.852671  1
  F  F31  1  0.986614  0.858246  0.147329  1
  F  F32  1  0.250000  0.963737  0.655890  1
  F  F33  1  0.750000  0.036263  0.344110  1
  F  F34  1  0.750000  0.536263  0.155890  1
  F  F35  1  0.250000  0.463737  0.844110  1
