# generated using pymatgen
data_HoEr5Co14(P3Ru)4
_symmetry_space_group_name_H-M   'P 1'
_cell_length_a   3.72980800
_cell_length_b   10.54484000
_cell_length_c   12.29018300
_cell_angle_alpha   90.00000000
_cell_angle_beta   90.00000000
_cell_angle_gamma   90.00000000
_symmetry_Int_Tables_number   1
_chemical_formula_structural   HoEr5Co14(P3Ru)4
_chemical_formula_sum   'Ho1 Er5 Co14 P12 Ru4'
_cell_volume   483.37570681
_cell_formula_units_Z   1
loop_
 _symmetry_equiv_pos_site_id
 _symmetry_equiv_pos_as_xyz
  1  'x, y, z'
loop_
 _atom_site_type_symbol
 _atom_site_label
 _atom_site_symmetry_multiplicity
 _atom_site_fract_x
 _atom_site_fract_y
 _atom_site_fract_z
 _atom_site_occupancy
  Ho  Ho0  1  0.000000  0.500000  0.529140  1
  Er  Er1  1  0.500000  0.000000  0.478419  1
  Er  Er2  1  0.500000  0.818434  0.202805  1
  Er  Er3  1  0.500000  0.181566  0.202805  1
  Er  Er4  1  0.000000  0.682989  0.795719  1
  Er  Er5  1  0.000000  0.317011  0.795719  1
  Co  Co6  1  0.000000  0.500000  0.985317  1
  Co  Co7  1  0.500000  0.000000  0.013730  1
  Co  Co8  1  0.000000  0.199697  0.573657  1
  Co  Co9  1  0.000000  0.800303  0.573657  1
  Co  Co10  1  0.500000  0.879465  0.710551  1
  Co  Co11  1  0.500000  0.120535  0.710551  1
  Co  Co12  1  0.000000  0.621552  0.286873  1
  Co  Co13  1  0.000000  0.378448  0.286873  1
  Co  Co14  1  0.500000  0.332281  0.989616  1
  Co  Co15  1  0.500000  0.667719  0.989616  1
  Co  Co16  1  0.000000  0.167167  0.009005  1
  Co  Co17  1  0.000000  0.832833  0.009005  1
  Co  Co18  1  0.500000  0.500000  0.704961  1
  Co  Co19  1  0.000000  0.000000  0.294622  1
  P  P20  1  0.500000  0.309966  0.621867  1
  P  P21  1  0.500000  0.690034  0.621867  1
  P  P22  1  0.000000  0.182937  0.381628  1
  P  P23  1  0.000000  0.817063  0.381628  1
  P  P24  1  0.500000  0.500000  0.881556  1
  P  P25  1  0.000000  0.000000  0.117444  1
  P  P26  1  0.500000  0.846263  0.893471  1
  P  P27  1  0.500000  0.153737  0.893471  1
  P  P28  1  0.000000  0.654053  0.104937  1
  P  P29  1  0.000000  0.345947  0.104937  1
  P  P30  1  0.500000  0.500000  0.345351  1
  P  P31  1  0.000000  0.000000  0.650729  1
  Ru  Ru32  1  0.500000  0.295598  0.430616  1
  Ru  Ru33  1  0.500000  0.704402  0.430616  1
  Ru  Ru34  1  0.500000  0.500000  0.156570  1
  Ru  Ru35  1  0.000000  0.000000  0.840672  1
