# generated using pymatgen
data_Sc4Sn6Pt5
_symmetry_space_group_name_H-M   'P 1'
_cell_length_a   18.98885453
_cell_length_b   18.98885466
_cell_length_c   18.98885448
_cell_angle_alpha   13.68897528
_cell_angle_beta   13.68897333
_cell_angle_gamma   13.68897491
_symmetry_Int_Tables_number   1
_chemical_formula_structural   Sc4Sn6Pt5
_chemical_formula_sum   'Sc4 Sn6 Pt5'
_cell_volume   333.66076212
_cell_formula_units_Z   1
loop_
 _symmetry_equiv_pos_site_id
 _symmetry_equiv_pos_as_xyz
  1  'x, y, z'
loop_
 _atom_site_type_symbol
 _atom_site_label
 _atom_site_symmetry_multiplicity
 _atom_site_fract_x
 _atom_site_fract_y
 _atom_site_fract_z
 _atom_site_occupancy
  Sc  Sc0  1  0.701638  0.701638  0.701638  1
  Sc  Sc1  1  0.099722  0.099722  0.099722  1
  Sc  Sc2  1  0.500079  0.500079  0.500079  1
  Sc  Sc3  1  0.898316  0.898316  0.898316  1
  Sn  Sn4  1  0.599085  0.599085  0.599085  1
  Sn  Sn5  1  0.800981  0.800981  0.800981  1
  Sn  Sn6  1  0.200156  0.200156  0.200156  1
  Sn  Sn7  1  0.002139  0.002139  0.002139  1
  Sn  Sn8  1  0.400770  0.400770  0.400770  1
  Sn  Sn9  1  0.298808  0.298808  0.298808  1
  Pt  Pt10  1  0.050122  0.050122  0.050122  1
  Pt  Pt11  1  0.449596  0.449596  0.449596  1
  Pt  Pt12  1  0.849629  0.849629  0.849629  1
  Pt  Pt13  1  0.249489  0.249489  0.249489  1
  Pt  Pt14  1  0.649469  0.649469  0.649469  1
