# generated using pymatgen
data_Tb12Co3NiHgPd
_symmetry_space_group_name_H-M   'P 1'
_cell_length_a   8.34042948
_cell_length_b   8.34028927
_cell_length_c   8.34042901
_cell_angle_alpha   111.04133736
_cell_angle_beta   109.35945110
_cell_angle_gamma   108.02767900
_symmetry_Int_Tables_number   1
_chemical_formula_structural   Tb12Co3NiHgPd
_chemical_formula_sum   'Tb12 Co3 Ni1 Hg1 Pd1'
_cell_volume   446.30317451
_cell_formula_units_Z   1
loop_
 _symmetry_equiv_pos_site_id
 _symmetry_equiv_pos_as_xyz
  1  'x, y, z'
loop_
 _atom_site_type_symbol
 _atom_site_label
 _atom_site_symmetry_multiplicity
 _atom_site_fract_x
 _atom_site_fract_y
 _atom_site_fract_z
 _atom_site_occupancy
  Tb  Tb0  1  0.414983  0.219300  0.195692  1
  Tb  Tb1  1  0.586405  0.782939  0.803457  1
  Tb  Tb2  1  0.020519  0.217061  0.803466  1
  Tb  Tb3  1  0.976391  0.780700  0.195683  1
  Tb  Tb4  1  0.182401  0.293776  0.476160  1
  Tb  Tb5  1  0.815697  0.708087  0.523800  1
  Tb  Tb6  1  0.182384  0.706224  0.888623  1
  Tb  Tb7  1  0.815714  0.291913  0.107611  1
  Tb  Tb8  1  0.321532  0.624935  0.307087  1
  Tb  Tb9  1  0.682152  0.375065  0.696597  1
  Tb  Tb10  1  0.321541  0.014460  0.696604  1
  Tb  Tb11  1  0.682143  0.985540  0.307080  1
  Co  Co12  1  0.632221  0.000000  0.632221  1
  Co  Co13  1  0.113150  0.614554  0.498601  1
  Co  Co14  1  0.884047  0.385446  0.498595  1
  Ni  Ni15  1  0.368381  0.000000  0.368381  1
  Hg  Hg16  1  0.500129  0.500000  0.000129  1
  Pd  Pd17  1  0.000210  0.000000  0.000210  1
