# generated using pymatgen
data_YLu3Nb2(B2Ru5)2
_symmetry_space_group_name_H-M   'P 1'
_cell_length_a   9.64257707
_cell_length_b   9.64257707
_cell_length_c   3.11647500
_cell_angle_alpha   90.00000000
_cell_angle_beta   90.00000000
_cell_angle_gamma   90.25069137
_symmetry_Int_Tables_number   1
_chemical_formula_structural   YLu3Nb2(B2Ru5)2
_chemical_formula_sum   'Y1 Lu3 Nb2 B4 Ru10'
_cell_volume   289.76486738
_cell_formula_units_Z   1
loop_
 _symmetry_equiv_pos_site_id
 _symmetry_equiv_pos_as_xyz
  1  'x, y, z'
loop_
 _atom_site_type_symbol
 _atom_site_label
 _atom_site_symmetry_multiplicity
 _atom_site_fract_x
 _atom_site_fract_y
 _atom_site_fract_z
 _atom_site_occupancy
  Y  Y0  1  0.825542  0.674458  0.000000  1
  Lu  Lu1  1  0.175273  0.324727  0.000000  1
  Lu  Lu2  1  0.325370  0.825477  0.000000  1
  Lu  Lu3  1  0.674523  0.174630  0.000000  1
  Nb  Nb4  1  0.499344  0.499739  0.000000  1
  Nb  Nb5  1  0.000261  0.000656  0.000000  1
  B  B6  1  0.619350  0.880650  0.000000  1
  B  B7  1  0.379595  0.120405  0.000000  1
  B  B8  1  0.121050  0.620113  0.000000  1
  B  B9  1  0.879887  0.378950  0.000000  1
  Ru  Ru10  1  0.568267  0.719227  0.500000  1
  Ru  Ru11  1  0.428725  0.281720  0.500000  1
  Ru  Ru12  1  0.073850  0.782459  0.500000  1
  Ru  Ru13  1  0.928479  0.217837  0.500000  1
  Ru  Ru14  1  0.282163  0.571521  0.500000  1
  Ru  Ru15  1  0.717541  0.426150  0.500000  1
  Ru  Ru16  1  0.218280  0.071275  0.500000  1
  Ru  Ru17  1  0.780773  0.931733  0.500000  1
  Ru  Ru18  1  0.499393  0.000607  0.500000  1
  Ru  Ru19  1  0.002334  0.497666  0.500000  1
