# generated using pymatgen
data_Y16In6TcAu
_symmetry_space_group_name_H-M   'P 1'
_cell_length_a   10.53216300
_cell_length_b   10.53216486
_cell_length_c   7.05586200
_cell_angle_alpha   90.00000000
_cell_angle_beta   90.00000000
_cell_angle_gamma   120.00000357
_symmetry_Int_Tables_number   1
_chemical_formula_structural   Y16In6TcAu
_chemical_formula_sum   'Y16 In6 Tc1 Au1'
_cell_volume   677.82239658
_cell_formula_units_Z   1
loop_
 _symmetry_equiv_pos_site_id
 _symmetry_equiv_pos_as_xyz
  1  'x, y, z'
loop_
 _atom_site_type_symbol
 _atom_site_label
 _atom_site_symmetry_multiplicity
 _atom_site_fract_x
 _atom_site_fract_y
 _atom_site_fract_z
 _atom_site_occupancy
  Y  Y0  1  0.474181  0.525819  0.474869  1
  Y  Y1  1  0.051636  0.525819  0.474869  1
  Y  Y2  1  0.474181  0.948364  0.474869  1
  Y  Y3  1  0.534473  0.465527  0.979116  1
  Y  Y4  1  0.931054  0.465527  0.979116  1
  Y  Y5  1  0.534473  0.068946  0.979116  1
  Y  Y6  1  0.825002  0.174998  0.270933  1
  Y  Y7  1  0.349996  0.174998  0.270933  1
  Y  Y8  1  0.825002  0.650004  0.270933  1
  Y  Y9  1  0.173095  0.826905  0.773089  1
  Y  Y10  1  0.653811  0.826905  0.773089  1
  Y  Y11  1  0.173095  0.346189  0.773089  1
  Y  Y12  1  0.333333  0.666667  0.113228  1
  Y  Y13  1  0.666667  0.333333  0.607656  1
  Y  Y14  1  0.000000  0.000000  0.499739  1
  Y  Y15  1  0.000000  0.000000  0.995746  1
  In  In16  1  0.164047  0.835953  0.237204  1
  In  In17  1  0.671908  0.835953  0.237204  1
  In  In18  1  0.164047  0.328092  0.237204  1
  In  In19  1  0.837171  0.162829  0.734895  1
  In  In20  1  0.325658  0.162829  0.734895  1
  In  In21  1  0.837171  0.674342  0.734895  1
  Tc  Tc22  1  0.666667  0.333333  0.211843  1
  Au  Au23  1  0.333333  0.666667  0.706029  1
