# generated using pymatgen
data_CaSmRe2Si2C
_symmetry_space_group_name_H-M   'P 1'
_cell_length_a   5.85676044
_cell_length_b   5.85676082
_cell_length_c   7.15398703
_cell_angle_alpha   125.02327137
_cell_angle_beta   125.02327312
_cell_angle_gamma   39.77441903
_symmetry_Int_Tables_number   1
_chemical_formula_structural   CaSmRe2Si2C
_chemical_formula_sum   'Ca1 Sm1 Re2 Si2 C1'
_cell_volume   124.36582886
_cell_formula_units_Z   1
loop_
 _symmetry_equiv_pos_site_id
 _symmetry_equiv_pos_as_xyz
  1  'x, y, z'
loop_
 _atom_site_type_symbol
 _atom_site_label
 _atom_site_symmetry_multiplicity
 _atom_site_fract_x
 _atom_site_fract_y
 _atom_site_fract_z
 _atom_site_occupancy
  Ca  Ca0  1  0.425061  0.425061  0.697716  1
  Sm  Sm1  1  0.574772  0.574772  0.301177  1
  Re  Re2  1  0.205280  0.205280  0.083951  1
  Re  Re3  1  0.794966  0.794966  0.915621  1
  Si  Si4  1  0.858868  0.858868  0.314402  1
  Si  Si5  1  0.140760  0.140760  0.685198  1
  C  C6  1  0.000293  0.000293  0.001936  1
