# generated using pymatgen
data_Y2Tm10Tc3Pt
_symmetry_space_group_name_H-M   'P 1'
_cell_length_a   6.24977134
_cell_length_b   7.36949806
_cell_length_c   9.02615900
_cell_angle_alpha   90.00000000
_cell_angle_beta   90.00000000
_cell_angle_gamma   89.97358114
_symmetry_Int_Tables_number   1
_chemical_formula_structural   Y2Tm10Tc3Pt
_chemical_formula_sum   'Y2 Tm10 Tc3 Pt1'
_cell_volume   415.72387881
_cell_formula_units_Z   1
loop_
 _symmetry_equiv_pos_site_id
 _symmetry_equiv_pos_as_xyz
  1  'x, y, z'
loop_
 _atom_site_type_symbol
 _atom_site_label
 _atom_site_symmetry_multiplicity
 _atom_site_fract_x
 _atom_site_fract_y
 _atom_site_fract_z
 _atom_site_occupancy
  Y  Y0  1  0.125198  0.457366  0.750000  1
  Y  Y1  1  0.374342  0.965869  0.750000  1
  Tm  Tm2  1  0.331556  0.675660  0.067953  1
  Tm  Tm3  1  0.162479  0.177204  0.434861  1
  Tm  Tm4  1  0.664636  0.318763  0.557131  1
  Tm  Tm5  1  0.839662  0.828350  0.941614  1
  Tm  Tm6  1  0.664636  0.318763  0.942869  1
  Tm  Tm7  1  0.839662  0.828350  0.558386  1
  Tm  Tm8  1  0.331556  0.675660  0.432047  1
  Tm  Tm9  1  0.162479  0.177204  0.065139  1
  Tm  Tm10  1  0.873953  0.542440  0.250000  1
  Tm  Tm11  1  0.622193  0.037471  0.250000  1
  Tc  Tc12  1  0.037651  0.884012  0.250000  1
  Tc  Tc13  1  0.464732  0.385436  0.250000  1
  Tc  Tc14  1  0.951850  0.114885  0.750000  1
  Pt  Pt15  1  0.553411  0.612567  0.750000  1
