# generated using pymatgen
data_CaNdAlRh2
_symmetry_space_group_name_H-M   'P 1'
_cell_length_a   5.72908795
_cell_length_b   5.72908715
_cell_length_c   5.72908947
_cell_angle_alpha   139.03983051
_cell_angle_beta   117.48522545
_cell_angle_gamma   77.48558409
_symmetry_Int_Tables_number   1
_chemical_formula_structural   CaNdAlRh2
_chemical_formula_sum   'Ca1 Nd1 Al1 Rh2'
_cell_volume   106.50789835
_cell_formula_units_Z   1
loop_
 _symmetry_equiv_pos_site_id
 _symmetry_equiv_pos_as_xyz
  1  'x, y, z'
loop_
 _atom_site_type_symbol
 _atom_site_label
 _atom_site_symmetry_multiplicity
 _atom_site_fract_x
 _atom_site_fract_y
 _atom_site_fract_z
 _atom_site_occupancy
  Ca  Ca0  1  0.701326  0.201326  0.500000  1
  Nd  Nd1  1  0.302932  0.802932  0.500000  1
  Al  Al2  1  0.999739  0.999739  0.000000  1
  Rh  Rh3  1  0.743041  0.498002  0.245039  1
  Rh  Rh4  1  0.252963  0.498002  0.754961  1
