# generated using pymatgen
data_Re2TcBr9
_symmetry_space_group_name_H-M   'P 1'
_cell_length_a   10.70821000
_cell_length_b   8.86183994
_cell_length_c   9.49000868
_cell_angle_alpha   69.61717200
_cell_angle_beta   90.00000000
_cell_angle_gamma   90.00000000
_symmetry_Int_Tables_number   1
_chemical_formula_structural   Re2TcBr9
_chemical_formula_sum   'Re4 Tc2 Br18'
_cell_volume   844.16248326
_cell_formula_units_Z   2
loop_
 _symmetry_equiv_pos_site_id
 _symmetry_equiv_pos_as_xyz
  1  'x, y, z'
loop_
 _atom_site_type_symbol
 _atom_site_label
 _atom_site_symmetry_multiplicity
 _atom_site_fract_x
 _atom_site_fract_y
 _atom_site_fract_z
 _atom_site_occupancy
  Re  Re0  1  0.750908  0.164052  0.645357  1
  Re  Re1  1  0.134182  0.838978  0.132457  1
  Re  Re2  1  0.634182  0.161022  0.867543  1
  Re  Re3  1  0.250908  0.835948  0.354643  1
  Tc  Tc4  1  0.866389  0.161519  0.868158  1
  Tc  Tc5  1  0.366389  0.838481  0.131842  1
  Br  Br6  1  0.408959  0.552852  0.190506  1
  Br  Br7  1  0.409732  0.143707  0.016194  1
  Br  Br8  1  0.248874  0.099084  0.377068  1
  Br  Br9  1  0.989604  0.164789  0.634471  1
  Br  Br10  1  0.248893  0.566060  0.529333  1
  Br  Br11  1  0.592033  0.858759  0.979380  1
  Br  Br12  1  0.748025  0.149852  0.106817  1
  Br  Br13  1  0.010100  0.835794  0.365590  1
  Br  Br14  1  0.248025  0.850148  0.893183  1
  Br  Br15  1  0.748893  0.433940  0.470667  1
  Br  Br16  1  0.489604  0.835211  0.365529  1
  Br  Br17  1  0.592300  0.446472  0.806666  1
  Br  Br18  1  0.092300  0.553528  0.193334  1
  Br  Br19  1  0.092033  0.141241  0.020620  1
  Br  Br20  1  0.909732  0.856293  0.983806  1
  Br  Br21  1  0.510100  0.164206  0.634410  1
  Br  Br22  1  0.908959  0.447148  0.809494  1
  Br  Br23  1  0.748874  0.900916  0.622932  1
