# generated using pymatgen
data_Yb12AlSi7Pd8
_symmetry_space_group_name_H-M   'P 1'
_cell_length_a   5.60275100
_cell_length_b   8.06226540
_cell_length_c   13.27712468
_cell_angle_alpha   89.96350162
_cell_angle_beta   90.00000000
_cell_angle_gamma   90.00000000
_symmetry_Int_Tables_number   1
_chemical_formula_structural   Yb12AlSi7Pd8
_chemical_formula_sum   'Yb12 Al1 Si7 Pd8'
_cell_volume   599.73909226
_cell_formula_units_Z   1
loop_
 _symmetry_equiv_pos_site_id
 _symmetry_equiv_pos_as_xyz
  1  'x, y, z'
loop_
 _atom_site_type_symbol
 _atom_site_label
 _atom_site_symmetry_multiplicity
 _atom_site_fract_x
 _atom_site_fract_y
 _atom_site_fract_z
 _atom_site_occupancy
  Yb  Yb0  1  0.652526  0.246936  0.254169  1
  Yb  Yb1  1  0.348680  0.753970  0.748176  1
  Yb  Yb2  1  0.348680  0.746030  0.251824  1
  Yb  Yb3  1  0.652526  0.253064  0.745831  1
  Yb  Yb4  1  0.142872  0.395824  0.104833  1
  Yb  Yb5  1  0.862720  0.612936  0.896973  1
  Yb  Yb6  1  0.860408  0.610486  0.602884  1
  Yb  Yb7  1  0.860408  0.889514  0.397116  1
  Yb  Yb8  1  0.139556  0.389309  0.397608  1
  Yb  Yb9  1  0.139556  0.110691  0.602392  1
  Yb  Yb10  1  0.142872  0.104176  0.895167  1
  Yb  Yb11  1  0.862720  0.887064  0.103027  1
  Al  Al12  1  0.624564  0.250000  0.000000  1
  Si  Si13  1  0.160291  0.100305  0.250464  1
  Si  Si14  1  0.840719  0.900665  0.748332  1
  Si  Si15  1  0.840719  0.599335  0.251668  1
  Si  Si16  1  0.160291  0.399695  0.749536  1
  Si  Si17  1  0.370127  0.750000  0.000000  1
  Si  Si18  1  0.379500  0.750000  0.500000  1
  Si  Si19  1  0.620189  0.250000  0.500000  1
  Pd  Pd20  1  0.370489  0.026692  0.091814  1
  Pd  Pd21  1  0.625947  0.964051  0.908839  1
  Pd  Pd22  1  0.625985  0.970237  0.589316  1
  Pd  Pd23  1  0.625985  0.529763  0.410684  1
  Pd  Pd24  1  0.372619  0.029692  0.410234  1
  Pd  Pd25  1  0.372619  0.470308  0.589766  1
  Pd  Pd26  1  0.370489  0.473308  0.908186  1
  Pd  Pd27  1  0.625947  0.535949  0.091161  1
