# generated using pymatgen
data_SmLuZn4Ru
_symmetry_space_group_name_H-M   'P 1'
_cell_length_a   6.98036300
_cell_length_b   6.98036300
_cell_length_c   5.28221500
_cell_angle_alpha   90.00000000
_cell_angle_beta   90.00000000
_cell_angle_gamma   90.00000000
_symmetry_Int_Tables_number   1
_chemical_formula_structural   SmLuZn4Ru
_chemical_formula_sum   'Sm2 Lu2 Zn8 Ru2'
_cell_volume   257.37839590
_cell_formula_units_Z   2
loop_
 _symmetry_equiv_pos_site_id
 _symmetry_equiv_pos_as_xyz
  1  'x, y, z'
loop_
 _atom_site_type_symbol
 _atom_site_label
 _atom_site_symmetry_multiplicity
 _atom_site_fract_x
 _atom_site_fract_y
 _atom_site_fract_z
 _atom_site_occupancy
  Sm  Sm0  1  0.000000  0.500000  0.772493  1
  Sm  Sm1  1  0.500000  0.000000  0.227507  1
  Lu  Lu2  1  0.000000  0.000000  0.000000  1
  Lu  Lu3  1  0.500000  0.500000  0.000000  1
  Zn  Zn4  1  0.187434  0.687434  0.288680  1
  Zn  Zn5  1  0.812566  0.687434  0.288680  1
  Zn  Zn6  1  0.812566  0.312566  0.288680  1
  Zn  Zn7  1  0.312566  0.187434  0.711320  1
  Zn  Zn8  1  0.187434  0.312566  0.288680  1
  Zn  Zn9  1  0.687434  0.187434  0.711320  1
  Zn  Zn10  1  0.687434  0.812566  0.711320  1
  Zn  Zn11  1  0.312566  0.812566  0.711320  1
  Ru  Ru12  1  0.500000  0.500000  0.500000  1
  Ru  Ru13  1  0.000000  0.000000  0.500000  1
