# generated using pymatgen
data_LaMn3As(PN2)6
_symmetry_space_group_name_H-M   'P 1'
_cell_length_a   7.39855597
_cell_length_b   7.39855512
_cell_length_c   7.39855611
_cell_angle_alpha   109.52980436
_cell_angle_beta   109.52980606
_cell_angle_gamma   109.52979994
_symmetry_Int_Tables_number   1
_chemical_formula_structural   LaMn3As(PN2)6
_chemical_formula_sum   'La1 Mn3 As1 P6 N12'
_cell_volume   311.08093664
_cell_formula_units_Z   1
loop_
 _symmetry_equiv_pos_site_id
 _symmetry_equiv_pos_as_xyz
  1  'x, y, z'
loop_
 _atom_site_type_symbol
 _atom_site_label
 _atom_site_symmetry_multiplicity
 _atom_site_fract_x
 _atom_site_fract_y
 _atom_site_fract_z
 _atom_site_occupancy
  La  La0  1  0.316162  0.316162  0.316162  1
  Mn  Mn1  1  0.651732  0.006748  0.006748  1
  Mn  Mn2  1  0.006748  0.006748  0.651732  1
  Mn  Mn3  1  0.006748  0.651732  0.006748  1
  As  As4  1  0.925300  0.925300  0.925300  1
  P  P5  1  0.254073  0.759424  0.508931  1
  P  P6  1  0.759424  0.254073  0.508931  1
  P  P7  1  0.759424  0.508931  0.254073  1
  P  P8  1  0.254073  0.508931  0.759424  1
  P  P9  1  0.508931  0.759424  0.254073  1
  P  P10  1  0.508931  0.254073  0.759424  1
  N  N11  1  0.706672  0.290255  0.290255  1
  N  N12  1  0.290255  0.706672  0.290255  1
  N  N13  1  0.277733  0.578135  0.578135  1
  N  N14  1  0.578135  0.578135  0.277733  1
  N  N15  1  0.429594  0.728517  0.005521  1
  N  N16  1  0.005521  0.728517  0.429594  1
  N  N17  1  0.578135  0.277733  0.578135  1
  N  N18  1  0.728517  0.005521  0.429594  1
  N  N19  1  0.429594  0.005521  0.728517  1
  N  N20  1  0.728517  0.429594  0.005521  1
  N  N21  1  0.290255  0.290255  0.706672  1
  N  N22  1  0.005521  0.429594  0.728517  1
