# generated using pymatgen
data_Tm4Zn5Ru3
_symmetry_space_group_name_H-M   'P 1'
_cell_length_a   5.27254744
_cell_length_b   5.23032662
_cell_length_c   8.95698600
_cell_angle_alpha   90.00000000
_cell_angle_beta   90.00000000
_cell_angle_gamma   119.43810087
_symmetry_Int_Tables_number   1
_chemical_formula_structural   Tm4Zn5Ru3
_chemical_formula_sum   'Tm4 Zn5 Ru3'
_cell_volume   215.11618973
_cell_formula_units_Z   1
loop_
 _symmetry_equiv_pos_site_id
 _symmetry_equiv_pos_as_xyz
  1  'x, y, z'
loop_
 _atom_site_type_symbol
 _atom_site_label
 _atom_site_symmetry_multiplicity
 _atom_site_fract_x
 _atom_site_fract_y
 _atom_site_fract_z
 _atom_site_occupancy
  Tm  Tm0  1  0.666764  0.333610  0.555547  1
  Tm  Tm1  1  0.340531  0.670159  0.439276  1
  Tm  Tm2  1  0.340531  0.670159  0.060724  1
  Tm  Tm3  1  0.666764  0.333610  0.944453  1
  Zn  Zn4  1  0.160895  0.327641  0.750000  1
  Zn  Zn5  1  0.160254  0.833163  0.750000  1
  Zn  Zn6  1  0.668015  0.834013  0.750000  1
  Zn  Zn7  1  0.828424  0.662107  0.250000  1
  Zn  Zn8  1  0.828506  0.166353  0.250000  1
  Ru  Ru9  1  0.003340  0.001205  0.496650  1
  Ru  Ru10  1  0.003340  0.001205  0.003350  1
  Ru  Ru11  1  0.332636  0.166775  0.250000  1
