# generated using pymatgen
data_Ce3Er7(Ga2Ru3)2
_symmetry_space_group_name_H-M   'P 1'
_cell_length_a   8.38432056
_cell_length_b   8.38431899
_cell_length_c   8.38432100
_cell_angle_alpha   110.08127401
_cell_angle_beta   110.08128466
_cell_angle_gamma   110.08127548
_symmetry_Int_Tables_number   1
_chemical_formula_structural   Ce3Er7(Ga2Ru3)2
_chemical_formula_sum   'Ce3 Er7 Ga4 Ru6'
_cell_volume   443.16958468
_cell_formula_units_Z   1
loop_
 _symmetry_equiv_pos_site_id
 _symmetry_equiv_pos_as_xyz
  1  'x, y, z'
loop_
 _atom_site_type_symbol
 _atom_site_label
 _atom_site_symmetry_multiplicity
 _atom_site_fract_x
 _atom_site_fract_y
 _atom_site_fract_z
 _atom_site_occupancy
  Ce  Ce0  1  0.253355  0.199865  0.944651  1
  Ce  Ce1  1  0.944651  0.253355  0.199865  1
  Ce  Ce2  1  0.199865  0.944651  0.253355  1
  Er  Er3  1  0.778149  0.778149  0.778149  1
  Er  Er4  1  0.314393  0.567892  0.751084  1
  Er  Er5  1  0.751084  0.314393  0.567892  1
  Er  Er6  1  0.567892  0.751084  0.314393  1
  Er  Er7  1  0.721133  0.506479  0.995372  1
  Er  Er8  1  0.995372  0.721133  0.506479  1
  Er  Er9  1  0.506479  0.995372  0.721133  1
  Ga  Ga10  1  0.414308  0.414308  0.414308  1
  Ga  Ga11  1  0.092560  0.499097  0.000925  1
  Ga  Ga12  1  0.000925  0.092560  0.499097  1
  Ga  Ga13  1  0.499097  0.000925  0.092560  1
  Ru  Ru14  1  0.896058  0.117599  0.753679  1
  Ru  Ru15  1  0.753679  0.896058  0.117599  1
  Ru  Ru16  1  0.117599  0.753679  0.896058  1
  Ru  Ru17  1  0.225398  0.599496  0.368507  1
  Ru  Ru18  1  0.368507  0.225398  0.599496  1
  Ru  Ru19  1  0.599496  0.368507  0.225398  1
