# generated using pymatgen
data_TbY2Sn3HgIr2
_symmetry_space_group_name_H-M   'P 1'
_cell_length_a   7.61281401
_cell_length_b   7.61491285
_cell_length_c   4.05659900
_cell_angle_alpha   90.00000000
_cell_angle_beta   90.00000000
_cell_angle_gamma   119.98530956
_symmetry_Int_Tables_number   1
_chemical_formula_structural   TbY2Sn3HgIr2
_chemical_formula_sum   'Tb1 Y2 Sn3 Hg1 Ir2'
_cell_volume   203.68879438
_cell_formula_units_Z   1
loop_
 _symmetry_equiv_pos_site_id
 _symmetry_equiv_pos_as_xyz
  1  'x, y, z'
loop_
 _atom_site_type_symbol
 _atom_site_label
 _atom_site_symmetry_multiplicity
 _atom_site_fract_x
 _atom_site_fract_y
 _atom_site_fract_z
 _atom_site_occupancy
  Tb  Tb0  1  0.412254  0.391545  0.000000  1
  Y  Y1  1  0.608578  0.020732  0.000000  1
  Y  Y2  1  0.979396  0.587854  0.000000  1
  Sn  Sn3  1  0.254319  0.009278  0.500000  1
  Sn  Sn4  1  0.990690  0.245050  0.500000  1
  Sn  Sn5  1  0.755013  0.745666  0.500000  1
  Hg  Hg6  1  0.333287  0.666646  0.500000  1
  Ir  Ir7  1  0.666471  0.333250  0.500000  1
  Ir  Ir8  1  0.999991  0.999978  0.000000  1
