# generated using pymatgen
data_Ce4Fe2AgB6
_symmetry_space_group_name_H-M   'P 1'
_cell_length_a   5.26730226
_cell_length_b   5.26730126
_cell_length_c   8.38388526
_cell_angle_alpha   71.69155429
_cell_angle_beta   71.69155620
_cell_angle_gamma   59.99999562
_symmetry_Int_Tables_number   1
_chemical_formula_structural   Ce4Fe2AgB6
_chemical_formula_sum   'Ce4 Fe2 Ag1 B6'
_cell_volume   187.72373908
_cell_formula_units_Z   1
loop_
 _symmetry_equiv_pos_site_id
 _symmetry_equiv_pos_as_xyz
  1  'x, y, z'
loop_
 _atom_site_type_symbol
 _atom_site_label
 _atom_site_symmetry_multiplicity
 _atom_site_fract_x
 _atom_site_fract_y
 _atom_site_fract_z
 _atom_site_occupancy
  Ce  Ce0  1  0.254253  0.254253  0.237241  1
  Ce  Ce1  1  0.745747  0.745747  0.762759  1
  Ce  Ce2  1  0.412694  0.412694  0.761920  1
  Ce  Ce3  1  0.587306  0.587306  0.238081  1
  Fe  Fe4  1  0.117381  0.117381  0.647860  1
  Fe  Fe5  1  0.882619  0.882619  0.352140  1
  Ag  Ag6  1  0.000000  0.000000  0.000000  1
  B  B7  1  0.168257  0.831743  0.500000  1
  B  B8  1  0.831743  0.500000  0.500000  1
  B  B9  1  0.500000  0.168257  0.500000  1
  B  B10  1  0.168257  0.500000  0.500000  1
  B  B11  1  0.500000  0.831743  0.500000  1
  B  B12  1  0.831743  0.168257  0.500000  1
