# generated using pymatgen
data_Sc8Al13Ga2Os7
_symmetry_space_group_name_H-M   'P 1'
_cell_length_a   8.88684418
_cell_length_b   8.88910127
_cell_length_c   8.88684400
_cell_angle_alpha   120.15838478
_cell_angle_beta   119.87659896
_cell_angle_gamma   89.96257345
_symmetry_Int_Tables_number   1
_chemical_formula_structural   Sc8Al13Ga2Os7
_chemical_formula_sum   'Sc8 Al13 Ga2 Os7'
_cell_volume   496.30363360
_cell_formula_units_Z   1
loop_
 _symmetry_equiv_pos_site_id
 _symmetry_equiv_pos_as_xyz
  1  'x, y, z'
loop_
 _atom_site_type_symbol
 _atom_site_label
 _atom_site_symmetry_multiplicity
 _atom_site_fract_x
 _atom_site_fract_y
 _atom_site_fract_z
 _atom_site_occupancy
  Sc  Sc0  1  0.791777  0.281623  0.065369  1
  Sc  Sc1  1  0.216254  0.281623  0.489848  1
  Sc  Sc2  1  0.208546  0.709670  0.501123  1
  Sc  Sc3  1  0.216287  0.724147  0.934883  1
  Sc  Sc4  1  0.789264  0.724147  0.507859  1
  Sc  Sc5  1  0.774661  0.276237  0.501575  1
  Sc  Sc6  1  0.378888  0.117449  0.738559  1
  Sc  Sc7  1  0.377228  0.637755  0.260528  1
  Al  Al8  1  0.160046  0.981113  0.821066  1
  Al  Al9  1  0.156465  0.343002  0.810971  1
  Al  Al10  1  0.532030  0.343002  0.186537  1
  Al  Al11  1  0.840491  0.661232  0.820742  1
  Al  Al12  1  0.839788  0.020652  0.180863  1
  Al  Al13  1  0.841113  0.658812  0.181333  1
  Al  Al14  1  0.477479  0.658812  0.817699  1
  Al  Al15  1  0.372530  0.122619  0.248179  1
  Al  Al16  1  0.874442  0.122619  0.750090  1
  Al  Al17  1  0.621300  0.869868  0.248568  1
  Al  Al18  1  0.621352  0.372920  0.751567  1
  Al  Al19  1  0.621592  0.877365  0.743792  1
  Al  Al20  1  0.133572  0.877365  0.255774  1
  Ga  Ga21  1  0.993692  0.494073  0.500382  1
  Ga  Ga22  1  0.158887  0.343995  0.185107  1
  Os  Os23  1  0.992793  0.997346  0.497048  1
  Os  Os24  1  0.500298  0.997346  0.004552  1
  Os  Os25  1  0.502179  0.502128  0.999947  1
  Os  Os26  1  0.504278  0.495824  0.504683  1
  Os  Os27  1  0.991141  0.495824  0.991545  1
  Os  Os28  1  0.998588  0.998818  0.000231  1
  Os  Os29  1  0.513032  0.012612  0.499580  1
