# generated using pymatgen
data_LaGa3Ag
_symmetry_space_group_name_H-M   'P 1'
_cell_length_a   4.35057386
_cell_length_b   4.35057412
_cell_length_c   6.31643804
_cell_angle_alpha   69.85574022
_cell_angle_beta   69.85573626
_cell_angle_gamma   90.00000389
_symmetry_Int_Tables_number   1
_chemical_formula_structural   LaGa3Ag
_chemical_formula_sum   'La1 Ga3 Ag1'
_cell_volume   104.41673042
_cell_formula_units_Z   1
loop_
 _symmetry_equiv_pos_site_id
 _symmetry_equiv_pos_as_xyz
  1  'x, y, z'
loop_
 _atom_site_type_symbol
 _atom_site_label
 _atom_site_symmetry_multiplicity
 _atom_site_fract_x
 _atom_site_fract_y
 _atom_site_fract_z
 _atom_site_occupancy
  La  La0  1  0.000000  0.000000  0.000000  1
  Ga  Ga1  1  0.385987  0.385987  0.228026  1
  Ga  Ga2  1  0.614013  0.614013  0.771974  1
  Ga  Ga3  1  0.250000  0.750000  0.500000  1
  Ag  Ag4  1  0.750000  0.250000  0.500000  1
