# generated using pymatgen
data_Eu4Ga18(IrPt)3
_symmetry_space_group_name_H-M   'P 1'
_cell_length_a   7.65396116
_cell_length_b   7.65396059
_cell_length_c   9.64917712
_cell_angle_alpha   90.04901477
_cell_angle_beta   90.04901166
_cell_angle_gamma   119.75588572
_symmetry_Int_Tables_number   1
_chemical_formula_structural   Eu4Ga18(IrPt)3
_chemical_formula_sum   'Eu4 Ga18 Ir3 Pt3'
_cell_volume   490.74491746
_cell_formula_units_Z   1
loop_
 _symmetry_equiv_pos_site_id
 _symmetry_equiv_pos_as_xyz
  1  'x, y, z'
loop_
 _atom_site_type_symbol
 _atom_site_label
 _atom_site_symmetry_multiplicity
 _atom_site_fract_x
 _atom_site_fract_y
 _atom_site_fract_z
 _atom_site_occupancy
  Eu  Eu0  1  0.001997  0.329733  0.749825  1
  Eu  Eu1  1  0.996346  0.669079  0.249887  1
  Eu  Eu2  1  0.330921  0.003654  0.750113  1
  Eu  Eu3  1  0.670267  0.998003  0.250175  1
  Ga  Ga4  1  0.662951  0.665718  0.435094  1
  Ga  Ga5  1  0.335962  0.336142  0.938072  1
  Ga  Ga6  1  0.663858  0.664038  0.061928  1
  Ga  Ga7  1  0.334282  0.337049  0.564906  1
  Ga  Ga8  1  0.004198  0.337501  0.420638  1
  Ga  Ga9  1  0.000838  0.662502  0.923171  1
  Ga  Ga10  1  0.337498  0.999162  0.076829  1
  Ga  Ga11  1  0.662499  0.995802  0.579362  1
  Ga  Ga12  1  0.003343  0.665881  0.578708  1
  Ga  Ga13  1  0.999617  0.337447  0.077752  1
  Ga  Ga14  1  0.662553  0.000383  0.922248  1
  Ga  Ga15  1  0.334119  0.996657  0.421292  1
  Ga  Ga16  1  0.133512  0.132120  0.249710  1
  Ga  Ga17  1  0.867880  0.866488  0.750290  1
  Ga  Ga18  1  0.662252  0.457046  0.752448  1
  Ga  Ga19  1  0.337803  0.546191  0.249579  1
  Ga  Ga20  1  0.453809  0.662197  0.750421  1
  Ga  Ga21  1  0.542954  0.337748  0.247552  1
  Ir  Ir22  1  0.330343  0.669657  0.000000  1
  Ir  Ir23  1  0.330286  0.669714  0.500000  1
  Ir  Ir24  1  0.669832  0.330168  0.000000  1
  Pt  Pt25  1  0.999938  0.000062  0.500000  1
  Pt  Pt26  1  0.999695  0.000305  0.000000  1
  Pt  Pt27  1  0.670445  0.329555  0.500000  1
