# generated using pymatgen
data_CaTh2Sc(Al3Ir)6
_symmetry_space_group_name_H-M   'P 1'
_cell_length_a   7.59418976
_cell_length_b   7.59777521
_cell_length_c   9.48037300
_cell_angle_alpha   90.00000000
_cell_angle_beta   90.00000000
_cell_angle_gamma   119.47075728
_symmetry_Int_Tables_number   1
_chemical_formula_structural   CaTh2Sc(Al3Ir)6
_chemical_formula_sum   'Ca1 Th2 Sc1 Al18 Ir6'
_cell_volume   476.22853879
_cell_formula_units_Z   1
loop_
 _symmetry_equiv_pos_site_id
 _symmetry_equiv_pos_as_xyz
  1  'x, y, z'
loop_
 _atom_site_type_symbol
 _atom_site_label
 _atom_site_symmetry_multiplicity
 _atom_site_fract_x
 _atom_site_fract_y
 _atom_site_fract_z
 _atom_site_occupancy
  Ca  Ca0  1  0.004298  0.327142  0.750000  1
  Th  Th1  1  0.994902  0.670816  0.250000  1
  Th  Th2  1  0.672018  0.996009  0.250000  1
  Sc  Sc3  1  0.326112  0.002354  0.750000  1
  Al  Al4  1  0.135804  0.134995  0.250000  1
  Al  Al5  1  0.877418  0.875128  0.750000  1
  Al  Al6  1  0.006592  0.335886  0.067929  1
  Al  Al7  1  0.003446  0.666929  0.915793  1
  Al  Al8  1  0.003446  0.666929  0.584207  1
  Al  Al9  1  0.335366  0.005258  0.433936  1
  Al  Al10  1  0.006592  0.335886  0.432071  1
  Al  Al11  1  0.661466  0.001156  0.584273  1
  Al  Al12  1  0.661466  0.001156  0.915727  1
  Al  Al13  1  0.335366  0.005258  0.066064  1
  Al  Al14  1  0.331658  0.329630  0.558520  1
  Al  Al15  1  0.663074  0.663296  0.459838  1
  Al  Al16  1  0.663074  0.663296  0.040162  1
  Al  Al17  1  0.331658  0.329630  0.941480  1
  Al  Al18  1  0.340406  0.543156  0.250000  1
  Al  Al19  1  0.654569  0.442877  0.750000  1
  Al  Al20  1  0.542207  0.339534  0.250000  1
  Al  Al21  1  0.448090  0.662711  0.750000  1
  Ir  Ir22  1  0.672258  0.328752  0.001729  1
  Ir  Ir23  1  0.329446  0.673895  0.001163  1
  Ir  Ir24  1  0.329446  0.673895  0.498837  1
  Ir  Ir25  1  0.672258  0.328752  0.498271  1
  Ir  Ir26  1  0.998782  0.997838  0.001760  1
  Ir  Ir27  1  0.998782  0.997838  0.498240  1
