# generated using pymatgen
data_Er8Si12PdPtRh2
_symmetry_space_group_name_H-M   'P 1'
_cell_length_a   8.15417000
_cell_length_b   8.15417055
_cell_length_c   7.83200400
_cell_angle_alpha   90.00000000
_cell_angle_beta   90.00000000
_cell_angle_gamma   119.99999778
_symmetry_Int_Tables_number   1
_chemical_formula_structural   Er8Si12PdPtRh2
_chemical_formula_sum   'Er8 Si12 Pd1 Pt1 Rh2'
_cell_volume   450.98603526
_cell_formula_units_Z   1
loop_
 _symmetry_equiv_pos_site_id
 _symmetry_equiv_pos_as_xyz
  1  'x, y, z'
loop_
 _atom_site_type_symbol
 _atom_site_label
 _atom_site_symmetry_multiplicity
 _atom_site_fract_x
 _atom_site_fract_y
 _atom_site_fract_z
 _atom_site_occupancy
  Er  Er0  1  0.000000  0.000000  0.250967  1
  Er  Er1  1  0.000000  0.000000  0.749661  1
  Er  Er2  1  0.489086  0.510914  0.249787  1
  Er  Er3  1  0.489086  0.978170  0.249787  1
  Er  Er4  1  0.021830  0.510914  0.249787  1
  Er  Er5  1  0.507254  0.492746  0.749869  1
  Er  Er6  1  0.985492  0.492746  0.749869  1
  Er  Er7  1  0.507254  0.014508  0.749869  1
  Si  Si8  1  0.835689  0.164311  0.500460  1
  Si  Si9  1  0.835689  0.671379  0.500460  1
  Si  Si10  1  0.328621  0.164311  0.500460  1
  Si  Si11  1  0.835707  0.164293  0.001150  1
  Si  Si12  1  0.835707  0.671415  0.001150  1
  Si  Si13  1  0.328585  0.164293  0.001150  1
  Si  Si14  1  0.167537  0.832463  0.999815  1
  Si  Si15  1  0.664927  0.832463  0.999815  1
  Si  Si16  1  0.167537  0.335073  0.999815  1
  Si  Si17  1  0.167491  0.832509  0.499766  1
  Si  Si18  1  0.665018  0.832509  0.499766  1
  Si  Si19  1  0.167491  0.334982  0.499766  1
  Pd  Pd20  1  0.666667  0.333333  0.468206  1
  Pt  Pt21  1  0.666667  0.333333  0.027985  1
  Rh  Rh22  1  0.333333  0.666667  0.962878  1
  Rh  Rh23  1  0.333333  0.666667  0.537763  1
