# generated using pymatgen
data_DyTm9Cd3Ru
_symmetry_space_group_name_H-M   'P 1'
_cell_length_a   9.45718600
_cell_length_b   9.45751900
_cell_length_c   9.73339200
_cell_angle_alpha   90.00000000
_cell_angle_beta   90.00000000
_cell_angle_gamma   120.00115972
_symmetry_Int_Tables_number   1
_chemical_formula_structural   DyTm9Cd3Ru
_chemical_formula_sum   'Dy2 Tm18 Cd6 Ru2'
_cell_volume   753.92635283
_cell_formula_units_Z   2
loop_
 _symmetry_equiv_pos_site_id
 _symmetry_equiv_pos_as_xyz
  1  'x, y, z'
loop_
 _atom_site_type_symbol
 _atom_site_label
 _atom_site_symmetry_multiplicity
 _atom_site_fract_x
 _atom_site_fract_y
 _atom_site_fract_z
 _atom_site_occupancy
  Dy  Dy0  1  0.541069  0.459347  0.250000  1
  Dy  Dy1  1  0.541069  0.081721  0.250000  1
  Tm  Tm2  1  0.000012  0.000006  0.499969  1
  Tm  Tm3  1  0.000012  0.000006  0.000031  1
  Tm  Tm4  1  0.209669  0.789640  0.440977  1
  Tm  Tm5  1  0.209669  0.420030  0.440977  1
  Tm  Tm6  1  0.579944  0.789972  0.441130  1
  Tm  Tm7  1  0.790250  0.210147  0.559397  1
  Tm  Tm8  1  0.790250  0.580101  0.559397  1
  Tm  Tm9  1  0.419910  0.209955  0.559573  1
  Tm  Tm10  1  0.790250  0.210147  0.940603  1
  Tm  Tm11  1  0.790250  0.580101  0.940603  1
  Tm  Tm12  1  0.419910  0.209955  0.940427  1
  Tm  Tm13  1  0.209669  0.789640  0.059023  1
  Tm  Tm14  1  0.209669  0.420030  0.059023  1
  Tm  Tm15  1  0.579944  0.789972  0.058870  1
  Tm  Tm16  1  0.918729  0.459364  0.250000  1
  Tm  Tm17  1  0.459048  0.540953  0.750000  1
  Tm  Tm18  1  0.459048  0.918096  0.750000  1
  Tm  Tm19  1  0.081994  0.540998  0.750000  1
  Cd  Cd20  1  0.886035  0.114614  0.250000  1
  Cd  Cd21  1  0.886035  0.771422  0.250000  1
  Cd  Cd22  1  0.228109  0.114055  0.250000  1
  Cd  Cd23  1  0.114416  0.885390  0.750000  1
  Cd  Cd24  1  0.114416  0.229025  0.750000  1
  Cd  Cd25  1  0.771042  0.885520  0.750000  1
  Ru  Ru26  1  0.333125  0.666563  0.250000  1
  Ru  Ru27  1  0.666458  0.333228  0.750000  1
