# generated using pymatgen
data_Tb4Tm8Co5Sn
_symmetry_space_group_name_H-M   'P 1'
_cell_length_a   8.19363602
_cell_length_b   8.19363397
_cell_length_c   8.19363494
_cell_angle_alpha   107.01017414
_cell_angle_beta   110.88175647
_cell_angle_gamma   110.54959708
_symmetry_Int_Tables_number   1
_chemical_formula_structural   Tb4Tm8Co5Sn
_chemical_formula_sum   'Tb4 Tm8 Co5 Sn1'
_cell_volume   422.86911341
_cell_formula_units_Z   1
loop_
 _symmetry_equiv_pos_site_id
 _symmetry_equiv_pos_as_xyz
  1  'x, y, z'
loop_
 _atom_site_type_symbol
 _atom_site_label
 _atom_site_symmetry_multiplicity
 _atom_site_fract_x
 _atom_site_fract_y
 _atom_site_fract_z
 _atom_site_occupancy
  Tb  Tb0  1  0.478816  0.291045  0.187771  1
  Tb  Tb1  1  0.103274  0.291045  0.812229  1
  Tb  Tb2  1  0.896726  0.708955  0.187771  1
  Tb  Tb3  1  0.521184  0.708955  0.812229  1
  Tm  Tm4  1  0.307150  0.621247  0.314097  1
  Tm  Tm5  1  0.307150  0.993055  0.685903  1
  Tm  Tm6  1  0.692850  0.378753  0.685903  1
  Tm  Tm7  1  0.692850  0.006945  0.314097  1
  Tm  Tm8  1  0.192255  0.208732  0.400988  1
  Tm  Tm9  1  0.807745  0.791268  0.599012  1
  Tm  Tm10  1  0.192255  0.791268  0.983522  1
  Tm  Tm11  1  0.807745  0.208732  0.016478  1
  Co  Co12  1  0.500000  0.613452  0.113452  1
  Co  Co13  1  0.500000  0.386548  0.886548  1
  Co  Co14  1  0.376134  0.000000  0.376134  1
  Co  Co15  1  0.623866  0.000000  0.623866  1
  Co  Co16  1  0.000000  0.000000  0.000000  1
  Sn  Sn17  1  0.000000  0.500000  0.500000  1
