# generated using pymatgen
data_Ho2Hf3Sc3(P3Ir4)4
_symmetry_space_group_name_H-M   'P 1'
_cell_length_a   12.82291900
_cell_length_b   12.82291823
_cell_length_c   3.92805100
_cell_angle_alpha   90.00000000
_cell_angle_beta   90.00000000
_cell_angle_gamma   119.99999942
_symmetry_Int_Tables_number   1
_chemical_formula_structural   Ho2Hf3Sc3(P3Ir4)4
_chemical_formula_sum   'Ho2 Hf3 Sc3 P12 Ir16'
_cell_volume   559.34727122
_cell_formula_units_Z   1
loop_
 _symmetry_equiv_pos_site_id
 _symmetry_equiv_pos_as_xyz
  1  'x, y, z'
loop_
 _atom_site_type_symbol
 _atom_site_label
 _atom_site_symmetry_multiplicity
 _atom_site_fract_x
 _atom_site_fract_y
 _atom_site_fract_z
 _atom_site_occupancy
  Ho  Ho0  1  0.333333  0.666667  0.000000  1
  Ho  Ho1  1  0.666667  0.333333  0.000000  1
  Hf  Hf2  1  0.450267  0.000000  0.000000  1
  Hf  Hf3  1  0.000000  0.450267  0.000000  1
  Hf  Hf4  1  0.549733  0.549733  0.000000  1
  Sc  Sc5  1  0.816890  0.000000  0.500000  1
  Sc  Sc6  1  0.000000  0.816890  0.500000  1
  Sc  Sc7  1  0.183110  0.183110  0.500000  1
  P  P8  1  0.173004  0.000000  0.000000  1
  P  P9  1  0.000000  0.173004  0.000000  1
  P  P10  1  0.826996  0.826996  0.000000  1
  P  P11  1  0.169767  0.482066  0.500000  1
  P  P12  1  0.517934  0.687700  0.500000  1
  P  P13  1  0.312300  0.830233  0.500000  1
  P  P14  1  0.687700  0.517934  0.500000  1
  P  P15  1  0.830233  0.312300  0.500000  1
  P  P16  1  0.482066  0.169767  0.500000  1
  P  P17  1  0.653620  0.000000  0.000000  1
  P  P18  1  0.000000  0.653620  0.000000  1
  P  P19  1  0.346380  0.346380  0.000000  1
  Ir  Ir20  1  0.358726  0.493492  0.500000  1
  Ir  Ir21  1  0.506508  0.865234  0.500000  1
  Ir  Ir22  1  0.134766  0.641274  0.500000  1
  Ir  Ir23  1  0.865234  0.506508  0.500000  1
  Ir  Ir24  1  0.641274  0.134766  0.500000  1
  Ir  Ir25  1  0.493492  0.358726  0.500000  1
  Ir  Ir26  1  0.177329  0.367963  0.000000  1
  Ir  Ir27  1  0.632037  0.809367  0.000000  1
  Ir  Ir28  1  0.190633  0.822671  0.000000  1
  Ir  Ir29  1  0.809367  0.632037  0.000000  1
  Ir  Ir30  1  0.822671  0.190633  0.000000  1
  Ir  Ir31  1  0.367963  0.177329  0.000000  1
  Ir  Ir32  1  0.279323  0.000000  0.500000  1
  Ir  Ir33  1  0.000000  0.279323  0.500000  1
  Ir  Ir34  1  0.720677  0.720677  0.500000  1
  Ir  Ir35  1  0.000000  0.000000  0.000000  1
