# generated using pymatgen
data_Dy15YCd4(NiOs)2
_symmetry_space_group_name_H-M   'P 1'
_cell_length_a   9.58990764
_cell_length_b   9.58990842
_cell_length_c   9.67827400
_cell_angle_alpha   59.69471796
_cell_angle_beta   59.69471524
_cell_angle_gamma   59.53016993
_symmetry_Int_Tables_number   1
_chemical_formula_structural   Dy15YCd4(NiOs)2
_chemical_formula_sum   'Dy15 Y1 Cd4 Ni2 Os2'
_cell_volume   624.22443499
_cell_formula_units_Z   1
loop_
 _symmetry_equiv_pos_site_id
 _symmetry_equiv_pos_as_xyz
  1  'x, y, z'
loop_
 _atom_site_type_symbol
 _atom_site_label
 _atom_site_symmetry_multiplicity
 _atom_site_fract_x
 _atom_site_fract_y
 _atom_site_fract_z
 _atom_site_occupancy
  Dy  Dy0  1  0.600289  0.600289  0.592761  1
  Dy  Dy1  1  0.600289  0.600289  0.206661  1
  Dy  Dy2  1  0.602026  0.205394  0.596289  1
  Dy  Dy3  1  0.205394  0.602026  0.596289  1
  Dy  Dy4  1  0.060741  0.436555  0.440297  1
  Dy  Dy5  1  0.436555  0.060741  0.062407  1
  Dy  Dy6  1  0.436555  0.060741  0.440297  1
  Dy  Dy7  1  0.060741  0.436555  0.062407  1
  Dy  Dy8  1  0.438602  0.438602  0.061398  1
  Dy  Dy9  1  0.059943  0.059943  0.440057  1
  Dy  Dy10  1  0.189198  0.805894  0.816467  1
  Dy  Dy11  1  0.805894  0.189198  0.188441  1
  Dy  Dy12  1  0.805894  0.189198  0.816467  1
  Dy  Dy13  1  0.189198  0.805894  0.188441  1
  Dy  Dy14  1  0.815618  0.815618  0.184382  1
  Y  Y15  1  0.191294  0.191294  0.808706  1
  Cd  Cd16  1  0.829315  0.829315  0.832797  1
  Cd  Cd17  1  0.829315  0.829315  0.508572  1
  Cd  Cd18  1  0.830019  0.506348  0.831815  1
  Cd  Cd19  1  0.506348  0.830019  0.831815  1
  Ni  Ni20  1  0.392471  0.826464  0.390533  1
  Ni  Ni21  1  0.826464  0.392471  0.390533  1
  Os  Os22  1  0.393919  0.393919  0.387887  1
  Os  Os23  1  0.393919  0.393919  0.824277  1
