# generated using pymatgen
data_Zr4Ga2CuRh9
_symmetry_space_group_name_H-M   'P 1'
_cell_length_a   5.55777096
_cell_length_b   5.55777151
_cell_length_c   8.19009500
_cell_angle_alpha   90.00000000
_cell_angle_beta   90.00000000
_cell_angle_gamma   97.98516655
_symmetry_Int_Tables_number   1
_chemical_formula_structural   Zr4Ga2CuRh9
_chemical_formula_sum   'Zr4 Ga2 Cu1 Rh9'
_cell_volume   250.52947897
_cell_formula_units_Z   1
loop_
 _symmetry_equiv_pos_site_id
 _symmetry_equiv_pos_as_xyz
  1  'x, y, z'
loop_
 _atom_site_type_symbol
 _atom_site_label
 _atom_site_symmetry_multiplicity
 _atom_site_fract_x
 _atom_site_fract_y
 _atom_site_fract_z
 _atom_site_occupancy
  Zr  Zr0  1  0.774598  0.225317  0.502642  1
  Zr  Zr1  1  0.225317  0.774598  0.997358  1
  Zr  Zr2  1  0.225317  0.774598  0.502642  1
  Zr  Zr3  1  0.774598  0.225317  0.997358  1
  Ga  Ga4  1  0.502329  0.502329  0.750000  1
  Ga  Ga5  1  0.497642  0.497642  0.250000  1
  Cu  Cu6  1  0.000282  0.000282  0.250000  1
  Rh  Rh7  1  0.723479  0.723479  0.001636  1
  Rh  Rh8  1  0.723479  0.723479  0.498364  1
  Rh  Rh9  1  0.276646  0.276646  0.999660  1
  Rh  Rh10  1  0.276646  0.276646  0.500340  1
  Rh  Rh11  1  0.500044  0.000337  0.750000  1
  Rh  Rh12  1  0.499845  0.999758  0.250000  1
  Rh  Rh13  1  0.999685  0.999685  0.750000  1
  Rh  Rh14  1  0.000337  0.500044  0.750000  1
  Rh  Rh15  1  0.999758  0.499845  0.250000  1
