# generated using pymatgen
data_Lu12Re8Si15P
_symmetry_space_group_name_H-M   'P 1'
_cell_length_a   10.44256715
_cell_length_b   10.44256818
_cell_length_c   14.08760209
_cell_angle_alpha   55.21023633
_cell_angle_beta   55.21023182
_cell_angle_gamma   30.59715366
_symmetry_Int_Tables_number   1
_chemical_formula_structural   Lu12Re8Si15P
_chemical_formula_sum   'Lu12 Re8 Si15 P1'
_cell_volume   630.45845958
_cell_formula_units_Z   1
loop_
 _symmetry_equiv_pos_site_id
 _symmetry_equiv_pos_as_xyz
  1  'x, y, z'
loop_
 _atom_site_type_symbol
 _atom_site_label
 _atom_site_symmetry_multiplicity
 _atom_site_fract_x
 _atom_site_fract_y
 _atom_site_fract_z
 _atom_site_occupancy
  Lu  Lu0  1  0.752578  0.481564  0.049982  1
  Lu  Lu1  1  0.537512  0.304361  0.156105  1
  Lu  Lu2  1  0.518436  0.247422  0.450018  1
  Lu  Lu3  1  0.463124  0.694123  0.845167  1
  Lu  Lu4  1  0.291586  0.038270  0.138938  1
  Lu  Lu5  1  0.961730  0.708414  0.361062  1
  Lu  Lu6  1  0.706786  0.961534  0.861804  1
  Lu  Lu7  1  0.038466  0.293214  0.638196  1
  Lu  Lu8  1  0.248268  0.516086  0.951793  1
  Lu  Lu9  1  0.483914  0.751732  0.548207  1
  Lu  Lu10  1  0.305877  0.536876  0.654833  1
  Lu  Lu11  1  0.695639  0.462488  0.343895  1
  Re  Re12  1  0.643761  0.827745  0.282409  1
  Re  Re13  1  0.827713  0.643293  0.782278  1
  Re  Re14  1  0.356707  0.172287  0.717722  1
  Re  Re15  1  0.172255  0.356239  0.217591  1
  Re  Re16  1  0.137363  0.911350  0.079567  1
  Re  Re17  1  0.088650  0.862637  0.420433  1
  Re  Re18  1  0.860454  0.089679  0.922898  1
  Re  Re19  1  0.910321  0.139546  0.577102  1
  Si  Si20  1  0.099842  0.900158  0.750000  1
  Si  Si21  1  0.344682  0.655318  0.250000  1
  Si  Si22  1  0.652024  0.347976  0.750000  1
  Si  Si23  1  0.000357  0.229506  0.876798  1
  Si  Si24  1  0.770494  0.999643  0.623202  1
  Si  Si25  1  0.000146  0.770199  0.123497  1
  Si  Si26  1  0.229801  0.999854  0.376503  1
  Si  Si27  1  0.605769  0.047041  0.075074  1
  Si  Si28  1  0.952959  0.394231  0.424926  1
  Si  Si29  1  0.394903  0.951770  0.925373  1
  Si  Si30  1  0.048230  0.605097  0.574627  1
  Si  Si31  1  0.386244  0.157287  0.383861  1
  Si  Si32  1  0.842713  0.613756  0.116139  1
  Si  Si33  1  0.613212  0.843238  0.616202  1
  Si  Si34  1  0.156762  0.386788  0.883798  1
  P  P35  1  0.900721  0.099279  0.250000  1
