# generated using pymatgen
data_Gd7Ho(Tm3Pt4)4
_symmetry_space_group_name_H-M   'P 1'
_cell_length_a   7.43234202
_cell_length_b   7.52310228
_cell_length_c   14.63502800
_cell_angle_alpha   89.99750196
_cell_angle_beta   90.00442495
_cell_angle_gamma   90.01546824
_symmetry_Int_Tables_number   1
_chemical_formula_structural   Gd7Ho(Tm3Pt4)4
_chemical_formula_sum   'Gd7 Ho1 Tm12 Pt16'
_cell_volume   818.30686263
_cell_formula_units_Z   1
loop_
 _symmetry_equiv_pos_site_id
 _symmetry_equiv_pos_as_xyz
  1  'x, y, z'
loop_
 _atom_site_type_symbol
 _atom_site_label
 _atom_site_symmetry_multiplicity
 _atom_site_fract_x
 _atom_site_fract_y
 _atom_site_fract_z
 _atom_site_occupancy
  Gd  Gd0  1  0.499940  0.678324  0.592683  1
  Gd  Gd1  1  0.000635  0.821355  0.906496  1
  Gd  Gd2  1  0.500104  0.321800  0.094634  1
  Gd  Gd3  1  0.001427  0.177058  0.407042  1
  Gd  Gd4  1  0.501187  0.322030  0.406526  1
  Gd  Gd5  1  0.000113  0.178051  0.094638  1
  Gd  Gd6  1  0.500669  0.679281  0.906215  1
  Ho  Ho7  1  0.000856  0.820966  0.592887  1
  Tm  Tm8  1  0.656661  0.166830  0.621516  1
  Tm  Tm9  1  0.155583  0.332903  0.877022  1
  Tm  Tm10  1  0.344230  0.832944  0.123098  1
  Tm  Tm11  1  0.844109  0.666632  0.377792  1
  Tm  Tm12  1  0.343642  0.833509  0.377529  1
  Tm  Tm13  1  0.844035  0.666872  0.123300  1
  Tm  Tm14  1  0.655805  0.167085  0.876998  1
  Tm  Tm15  1  0.156226  0.333063  0.621988  1
  Tm  Tm16  1  0.818915  0.509022  0.748942  1
  Tm  Tm17  1  0.319104  0.990897  0.748673  1
  Tm  Tm18  1  0.181044  0.491129  0.251101  1
  Tm  Tm19  1  0.680629  0.008809  0.251049  1
  Pt  Pt20  1  0.682275  0.963440  0.458063  1
  Pt  Pt21  1  0.180952  0.534612  0.043406  1
  Pt  Pt22  1  0.318658  0.035606  0.958235  1
  Pt  Pt23  1  0.820354  0.466544  0.542335  1
  Pt  Pt24  1  0.315533  0.034039  0.541614  1
  Pt  Pt25  1  0.819260  0.465059  0.957940  1
  Pt  Pt26  1  0.681364  0.965506  0.043319  1
  Pt  Pt27  1  0.180896  0.536497  0.457728  1
  Pt  Pt28  1  0.452829  0.380700  0.748996  1
  Pt  Pt29  1  0.953811  0.118453  0.748413  1
  Pt  Pt30  1  0.546108  0.619397  0.250881  1
  Pt  Pt31  1  0.045759  0.880442  0.250820  1
  Pt  Pt32  1  0.684701  0.859291  0.747959  1
  Pt  Pt33  1  0.181560  0.642107  0.747638  1
  Pt  Pt34  1  0.315495  0.140985  0.251246  1
  Pt  Pt35  1  0.815536  0.358766  0.251279  1
