# generated using pymatgen
data_Ba3Tm2IrO9
_symmetry_space_group_name_H-M   'P 1'
_cell_length_a   6.02546406
_cell_length_b   8.52400906
_cell_length_c   10.42130478
_cell_angle_alpha   65.85982939
_cell_angle_beta   73.19630831
_cell_angle_gamma   89.99999342
_symmetry_Int_Tables_number   1
_chemical_formula_structural   Ba3Tm2IrO9
_chemical_formula_sum   'Ba6 Tm4 Ir2 O18'
_cell_volume   463.28280090
_cell_formula_units_Z   2
loop_
 _symmetry_equiv_pos_site_id
 _symmetry_equiv_pos_as_xyz
  1  'x, y, z'
loop_
 _atom_site_type_symbol
 _atom_site_label
 _atom_site_symmetry_multiplicity
 _atom_site_fract_x
 _atom_site_fract_y
 _atom_site_fract_z
 _atom_site_occupancy
  Ba  Ba0  1  0.500000  0.260844  0.000000  1
  Ba  Ba1  1  0.837859  0.580469  0.324283  1
  Ba  Ba2  1  0.162141  0.904753  0.675717  1
  Ba  Ba3  1  0.500000  0.739156  0.000000  1
  Ba  Ba4  1  0.837859  0.095247  0.324283  1
  Ba  Ba5  1  0.162141  0.419531  0.675717  1
  Tm  Tm6  1  0.000000  0.000000  0.000000  1
  Tm  Tm7  1  0.329672  0.329672  0.340655  1
  Tm  Tm8  1  0.670328  0.670328  0.659345  1
  Tm  Tm9  1  0.000000  0.500000  0.000000  1
  Ir  Ir10  1  0.334448  0.834448  0.331101  1
  Ir  Ir11  1  0.665552  0.165552  0.668899  1
  O  O12  1  0.000000  0.246695  0.000000  1
  O  O13  1  0.331238  0.599341  0.337521  1
  O  O14  1  0.668762  0.936863  0.662479  1
  O  O15  1  0.161959  0.411154  0.177693  1
  O  O16  1  0.492207  0.759029  0.481941  1
  O  O17  1  0.819322  0.088228  0.823544  1
  O  O18  1  0.339652  0.588846  0.822307  1
  O  O19  1  0.642866  0.911772  0.176456  1
  O  O20  1  0.974149  0.240971  0.518059  1
  O  O21  1  0.000000  0.753305  0.000000  1
  O  O22  1  0.331238  0.063137  0.337521  1
  O  O23  1  0.668762  0.400659  0.662479  1
  O  O24  1  0.838041  0.588846  0.822307  1
  O  O25  1  0.180678  0.911772  0.176456  1
  O  O26  1  0.507793  0.240971  0.518059  1
  O  O27  1  0.660348  0.411154  0.177693  1
  O  O28  1  0.025851  0.759029  0.481941  1
  O  O29  1  0.357134  0.088228  0.823544  1
