# generated using pymatgen
data_Ho2Lu4ScCo17P12
_symmetry_space_group_name_H-M   'P 1'
_cell_length_a   3.68065000
_cell_length_b   10.52588600
_cell_length_c   12.19395500
_cell_angle_alpha   90.00000000
_cell_angle_beta   90.00000000
_cell_angle_gamma   90.00000000
_symmetry_Int_Tables_number   1
_chemical_formula_structural   Ho2Lu4ScCo17P12
_chemical_formula_sum   'Ho2 Lu4 Sc1 Co17 P12'
_cell_volume   472.41945212
_cell_formula_units_Z   1
loop_
 _symmetry_equiv_pos_site_id
 _symmetry_equiv_pos_as_xyz
  1  'x, y, z'
loop_
 _atom_site_type_symbol
 _atom_site_label
 _atom_site_symmetry_multiplicity
 _atom_site_fract_x
 _atom_site_fract_y
 _atom_site_fract_z
 _atom_site_occupancy
  Ho  Ho0  1  0.000000  0.500000  0.528197  1
  Ho  Ho1  1  0.500000  0.000000  0.477236  1
  Lu  Lu2  1  0.500000  0.822187  0.207464  1
  Lu  Lu3  1  0.500000  0.177813  0.207464  1
  Lu  Lu4  1  0.000000  0.681979  0.795554  1
  Lu  Lu5  1  0.000000  0.318021  0.795554  1
  Sc  Sc6  1  0.500000  0.500000  0.152788  1
  Co  Co7  1  0.000000  0.500000  0.983918  1
  Co  Co8  1  0.500000  0.000000  0.013778  1
  Co  Co9  1  0.500000  0.294519  0.433939  1
  Co  Co10  1  0.500000  0.705481  0.433939  1
  Co  Co11  1  0.000000  0.201996  0.570904  1
  Co  Co12  1  0.000000  0.798004  0.570904  1
  Co  Co13  1  0.500000  0.879375  0.708230  1
  Co  Co14  1  0.500000  0.120625  0.708230  1
  Co  Co15  1  0.000000  0.623740  0.295357  1
  Co  Co16  1  0.000000  0.376260  0.295357  1
  Co  Co17  1  0.500000  0.326674  0.989180  1
  Co  Co18  1  0.500000  0.673326  0.989180  1
  Co  Co19  1  0.000000  0.162412  0.001752  1
  Co  Co20  1  0.000000  0.837588  0.001752  1
  Co  Co21  1  0.000000  0.000000  0.837239  1
  Co  Co22  1  0.500000  0.500000  0.704014  1
  Co  Co23  1  0.000000  0.000000  0.295231  1
  P  P24  1  0.500000  0.310075  0.619040  1
  P  P25  1  0.500000  0.689925  0.619040  1
  P  P26  1  0.000000  0.187845  0.384896  1
  P  P27  1  0.000000  0.812155  0.384896  1
  P  P28  1  0.500000  0.500000  0.881988  1
  P  P29  1  0.000000  0.000000  0.117289  1
  P  P30  1  0.500000  0.850694  0.888197  1
  P  P31  1  0.500000  0.149306  0.888197  1
  P  P32  1  0.000000  0.664406  0.103144  1
  P  P33  1  0.000000  0.335594  0.103144  1
  P  P34  1  0.500000  0.500000  0.358733  1
  P  P35  1  0.000000  0.000000  0.654273  1
