# generated using pymatgen
data_PuNF
_symmetry_space_group_name_H-M   'P 1'
_cell_length_a   6.99107810
_cell_length_b   6.99107858
_cell_length_c   6.99107740
_cell_angle_alpha   31.85797122
_cell_angle_beta   31.85796940
_cell_angle_gamma   31.85797728
_symmetry_Int_Tables_number   1
_chemical_formula_structural   PuNF
_chemical_formula_sum   'Pu2 N2 F2'
_cell_volume   84.55789834
_cell_formula_units_Z   2
loop_
 _symmetry_equiv_pos_site_id
 _symmetry_equiv_pos_as_xyz
  1  'x, y, z'
loop_
 _atom_site_type_symbol
 _atom_site_label
 _atom_site_symmetry_multiplicity
 _atom_site_fract_x
 _atom_site_fract_y
 _atom_site_fract_z
 _atom_site_occupancy
  Pu  Pu0  1  0.737065  0.737065  0.737065  1
  Pu  Pu1  1  0.262935  0.262935  0.262935  1
  N  N2  1  0.626523  0.626523  0.626523  1
  N  N3  1  0.373477  0.373477  0.373477  1
  F  F4  1  0.128567  0.128567  0.128567  1
  F  F5  1  0.871433  0.871433  0.871433  1
