# generated using pymatgen
data_SrGa3CoIr
_symmetry_space_group_name_H-M   'P 1'
_cell_length_a   6.45123319
_cell_length_b   6.45123391
_cell_length_c   5.50056845
_cell_angle_alpha   89.94957782
_cell_angle_beta   90.05042105
_cell_angle_gamma   74.89811111
_symmetry_Int_Tables_number   1
_chemical_formula_structural   SrGa3CoIr
_chemical_formula_sum   'Sr2 Ga6 Co2 Ir2'
_cell_volume   221.01856327
_cell_formula_units_Z   2
loop_
 _symmetry_equiv_pos_site_id
 _symmetry_equiv_pos_as_xyz
  1  'x, y, z'
loop_
 _atom_site_type_symbol
 _atom_site_label
 _atom_site_symmetry_multiplicity
 _atom_site_fract_x
 _atom_site_fract_y
 _atom_site_fract_z
 _atom_site_occupancy
  Sr  Sr0  1  0.340850  0.659150  0.243082  1
  Sr  Sr1  1  0.659150  0.340850  0.756918  1
  Ga  Ga2  1  0.939286  0.060714  0.263628  1
  Ga  Ga3  1  0.524172  0.081007  0.265364  1
  Ga  Ga4  1  0.918993  0.475828  0.265364  1
  Ga  Ga5  1  0.081007  0.524172  0.734636  1
  Ga  Ga6  1  0.475828  0.918993  0.734636  1
  Ga  Ga7  1  0.060714  0.939286  0.736372  1
  Co  Co8  1  0.198647  0.198647  0.499999  1
  Co  Co9  1  0.801353  0.801353  0.499999  1
  Ir  Ir10  1  0.199411  0.199411  0.000000  1
  Ir  Ir11  1  0.800589  0.800589  0.000000  1
