# generated using pymatgen
data_Yb3Si6Pd19Pt
_symmetry_space_group_name_H-M   'P 1'
_cell_length_a   8.72028383
_cell_length_b   8.72028441
_cell_length_c   8.72028424
_cell_angle_alpha   59.80342921
_cell_angle_beta   59.80342834
_cell_angle_gamma   59.80342994
_symmetry_Int_Tables_number   1
_chemical_formula_structural   Yb3Si6Pd19Pt
_chemical_formula_sum   'Yb3 Si6 Pd19 Pt1'
_cell_volume   466.80409208
_cell_formula_units_Z   1
loop_
 _symmetry_equiv_pos_site_id
 _symmetry_equiv_pos_as_xyz
  1  'x, y, z'
loop_
 _atom_site_type_symbol
 _atom_site_label
 _atom_site_symmetry_multiplicity
 _atom_site_fract_x
 _atom_site_fract_y
 _atom_site_fract_z
 _atom_site_occupancy
  Yb  Yb0  1  0.249759  0.249759  0.249759  1
  Yb  Yb1  1  0.749827  0.749827  0.749827  1
  Yb  Yb2  1  0.999953  0.999953  0.999953  1
  Si  Si3  1  0.729819  0.269609  0.269609  1
  Si  Si4  1  0.268823  0.731471  0.731471  1
  Si  Si5  1  0.269609  0.729819  0.269609  1
  Si  Si6  1  0.731471  0.268823  0.731471  1
  Si  Si7  1  0.269609  0.269609  0.729819  1
  Si  Si8  1  0.731471  0.731471  0.268823  1
  Pd  Pd9  1  0.616664  0.616664  0.616664  1
  Pd  Pd10  1  0.383360  0.383360  0.849594  1
  Pd  Pd11  1  0.383360  0.849594  0.383360  1
  Pd  Pd12  1  0.618002  0.618002  0.149286  1
  Pd  Pd13  1  0.618002  0.149286  0.618002  1
  Pd  Pd14  1  0.849594  0.383360  0.383360  1
  Pd  Pd15  1  0.149286  0.618002  0.618002  1
  Pd  Pd16  1  0.343778  0.999725  0.999725  1
  Pd  Pd17  1  0.655851  0.999679  0.999679  1
  Pd  Pd18  1  0.999834  0.343155  0.656290  1
  Pd  Pd19  1  0.999834  0.656290  0.343155  1
  Pd  Pd20  1  0.999725  0.343778  0.999725  1
  Pd  Pd21  1  0.656290  0.999834  0.343155  1
  Pd  Pd22  1  0.999679  0.655851  0.999679  1
  Pd  Pd23  1  0.343155  0.999834  0.656290  1
  Pd  Pd24  1  0.999725  0.999725  0.343778  1
  Pd  Pd25  1  0.999679  0.999679  0.655851  1
  Pd  Pd26  1  0.656290  0.343155  0.999834  1
  Pd  Pd27  1  0.343155  0.656290  0.999834  1
  Pt  Pt28  1  0.384393  0.384393  0.384393  1
