# generated using pymatgen
data_Cs2LaCe(HgSe3)2
_symmetry_space_group_name_H-M   'P 1'
_cell_length_a   4.46473600
_cell_length_b   8.43055349
_cell_length_c   11.50779872
_cell_angle_alpha   89.79993825
_cell_angle_beta   90.00000000
_cell_angle_gamma   74.64522383
_symmetry_Int_Tables_number   1
_chemical_formula_structural   Cs2LaCe(HgSe3)2
_chemical_formula_sum   'Cs2 La1 Ce1 Hg2 Se6'
_cell_volume   417.69143472
_cell_formula_units_Z   1
loop_
 _symmetry_equiv_pos_site_id
 _symmetry_equiv_pos_as_xyz
  1  'x, y, z'
loop_
 _atom_site_type_symbol
 _atom_site_label
 _atom_site_symmetry_multiplicity
 _atom_site_fract_x
 _atom_site_fract_y
 _atom_site_fract_z
 _atom_site_occupancy
  Cs  Cs0  1  0.256443  0.487117  0.249970  1
  Cs  Cs1  1  0.743558  0.512882  0.750030  1
  La  La2  1  0.000000  0.000000  0.500000  1
  Ce  Ce3  1  0.000000  0.000000  0.000000  1
  Hg  Hg4  1  0.542453  0.915092  0.249713  1
  Hg  Hg5  1  0.457548  0.084907  0.750287  1
  Se  Se6  1  0.620255  0.759489  0.048250  1
  Se  Se7  1  0.938414  0.123169  0.247676  1
  Se  Se8  1  0.622632  0.754735  0.449724  1
  Se  Se9  1  0.377368  0.245266  0.550277  1
  Se  Se10  1  0.061587  0.876831  0.752324  1
  Se  Se11  1  0.379745  0.240512  0.951749  1
