# generated using pymatgen
data_Zr2Nb3ZnSn3
_symmetry_space_group_name_H-M   'P 1'
_cell_length_a   8.46958850
_cell_length_b   8.48629334
_cell_length_c   5.73601500
_cell_angle_alpha   90.00000000
_cell_angle_beta   90.00000000
_cell_angle_gamma   120.06526240
_symmetry_Int_Tables_number   1
_chemical_formula_structural   Zr2Nb3ZnSn3
_chemical_formula_sum   'Zr4 Nb6 Zn2 Sn6'
_cell_volume   356.80857256
_cell_formula_units_Z   2
loop_
 _symmetry_equiv_pos_site_id
 _symmetry_equiv_pos_as_xyz
  1  'x, y, z'
loop_
 _atom_site_type_symbol
 _atom_site_label
 _atom_site_symmetry_multiplicity
 _atom_site_fract_x
 _atom_site_fract_y
 _atom_site_fract_z
 _atom_site_occupancy
  Zr  Zr0  1  0.000000  0.277324  0.750000  1
  Zr  Zr1  1  0.263369  0.263510  0.250000  1
  Zr  Zr2  1  0.736631  0.000142  0.250000  1
  Zr  Zr3  1  0.000000  0.731096  0.250000  1
  Nb  Nb4  1  0.666494  0.333467  0.999219  1
  Nb  Nb5  1  0.333506  0.666974  0.999219  1
  Nb  Nb6  1  0.333506  0.666974  0.500781  1
  Nb  Nb7  1  0.666494  0.333467  0.500781  1
  Nb  Nb8  1  0.720653  0.725899  0.750000  1
  Nb  Nb9  1  0.279347  0.005246  0.750000  1
  Zn  Zn10  1  0.000000  0.994409  0.982512  1
  Zn  Zn11  1  0.000000  0.994409  0.517488  1
  Sn  Sn12  1  0.387965  0.386292  0.750000  1
  Sn  Sn13  1  0.612035  0.998327  0.750000  1
  Sn  Sn14  1  0.000000  0.623108  0.750000  1
  Sn  Sn15  1  0.610550  0.610641  0.250000  1
  Sn  Sn16  1  0.389450  0.000091  0.250000  1
  Sn  Sn17  1  0.000000  0.388625  0.250000  1
