# generated using pymatgen
data_PuScCrB6
_symmetry_space_group_name_H-M   'P 1'
_cell_length_a   3.50124100
_cell_length_b   8.98588000
_cell_length_c   11.33337700
_cell_angle_alpha   90.00000000
_cell_angle_beta   90.00000000
_cell_angle_gamma   90.00000000
_symmetry_Int_Tables_number   1
_chemical_formula_structural   PuScCrB6
_chemical_formula_sum   'Pu4 Sc4 Cr4 B24'
_cell_volume   356.56766390
_cell_formula_units_Z   4
loop_
 _symmetry_equiv_pos_site_id
 _symmetry_equiv_pos_as_xyz
  1  'x, y, z'
loop_
 _atom_site_type_symbol
 _atom_site_label
 _atom_site_symmetry_multiplicity
 _atom_site_fract_x
 _atom_site_fract_y
 _atom_site_fract_z
 _atom_site_occupancy
  Pu  Pu0  1  0.000000  0.820689  0.085807  1
  Pu  Pu1  1  0.000000  0.179311  0.914193  1
  Pu  Pu2  1  0.000000  0.320689  0.414193  1
  Pu  Pu3  1  0.000000  0.679311  0.585807  1
  Sc  Sc4  1  0.000000  0.444149  0.129190  1
  Sc  Sc5  1  0.000000  0.555851  0.870810  1
  Sc  Sc6  1  0.000000  0.944149  0.370810  1
  Sc  Sc7  1  0.000000  0.055851  0.629190  1
  Cr  Cr8  1  0.000000  0.141031  0.180919  1
  Cr  Cr9  1  0.000000  0.858969  0.819081  1
  Cr  Cr10  1  0.000000  0.641031  0.319081  1
  Cr  Cr11  1  0.000000  0.358969  0.680919  1
  B  B12  1  0.500000  0.054358  0.067325  1
  B  B13  1  0.500000  0.945642  0.932675  1
  B  B14  1  0.500000  0.554358  0.432675  1
  B  B15  1  0.500000  0.445642  0.567325  1
  B  B16  1  0.500000  0.252154  0.082036  1
  B  B17  1  0.500000  0.747846  0.917964  1
  B  B18  1  0.500000  0.752154  0.417964  1
  B  B19  1  0.500000  0.247846  0.582036  1
  B  B20  1  0.500000  0.294230  0.235782  1
  B  B21  1  0.500000  0.705770  0.764218  1
  B  B22  1  0.500000  0.794230  0.264218  1
  B  B23  1  0.500000  0.205770  0.735782  1
  B  B24  1  0.500000  0.130161  0.316698  1
  B  B25  1  0.500000  0.869839  0.683302  1
  B  B26  1  0.500000  0.630161  0.183302  1
  B  B27  1  0.500000  0.369839  0.816698  1
  B  B28  1  0.500000  0.482592  0.287033  1
  B  B29  1  0.500000  0.517408  0.712967  1
  B  B30  1  0.500000  0.982592  0.212967  1
  B  B31  1  0.500000  0.017408  0.787033  1
  B  B32  1  0.500000  0.099142  0.473074  1
  B  B33  1  0.500000  0.900858  0.526926  1
  B  B34  1  0.500000  0.599142  0.026926  1
  B  B35  1  0.500000  0.400858  0.973074  1
