# generated using pymatgen
data_Th2Al20Re3Pd
_symmetry_space_group_name_H-M   'P 1'
_cell_length_a   6.95378353
_cell_length_b   6.94169637
_cell_length_c   9.26394757
_cell_angle_alpha   90.59605577
_cell_angle_beta   90.46176129
_cell_angle_gamma   97.17143945
_symmetry_Int_Tables_number   1
_chemical_formula_structural   Th2Al20Re3Pd
_chemical_formula_sum   'Th2 Al20 Re3 Pd1'
_cell_volume   443.63849900
_cell_formula_units_Z   1
loop_
 _symmetry_equiv_pos_site_id
 _symmetry_equiv_pos_as_xyz
  1  'x, y, z'
loop_
 _atom_site_type_symbol
 _atom_site_label
 _atom_site_symmetry_multiplicity
 _atom_site_fract_x
 _atom_site_fract_y
 _atom_site_fract_z
 _atom_site_occupancy
  Th  Th0  1  0.864042  0.123485  0.752876  1
  Th  Th1  1  0.135958  0.876515  0.247124  1
  Al  Al2  1  0.514271  0.780114  0.747910  1
  Al  Al3  1  0.485729  0.219886  0.252090  1
  Al  Al4  1  0.595606  0.859322  0.249319  1
  Al  Al5  1  0.775357  0.775845  0.998286  1
  Al  Al6  1  0.160526  0.842562  0.604118  1
  Al  Al7  1  0.224643  0.224155  0.001714  1
  Al  Al8  1  0.145163  0.408882  0.248532  1
  Al  Al9  1  0.621352  0.377456  0.955788  1
  Al  Al10  1  0.841799  0.160781  0.102724  1
  Al  Al11  1  0.383879  0.623473  0.449431  1
  Al  Al12  1  0.158201  0.839219  0.897276  1
  Al  Al13  1  0.220225  0.481243  0.756230  1
  Al  Al14  1  0.378648  0.622544  0.044212  1
  Al  Al15  1  0.839474  0.157438  0.395882  1
  Al  Al16  1  0.616121  0.376527  0.550569  1
  Al  Al17  1  0.404394  0.140678  0.750681  1
  Al  Al18  1  0.779775  0.518757  0.243770  1
  Al  Al19  1  0.772856  0.775230  0.500983  1
  Al  Al20  1  0.227144  0.224770  0.499017  1
  Al  Al21  1  0.854837  0.591118  0.751468  1
  Re  Re22  1  0.000000  0.500000  0.000000  1
  Re  Re23  1  0.500000  0.000000  0.000000  1
  Re  Re24  1  0.500000  0.000000  0.500000  1
  Pd  Pd25  1  0.000000  0.500000  0.500000  1
