# generated using pymatgen
data_V10Ga3SiTc2
_symmetry_space_group_name_H-M   'P 1'
_cell_length_a   4.74715000
_cell_length_b   4.80890000
_cell_length_c   9.51337600
_cell_angle_alpha   90.00000000
_cell_angle_beta   90.00000000
_cell_angle_gamma   90.00000000
_symmetry_Int_Tables_number   1
_chemical_formula_structural   V10Ga3SiTc2
_chemical_formula_sum   'V10 Ga3 Si1 Tc2'
_cell_volume   217.17676648
_cell_formula_units_Z   1
loop_
 _symmetry_equiv_pos_site_id
 _symmetry_equiv_pos_as_xyz
  1  'x, y, z'
loop_
 _atom_site_type_symbol
 _atom_site_label
 _atom_site_symmetry_multiplicity
 _atom_site_fract_x
 _atom_site_fract_y
 _atom_site_fract_z
 _atom_site_occupancy
  V  V0  1  0.500000  0.997634  0.379435  1
  V  V1  1  0.500000  0.994415  0.876098  1
  V  V2  1  0.751462  0.506021  0.000000  1
  V  V3  1  0.755153  0.499232  0.500000  1
  V  V4  1  0.500000  0.994415  0.123902  1
  V  V5  1  0.500000  0.997634  0.620565  1
  V  V6  1  0.248538  0.506021  0.000000  1
  V  V7  1  0.244847  0.499232  0.500000  1
  V  V8  1  0.000000  0.245870  0.256233  1
  V  V9  1  0.000000  0.245870  0.743767  1
  Ga  Ga10  1  0.500000  0.493767  0.250224  1
  Ga  Ga11  1  0.500000  0.493767  0.749776  1
  Ga  Ga12  1  0.000000  0.007364  0.000000  1
  Si  Si13  1  0.000000  0.004703  0.500000  1
  Tc  Tc14  1  0.000000  0.757027  0.253859  1
  Tc  Tc15  1  0.000000  0.757027  0.746141  1
