# generated using pymatgen
data_Ce4MnSi4Ru3
_symmetry_space_group_name_H-M   'P 1'
_cell_length_a   7.35144389
_cell_length_b   4.38569300
_cell_length_c   6.61872877
_cell_angle_alpha   90.00000000
_cell_angle_beta   90.19244687
_cell_angle_gamma   90.00000000
_symmetry_Int_Tables_number   1
_chemical_formula_structural   Ce4MnSi4Ru3
_chemical_formula_sum   'Ce4 Mn1 Si4 Ru3'
_cell_volume   213.39439560
_cell_formula_units_Z   1
loop_
 _symmetry_equiv_pos_site_id
 _symmetry_equiv_pos_as_xyz
  1  'x, y, z'
loop_
 _atom_site_type_symbol
 _atom_site_label
 _atom_site_symmetry_multiplicity
 _atom_site_fract_x
 _atom_site_fract_y
 _atom_site_fract_z
 _atom_site_occupancy
  Ce  Ce0  1  0.477113  0.749999  0.162028  1
  Ce  Ce1  1  0.976097  0.749999  0.331465  1
  Ce  Ce2  1  0.017771  0.250000  0.668240  1
  Ce  Ce3  1  0.527056  0.250000  0.843255  1
  Mn  Mn4  1  0.862031  0.250000  0.065233  1
  Si  Si5  1  0.184113  0.250000  0.113818  1
  Si  Si6  1  0.692127  0.250000  0.378944  1
  Si  Si7  1  0.310687  0.749999  0.611613  1
  Si  Si8  1  0.809569  0.749999  0.894629  1
  Ru  Ru9  1  0.362183  0.250000  0.432564  1
  Ru  Ru10  1  0.640769  0.749999  0.565359  1
  Ru  Ru11  1  0.140487  0.749999  0.932858  1
