# generated using pymatgen
data_ScTa5(GaRu2)6
_symmetry_space_group_name_H-M   'P 1'
_cell_length_a   4.39228000
_cell_length_b   6.23025600
_cell_length_c   13.14579600
_cell_angle_alpha   90.00084144
_cell_angle_beta   89.99775803
_cell_angle_gamma   89.99924466
_symmetry_Int_Tables_number   1
_chemical_formula_structural   ScTa5(GaRu2)6
_chemical_formula_sum   'Sc1 Ta5 Ga6 Ru12'
_cell_volume   359.73508628
_cell_formula_units_Z   1
loop_
 _symmetry_equiv_pos_site_id
 _symmetry_equiv_pos_as_xyz
  1  'x, y, z'
loop_
 _atom_site_type_symbol
 _atom_site_label
 _atom_site_symmetry_multiplicity
 _atom_site_fract_x
 _atom_site_fract_y
 _atom_site_fract_z
 _atom_site_occupancy
  Sc  Sc0  1  0.000000  0.500000  0.000000  1
  Ta  Ta1  1  0.499864  0.999998  0.164737  1
  Ta  Ta2  1  0.999862  0.500002  0.332019  1
  Ta  Ta3  1  0.500000  0.000000  0.500000  1
  Ta  Ta4  1  0.000138  0.499998  0.667980  1
  Ta  Ta5  1  0.500136  0.000002  0.835263  1
  Ga  Ga6  1  0.000000  0.000000  0.000000  1
  Ga  Ga7  1  0.499843  0.500003  0.164996  1
  Ga  Ga8  1  0.999843  0.999999  0.332874  1
  Ga  Ga9  1  0.500000  0.500000  0.500000  1
  Ga  Ga10  1  0.000156  0.000001  0.667126  1
  Ga  Ga11  1  0.500156  0.499997  0.835004  1
  Ru  Ru12  1  0.500097  0.244639  0.999998  1
  Ru  Ru13  1  0.499903  0.755360  0.000002  1
  Ru  Ru14  1  0.999919  0.246813  0.169771  1
  Ru  Ru15  1  0.999833  0.753185  0.169774  1
  Ru  Ru16  1  0.499803  0.250831  0.334207  1
  Ru  Ru17  1  0.499938  0.749166  0.334205  1
  Ru  Ru18  1  0.000047  0.249304  0.500001  1
  Ru  Ru19  1  0.999953  0.750695  0.499999  1
  Ru  Ru20  1  0.500064  0.250833  0.665794  1
  Ru  Ru21  1  0.500199  0.749168  0.665792  1
  Ru  Ru22  1  0.000169  0.246814  0.830227  1
  Ru  Ru23  1  0.000083  0.753186  0.830230  1
