# generated using pymatgen
data_Er4TaOs7
_symmetry_space_group_name_H-M   'P 1'
_cell_length_a   5.28137866
_cell_length_b   5.28137951
_cell_length_c   8.91919000
_cell_angle_alpha   90.00000000
_cell_angle_beta   90.00000000
_cell_angle_gamma   117.35234956
_symmetry_Int_Tables_number   1
_chemical_formula_structural   Er4TaOs7
_chemical_formula_sum   'Er4 Ta1 Os7'
_cell_volume   220.96820811
_cell_formula_units_Z   1
loop_
 _symmetry_equiv_pos_site_id
 _symmetry_equiv_pos_as_xyz
  1  'x, y, z'
loop_
 _atom_site_type_symbol
 _atom_site_label
 _atom_site_symmetry_multiplicity
 _atom_site_fract_x
 _atom_site_fract_y
 _atom_site_fract_z
 _atom_site_occupancy
  Er  Er0  1  0.328893  0.671107  0.439888  1
  Er  Er1  1  0.666973  0.333027  0.568872  1
  Er  Er2  1  0.666973  0.333027  0.931128  1
  Er  Er3  1  0.328893  0.671107  0.060112  1
  Ta  Ta4  1  0.837049  0.162951  0.250000  1
  Os  Os5  1  0.997375  0.002625  0.505767  1
  Os  Os6  1  0.997375  0.002625  0.994233  1
  Os  Os7  1  0.822545  0.652315  0.250000  1
  Os  Os8  1  0.347685  0.177455  0.250000  1
  Os  Os9  1  0.174854  0.825146  0.750000  1
  Os  Os10  1  0.174180  0.342795  0.750000  1
  Os  Os11  1  0.657205  0.825820  0.750000  1
