# generated using pymatgen
data_DyY5(SiNi3)4
_symmetry_space_group_name_H-M   'P 1'
_cell_length_a   7.61568691
_cell_length_b   7.61568703
_cell_length_c   7.61568725
_cell_angle_alpha   109.40556260
_cell_angle_beta   109.50406191
_cell_angle_gamma   109.50405928
_symmetry_Int_Tables_number   1
_chemical_formula_structural   DyY5(SiNi3)4
_chemical_formula_sum   'Dy1 Y5 Si4 Ni12'
_cell_volume   340.02037466
_cell_formula_units_Z   1
loop_
 _symmetry_equiv_pos_site_id
 _symmetry_equiv_pos_as_xyz
  1  'x, y, z'
loop_
 _atom_site_type_symbol
 _atom_site_label
 _atom_site_symmetry_multiplicity
 _atom_site_fract_x
 _atom_site_fract_y
 _atom_site_fract_z
 _atom_site_occupancy
  Dy  Dy0  1  0.000000  0.287000  0.287000  1
  Y  Y1  1  0.000000  0.714965  0.714965  1
  Y  Y2  1  0.284982  0.999893  0.284875  1
  Y  Y3  1  0.715018  0.999893  0.714911  1
  Y  Y4  1  0.284982  0.284875  0.999893  1
  Y  Y5  1  0.715018  0.714911  0.999893  1
  Si  Si6  1  0.500317  0.500155  0.500155  1
  Si  Si7  1  0.000000  0.999838  0.500155  1
  Si  Si8  1  0.000000  0.500155  0.999838  1
  Si  Si9  1  0.499683  0.999838  0.999838  1
  Ni  Ni10  1  0.660566  0.330019  0.330019  1
  Ni  Ni11  1  0.339434  0.669454  0.669454  1
  Ni  Ni12  1  0.000000  0.330019  0.669454  1
  Ni  Ni13  1  0.000000  0.669454  0.330019  1
  Ni  Ni14  1  0.329309  0.658974  0.329664  1
  Ni  Ni15  1  0.670691  0.000354  0.329664  1
  Ni  Ni16  1  0.669891  0.340110  0.670220  1
  Ni  Ni17  1  0.330109  0.000329  0.670220  1
  Ni  Ni18  1  0.329309  0.329664  0.658974  1
  Ni  Ni19  1  0.669891  0.670220  0.340110  1
  Ni  Ni20  1  0.670691  0.329664  0.000354  1
  Ni  Ni21  1  0.330109  0.670220  0.000329  1
