# generated using pymatgen
data_DyTm3(Co3Si5)2
_symmetry_space_group_name_H-M   'P 1'
_cell_length_a   7.81430985
_cell_length_b   7.81544523
_cell_length_c   5.48520039
_cell_angle_alpha   70.78263560
_cell_angle_beta   70.80653121
_cell_angle_gamma   93.35918676
_symmetry_Int_Tables_number   1
_chemical_formula_structural   DyTm3(Co3Si5)2
_chemical_formula_sum   'Dy1 Tm3 Co6 Si10'
_cell_volume   293.47089531
_cell_formula_units_Z   1
loop_
 _symmetry_equiv_pos_site_id
 _symmetry_equiv_pos_as_xyz
  1  'x, y, z'
loop_
 _atom_site_type_symbol
 _atom_site_label
 _atom_site_symmetry_multiplicity
 _atom_site_fract_x
 _atom_site_fract_y
 _atom_site_fract_z
 _atom_site_occupancy
  Dy  Dy0  1  0.597658  0.869602  0.263603  1
  Tm  Tm1  1  0.869607  0.597484  0.764071  1
  Tm  Tm2  1  0.402412  0.130440  0.735802  1
  Tm  Tm3  1  0.130223  0.402591  0.235994  1
  Co  Co4  1  0.538528  0.262143  0.125918  1
  Co  Co5  1  0.996957  0.003722  0.249829  1
  Co  Co6  1  0.261241  0.538296  0.626590  1
  Co  Co7  1  0.460821  0.737869  0.874451  1
  Co  Co8  1  0.738615  0.461349  0.373919  1
  Co  Co9  1  0.003820  0.996537  0.749942  1
  Si  Si10  1  0.770378  0.230261  0.749462  1
  Si  Si11  1  0.229007  0.770103  0.250249  1
  Si  Si12  1  0.511345  0.488180  0.750157  1
  Si  Si13  1  0.488250  0.510606  0.250381  1
  Si  Si14  1  0.214355  0.785368  0.749928  1
  Si  Si15  1  0.785681  0.215215  0.250072  1
  Si  Si16  1  0.064641  0.262337  0.834518  1
  Si  Si17  1  0.262156  0.065032  0.334445  1
  Si  Si18  1  0.936185  0.737205  0.165462  1
  Si  Si19  1  0.738122  0.935661  0.665206  1
