# generated using pymatgen
data_ZrBe8Re2W
_symmetry_space_group_name_H-M   'P 1'
_cell_length_a   4.47742600
_cell_length_b   4.47742679
_cell_length_c   7.48048200
_cell_angle_alpha   90.00000000
_cell_angle_beta   90.00000000
_cell_angle_gamma   120.00000890
_symmetry_Int_Tables_number   1
_chemical_formula_structural   ZrBe8Re2W
_chemical_formula_sum   'Zr1 Be8 Re2 W1'
_cell_volume   129.87246565
_cell_formula_units_Z   1
loop_
 _symmetry_equiv_pos_site_id
 _symmetry_equiv_pos_as_xyz
  1  'x, y, z'
loop_
 _atom_site_type_symbol
 _atom_site_label
 _atom_site_symmetry_multiplicity
 _atom_site_fract_x
 _atom_site_fract_y
 _atom_site_fract_z
 _atom_site_occupancy
  Zr  Zr0  1  0.333333  0.666667  0.063067  1
  Be  Be1  1  0.000000  0.000000  0.994981  1
  Be  Be2  1  0.000000  0.000000  0.502486  1
  Be  Be3  1  0.831484  0.662967  0.260699  1
  Be  Be4  1  0.167981  0.832019  0.744445  1
  Be  Be5  1  0.664040  0.832019  0.744445  1
  Be  Be6  1  0.337033  0.168516  0.260699  1
  Be  Be7  1  0.831484  0.168516  0.260699  1
  Be  Be8  1  0.167981  0.335960  0.744445  1
  Re  Re9  1  0.666667  0.333333  0.917290  1
  Re  Re10  1  0.333333  0.666667  0.442505  1
  W  W11  1  0.666667  0.333333  0.564240  1
