# generated using pymatgen
data_Zr4Mn3Al2Fe3
_symmetry_space_group_name_H-M   'P 1'
_cell_length_a   5.02427712
_cell_length_b   5.02460839
_cell_length_c   8.25398100
_cell_angle_alpha   90.00000000
_cell_angle_beta   90.00000000
_cell_angle_gamma   59.99781440
_symmetry_Int_Tables_number   1
_chemical_formula_structural   Zr4Mn3Al2Fe3
_chemical_formula_sum   'Zr4 Mn3 Al2 Fe3'
_cell_volume   180.45143336
_cell_formula_units_Z   1
loop_
 _symmetry_equiv_pos_site_id
 _symmetry_equiv_pos_as_xyz
  1  'x, y, z'
loop_
 _atom_site_type_symbol
 _atom_site_label
 _atom_site_symmetry_multiplicity
 _atom_site_fract_x
 _atom_site_fract_y
 _atom_site_fract_z
 _atom_site_occupancy
  Zr  Zr0  1  0.333361  0.333319  0.565687  1
  Zr  Zr1  1  0.666665  0.666667  0.433307  1
  Zr  Zr2  1  0.666665  0.666667  0.066693  1
  Zr  Zr3  1  0.333361  0.333319  0.934313  1
  Mn  Mn4  1  0.824035  0.351940  0.750000  1
  Mn  Mn5  1  0.351971  0.824014  0.750000  1
  Mn  Mn6  1  0.824035  0.824024  0.750000  1
  Al  Al7  1  0.999938  0.000031  0.498863  1
  Al  Al8  1  0.999938  0.000031  0.001137  1
  Fe  Fe9  1  0.171913  0.656149  0.250000  1
  Fe  Fe10  1  0.656202  0.171899  0.250000  1
  Fe  Fe11  1  0.171913  0.171938  0.250000  1
