# generated using pymatgen
data_Dy2Er2TcB12Ru
_symmetry_space_group_name_H-M   'P 1'
_cell_length_a   3.65741400
_cell_length_b   9.12132751
_cell_length_c   11.51168000
_cell_angle_alpha   89.86045829
_cell_angle_beta   90.00000000
_cell_angle_gamma   90.00000000
_symmetry_Int_Tables_number   1
_chemical_formula_structural   Dy2Er2TcB12Ru
_chemical_formula_sum   'Dy4 Er4 Tc2 B24 Ru2'
_cell_volume   384.03392737
_cell_formula_units_Z   2
loop_
 _symmetry_equiv_pos_site_id
 _symmetry_equiv_pos_as_xyz
  1  'x, y, z'
loop_
 _atom_site_type_symbol
 _atom_site_label
 _atom_site_symmetry_multiplicity
 _atom_site_fract_x
 _atom_site_fract_y
 _atom_site_fract_z
 _atom_site_occupancy
  Dy  Dy0  1  0.000000  0.324801  0.415454  1
  Dy  Dy1  1  0.000000  0.675199  0.584546  1
  Dy  Dy2  1  0.000000  0.821263  0.087369  1
  Dy  Dy3  1  0.000000  0.178737  0.912631  1
  Er  Er4  1  0.000000  0.942193  0.370534  1
  Er  Er5  1  0.000000  0.057807  0.629466  1
  Er  Er6  1  0.000000  0.443202  0.130105  1
  Er  Er7  1  0.000000  0.556798  0.869895  1
  Tc  Tc8  1  0.000000  0.638776  0.319796  1
  Tc  Tc9  1  0.000000  0.361224  0.680204  1
  B  B10  1  0.500000  0.553407  0.432751  1
  B  B11  1  0.500000  0.446593  0.567249  1
  B  B12  1  0.500000  0.054109  0.067219  1
  B  B13  1  0.500000  0.945891  0.932781  1
  B  B14  1  0.500000  0.749057  0.418700  1
  B  B15  1  0.500000  0.250943  0.581300  1
  B  B16  1  0.500000  0.249084  0.081392  1
  B  B17  1  0.500000  0.750916  0.918608  1
  B  B18  1  0.500000  0.791826  0.265291  1
  B  B19  1  0.500000  0.208174  0.734709  1
  B  B20  1  0.500000  0.290911  0.234179  1
  B  B21  1  0.500000  0.709089  0.765821  1
  B  B22  1  0.500000  0.630982  0.185013  1
  B  B23  1  0.500000  0.369018  0.814987  1
  B  B24  1  0.500000  0.130664  0.314184  1
  B  B25  1  0.500000  0.869336  0.685816  1
  B  B26  1  0.500000  0.983188  0.212134  1
  B  B27  1  0.500000  0.016812  0.787866  1
  B  B28  1  0.500000  0.482639  0.287346  1
  B  B29  1  0.500000  0.517361  0.712654  1
  B  B30  1  0.500000  0.602597  0.028180  1
  B  B31  1  0.500000  0.397403  0.971820  1
  B  B32  1  0.500000  0.102612  0.471442  1
  B  B33  1  0.500000  0.897388  0.528558  1
  Ru  Ru34  1  0.000000  0.138064  0.178799  1
  Ru  Ru35  1  0.000000  0.861936  0.821201  1
