# generated using pymatgen
data_LiHo4Al17Pd6
_symmetry_space_group_name_H-M   'P 1'
_cell_length_a   7.61287810
_cell_length_b   7.61287773
_cell_length_c   9.46158600
_cell_angle_alpha   90.00000000
_cell_angle_beta   90.00000000
_cell_angle_gamma   119.33210486
_symmetry_Int_Tables_number   1
_chemical_formula_structural   LiHo4Al17Pd6
_chemical_formula_sum   'Li1 Ho4 Al17 Pd6'
_cell_volume   478.05295172
_cell_formula_units_Z   1
loop_
 _symmetry_equiv_pos_site_id
 _symmetry_equiv_pos_as_xyz
  1  'x, y, z'
loop_
 _atom_site_type_symbol
 _atom_site_label
 _atom_site_symmetry_multiplicity
 _atom_site_fract_x
 _atom_site_fract_y
 _atom_site_fract_z
 _atom_site_occupancy
  Li  Li0  1  0.129435  0.129435  0.250000  1
  Ho  Ho1  1  0.994908  0.665039  0.250000  1
  Ho  Ho2  1  0.007103  0.329928  0.750000  1
  Ho  Ho3  1  0.665039  0.994908  0.250000  1
  Ho  Ho4  1  0.329928  0.007103  0.750000  1
  Al  Al5  1  0.867520  0.867520  0.750000  1
  Al  Al6  1  0.001370  0.328783  0.080606  1
  Al  Al7  1  0.000598  0.664930  0.923890  1
  Al  Al8  1  0.000598  0.664930  0.576110  1
  Al  Al9  1  0.328783  0.001370  0.419394  1
  Al  Al10  1  0.001370  0.328783  0.419394  1
  Al  Al11  1  0.664930  0.000598  0.576110  1
  Al  Al12  1  0.664930  0.000598  0.923890  1
  Al  Al13  1  0.328783  0.001370  0.080606  1
  Al  Al14  1  0.334480  0.334480  0.548399  1
  Al  Al15  1  0.671205  0.671206  0.439467  1
  Al  Al16  1  0.671205  0.671206  0.060533  1
  Al  Al17  1  0.334480  0.334480  0.951601  1
  Al  Al18  1  0.340164  0.542648  0.250000  1
  Al  Al19  1  0.659417  0.451602  0.750000  1
  Al  Al20  1  0.542648  0.340164  0.250000  1
  Al  Al21  1  0.451602  0.659417  0.750000  1
  Pd  Pd22  1  0.675153  0.329561  0.000228  1
  Pd  Pd23  1  0.329561  0.675153  0.000228  1
  Pd  Pd24  1  0.329561  0.675153  0.499772  1
  Pd  Pd25  1  0.675153  0.329561  0.499772  1
  Pd  Pd26  1  0.000039  0.000039  0.994012  1
  Pd  Pd27  1  0.000039  0.000039  0.505988  1
