# generated using pymatgen
data_Dy4ErTm5Ru4
_symmetry_space_group_name_H-M   'P 1'
_cell_length_a   6.29278328
_cell_length_b   7.23464690
_cell_length_c   8.39959569
_cell_angle_alpha   96.85040298
_cell_angle_beta   112.06378410
_cell_angle_gamma   89.86639065
_symmetry_Int_Tables_number   1
_chemical_formula_structural   Dy4ErTm5Ru4
_chemical_formula_sum   'Dy4 Er1 Tm5 Ru4'
_cell_volume   351.49081661
_cell_formula_units_Z   1
loop_
 _symmetry_equiv_pos_site_id
 _symmetry_equiv_pos_as_xyz
  1  'x, y, z'
loop_
 _atom_site_type_symbol
 _atom_site_label
 _atom_site_symmetry_multiplicity
 _atom_site_fract_x
 _atom_site_fract_y
 _atom_site_fract_z
 _atom_site_occupancy
  Dy  Dy0  1  0.789813  0.083280  0.812266  1
  Dy  Dy1  1  0.976789  0.416534  0.187651  1
  Dy  Dy2  1  0.210556  0.916440  0.187692  1
  Dy  Dy3  1  0.022910  0.583782  0.812361  1
  Er  Er4  1  0.205110  0.184681  0.565671  1
  Tm  Tm5  1  0.639850  0.315840  0.434259  1
  Tm  Tm6  1  0.794509  0.815365  0.433949  1
  Tm  Tm7  1  0.360315  0.684263  0.565572  1
  Tm  Tm8  1  0.420132  0.249777  0.000165  1
  Tm  Tm9  1  0.580133  0.750316  0.000205  1
  Ru  Ru10  1  0.600805  0.424832  0.778908  1
  Ru  Ru11  1  0.821031  0.076245  0.220716  1
  Ru  Ru12  1  0.399650  0.575406  0.221376  1
  Ru  Ru13  1  0.178398  0.923241  0.779209  1
