# generated using pymatgen
data_Ho3Al12CuOs3
_symmetry_space_group_name_H-M   'P 1'
_cell_length_a   8.83526842
_cell_length_b   8.78573551
_cell_length_c   9.50040522
_cell_angle_alpha   90.00000134
_cell_angle_beta   90.13733215
_cell_angle_gamma   119.81471777
_symmetry_Int_Tables_number   1
_chemical_formula_structural   Ho3Al12CuOs3
_chemical_formula_sum   'Ho6 Al24 Cu2 Os6'
_cell_volume   639.84796436
_cell_formula_units_Z   2
loop_
 _symmetry_equiv_pos_site_id
 _symmetry_equiv_pos_as_xyz
  1  'x, y, z'
loop_
 _atom_site_type_symbol
 _atom_site_label
 _atom_site_symmetry_multiplicity
 _atom_site_fract_x
 _atom_site_fract_y
 _atom_site_fract_z
 _atom_site_occupancy
  Ho  Ho0  1  0.190949  0.388545  0.251766  1
  Ho  Ho1  1  0.809051  0.611455  0.748234  1
  Ho  Ho2  1  0.614628  0.807314  0.248913  1
  Ho  Ho3  1  0.385372  0.192686  0.751087  1
  Ho  Ho4  1  0.190949  0.802405  0.251766  1
  Ho  Ho5  1  0.809051  0.197595  0.748234  1
  Al  Al6  1  0.331097  0.665549  0.024560  1
  Al  Al7  1  0.668903  0.334451  0.975440  1
  Al  Al8  1  0.666000  0.332999  0.522627  1
  Al  Al9  1  0.334000  0.667001  0.477373  1
  Al  Al10  1  0.165265  0.327860  0.575448  1
  Al  Al11  1  0.834735  0.672140  0.424552  1
  Al  Al12  1  0.672760  0.836380  0.573266  1
  Al  Al13  1  0.841758  0.673707  0.079010  1
  Al  Al14  1  0.327240  0.163620  0.426734  1
  Al  Al15  1  0.158242  0.326293  0.920990  1
  Al  Al16  1  0.165265  0.837404  0.575448  1
  Al  Al17  1  0.323601  0.161800  0.080811  1
  Al  Al18  1  0.834735  0.162596  0.424552  1
  Al  Al19  1  0.676399  0.838200  0.919189  1
  Al  Al20  1  0.841758  0.168051  0.079010  1
  Al  Al21  1  0.158242  0.831949  0.920990  1
  Al  Al22  1  0.561693  0.122800  0.249557  1
  Al  Al23  1  0.438307  0.877200  0.750443  1
  Al  Al24  1  0.875970  0.437986  0.249052  1
  Al  Al25  1  0.124030  0.562014  0.750948  1
  Al  Al26  1  0.561693  0.438894  0.249557  1
  Al  Al27  1  0.438307  0.561106  0.750443  1
  Al  Al28  1  0.997309  0.998654  0.250572  1
  Al  Al29  1  0.002691  0.001346  0.749428  1
  Cu  Cu30  1  0.500000  0.000000  0.000000  1
  Cu  Cu31  1  0.500000  0.500000  0.000000  1
  Os  Os32  1  0.000000  0.500000  0.000000  1
  Os  Os33  1  0.500000  0.000000  0.500000  1
  Os  Os34  1  0.000000  0.500000  0.500000  1
  Os  Os35  1  0.500000  0.500000  0.500000  1
  Os  Os36  1  0.000000  0.000000  0.000000  1
  Os  Os37  1  0.000000  0.000000  0.500000  1
