# generated using pymatgen
data_TbTm4Pa(Al3Os)8
_symmetry_space_group_name_H-M   'P 1'
_cell_length_a   8.78956000
_cell_length_b   8.82485873
_cell_length_c   9.55046200
_cell_angle_alpha   90.00000000
_cell_angle_beta   90.00000000
_cell_angle_gamma   119.86777917
_symmetry_Int_Tables_number   1
_chemical_formula_structural   TbTm4Pa(Al3Os)8
_chemical_formula_sum   'Tb1 Tm4 Pa1 Al24 Os8'
_cell_volume   642.40216963
_cell_formula_units_Z   1
loop_
 _symmetry_equiv_pos_site_id
 _symmetry_equiv_pos_as_xyz
  1  'x, y, z'
loop_
 _atom_site_type_symbol
 _atom_site_label
 _atom_site_symmetry_multiplicity
 _atom_site_fract_x
 _atom_site_fract_y
 _atom_site_fract_z
 _atom_site_occupancy
  Tb  Tb0  1  0.808422  0.616843  0.750000  1
  Tm  Tm1  1  0.608210  0.801818  0.250000  1
  Tm  Tm2  1  0.389916  0.192529  0.750000  1
  Tm  Tm3  1  0.193608  0.801818  0.250000  1
  Tm  Tm4  1  0.802612  0.192529  0.750000  1
  Pa  Pa5  1  0.196770  0.393539  0.250000  1
  Al  Al6  1  0.336554  0.673108  0.020142  1
  Al  Al7  1  0.667645  0.335288  0.978598  1
  Al  Al8  1  0.667645  0.335288  0.521402  1
  Al  Al9  1  0.336554  0.673108  0.479858  1
  Al  Al10  1  0.163074  0.326150  0.578043  1
  Al  Al11  1  0.836565  0.673130  0.424328  1
  Al  Al12  1  0.672121  0.835553  0.574845  1
  Al  Al13  1  0.836565  0.673130  0.075672  1
  Al  Al14  1  0.326691  0.162193  0.423840  1
  Al  Al15  1  0.163074  0.326150  0.921957  1
  Al  Al16  1  0.163431  0.835553  0.574845  1
  Al  Al17  1  0.326691  0.162193  0.076160  1
  Al  Al18  1  0.835502  0.162193  0.423840  1
  Al  Al19  1  0.672121  0.835553  0.925155  1
  Al  Al20  1  0.835502  0.162193  0.076160  1
  Al  Al21  1  0.163431  0.835553  0.925155  1
  Al  Al22  1  0.559783  0.119567  0.250000  1
  Al  Al23  1  0.437860  0.875721  0.750000  1
  Al  Al24  1  0.872676  0.437525  0.250000  1
  Al  Al25  1  0.120709  0.559207  0.750000  1
  Al  Al26  1  0.564849  0.437525  0.250000  1
  Al  Al27  1  0.438498  0.559207  0.750000  1
  Al  Al28  1  0.000596  0.001193  0.250000  1
  Al  Al29  1  0.001346  0.002692  0.750000  1
  Os  Os30  1  0.501764  0.003528  0.997696  1
  Os  Os31  1  0.003500  0.499454  0.005001  1
  Os  Os32  1  0.501764  0.003528  0.502304  1
  Os  Os33  1  0.495955  0.499454  0.005001  1
  Os  Os34  1  0.003500  0.499454  0.494999  1
  Os  Os35  1  0.495955  0.499454  0.494999  1
  Os  Os36  1  0.999269  0.998538  0.999253  1
  Os  Os37  1  0.999269  0.998538  0.500747  1
