# generated using pymatgen
data_YbDyTcB8Os
_symmetry_space_group_name_H-M   'P 1'
_cell_length_a   3.56781500
_cell_length_b   5.96051671
_cell_length_c   11.53510926
_cell_angle_alpha   90.07135860
_cell_angle_beta   90.00000000
_cell_angle_gamma   90.00000000
_symmetry_Int_Tables_number   1
_chemical_formula_structural   YbDyTcB8Os
_chemical_formula_sum   'Yb2 Dy2 Tc2 B16 Os2'
_cell_volume   245.30568453
_cell_formula_units_Z   2
loop_
 _symmetry_equiv_pos_site_id
 _symmetry_equiv_pos_as_xyz
  1  'x, y, z'
loop_
 _atom_site_type_symbol
 _atom_site_label
 _atom_site_symmetry_multiplicity
 _atom_site_fract_x
 _atom_site_fract_y
 _atom_site_fract_z
 _atom_site_occupancy
  Yb  Yb0  1  0.000000  0.628834  0.352044  1
  Yb  Yb1  1  0.000000  0.371166  0.647956  1
  Dy  Dy2  1  0.000000  0.127621  0.152421  1
  Dy  Dy3  1  0.000000  0.872379  0.847579  1
  Tc  Tc4  1  0.000000  0.630866  0.086060  1
  Tc  Tc5  1  0.000000  0.369134  0.913940  1
  B  B6  1  0.500000  0.786040  0.185725  1
  B  B7  1  0.500000  0.213960  0.814275  1
  B  B8  1  0.500000  0.287762  0.315662  1
  B  B9  1  0.500000  0.712238  0.684338  1
  B  B10  1  0.500000  0.864599  0.031712  1
  B  B11  1  0.500000  0.135401  0.968288  1
  B  B12  1  0.500000  0.363748  0.469699  1
  B  B13  1  0.500000  0.636252  0.530301  1
  B  B14  1  0.500000  0.886096  0.453224  1
  B  B15  1  0.500000  0.113904  0.546776  1
  B  B16  1  0.500000  0.386978  0.047640  1
  B  B17  1  0.500000  0.613022  0.952360  1
  B  B18  1  0.500000  0.974762  0.309008  1
  B  B19  1  0.500000  0.025238  0.690992  1
  B  B20  1  0.500000  0.478143  0.193185  1
  B  B21  1  0.500000  0.521857  0.806815  1
  Os  Os22  1  0.000000  0.138132  0.409671  1
  Os  Os23  1  0.000000  0.861868  0.590329  1
