# generated using pymatgen
data_TbY3(Ho2Rh)4
_symmetry_space_group_name_H-M   'P 1'
_cell_length_a   6.25793237
_cell_length_b   7.18621331
_cell_length_c   9.43527100
_cell_angle_alpha   90.00000000
_cell_angle_beta   90.00000000
_cell_angle_gamma   89.86598214
_symmetry_Int_Tables_number   1
_chemical_formula_structural   TbY3(Ho2Rh)4
_chemical_formula_sum   'Tb1 Y3 Ho8 Rh4'
_cell_volume   424.31087223
_cell_formula_units_Z   1
loop_
 _symmetry_equiv_pos_site_id
 _symmetry_equiv_pos_as_xyz
  1  'x, y, z'
loop_
 _atom_site_type_symbol
 _atom_site_label
 _atom_site_symmetry_multiplicity
 _atom_site_fract_x
 _atom_site_fract_y
 _atom_site_fract_z
 _atom_site_occupancy
  Tb  Tb0  1  0.366541  0.966431  0.750000  1
  Y  Y1  1  0.867124  0.533426  0.250000  1
  Y  Y2  1  0.632889  0.033220  0.250000  1
  Y  Y3  1  0.132786  0.467365  0.750000  1
  Ho  Ho4  1  0.329961  0.675692  0.062537  1
  Ho  Ho5  1  0.171244  0.176209  0.437647  1
  Ho  Ho6  1  0.669597  0.323763  0.563268  1
  Ho  Ho7  1  0.829120  0.823771  0.937703  1
  Ho  Ho8  1  0.669597  0.323763  0.936732  1
  Ho  Ho9  1  0.829120  0.823771  0.562297  1
  Ho  Ho10  1  0.329961  0.675692  0.437463  1
  Ho  Ho11  1  0.171244  0.176209  0.062353  1
  Rh  Rh12  1  0.065187  0.883247  0.250000  1
  Rh  Rh13  1  0.434216  0.382937  0.250000  1
  Rh  Rh14  1  0.936974  0.116186  0.750000  1
  Rh  Rh15  1  0.564442  0.618317  0.750000  1
