# generated using pymatgen
data_Ac2BeSi8Ni17
_symmetry_space_group_name_H-M   'P 1'
_cell_length_a   8.04148046
_cell_length_b   7.94545627
_cell_length_c   7.85915944
_cell_angle_alpha   61.16575257
_cell_angle_beta   59.94644999
_cell_angle_gamma   58.88779050
_symmetry_Int_Tables_number   1
_chemical_formula_structural   Ac2BeSi8Ni17
_chemical_formula_sum   'Ac2 Be1 Si8 Ni17'
_cell_volume   354.78997198
_cell_formula_units_Z   1
loop_
 _symmetry_equiv_pos_site_id
 _symmetry_equiv_pos_as_xyz
  1  'x, y, z'
loop_
 _atom_site_type_symbol
 _atom_site_label
 _atom_site_symmetry_multiplicity
 _atom_site_fract_x
 _atom_site_fract_y
 _atom_site_fract_z
 _atom_site_occupancy
  Ac  Ac0  1  0.250000  0.250000  0.250000  1
  Ac  Ac1  1  0.750000  0.750000  0.750000  1
  Be  Be2  1  0.000000  0.000000  0.000000  1
  Si  Si3  1  0.711610  0.056760  0.943240  1
  Si  Si4  1  0.056760  0.711610  0.288390  1
  Si  Si5  1  0.210311  0.557886  0.789689  1
  Si  Si6  1  0.557886  0.210311  0.442114  1
  Si  Si7  1  0.288390  0.943240  0.056760  1
  Si  Si8  1  0.943240  0.288390  0.711610  1
  Si  Si9  1  0.789689  0.442114  0.210311  1
  Si  Si10  1  0.442114  0.789689  0.557886  1
  Ni  Ni11  1  0.718912  0.281088  0.060085  1
  Ni  Ni12  1  0.281088  0.718912  0.939915  1
  Ni  Ni13  1  0.203720  0.796280  0.436717  1
  Ni  Ni14  1  0.796280  0.203720  0.563283  1
  Ni  Ni15  1  0.436717  0.563283  0.203720  1
  Ni  Ni16  1  0.563283  0.436717  0.796280  1
  Ni  Ni17  1  0.060085  0.939915  0.718912  1
  Ni  Ni18  1  0.939915  0.060085  0.281088  1
  Ni  Ni19  1  0.445861  0.186625  0.813375  1
  Ni  Ni20  1  0.186625  0.445861  0.554139  1
  Ni  Ni21  1  0.939737  0.692697  0.060263  1
  Ni  Ni22  1  0.692697  0.939737  0.307303  1
  Ni  Ni23  1  0.554139  0.813375  0.186625  1
  Ni  Ni24  1  0.813375  0.554139  0.445861  1
  Ni  Ni25  1  0.060263  0.307303  0.939737  1
  Ni  Ni26  1  0.307303  0.060263  0.692697  1
  Ni  Ni27  1  0.500000  0.500000  0.500000  1
