# generated using pymatgen
data_CaAc(InRh)2
_symmetry_space_group_name_H-M   'P 1'
_cell_length_a   4.38446600
_cell_length_b   7.45556152
_cell_length_c   8.73761214
_cell_angle_alpha   89.44966874
_cell_angle_beta   90.00000000
_cell_angle_gamma   90.00000000
_symmetry_Int_Tables_number   1
_chemical_formula_structural   CaAc(InRh)2
_chemical_formula_sum   'Ca2 Ac2 In4 Rh4'
_cell_volume   285.60762193
_cell_formula_units_Z   2
loop_
 _symmetry_equiv_pos_site_id
 _symmetry_equiv_pos_as_xyz
  1  'x, y, z'
loop_
 _atom_site_type_symbol
 _atom_site_label
 _atom_site_symmetry_multiplicity
 _atom_site_fract_x
 _atom_site_fract_y
 _atom_site_fract_z
 _atom_site_occupancy
  Ca  Ca0  1  0.750000  0.470992  0.824455  1
  Ca  Ca1  1  0.250000  0.529008  0.175545  1
  Ac  Ac2  1  0.750000  0.974436  0.686131  1
  Ac  Ac3  1  0.250000  0.025564  0.313869  1
  In  In4  1  0.750000  0.836596  0.060086  1
  In  In5  1  0.250000  0.163404  0.939914  1
  In  In6  1  0.750000  0.366804  0.432896  1
  In  In7  1  0.250000  0.633196  0.567104  1
  Rh  Rh8  1  0.750000  0.737371  0.375416  1
  Rh  Rh9  1  0.250000  0.262629  0.624584  1
  Rh  Rh10  1  0.750000  0.224401  0.131397  1
  Rh  Rh11  1  0.250000  0.775599  0.868603  1
