# generated using pymatgen
data_TaNb8CrN12
_symmetry_space_group_name_H-M   'P 1'
_cell_length_a   5.24161200
_cell_length_b   5.24161324
_cell_length_c   10.37680300
_cell_angle_alpha   90.00000000
_cell_angle_beta   90.00000000
_cell_angle_gamma   120.00000481
_symmetry_Int_Tables_number   1
_chemical_formula_structural   TaNb8CrN12
_chemical_formula_sum   'Ta1 Nb8 Cr1 N12'
_cell_volume   246.90166863
_cell_formula_units_Z   1
loop_
 _symmetry_equiv_pos_site_id
 _symmetry_equiv_pos_as_xyz
  1  'x, y, z'
loop_
 _atom_site_type_symbol
 _atom_site_label
 _atom_site_symmetry_multiplicity
 _atom_site_fract_x
 _atom_site_fract_y
 _atom_site_fract_z
 _atom_site_occupancy
  Ta  Ta0  1  0.666667  0.333333  0.500000  1
  Nb  Nb1  1  0.675554  0.677665  0.749340  1
  Nb  Nb2  1  0.322335  0.997889  0.749340  1
  Nb  Nb3  1  0.002111  0.324446  0.749340  1
  Nb  Nb4  1  0.322335  0.324446  0.250660  1
  Nb  Nb5  1  0.675554  0.997889  0.250660  1
  Nb  Nb6  1  0.002111  0.677665  0.250660  1
  Nb  Nb7  1  0.666667  0.333333  0.000000  1
  Nb  Nb8  1  0.333333  0.666667  0.000000  1
  Cr  Cr9  1  0.333333  0.666667  0.500000  1
  N  N10  1  0.649152  0.650897  0.380355  1
  N  N11  1  0.349103  0.998255  0.380355  1
  N  N12  1  0.001745  0.350848  0.380355  1
  N  N13  1  0.349103  0.350848  0.619645  1
  N  N14  1  0.649152  0.998255  0.619645  1
  N  N15  1  0.001745  0.650897  0.619645  1
  N  N16  1  0.338642  0.338061  0.877480  1
  N  N17  1  0.661939  0.000582  0.877480  1
  N  N18  1  0.999418  0.661358  0.877480  1
  N  N19  1  0.661939  0.661358  0.122520  1
  N  N20  1  0.338642  0.000582  0.122520  1
  N  N21  1  0.999418  0.338061  0.122520  1
