# generated using pymatgen
data_Y3MgAl2Ga2Pd
_symmetry_space_group_name_H-M   'P 1'
_cell_length_a   7.00767240
_cell_length_b   7.13142506
_cell_length_c   4.38675600
_cell_angle_alpha   90.00000000
_cell_angle_beta   90.00000000
_cell_angle_gamma   120.58591745
_symmetry_Int_Tables_number   1
_chemical_formula_structural   Y3MgAl2Ga2Pd
_chemical_formula_sum   'Y3 Mg1 Al2 Ga2 Pd1'
_cell_volume   188.72512079
_cell_formula_units_Z   1
loop_
 _symmetry_equiv_pos_site_id
 _symmetry_equiv_pos_as_xyz
  1  'x, y, z'
loop_
 _atom_site_type_symbol
 _atom_site_label
 _atom_site_symmetry_multiplicity
 _atom_site_fract_x
 _atom_site_fract_y
 _atom_site_fract_z
 _atom_site_occupancy
  Y  Y0  1  0.419086  0.420595  0.500000  1
  Y  Y1  1  0.580914  0.001509  0.500000  1
  Y  Y2  1  0.000000  0.586525  0.500000  1
  Mg  Mg3  1  0.000000  0.234593  0.000000  1
  Al  Al4  1  0.764060  0.762522  0.000000  1
  Al  Al5  1  0.235940  0.998462  0.000000  1
  Ga  Ga6  1  0.660156  0.335479  0.000000  1
  Ga  Ga7  1  0.339844  0.675323  0.000000  1
  Pd  Pd8  1  0.000000  0.984993  0.500000  1
