# generated using pymatgen
data_Li(Nd4Rh3)2
_symmetry_space_group_name_H-M   'P 1'
_cell_length_a   7.58417965
_cell_length_b   7.58417966
_cell_length_c   7.58418014
_cell_angle_alpha   70.64951570
_cell_angle_beta   70.64950992
_cell_angle_gamma   70.64950496
_symmetry_Int_Tables_number   1
_chemical_formula_structural   Li(Nd4Rh3)2
_chemical_formula_sum   'Li1 Nd8 Rh6'
_cell_volume   376.12589350
_cell_formula_units_Z   1
loop_
 _symmetry_equiv_pos_site_id
 _symmetry_equiv_pos_as_xyz
  1  'x, y, z'
loop_
 _atom_site_type_symbol
 _atom_site_label
 _atom_site_symmetry_multiplicity
 _atom_site_fract_x
 _atom_site_fract_y
 _atom_site_fract_z
 _atom_site_occupancy
  Li  Li0  1  0.000000  0.000000  0.000000  1
  Nd  Nd1  1  0.809088  0.809088  0.809088  1
  Nd  Nd2  1  0.190912  0.190912  0.190912  1
  Nd  Nd3  1  0.151419  0.384935  0.673717  1
  Nd  Nd4  1  0.673717  0.151419  0.384935  1
  Nd  Nd5  1  0.384935  0.673717  0.151419  1
  Nd  Nd6  1  0.848581  0.615065  0.326283  1
  Nd  Nd7  1  0.326283  0.848581  0.615065  1
  Nd  Nd8  1  0.615065  0.326283  0.848581  1
  Rh  Rh9  1  0.951691  0.175972  0.578654  1
  Rh  Rh10  1  0.578654  0.951691  0.175972  1
  Rh  Rh11  1  0.175972  0.578654  0.951691  1
  Rh  Rh12  1  0.048309  0.824028  0.421346  1
  Rh  Rh13  1  0.421346  0.048309  0.824028  1
  Rh  Rh14  1  0.824028  0.421346  0.048309  1
