# generated using pymatgen
data_Sn(O2F3)2
_symmetry_space_group_name_H-M   'P 1'
_cell_length_a   6.51285801
_cell_length_b   6.35003499
_cell_length_c   6.48398137
_cell_angle_alpha   117.08928746
_cell_angle_beta   118.01989514
_cell_angle_gamma   95.08623372
_symmetry_Int_Tables_number   1
_chemical_formula_structural   Sn(O2F3)2
_chemical_formula_sum   'Sn1 O4 F6'
_cell_volume   194.51066199
_cell_formula_units_Z   1
loop_
 _symmetry_equiv_pos_site_id
 _symmetry_equiv_pos_as_xyz
  1  'x, y, z'
loop_
 _atom_site_type_symbol
 _atom_site_label
 _atom_site_symmetry_multiplicity
 _atom_site_fract_x
 _atom_site_fract_y
 _atom_site_fract_z
 _atom_site_occupancy
  Sn  Sn0  1  0.981050  0.959043  0.979949  1
  O  O1  1  0.288567  0.792034  0.510352  1
  O  O2  1  0.396677  0.011254  0.619364  1
  O  O3  1  0.726383  0.340798  0.427846  1
  O  O4  1  0.900407  0.337367  0.603673  1
  F  F5  1  0.208771  0.166309  0.965673  1
  F  F6  1  0.216033  0.181946  0.410961  1
  F  F7  1  0.164214  0.713932  0.962473  1
  F  F8  1  0.753004  0.762318  0.002476  1
  F  F9  1  0.755093  0.718474  0.548463  1
  F  F10  1  0.779003  0.185726  0.968771  1
