# generated using pymatgen
data_Tb8CdNiHgOs
_symmetry_space_group_name_H-M   'P 1'
_cell_length_a   9.59625246
_cell_length_b   9.59625195
_cell_length_c   9.69698400
_cell_angle_alpha   59.65214266
_cell_angle_beta   59.65214445
_cell_angle_gamma   59.78267705
_symmetry_Int_Tables_number   1
_chemical_formula_structural   Tb8CdNiHgOs
_chemical_formula_sum   'Tb16 Cd2 Ni2 Hg2 Os2'
_cell_volume   627.06218396
_cell_formula_units_Z   2
loop_
 _symmetry_equiv_pos_site_id
 _symmetry_equiv_pos_as_xyz
  1  'x, y, z'
loop_
 _atom_site_type_symbol
 _atom_site_label
 _atom_site_symmetry_multiplicity
 _atom_site_fract_x
 _atom_site_fract_y
 _atom_site_fract_z
 _atom_site_occupancy
  Tb  Tb0  1  0.351077  0.351077  0.342589  1
  Tb  Tb1  1  0.351077  0.351077  0.955258  1
  Tb  Tb2  1  0.352725  0.952615  0.347330  1
  Tb  Tb3  1  0.952615  0.352725  0.347330  1
  Tb  Tb4  1  0.810535  0.185731  0.191502  1
  Tb  Tb5  1  0.185731  0.810535  0.812232  1
  Tb  Tb6  1  0.185731  0.810535  0.191502  1
  Tb  Tb7  1  0.810535  0.185731  0.812232  1
  Tb  Tb8  1  0.188514  0.188514  0.811486  1
  Tb  Tb9  1  0.807419  0.807419  0.192581  1
  Tb  Tb10  1  0.939017  0.554648  0.566670  1
  Tb  Tb11  1  0.554648  0.939017  0.939665  1
  Tb  Tb12  1  0.554648  0.939017  0.566670  1
  Tb  Tb13  1  0.939017  0.554648  0.939665  1
  Tb  Tb14  1  0.565270  0.565270  0.934730  1
  Tb  Tb15  1  0.941285  0.941285  0.558715  1
  Cd  Cd16  1  0.579854  0.257648  0.581248  1
  Cd  Cd17  1  0.257648  0.579854  0.581248  1
  Ni  Ni18  1  0.143721  0.576202  0.140038  1
  Ni  Ni19  1  0.576202  0.143721  0.140038  1
  Hg  Hg20  1  0.582637  0.582637  0.588224  1
  Hg  Hg21  1  0.582637  0.582637  0.246500  1
  Os  Os22  1  0.143728  0.143728  0.138259  1
  Os  Os23  1  0.143728  0.143728  0.574286  1
