# generated using pymatgen
data_SmMgCu4P3
_symmetry_space_group_name_H-M   'P 1'
_cell_length_a   3.83841000
_cell_length_b   11.02166400
_cell_length_c   12.76987000
_cell_angle_alpha   90.00000000
_cell_angle_beta   90.00000000
_cell_angle_gamma   90.00000000
_symmetry_Int_Tables_number   1
_chemical_formula_structural   SmMgCu4P3
_chemical_formula_sum   'Sm4 Mg4 Cu16 P12'
_cell_volume   540.23784633
_cell_formula_units_Z   4
loop_
 _symmetry_equiv_pos_site_id
 _symmetry_equiv_pos_as_xyz
  1  'x, y, z'
loop_
 _atom_site_type_symbol
 _atom_site_label
 _atom_site_symmetry_multiplicity
 _atom_site_fract_x
 _atom_site_fract_y
 _atom_site_fract_z
 _atom_site_occupancy
  Sm  Sm0  1  0.250000  0.580564  0.709267  1
  Sm  Sm1  1  0.250000  0.919436  0.209267  1
  Sm  Sm2  1  0.750000  0.419436  0.290733  1
  Sm  Sm3  1  0.750000  0.080564  0.790733  1
  Mg  Mg4  1  0.250000  0.703649  0.986861  1
  Mg  Mg5  1  0.250000  0.796351  0.486861  1
  Mg  Mg6  1  0.750000  0.296351  0.013139  1
  Mg  Mg7  1  0.750000  0.203649  0.513139  1
  Cu  Cu8  1  0.250000  0.409404  0.494053  1
  Cu  Cu9  1  0.250000  0.090596  0.994053  1
  Cu  Cu10  1  0.750000  0.590596  0.505947  1
  Cu  Cu11  1  0.750000  0.909404  0.005947  1
  Cu  Cu12  1  0.250000  0.214213  0.174055  1
  Cu  Cu13  1  0.250000  0.285787  0.674055  1
  Cu  Cu14  1  0.750000  0.785787  0.825945  1
  Cu  Cu15  1  0.750000  0.714213  0.325945  1
  Cu  Cu16  1  0.250000  0.871623  0.700724  1
  Cu  Cu17  1  0.250000  0.628377  0.200724  1
  Cu  Cu18  1  0.750000  0.128377  0.299276  1
  Cu  Cu19  1  0.750000  0.371623  0.799276  1
  Cu  Cu20  1  0.250000  0.460966  0.933928  1
  Cu  Cu21  1  0.250000  0.039034  0.433928  1
  Cu  Cu22  1  0.750000  0.539034  0.066072  1
  Cu  Cu23  1  0.750000  0.960966  0.566072  1
  P  P24  1  0.250000  0.423182  0.121179  1
  P  P25  1  0.250000  0.076818  0.621179  1
  P  P26  1  0.750000  0.576818  0.878821  1
  P  P27  1  0.750000  0.923182  0.378821  1
  P  P28  1  0.250000  0.259835  0.865357  1
  P  P29  1  0.250000  0.240165  0.365357  1
  P  P30  1  0.750000  0.740165  0.134643  1
  P  P31  1  0.750000  0.759835  0.634643  1
  P  P32  1  0.250000  0.592621  0.387271  1
  P  P33  1  0.250000  0.907379  0.887271  1
  P  P34  1  0.750000  0.407379  0.612729  1
  P  P35  1  0.750000  0.092621  0.112729  1
