# generated using pymatgen
data_Nd3TeP2
_symmetry_space_group_name_H-M   'P 1'
_cell_length_a   4.24732500
_cell_length_b   10.57451477
_cell_length_c   7.34075300
_cell_angle_alpha   89.74252745
_cell_angle_beta   90.00000000
_cell_angle_gamma   90.00000000
_symmetry_Int_Tables_number   1
_chemical_formula_structural   Nd3TeP2
_chemical_formula_sum   'Nd6 Te2 P4'
_cell_volume   329.69485380
_cell_formula_units_Z   2
loop_
 _symmetry_equiv_pos_site_id
 _symmetry_equiv_pos_as_xyz
  1  'x, y, z'
loop_
 _atom_site_type_symbol
 _atom_site_label
 _atom_site_symmetry_multiplicity
 _atom_site_fract_x
 _atom_site_fract_y
 _atom_site_fract_z
 _atom_site_occupancy
  Nd  Nd0  1  0.250000  0.802010  0.915764  1
  Nd  Nd1  1  0.750000  0.197990  0.084236  1
  Nd  Nd2  1  0.750000  0.801575  0.415917  1
  Nd  Nd3  1  0.250000  0.198425  0.584083  1
  Nd  Nd4  1  0.250000  0.500061  0.249810  1
  Nd  Nd5  1  0.750000  0.499939  0.750190  1
  Te  Te6  1  0.750000  0.000182  0.749673  1
  Te  Te7  1  0.250000  0.999818  0.250327  1
  P  P8  1  0.250000  0.658558  0.583522  1
  P  P9  1  0.750000  0.341442  0.416478  1
  P  P10  1  0.750000  0.658837  0.083215  1
  P  P11  1  0.250000  0.341163  0.916785  1
