# generated using pymatgen
data_LuTh2In5
_symmetry_space_group_name_H-M   'P 1'
_cell_length_a   6.56730832
_cell_length_b   6.56730872
_cell_length_c   10.29508300
_cell_angle_alpha   90.00000000
_cell_angle_beta   90.00000000
_cell_angle_gamma   102.29212076
_symmetry_Int_Tables_number   1
_chemical_formula_structural   LuTh2In5
_chemical_formula_sum   'Lu2 Th4 In10'
_cell_volume   433.84293559
_cell_formula_units_Z   2
loop_
 _symmetry_equiv_pos_site_id
 _symmetry_equiv_pos_as_xyz
  1  'x, y, z'
loop_
 _atom_site_type_symbol
 _atom_site_label
 _atom_site_symmetry_multiplicity
 _atom_site_fract_x
 _atom_site_fract_y
 _atom_site_fract_z
 _atom_site_occupancy
  Lu  Lu0  1  0.132083  0.132083  0.750000  1
  Lu  Lu1  1  0.867917  0.867917  0.250000  1
  Th  Th2  1  0.706318  0.293682  0.000000  1
  Th  Th3  1  0.706318  0.293682  0.500000  1
  Th  Th4  1  0.293682  0.706318  0.000000  1
  Th  Th5  1  0.293682  0.706318  0.500000  1
  In  In6  1  0.510545  0.510545  0.750000  1
  In  In7  1  0.489455  0.489455  0.250000  1
  In  In8  1  0.811410  0.811410  0.545896  1
  In  In9  1  0.188590  0.188590  0.454104  1
  In  In10  1  0.811410  0.811410  0.954104  1
  In  In11  1  0.188590  0.188590  0.045896  1
  In  In12  1  0.993986  0.568225  0.750000  1
  In  In13  1  0.431775  0.006014  0.250000  1
  In  In14  1  0.006014  0.431775  0.250000  1
  In  In15  1  0.568225  0.993986  0.750000  1
