# generated using pymatgen
data_Tb16In4IrPdRh2
_symmetry_space_group_name_H-M   'P 1'
_cell_length_a   9.71445439
_cell_length_b   9.72608907
_cell_length_c   9.71445324
_cell_angle_alpha   59.89976629
_cell_angle_beta   60.02316137
_cell_angle_gamma   59.89975970
_symmetry_Int_Tables_number   1
_chemical_formula_structural   Tb16In4IrPdRh2
_chemical_formula_sum   'Tb16 In4 Ir1 Pd1 Rh2'
_cell_volume   648.15085024
_cell_formula_units_Z   1
loop_
 _symmetry_equiv_pos_site_id
 _symmetry_equiv_pos_as_xyz
  1  'x, y, z'
loop_
 _atom_site_type_symbol
 _atom_site_label
 _atom_site_symmetry_multiplicity
 _atom_site_fract_x
 _atom_site_fract_y
 _atom_site_fract_z
 _atom_site_occupancy
  Tb  Tb0  1  0.810190  0.810568  0.189498  1
  Tb  Tb1  1  0.810238  0.185505  0.810238  1
  Tb  Tb2  1  0.194635  0.185044  0.810892  1
  Tb  Tb3  1  0.649881  0.048402  0.649881  1
  Tb  Tb4  1  0.060433  0.061467  0.439858  1
  Tb  Tb5  1  0.435953  0.439191  0.061896  1
  Tb  Tb6  1  0.648602  0.654080  0.648602  1
  Tb  Tb7  1  0.810892  0.185044  0.194635  1
  Tb  Tb8  1  0.189498  0.810568  0.810190  1
  Tb  Tb9  1  0.052605  0.652526  0.646326  1
  Tb  Tb10  1  0.439858  0.061467  0.060433  1
  Tb  Tb11  1  0.437341  0.062711  0.437341  1
  Tb  Tb12  1  0.060547  0.441711  0.060547  1
  Tb  Tb13  1  0.646326  0.652526  0.052605  1
  Tb  Tb14  1  0.189501  0.811159  0.189501  1
  Tb  Tb15  1  0.061896  0.439191  0.435953  1
  In  In16  1  0.417364  0.417132  0.417364  1
  In  In17  1  0.418047  0.417106  0.747764  1
  In  In18  1  0.417324  0.748268  0.417324  1
  In  In19  1  0.747764  0.417106  0.418047  1
  Ir  Ir20  1  0.857951  0.856036  0.857951  1
  Pd  Pd21  1  0.857306  0.429053  0.857306  1
  Rh  Rh22  1  0.858553  0.857068  0.427293  1
  Rh  Rh23  1  0.427293  0.857068  0.858553  1
