# generated using pymatgen
data_CaPrB8Ru7
_symmetry_space_group_name_H-M   'P 1'
_cell_length_a   6.45893005
_cell_length_b   6.46142205
_cell_length_c   10.09492400
_cell_angle_alpha   90.00000000
_cell_angle_beta   90.00000000
_cell_angle_gamma   89.98584500
_symmetry_Int_Tables_number   1
_chemical_formula_structural   CaPrB8Ru7
_chemical_formula_sum   'Ca2 Pr2 B16 Ru14'
_cell_volume   421.30026366
_cell_formula_units_Z   2
loop_
 _symmetry_equiv_pos_site_id
 _symmetry_equiv_pos_as_xyz
  1  'x, y, z'
loop_
 _atom_site_type_symbol
 _atom_site_label
 _atom_site_symmetry_multiplicity
 _atom_site_fract_x
 _atom_site_fract_y
 _atom_site_fract_z
 _atom_site_occupancy
  Ca  Ca0  1  0.879066  0.261839  0.500000  1
  Ca  Ca1  1  0.264176  0.120315  0.000000  1
  Pr  Pr2  1  0.734145  0.881709  0.000000  1
  Pr  Pr3  1  0.116719  0.731035  0.500000  1
  B  B4  1  0.501628  0.000320  0.588832  1
  B  B5  1  0.501628  0.000320  0.411168  1
  B  B6  1  0.897772  0.274897  0.168468  1
  B  B7  1  0.101940  0.725989  0.831021  1
  B  B8  1  0.498550  0.500129  0.341104  1
  B  B9  1  0.498706  0.499990  0.841006  1
  B  B10  1  0.276541  0.102772  0.669372  1
  B  B11  1  0.101940  0.725989  0.168979  1
  B  B12  1  0.276541  0.102772  0.330628  1
  B  B13  1  0.897772  0.274897  0.831532  1
  B  B14  1  0.498550  0.500129  0.658896  1
  B  B15  1  0.498706  0.499990  0.158994  1
  B  B16  1  0.999011  0.499985  0.911123  1
  B  B17  1  0.727161  0.898843  0.668233  1
  B  B18  1  0.727161  0.898843  0.331767  1
  B  B19  1  0.999011  0.499985  0.088877  1
  Ru  Ru20  1  0.204465  0.396182  0.754316  1
  Ru  Ru21  1  0.404673  0.287715  0.500000  1
  Ru  Ru22  1  0.397019  0.794947  0.253594  1
  Ru  Ru23  1  0.204465  0.396182  0.245684  1
  Ru  Ru24  1  0.598640  0.713121  0.500000  1
  Ru  Ru25  1  0.603971  0.205268  0.745383  1
  Ru  Ru26  1  0.285714  0.595926  0.000000  1
  Ru  Ru27  1  0.711416  0.401895  0.000000  1
  Ru  Ru28  1  0.794416  0.602764  0.246241  1
  Ru  Ru29  1  0.794416  0.602764  0.753759  1
  Ru  Ru30  1  0.397019  0.794947  0.746406  1
  Ru  Ru31  1  0.001548  0.001135  0.250058  1
  Ru  Ru32  1  0.603971  0.205268  0.254617  1
  Ru  Ru33  1  0.001548  0.001135  0.749942  1
