# generated using pymatgen
data_Ca2VGaO5
_symmetry_space_group_name_H-M   'P 1'
_cell_length_a   5.50376700
_cell_length_b   5.68353600
_cell_length_c   14.70641300
_cell_angle_alpha   90.00000000
_cell_angle_beta   90.00000000
_cell_angle_gamma   90.00000000
_symmetry_Int_Tables_number   1
_chemical_formula_structural   Ca2VGaO5
_chemical_formula_sum   'Ca8 V4 Ga4 O20'
_cell_volume   460.02921498
_cell_formula_units_Z   4
loop_
 _symmetry_equiv_pos_site_id
 _symmetry_equiv_pos_as_xyz
  1  'x, y, z'
loop_
 _atom_site_type_symbol
 _atom_site_label
 _atom_site_symmetry_multiplicity
 _atom_site_fract_x
 _atom_site_fract_y
 _atom_site_fract_z
 _atom_site_occupancy
  Ca  Ca0  1  0.971595  0.025373  0.110131  1
  Ca  Ca1  1  0.528405  0.525373  0.610131  1
  Ca  Ca2  1  0.528405  0.525373  0.889869  1
  Ca  Ca3  1  0.471595  0.474627  0.110131  1
  Ca  Ca4  1  0.471595  0.474627  0.389869  1
  Ca  Ca5  1  0.028405  0.974627  0.610131  1
  Ca  Ca6  1  0.028405  0.974627  0.889869  1
  Ca  Ca7  1  0.971595  0.025373  0.389869  1
  V  V8  1  0.500000  0.000000  0.000000  1
  V  V9  1  0.500000  0.000000  0.500000  1
  V  V10  1  0.000000  0.500000  0.500000  1
  V  V11  1  0.000000  0.500000  0.000000  1
  Ga  Ga12  1  0.455501  0.933896  0.250000  1
  Ga  Ga13  1  0.044499  0.433896  0.750000  1
  Ga  Ga14  1  0.955501  0.566104  0.250000  1
  Ga  Ga15  1  0.544499  0.066104  0.750000  1
  O  O16  1  0.388477  0.369245  0.750000  1
  O  O17  1  0.273243  0.272875  0.519395  1
  O  O18  1  0.226757  0.772875  0.019395  1
  O  O19  1  0.539317  0.081481  0.143012  1
  O  O20  1  0.726757  0.727125  0.019395  1
  O  O21  1  0.773243  0.227125  0.980605  1
  O  O22  1  0.773243  0.227125  0.519395  1
  O  O23  1  0.960683  0.581481  0.856988  1
  O  O24  1  0.888477  0.130755  0.750000  1
  O  O25  1  0.111523  0.869245  0.250000  1
  O  O26  1  0.726757  0.727125  0.480605  1
  O  O27  1  0.460683  0.918519  0.856988  1
  O  O28  1  0.539317  0.081481  0.356988  1
  O  O29  1  0.611523  0.630755  0.250000  1
  O  O30  1  0.226757  0.772875  0.480605  1
  O  O31  1  0.960683  0.581481  0.643012  1
  O  O32  1  0.039317  0.418519  0.143012  1
  O  O33  1  0.273243  0.272875  0.980605  1
  O  O34  1  0.460683  0.918519  0.643012  1
  O  O35  1  0.039317  0.418519  0.356988  1
