# generated using pymatgen
data_EuGa2SiPd
_symmetry_space_group_name_H-M   'P 1'
_cell_length_a   6.05507482
_cell_length_b   6.05507407
_cell_length_c   5.84444200
_cell_angle_alpha   90.00000000
_cell_angle_beta   90.00000000
_cell_angle_gamma   115.33901873
_symmetry_Int_Tables_number   1
_chemical_formula_structural   EuGa2SiPd
_chemical_formula_sum   'Eu2 Ga4 Si2 Pd2'
_cell_volume   193.66457506
_cell_formula_units_Z   2
loop_
 _symmetry_equiv_pos_site_id
 _symmetry_equiv_pos_as_xyz
  1  'x, y, z'
loop_
 _atom_site_type_symbol
 _atom_site_label
 _atom_site_symmetry_multiplicity
 _atom_site_fract_x
 _atom_site_fract_y
 _atom_site_fract_z
 _atom_site_occupancy
  Eu  Eu0  1  0.234490  0.765510  0.750000  1
  Eu  Eu1  1  0.765510  0.234490  0.250000  1
  Ga  Ga2  1  0.718820  0.718820  0.000000  1
  Ga  Ga3  1  0.718820  0.718820  0.500000  1
  Ga  Ga4  1  0.281180  0.281180  0.000000  1
  Ga  Ga5  1  0.281180  0.281180  0.500000  1
  Si  Si6  1  0.659280  0.340720  0.750000  1
  Si  Si7  1  0.340720  0.659280  0.250000  1
  Pd  Pd8  1  0.894238  0.105762  0.750000  1
  Pd  Pd9  1  0.105762  0.894238  0.250000  1
