# generated using pymatgen
data_Mn20Co(ReC3)2
_symmetry_space_group_name_H-M   'P 1'
_cell_length_a   7.38613291
_cell_length_b   7.38613249
_cell_length_c   7.38613300
_cell_angle_alpha   60.00000219
_cell_angle_beta   60.00000408
_cell_angle_gamma   60.00000083
_symmetry_Int_Tables_number   1
_chemical_formula_structural   Mn20Co(ReC3)2
_chemical_formula_sum   'Mn20 Co1 Re2 C6'
_cell_volume   284.92880791
_cell_formula_units_Z   1
loop_
 _symmetry_equiv_pos_site_id
 _symmetry_equiv_pos_as_xyz
  1  'x, y, z'
loop_
 _atom_site_type_symbol
 _atom_site_label
 _atom_site_symmetry_multiplicity
 _atom_site_fract_x
 _atom_site_fract_y
 _atom_site_fract_z
 _atom_site_occupancy
  Mn  Mn0  1  0.383314  0.383314  0.383314  1
  Mn  Mn1  1  0.149941  0.616686  0.616686  1
  Mn  Mn2  1  0.616686  0.149941  0.616686  1
  Mn  Mn3  1  0.616686  0.616686  0.149941  1
  Mn  Mn4  1  0.383314  0.850059  0.383314  1
  Mn  Mn5  1  0.383314  0.383314  0.850059  1
  Mn  Mn6  1  0.850059  0.383314  0.383314  1
  Mn  Mn7  1  0.616686  0.616686  0.616686  1
  Mn  Mn8  1  0.000000  0.334603  0.000000  1
  Mn  Mn9  1  0.334603  0.000000  0.000000  1
  Mn  Mn10  1  0.000000  0.334603  0.665397  1
  Mn  Mn11  1  0.665397  0.000000  0.334603  1
  Mn  Mn12  1  0.334603  0.000000  0.665397  1
  Mn  Mn13  1  0.000000  0.000000  0.334603  1
  Mn  Mn14  1  0.665397  0.334603  0.000000  1
  Mn  Mn15  1  0.000000  0.665397  0.334603  1
  Mn  Mn16  1  0.000000  0.000000  0.665397  1
  Mn  Mn17  1  0.334603  0.665397  0.000000  1
  Mn  Mn18  1  0.665397  0.000000  0.000000  1
  Mn  Mn19  1  0.000000  0.665397  0.000000  1
  Co  Co20  1  0.000000  0.000000  0.000000  1
  Re  Re21  1  0.250000  0.250000  0.250000  1
  Re  Re22  1  0.750000  0.750000  0.750000  1
  C  C23  1  0.275517  0.724483  0.275517  1
  C  C24  1  0.275517  0.724483  0.724483  1
  C  C25  1  0.724483  0.275517  0.275517  1
  C  C26  1  0.724483  0.724483  0.275517  1
  C  C27  1  0.275517  0.275517  0.724483  1
  C  C28  1  0.724483  0.275517  0.724483  1
