# generated using pymatgen
data_Y7Er(PCl6)2
_symmetry_space_group_name_H-M   'P 1'
_cell_length_a   3.87343300
_cell_length_b   12.85742572
_cell_length_c   13.31474900
_cell_angle_alpha   89.93327224
_cell_angle_beta   90.00000000
_cell_angle_gamma   90.00000000
_symmetry_Int_Tables_number   1
_chemical_formula_structural   Y7Er(PCl6)2
_chemical_formula_sum   'Y7 Er1 P2 Cl12'
_cell_volume   663.10570069
_cell_formula_units_Z   1
loop_
 _symmetry_equiv_pos_site_id
 _symmetry_equiv_pos_as_xyz
  1  'x, y, z'
loop_
 _atom_site_type_symbol
 _atom_site_label
 _atom_site_symmetry_multiplicity
 _atom_site_fract_x
 _atom_site_fract_y
 _atom_site_fract_z
 _atom_site_occupancy
  Y  Y0  1  0.000000  0.111063  0.088116  1
  Y  Y1  1  0.000000  0.889115  0.911634  1
  Y  Y2  1  0.000000  0.610373  0.412233  1
  Y  Y3  1  0.500000  0.130739  0.846723  1
  Y  Y4  1  0.500000  0.869539  0.152985  1
  Y  Y5  1  0.500000  0.629887  0.652716  1
  Y  Y6  1  0.500000  0.369748  0.347570  1
  Er  Er7  1  0.000000  0.389979  0.587476  1
  P  P8  1  0.500000  0.000140  0.999791  1
  P  P9  1  0.500000  0.498973  0.500806  1
  Cl  Cl10  1  0.500000  0.267598  0.682855  1
  Cl  Cl11  1  0.500000  0.734589  0.315792  1
  Cl  Cl12  1  0.500000  0.764610  0.815446  1
  Cl  Cl13  1  0.500000  0.234974  0.184900  1
  Cl  Cl14  1  0.000000  0.255374  0.928925  1
  Cl  Cl15  1  0.000000  0.744834  0.070826  1
  Cl  Cl16  1  0.000000  0.477552  0.245057  1
  Cl  Cl17  1  0.000000  0.519733  0.753612  1
  Cl  Cl18  1  0.000000  0.977502  0.255295  1
  Cl  Cl19  1  0.000000  0.022865  0.744433  1
  Cl  Cl20  1  0.000000  0.246020  0.432081  1
  Cl  Cl21  1  0.000000  0.754793  0.570727  1
