# generated using pymatgen
data_Tm2ZnOsRu2
_symmetry_space_group_name_H-M   'P 1'
_cell_length_a   5.33136386
_cell_length_b   5.18574360
_cell_length_c   8.81804000
_cell_angle_alpha   90.00000000
_cell_angle_beta   90.00000000
_cell_angle_gamma   119.04836804
_symmetry_Int_Tables_number   1
_chemical_formula_structural   Tm2ZnOsRu2
_chemical_formula_sum   'Tm4 Zn2 Os2 Ru4'
_cell_volume   213.12640624
_cell_formula_units_Z   2
loop_
 _symmetry_equiv_pos_site_id
 _symmetry_equiv_pos_as_xyz
  1  'x, y, z'
loop_
 _atom_site_type_symbol
 _atom_site_label
 _atom_site_symmetry_multiplicity
 _atom_site_fract_x
 _atom_site_fract_y
 _atom_site_fract_z
 _atom_site_occupancy
  Tm  Tm0  1  0.671786  0.335418  0.568036  1
  Tm  Tm1  1  0.339007  0.670006  0.441993  1
  Tm  Tm2  1  0.339007  0.670006  0.058007  1
  Tm  Tm3  1  0.671786  0.335418  0.931964  1
  Zn  Zn4  1  0.818426  0.656843  0.250000  1
  Zn  Zn5  1  0.817622  0.161922  0.250000  1
  Os  Os6  1  0.165738  0.334847  0.750000  1
  Os  Os7  1  0.165714  0.828508  0.750000  1
  Ru  Ru8  1  0.019934  0.010215  0.499208  1
  Ru  Ru9  1  0.019934  0.010215  0.000792  1
  Ru  Ru10  1  0.648269  0.824059  0.750000  1
  Ru  Ru11  1  0.322776  0.162539  0.250000  1
