# generated using pymatgen
data_Sr8Tc3RuO16
_symmetry_space_group_name_H-M   'P 1'
_cell_length_a   5.56299504
_cell_length_b   8.94331017
_cell_length_c   8.94321342
_cell_angle_alpha   88.10089208
_cell_angle_beta   71.94383746
_cell_angle_gamma   108.05995026
_symmetry_Int_Tables_number   1
_chemical_formula_structural   Sr8Tc3RuO16
_chemical_formula_sum   'Sr8 Tc3 Ru1 O16'
_cell_volume   398.05447677
_cell_formula_units_Z   1
loop_
 _symmetry_equiv_pos_site_id
 _symmetry_equiv_pos_as_xyz
  1  'x, y, z'
loop_
 _atom_site_type_symbol
 _atom_site_label
 _atom_site_symmetry_multiplicity
 _atom_site_fract_x
 _atom_site_fract_y
 _atom_site_fract_z
 _atom_site_occupancy
  Sr  Sr0  1  0.251937  0.400089  0.893715  1
  Sr  Sr1  1  0.999901  0.646478  0.646488  1
  Sr  Sr2  1  0.747909  0.893540  0.400249  1
  Sr  Sr3  1  0.500117  0.148209  0.148016  1
  Sr  Sr4  1  0.000098  0.353504  0.353526  1
  Sr  Sr5  1  0.748045  0.599905  0.106306  1
  Sr  Sr6  1  0.499926  0.851790  0.851991  1
  Sr  Sr7  1  0.252009  0.106393  0.599794  1
  Tc  Tc8  1  0.251903  0.750472  0.249563  1
  Tc  Tc9  1  0.000016  0.000017  0.999998  1
  Tc  Tc10  1  0.748077  0.249500  0.750470  1
  Ru  Ru11  1  0.500014  0.500006  0.499979  1
  O  O12  1  0.250793  0.588727  0.087070  1
  O  O13  1  0.999763  0.837190  0.837612  1
  O  O14  1  0.749753  0.087482  0.588280  1
  O  O15  1  0.499608  0.335395  0.335760  1
  O  O16  1  0.000319  0.162910  0.162306  1
  O  O17  1  0.749209  0.411322  0.912889  1
  O  O18  1  0.500347  0.664572  0.664261  1
  O  O19  1  0.250265  0.912501  0.411724  1
  O  O20  1  0.877044  0.126207  0.873550  1
  O  O21  1  0.617663  0.372358  0.627767  1
  O  O22  1  0.382301  0.627599  0.372229  1
  O  O23  1  0.122970  0.873839  0.126446  1
  O  O24  1  0.375858  0.124018  0.875670  1
  O  O25  1  0.120601  0.376753  0.623646  1
  O  O26  1  0.879362  0.623217  0.376371  1
  O  O27  1  0.624192  0.876008  0.124323  1
