# generated using pymatgen
data_Pr2Nd3RuRh
_symmetry_space_group_name_H-M   'P 1'
_cell_length_a   9.03980398
_cell_length_b   9.03980425
_cell_length_c   7.36703801
_cell_angle_alpha   83.66217210
_cell_angle_beta   83.66217219
_cell_angle_gamma   42.92981127
_symmetry_Int_Tables_number   1
_chemical_formula_structural   Pr2Nd3RuRh
_chemical_formula_sum   'Pr4 Nd6 Ru2 Rh2'
_cell_volume   407.14215077
_cell_formula_units_Z   2
loop_
 _symmetry_equiv_pos_site_id
 _symmetry_equiv_pos_as_xyz
  1  'x, y, z'
loop_
 _atom_site_type_symbol
 _atom_site_label
 _atom_site_symmetry_multiplicity
 _atom_site_fract_x
 _atom_site_fract_y
 _atom_site_fract_z
 _atom_site_occupancy
  Pr  Pr0  1  0.010754  0.801028  0.918164  1
  Pr  Pr1  1  0.198972  0.989246  0.581836  1
  Pr  Pr2  1  0.982727  0.202998  0.086146  1
  Pr  Pr3  1  0.797002  0.017273  0.413854  1
  Nd  Nd4  1  0.361415  0.208985  0.814780  1
  Nd  Nd5  1  0.791015  0.638585  0.685220  1
  Nd  Nd6  1  0.645317  0.788760  0.187753  1
  Nd  Nd7  1  0.211240  0.354683  0.312247  1
  Nd  Nd8  1  0.571206  0.428794  0.750000  1
  Nd  Nd9  1  0.426894  0.573106  0.250000  1
  Ru  Ru10  1  0.819765  0.403460  0.427087  1
  Ru  Ru11  1  0.596540  0.180235  0.072913  1
  Rh  Rh12  1  0.181230  0.594078  0.575330  1
  Rh  Rh13  1  0.405922  0.818770  0.924670  1
