# generated using pymatgen
data_Pr4GeO8
_symmetry_space_group_name_H-M   'P 1'
_cell_length_a   5.78789800
_cell_length_b   7.52304200
_cell_length_c   18.26279500
_cell_angle_alpha   90.00000000
_cell_angle_beta   90.00000000
_cell_angle_gamma   90.00000000
_symmetry_Int_Tables_number   1
_chemical_formula_structural   Pr4GeO8
_chemical_formula_sum   'Pr16 Ge4 O32'
_cell_volume   795.20957292
_cell_formula_units_Z   4
loop_
 _symmetry_equiv_pos_site_id
 _symmetry_equiv_pos_as_xyz
  1  'x, y, z'
loop_
 _atom_site_type_symbol
 _atom_site_label
 _atom_site_symmetry_multiplicity
 _atom_site_fract_x
 _atom_site_fract_y
 _atom_site_fract_z
 _atom_site_occupancy
  Pr  Pr0  1  0.022145  0.491844  0.397363  1
  Pr  Pr1  1  0.459035  0.750000  0.717648  1
  Pr  Pr2  1  0.481295  0.750000  0.514042  1
  Pr  Pr3  1  0.522145  0.991844  0.102637  1
  Pr  Pr4  1  0.959035  0.250000  0.782352  1
  Pr  Pr5  1  0.977855  0.508156  0.602637  1
  Pr  Pr6  1  0.477855  0.008156  0.897363  1
  Pr  Pr7  1  0.977855  0.991844  0.602637  1
  Pr  Pr8  1  0.981295  0.250000  0.985958  1
  Pr  Pr9  1  0.477855  0.491844  0.897363  1
  Pr  Pr10  1  0.018705  0.750000  0.014042  1
  Pr  Pr11  1  0.540965  0.250000  0.282352  1
  Pr  Pr12  1  0.040965  0.750000  0.217648  1
  Pr  Pr13  1  0.022145  0.008156  0.397363  1
  Pr  Pr14  1  0.522145  0.508156  0.102637  1
  Pr  Pr15  1  0.518705  0.250000  0.485958  1
  Ge  Ge16  1  0.508586  0.750000  0.308912  1
  Ge  Ge17  1  0.491414  0.250000  0.691088  1
  Ge  Ge18  1  0.008586  0.250000  0.191088  1
  Ge  Ge19  1  0.991414  0.750000  0.808912  1
  O  O20  1  0.223142  0.250000  0.874720  1
  O  O21  1  0.197226  0.250000  0.661639  1
  O  O22  1  0.270034  0.750000  0.116214  1
  O  O23  1  0.426178  0.938982  0.256203  1
  O  O24  1  0.758781  0.981025  0.493982  1
  O  O25  1  0.229966  0.750000  0.616214  1
  O  O26  1  0.258781  0.018975  0.006018  1
  O  O27  1  0.692035  0.250000  0.616077  1
  O  O28  1  0.276858  0.250000  0.374720  1
  O  O29  1  0.241219  0.018975  0.506018  1
  O  O30  1  0.770034  0.250000  0.383786  1
  O  O31  1  0.073822  0.561018  0.756203  1
  O  O32  1  0.307965  0.750000  0.383923  1
  O  O33  1  0.723142  0.750000  0.625280  1
  O  O34  1  0.573822  0.438982  0.743797  1
  O  O35  1  0.741219  0.981025  0.993982  1
  O  O36  1  0.741219  0.518975  0.993982  1
  O  O37  1  0.426178  0.561018  0.256203  1
  O  O38  1  0.729966  0.250000  0.883786  1
  O  O39  1  0.073822  0.938982  0.756203  1
  O  O40  1  0.697226  0.750000  0.838361  1
  O  O41  1  0.241219  0.481025  0.506018  1
  O  O42  1  0.758781  0.518975  0.493982  1
  O  O43  1  0.926178  0.061018  0.243797  1
  O  O44  1  0.192035  0.750000  0.883923  1
  O  O45  1  0.776858  0.750000  0.125280  1
  O  O46  1  0.807965  0.250000  0.116077  1
  O  O47  1  0.926178  0.438982  0.243797  1
  O  O48  1  0.802774  0.750000  0.338361  1
  O  O49  1  0.258781  0.481025  0.006018  1
  O  O50  1  0.573822  0.061018  0.743797  1
  O  O51  1  0.302774  0.250000  0.161639  1
