# generated using pymatgen
data_Lu10Ga3Sn2Bi
_symmetry_space_group_name_H-M   'P 1'
_cell_length_a   8.49769700
_cell_length_b   8.51113415
_cell_length_c   6.36750800
_cell_angle_alpha   90.00000000
_cell_angle_beta   90.00000000
_cell_angle_gamma   120.01758416
_symmetry_Int_Tables_number   1
_chemical_formula_structural   Lu10Ga3Sn2Bi
_chemical_formula_sum   'Lu10 Ga3 Sn2 Bi1'
_cell_volume   398.76022135
_cell_formula_units_Z   1
loop_
 _symmetry_equiv_pos_site_id
 _symmetry_equiv_pos_as_xyz
  1  'x, y, z'
loop_
 _atom_site_type_symbol
 _atom_site_label
 _atom_site_symmetry_multiplicity
 _atom_site_fract_x
 _atom_site_fract_y
 _atom_site_fract_z
 _atom_site_occupancy
  Lu  Lu0  1  0.982903  0.749003  0.750000  1
  Lu  Lu1  1  0.010226  0.241688  0.250000  1
  Lu  Lu2  1  0.757645  0.758380  0.250000  1
  Lu  Lu3  1  0.769088  0.000102  0.750000  1
  Lu  Lu4  1  0.231175  0.247956  0.750000  1
  Lu  Lu5  1  0.239893  0.012158  0.250000  1
  Lu  Lu6  1  0.335864  0.645763  0.500679  1
  Lu  Lu7  1  0.669649  0.348185  0.999354  1
  Lu  Lu8  1  0.669649  0.348185  0.500646  1
  Lu  Lu9  1  0.335864  0.645763  0.999321  1
  Ga  Ga10  1  0.401941  0.397389  0.250000  1
  Ga  Ga11  1  0.993916  0.397293  0.750000  1
  Ga  Ga12  1  0.599736  0.600898  0.750000  1
  Sn  Sn13  1  0.008552  0.608614  0.250000  1
  Sn  Sn14  1  0.602972  0.002965  0.250000  1
  Bi  Bi15  1  0.390927  0.995661  0.750000  1
