# generated using pymatgen
data_Lu2BeCo2
_symmetry_space_group_name_H-M   'P 1'
_cell_length_a   5.22547491
_cell_length_b   5.22547404
_cell_length_c   6.55408600
_cell_angle_alpha   90.00000000
_cell_angle_beta   90.00000000
_cell_angle_gamma   116.87388122
_symmetry_Int_Tables_number   1
_chemical_formula_structural   Lu2BeCo2
_chemical_formula_sum   'Lu4 Be2 Co4'
_cell_volume   159.63578226
_cell_formula_units_Z   2
loop_
 _symmetry_equiv_pos_site_id
 _symmetry_equiv_pos_as_xyz
  1  'x, y, z'
loop_
 _atom_site_type_symbol
 _atom_site_label
 _atom_site_symmetry_multiplicity
 _atom_site_fract_x
 _atom_site_fract_y
 _atom_site_fract_z
 _atom_site_occupancy
  Lu  Lu0  1  0.666998  0.333002  0.902797  1
  Lu  Lu1  1  0.333002  0.666998  0.097203  1
  Lu  Lu2  1  0.833002  0.166998  0.402797  1
  Lu  Lu3  1  0.166998  0.833002  0.597203  1
  Be  Be4  1  0.500000  0.500000  0.500000  1
  Be  Be5  1  0.000000  0.000000  0.000000  1
  Co  Co6  1  0.669475  0.830525  0.750000  1
  Co  Co7  1  0.830525  0.669475  0.250000  1
  Co  Co8  1  0.330525  0.169475  0.250000  1
  Co  Co9  1  0.169475  0.330525  0.750000  1
