# generated using pymatgen
data_AcCd12Hg5
_symmetry_space_group_name_H-M   'P 1'
_cell_length_a   15.72513531
_cell_length_b   15.72513485
_cell_length_c   7.29300074
_cell_angle_alpha   96.07118962
_cell_angle_beta   96.07118868
_cell_angle_gamma   14.40488257
_symmetry_Int_Tables_number   1
_chemical_formula_structural   AcCd12Hg5
_chemical_formula_sum   'Ac1 Cd12 Hg5'
_cell_volume   446.08264777
_cell_formula_units_Z   1
loop_
 _symmetry_equiv_pos_site_id
 _symmetry_equiv_pos_as_xyz
  1  'x, y, z'
loop_
 _atom_site_type_symbol
 _atom_site_label
 _atom_site_symmetry_multiplicity
 _atom_site_fract_x
 _atom_site_fract_y
 _atom_site_fract_z
 _atom_site_occupancy
  Ac  Ac0  1  0.000000  0.000000  0.500000  1
  Cd  Cd1  1  0.122060  0.122060  0.074768  1
  Cd  Cd2  1  0.226415  0.226415  0.113777  1
  Cd  Cd3  1  0.329151  0.329151  0.161576  1
  Cd  Cd4  1  0.434708  0.434708  0.172874  1
  Cd  Cd5  1  0.568265  0.568265  0.266719  1
  Cd  Cd6  1  0.779638  0.779638  0.383350  1
  Cd  Cd7  1  0.220362  0.220362  0.616651  1
  Cd  Cd8  1  0.431735  0.431735  0.733281  1
  Cd  Cd9  1  0.565292  0.565292  0.827125  1
  Cd  Cd10  1  0.670848  0.670848  0.838424  1
  Cd  Cd11  1  0.773584  0.773584  0.886222  1
  Cd  Cd12  1  0.877941  0.877941  0.925233  1
  Hg  Hg13  1  0.000000  0.000000  0.000000  1
  Hg  Hg14  1  0.675249  0.675249  0.338480  1
  Hg  Hg15  1  0.888355  0.888355  0.425820  1
  Hg  Hg16  1  0.111645  0.111645  0.574181  1
  Hg  Hg17  1  0.324751  0.324751  0.661520  1
