# generated using pymatgen
data_NaSm2(B3Ir4)2
_symmetry_space_group_name_H-M   'P 1'
_cell_length_a   9.90186017
_cell_length_b   9.05251462
_cell_length_c   5.60882600
_cell_angle_alpha   81.30005626
_cell_angle_beta   64.64938131
_cell_angle_gamma   34.05054378
_symmetry_Int_Tables_number   1
_chemical_formula_structural   NaSm2(B3Ir4)2
_chemical_formula_sum   'Na1 Sm2 B6 Ir8'
_cell_volume   232.92091971
_cell_formula_units_Z   1
loop_
 _symmetry_equiv_pos_site_id
 _symmetry_equiv_pos_as_xyz
  1  'x, y, z'
loop_
 _atom_site_type_symbol
 _atom_site_label
 _atom_site_symmetry_multiplicity
 _atom_site_fract_x
 _atom_site_fract_y
 _atom_site_fract_z
 _atom_site_occupancy
  Na  Na0  1  0.184365  0.184365  0.815635  1
  Sm  Sm1  1  0.008324  0.008324  0.991676  1
  Sm  Sm2  1  0.819953  0.819953  0.180047  1
  B  B3  1  0.826719  0.517139  0.482861  1
  B  B4  1  0.169976  0.479187  0.520813  1
  B  B5  1  0.479187  0.169976  0.830024  1
  B  B6  1  0.668646  0.330163  0.669837  1
  B  B7  1  0.517139  0.826719  0.173281  1
  B  B8  1  0.330163  0.668646  0.331354  1
  Ir  Ir9  1  0.412661  0.412661  0.587339  1
  Ir  Ir10  1  0.585954  0.585954  0.914046  1
  Ir  Ir11  1  0.085954  0.085954  0.414046  1
  Ir  Ir12  1  0.914466  0.914466  0.585534  1
  Ir  Ir13  1  0.585727  0.585727  0.414273  1
  Ir  Ir14  1  0.248149  0.248149  0.251851  1
  Ir  Ir15  1  0.414466  0.414466  0.085534  1
  Ir  Ir16  1  0.748149  0.748149  0.751851  1
