# generated using pymatgen
data_LiTb11Pr5Cd3Pt4
_symmetry_space_group_name_H-M   'P 1'
_cell_length_a   9.84880765
_cell_length_b   9.82413057
_cell_length_c   9.82413096
_cell_angle_alpha   60.10132867
_cell_angle_beta   60.13324830
_cell_angle_gamma   60.13325161
_symmetry_Int_Tables_number   1
_chemical_formula_structural   LiTb11Pr5Cd3Pt4
_chemical_formula_sum   'Li1 Tb11 Pr5 Cd3 Pt4'
_cell_volume   674.00250139
_cell_formula_units_Z   1
loop_
 _symmetry_equiv_pos_site_id
 _symmetry_equiv_pos_as_xyz
  1  'x, y, z'
loop_
 _atom_site_type_symbol
 _atom_site_label
 _atom_site_symmetry_multiplicity
 _atom_site_fract_x
 _atom_site_fract_y
 _atom_site_fract_z
 _atom_site_occupancy
  Li  Li0  1  0.571987  0.571150  0.571150  1
  Tb  Tb1  1  0.350493  0.350358  0.350358  1
  Tb  Tb2  1  0.349227  0.351097  0.950130  1
  Tb  Tb3  1  0.349227  0.950130  0.351097  1
  Tb  Tb4  1  0.948824  0.350917  0.350917  1
  Tb  Tb5  1  0.811690  0.190571  0.190571  1
  Tb  Tb6  1  0.184314  0.814347  0.814347  1
  Tb  Tb7  1  0.189205  0.811647  0.191296  1
  Tb  Tb8  1  0.814318  0.186158  0.813347  1
  Tb  Tb9  1  0.189205  0.191296  0.811647  1
  Tb  Tb10  1  0.814318  0.813347  0.186158  1
  Tb  Tb11  1  0.942537  0.559586  0.559586  1
  Pr  Pr12  1  0.560504  0.938927  0.938927  1
  Pr  Pr13  1  0.564805  0.934611  0.562481  1
  Pr  Pr14  1  0.938111  0.560668  0.936274  1
  Pr  Pr15  1  0.564805  0.562481  0.934611  1
  Pr  Pr16  1  0.938111  0.936274  0.560668  1
  Cd  Cd17  1  0.580513  0.581258  0.259962  1
  Cd  Cd18  1  0.580513  0.259962  0.581258  1
  Cd  Cd19  1  0.257890  0.580746  0.580746  1
  Pt  Pt20  1  0.143228  0.144187  0.144187  1
  Pt  Pt21  1  0.142388  0.145892  0.571138  1
  Pt  Pt22  1  0.142388  0.571138  0.145892  1
  Pt  Pt23  1  0.571394  0.143251  0.143251  1
