# generated using pymatgen
data_DyTh3TlInAu4
_symmetry_space_group_name_H-M   'P 1'
_cell_length_a   8.15084103
_cell_length_b   8.13856927
_cell_length_c   3.87610900
_cell_angle_alpha   90.00000000
_cell_angle_beta   90.00000000
_cell_angle_gamma   89.63139385
_symmetry_Int_Tables_number   1
_chemical_formula_structural   DyTh3TlInAu4
_chemical_formula_sum   'Dy1 Th3 Tl1 In1 Au4'
_cell_volume   257.12096033
_cell_formula_units_Z   1
loop_
 _symmetry_equiv_pos_site_id
 _symmetry_equiv_pos_as_xyz
  1  'x, y, z'
loop_
 _atom_site_type_symbol
 _atom_site_label
 _atom_site_symmetry_multiplicity
 _atom_site_fract_x
 _atom_site_fract_y
 _atom_site_fract_z
 _atom_site_occupancy
  Dy  Dy0  1  0.174881  0.323821  0.500000  1
  Th  Th1  1  0.321268  0.826980  0.500000  1
  Th  Th2  1  0.828170  0.673501  0.500000  1
  Th  Th3  1  0.674339  0.177445  0.500000  1
  Tl  Tl4  1  0.496132  0.498460  0.000000  1
  In  In5  1  0.001289  0.004727  0.000000  1
  Au  Au6  1  0.125446  0.623040  0.000000  1
  Au  Au7  1  0.627440  0.877273  0.000000  1
  Au  Au8  1  0.369026  0.125728  0.000000  1
  Au  Au9  1  0.882009  0.369023  0.000000  1
