# generated using pymatgen
data_Dy2Ta3P7Rh9
_symmetry_space_group_name_H-M   'P 1'
_cell_length_a   3.92384500
_cell_length_b   9.63445842
_cell_length_c   9.63586002
_cell_angle_alpha   119.99994970
_cell_angle_beta   89.99845673
_cell_angle_gamma   90.00088631
_symmetry_Int_Tables_number   1
_chemical_formula_structural   Dy2Ta3P7Rh9
_chemical_formula_sum   'Dy2 Ta3 P7 Rh9'
_cell_volume   315.47175691
_cell_formula_units_Z   1
loop_
 _symmetry_equiv_pos_site_id
 _symmetry_equiv_pos_as_xyz
  1  'x, y, z'
loop_
 _atom_site_type_symbol
 _atom_site_label
 _atom_site_symmetry_multiplicity
 _atom_site_fract_x
 _atom_site_fract_y
 _atom_site_fract_z
 _atom_site_occupancy
  Dy  Dy0  1  0.261107  0.666672  0.333345  1
  Dy  Dy1  1  0.762259  0.333350  0.666666  1
  Ta  Ta2  1  0.761988  0.094932  0.872923  1
  Ta  Ta3  1  0.761957  0.127101  0.222016  1
  Ta  Ta4  1  0.761990  0.777971  0.905061  1
  P  P5  1  0.262131  0.999979  0.999991  1
  P  P6  1  0.761627  0.877102  0.588711  1
  P  P7  1  0.761597  0.411266  0.288372  1
  P  P8  1  0.761624  0.711637  0.122940  1
  P  P9  1  0.262029  0.117436  0.416132  1
  P  P10  1  0.262018  0.583891  0.701291  1
  P  P11  1  0.262004  0.298652  0.882541  1
  Rh  Rh12  1  0.261864  0.885280  0.161105  1
  Rh  Rh13  1  0.261857  0.838887  0.724172  1
  Rh  Rh14  1  0.261833  0.275788  0.114696  1
  Rh  Rh15  1  0.761897  0.611867  0.557757  1
  Rh  Rh16  1  0.761887  0.442249  0.054080  1
  Rh  Rh17  1  0.761922  0.945949  0.388208  1
  Rh  Rh18  1  0.262113  0.367599  0.438744  1
  Rh  Rh19  1  0.262142  0.561264  0.928849  1
  Rh  Rh20  1  0.262155  0.071129  0.632398  1
