# generated using pymatgen
data_LiTb4Co17(P6Ru)2
_symmetry_space_group_name_H-M   'P 1'
_cell_length_a   3.68976300
_cell_length_b   10.34921327
_cell_length_c   11.81458171
_cell_angle_alpha   89.90901551
_cell_angle_beta   90.00000000
_cell_angle_gamma   90.00000000
_symmetry_Int_Tables_number   1
_chemical_formula_structural   LiTb4Co17(P6Ru)2
_chemical_formula_sum   'Li1 Tb4 Co17 P12 Ru2'
_cell_volume   451.15275224
_cell_formula_units_Z   1
loop_
 _symmetry_equiv_pos_site_id
 _symmetry_equiv_pos_as_xyz
  1  'x, y, z'
loop_
 _atom_site_type_symbol
 _atom_site_label
 _atom_site_symmetry_multiplicity
 _atom_site_fract_x
 _atom_site_fract_y
 _atom_site_fract_z
 _atom_site_occupancy
  Li  Li0  1  0.750000  0.296760  0.009083  1
  Tb  Tb1  1  0.250000  0.582313  0.701652  1
  Tb  Tb2  1  0.250000  0.919050  0.202519  1
  Tb  Tb3  1  0.750000  0.414559  0.296729  1
  Tb  Tb4  1  0.750000  0.084423  0.795286  1
  Co  Co5  1  0.750000  0.215734  0.507837  1
  Co  Co6  1  0.250000  0.406193  0.486692  1
  Co  Co7  1  0.250000  0.091840  0.987506  1
  Co  Co8  1  0.750000  0.591575  0.509843  1
  Co  Co9  1  0.750000  0.905692  0.010522  1
  Co  Co10  1  0.250000  0.219164  0.178927  1
  Co  Co11  1  0.250000  0.280479  0.672685  1
  Co  Co12  1  0.750000  0.777061  0.823713  1
  Co  Co13  1  0.750000  0.721412  0.323859  1
  Co  Co14  1  0.250000  0.885893  0.702341  1
  Co  Co15  1  0.250000  0.615419  0.201788  1
  Co  Co16  1  0.750000  0.115030  0.302557  1
  Co  Co17  1  0.750000  0.382568  0.799729  1
  Co  Co18  1  0.250000  0.463999  0.933365  1
  Co  Co19  1  0.250000  0.034389  0.433534  1
  Co  Co20  1  0.750000  0.534839  0.068937  1
  Co  Co21  1  0.750000  0.966999  0.569316  1
  P  P22  1  0.250000  0.419044  0.114972  1
  P  P23  1  0.250000  0.082541  0.611785  1
  P  P24  1  0.750000  0.576554  0.887027  1
  P  P25  1  0.750000  0.920944  0.388132  1
  P  P26  1  0.250000  0.271240  0.862613  1
  P  P27  1  0.250000  0.227839  0.368918  1
  P  P28  1  0.750000  0.729726  0.133667  1
  P  P29  1  0.750000  0.771848  0.633632  1
  P  P30  1  0.250000  0.595982  0.390717  1
  P  P31  1  0.250000  0.903357  0.891884  1
  P  P32  1  0.750000  0.397105  0.606373  1
  P  P33  1  0.750000  0.102854  0.108479  1
  Ru  Ru34  1  0.250000  0.710843  0.991038  1
  Ru  Ru35  1  0.250000  0.784733  0.492347  1
