# generated using pymatgen
data_LiHo2Si4Pt
_symmetry_space_group_name_H-M   'P 1'
_cell_length_a   3.83484200
_cell_length_b   7.34156700
_cell_length_c   10.06677100
_cell_angle_alpha   90.00000000
_cell_angle_beta   90.00000000
_cell_angle_gamma   90.00000000
_symmetry_Int_Tables_number   1
_chemical_formula_structural   LiHo2Si4Pt
_chemical_formula_sum   'Li2 Ho4 Si8 Pt2'
_cell_volume   283.41734878
_cell_formula_units_Z   2
loop_
 _symmetry_equiv_pos_site_id
 _symmetry_equiv_pos_as_xyz
  1  'x, y, z'
loop_
 _atom_site_type_symbol
 _atom_site_label
 _atom_site_symmetry_multiplicity
 _atom_site_fract_x
 _atom_site_fract_y
 _atom_site_fract_z
 _atom_site_occupancy
  Li  Li0  1  0.750000  0.004903  0.604579  1
  Li  Li1  1  0.750000  0.504903  0.895421  1
  Ho  Ho2  1  0.250000  0.144067  0.871612  1
  Ho  Ho3  1  0.250000  0.644067  0.628388  1
  Ho  Ho4  1  0.750000  0.863126  0.133628  1
  Ho  Ho5  1  0.750000  0.363126  0.366372  1
  Si  Si6  1  0.250000  0.223832  0.568266  1
  Si  Si7  1  0.250000  0.723832  0.931734  1
  Si  Si8  1  0.750000  0.771413  0.430590  1
  Si  Si9  1  0.750000  0.271413  0.069410  1
  Si  Si10  1  0.250000  0.657764  0.316830  1
  Si  Si11  1  0.250000  0.157764  0.183170  1
  Si  Si12  1  0.750000  0.340544  0.678807  1
  Si  Si13  1  0.750000  0.840544  0.821193  1
  Pt  Pt14  1  0.250000  0.994350  0.390408  1
  Pt  Pt15  1  0.250000  0.494350  0.109592  1
