# generated using pymatgen
data_Er8Ti3Re8Si16Ru
_symmetry_space_group_name_H-M   'P 1'
_cell_length_a   6.75564076
_cell_length_b   6.75528279
_cell_length_c   12.92122951
_cell_angle_alpha   90.06620744
_cell_angle_beta   89.76353053
_cell_angle_gamma   89.58502239
_symmetry_Int_Tables_number   1
_chemical_formula_structural   Er8Ti3Re8Si16Ru
_chemical_formula_sum   'Er8 Ti3 Re8 Si16 Ru1'
_cell_volume   589.65573576
_cell_formula_units_Z   1
loop_
 _symmetry_equiv_pos_site_id
 _symmetry_equiv_pos_as_xyz
  1  'x, y, z'
loop_
 _atom_site_type_symbol
 _atom_site_label
 _atom_site_symmetry_multiplicity
 _atom_site_fract_x
 _atom_site_fract_y
 _atom_site_fract_z
 _atom_site_occupancy
  Er  Er0  1  0.335658  0.993363  0.469642  1
  Er  Er1  1  0.509971  0.836375  0.718406  1
  Er  Er2  1  0.487514  0.167541  0.216577  1
  Er  Er3  1  0.834580  0.509549  0.281864  1
  Er  Er4  1  0.166326  0.486638  0.783591  1
  Er  Er5  1  0.661111  0.009904  0.969873  1
  Er  Er6  1  0.993268  0.335492  0.531456  1
  Er  Er7  1  0.009669  0.659942  0.031003  1
  Ti  Ti8  1  0.156137  0.844423  0.248128  1
  Ti  Ti9  1  0.841297  0.157075  0.750682  1
  Ti  Ti10  1  0.655895  0.656504  0.500260  1
  Re  Re11  1  0.340537  0.341058  0.999512  1
  Re  Re12  1  0.495944  0.697882  0.116265  1
  Re  Re13  1  0.501462  0.316100  0.616309  1
  Re  Re14  1  0.697358  0.500069  0.883835  1
  Re  Re15  1  0.315855  0.501537  0.382625  1
  Re  Re16  1  0.816147  0.001933  0.363557  1
  Re  Re17  1  0.989136  0.182920  0.136219  1
  Re  Re18  1  0.003314  0.814245  0.635807  1
  Si  Si19  1  0.202365  0.119420  0.680174  1
  Si  Si20  1  0.387972  0.693994  0.929706  1
  Si  Si21  1  0.619813  0.295906  0.430021  1
  Si  Si22  1  0.695502  0.388805  0.070246  1
  Si  Si23  1  0.295701  0.618788  0.570077  1
  Si  Si24  1  0.792891  0.881737  0.179672  1
  Si  Si25  1  0.119297  0.206011  0.320737  1
  Si  Si26  1  0.884438  0.797596  0.820100  1
  Si  Si27  1  0.267980  0.988936  0.052820  1
  Si  Si28  1  0.517973  0.783676  0.307793  1
  Si  Si29  1  0.482979  0.222606  0.809986  1
  Si  Si30  1  0.781937  0.518528  0.692248  1
  Si  Si31  1  0.220664  0.481165  0.190399  1
  Si  Si32  1  0.725065  0.016930  0.555604  1
  Si  Si33  1  0.988477  0.265464  0.945080  1
  Si  Si34  1  0.017433  0.725175  0.444653  1
  Ru  Ru35  1  0.188335  0.982711  0.865073  1
