# generated using pymatgen
data_Rb4Na2ScAlSb4
_symmetry_space_group_name_H-M   'P 1'
_cell_length_a   9.84088740
_cell_length_b   9.84088761
_cell_length_c   9.84088734
_cell_angle_alpha   135.77503649
_cell_angle_beta   62.79442157
_cell_angle_gamma   137.78065037
_symmetry_Int_Tables_number   1
_chemical_formula_structural   Rb4Na2ScAlSb4
_chemical_formula_sum   'Rb4 Na2 Sc1 Al1 Sb4'
_cell_volume   441.13695200
_cell_formula_units_Z   1
loop_
 _symmetry_equiv_pos_site_id
 _symmetry_equiv_pos_as_xyz
  1  'x, y, z'
loop_
 _atom_site_type_symbol
 _atom_site_label
 _atom_site_symmetry_multiplicity
 _atom_site_fract_x
 _atom_site_fract_y
 _atom_site_fract_z
 _atom_site_occupancy
  Rb  Rb0  1  0.827100  0.265590  0.095684  1
  Rb  Rb1  1  0.672899  0.768582  0.438490  1
  Rb  Rb2  1  0.330093  0.234409  0.561510  1
  Rb  Rb3  1  0.169907  0.731417  0.904316  1
  Na  Na4  1  0.750000  0.250000  0.500000  1
  Na  Na5  1  0.250000  0.749999  0.500000  1
  Sc  Sc6  1  0.250000  0.250000  0.000000  1
  Al  Al7  1  0.750001  0.750001  0.000000  1
  Sb  Sb8  1  0.413495  0.719006  0.115292  1
  Sb  Sb9  1  0.086505  0.201797  0.305510  1
  Sb  Sb10  1  0.896285  0.780993  0.694489  1
  Sb  Sb11  1  0.603715  0.298203  0.884708  1
