# generated using pymatgen
data_In2Bi4(TeO6)3
_symmetry_space_group_name_H-M   'P 1'
_cell_length_a   9.23289600
_cell_length_b   9.22422575
_cell_length_c   5.33140825
_cell_angle_alpha   90.83832249
_cell_angle_beta   90.00000000
_cell_angle_gamma   120.03111228
_symmetry_Int_Tables_number   1
_chemical_formula_structural   In2Bi4(TeO6)3
_chemical_formula_sum   'In2 Bi4 Te3 O18'
_cell_volume   393.04490631
_cell_formula_units_Z   1
loop_
 _symmetry_equiv_pos_site_id
 _symmetry_equiv_pos_as_xyz
  1  'x, y, z'
loop_
 _atom_site_type_symbol
 _atom_site_label
 _atom_site_symmetry_multiplicity
 _atom_site_fract_x
 _atom_site_fract_y
 _atom_site_fract_z
 _atom_site_occupancy
  In  In0  1  0.999569  0.289406  0.504023  1
  In  In1  1  0.710165  0.710594  0.495977  1
  Bi  Bi2  1  0.622276  0.000000  0.000000  1
  Bi  Bi3  1  0.996466  0.617912  0.001788  1
  Bi  Bi4  1  0.378554  0.382088  0.998212  1
  Bi  Bi5  1  0.278982  0.000000  0.500000  1
  Te  Te6  1  0.993631  0.000000  0.000000  1
  Te  Te7  1  0.335088  0.663318  0.495339  1
  Te  Te8  1  0.671771  0.336682  0.504661  1
  O  O9  1  0.074185  0.871964  0.815817  1
  O  O10  1  0.106075  0.189411  0.766046  1
  O  O11  1  0.789516  0.904052  0.795391  1
  O  O12  1  0.202220  0.128036  0.184183  1
  O  O13  1  0.916664  0.810589  0.233954  1
  O  O14  1  0.885463  0.095948  0.204609  1
  O  O15  1  0.467925  0.601725  0.702660  1
  O  O16  1  0.402657  0.864720  0.701210  1
  O  O17  1  0.137665  0.538000  0.708716  1
  O  O18  1  0.866199  0.398275  0.297340  1
  O  O19  1  0.537936  0.135280  0.298790  1
  O  O20  1  0.599664  0.462000  0.291284  1
  O  O21  1  0.233027  0.757681  0.275709  1
  O  O22  1  0.231801  0.454544  0.295757  1
  O  O23  1  0.538447  0.767000  0.284397  1
  O  O24  1  0.475346  0.242319  0.724291  1
  O  O25  1  0.777259  0.545456  0.704243  1
  O  O26  1  0.771447  0.233000  0.715603  1
