# generated using pymatgen
data_Ho2Ga9Ir2Pd
_symmetry_space_group_name_H-M   'P 1'
_cell_length_a   7.60784585
_cell_length_b   7.60784652
_cell_length_c   9.48095800
_cell_angle_alpha   90.00000000
_cell_angle_beta   90.00000000
_cell_angle_gamma   119.83303772
_symmetry_Int_Tables_number   1
_chemical_formula_structural   Ho2Ga9Ir2Pd
_chemical_formula_sum   'Ho4 Ga18 Ir4 Pd2'
_cell_volume   476.03020727
_cell_formula_units_Z   2
loop_
 _symmetry_equiv_pos_site_id
 _symmetry_equiv_pos_as_xyz
  1  'x, y, z'
loop_
 _atom_site_type_symbol
 _atom_site_label
 _atom_site_symmetry_multiplicity
 _atom_site_fract_x
 _atom_site_fract_y
 _atom_site_fract_z
 _atom_site_occupancy
  Ho  Ho0  1  0.996876  0.667879  0.250000  1
  Ho  Ho1  1  0.003124  0.332121  0.750000  1
  Ho  Ho2  1  0.667879  0.996876  0.250000  1
  Ho  Ho3  1  0.332121  0.003124  0.750000  1
  Ga  Ga4  1  0.127316  0.127316  0.250000  1
  Ga  Ga5  1  0.872684  0.872684  0.750000  1
  Ga  Ga6  1  0.998907  0.336332  0.080902  1
  Ga  Ga7  1  0.001093  0.663668  0.919098  1
  Ga  Ga8  1  0.001093  0.663668  0.580902  1
  Ga  Ga9  1  0.336332  0.998907  0.419098  1
  Ga  Ga10  1  0.998907  0.336332  0.419098  1
  Ga  Ga11  1  0.663668  0.001093  0.580902  1
  Ga  Ga12  1  0.663668  0.001093  0.919098  1
  Ga  Ga13  1  0.336332  0.998907  0.080902  1
  Ga  Ga14  1  0.334493  0.334493  0.566587  1
  Ga  Ga15  1  0.665507  0.665507  0.433413  1
  Ga  Ga16  1  0.665507  0.665507  0.066587  1
  Ga  Ga17  1  0.334493  0.334493  0.933413  1
  Ga  Ga18  1  0.338242  0.546254  0.250000  1
  Ga  Ga19  1  0.661758  0.453746  0.750000  1
  Ga  Ga20  1  0.546254  0.338242  0.250000  1
  Ga  Ga21  1  0.453746  0.661758  0.750000  1
  Ir  Ir22  1  0.671590  0.328410  0.000000  1
  Ir  Ir23  1  0.328410  0.671590  0.000000  1
  Ir  Ir24  1  0.328410  0.671590  0.500000  1
  Ir  Ir25  1  0.671590  0.328410  0.500000  1
  Pd  Pd26  1  0.000000  0.000000  0.000000  1
  Pd  Pd27  1  0.000000  0.000000  0.500000  1
