# generated using pymatgen
data_Tb2Si7NiPd11
_symmetry_space_group_name_H-M   'P 1'
_cell_length_a   9.90915964
_cell_length_b   9.94965469
_cell_length_c   3.84939200
_cell_angle_alpha   90.00000000
_cell_angle_beta   90.00000000
_cell_angle_gamma   120.20436916
_symmetry_Int_Tables_number   1
_chemical_formula_structural   Tb2Si7NiPd11
_chemical_formula_sum   'Tb2 Si7 Ni1 Pd11'
_cell_volume   327.99675534
_cell_formula_units_Z   1
loop_
 _symmetry_equiv_pos_site_id
 _symmetry_equiv_pos_as_xyz
  1  'x, y, z'
loop_
 _atom_site_type_symbol
 _atom_site_label
 _atom_site_symmetry_multiplicity
 _atom_site_fract_x
 _atom_site_fract_y
 _atom_site_fract_z
 _atom_site_occupancy
  Tb  Tb0  1  0.668413  0.331687  0.000000  1
  Tb  Tb1  1  0.332962  0.666234  0.500000  1
  Si  Si2  1  0.291289  0.882527  0.000000  1
  Si  Si3  1  0.592297  0.709909  0.000000  1
  Si  Si4  1  0.111181  0.399430  0.000000  1
  Si  Si5  1  0.402761  0.288370  0.500000  1
  Si  Si6  1  0.886217  0.594870  0.500000  1
  Si  Si7  1  0.717147  0.117412  0.500000  1
  Si  Si8  1  0.992561  0.007045  0.000000  1
  Ni  Ni9  1  0.879516  0.159788  0.000000  1
  Pd  Pd10  1  0.065692  0.623385  0.000000  1
  Pd  Pd11  1  0.567458  0.938106  0.000000  1
  Pd  Pd12  1  0.371679  0.438128  0.000000  1
  Pd  Pd13  1  0.270273  0.116404  0.000000  1
  Pd  Pd14  1  0.845555  0.727985  0.000000  1
  Pd  Pd15  1  0.442568  0.056726  0.500000  1
  Pd  Pd16  1  0.615616  0.560458  0.500000  1
  Pd  Pd17  1  0.943360  0.379682  0.500000  1
  Pd  Pd18  1  0.097723  0.870052  0.500000  1
  Pd  Pd19  1  0.786658  0.914792  0.500000  1
  Pd  Pd20  1  0.119077  0.217007  0.500000  1
