# generated using pymatgen
data_La19TmSi15I
_symmetry_space_group_name_H-M   'P 1'
_cell_length_a   8.02697114
_cell_length_b   8.11955668
_cell_length_c   15.58685600
_cell_angle_alpha   89.56162380
_cell_angle_beta   85.05707266
_cell_angle_gamma   89.76186493
_symmetry_Int_Tables_number   1
_chemical_formula_structural   La19TmSi15I
_chemical_formula_sum   'La19 Tm1 Si15 I1'
_cell_volume   1012.06641211
_cell_formula_units_Z   1
loop_
 _symmetry_equiv_pos_site_id
 _symmetry_equiv_pos_as_xyz
  1  'x, y, z'
loop_
 _atom_site_type_symbol
 _atom_site_label
 _atom_site_symmetry_multiplicity
 _atom_site_fract_x
 _atom_site_fract_y
 _atom_site_fract_z
 _atom_site_occupancy
  La  La0  1  0.871275  0.326275  0.624919  1
  La  La1  1  0.465613  0.690764  0.894121  1
  La  La2  1  0.965137  0.810555  0.895526  1
  La  La3  1  0.180458  0.677492  0.119619  1
  La  La4  1  0.680640  0.815752  0.120353  1
  La  La5  1  0.319607  0.179314  0.880089  1
  La  La6  1  0.148955  0.665796  0.384704  1
  La  La7  1  0.035794  0.188085  0.103494  1
  La  La8  1  0.364363  0.168893  0.616010  1
  La  La9  1  0.835598  0.492476  0.239673  1
  La  La10  1  0.332341  0.004572  0.251163  1
  La  La11  1  0.476882  0.305954  0.394511  1
  La  La12  1  0.820998  0.322282  0.878782  1
  La  La13  1  0.013818  0.829295  0.606771  1
  La  La14  1  0.494731  0.692336  0.608145  1
  La  La15  1  0.994448  0.167987  0.394731  1
  La  La16  1  0.629204  0.850754  0.381773  1
  La  La17  1  0.666369  0.994066  0.745284  1
  La  La18  1  0.535890  0.307250  0.103860  1
  Tm  Tm19  1  0.173521  0.512885  0.746945  1
  Si  Si20  1  0.451217  0.597060  0.252655  1
  Si  Si21  1  0.224690  0.376755  0.249138  1
  Si  Si22  1  0.545552  0.403811  0.751426  1
  Si  Si23  1  0.633533  0.023429  0.957427  1
  Si  Si24  1  0.049299  0.101943  0.752925  1
  Si  Si25  1  0.777614  0.621325  0.751431  1
  Si  Si26  1  0.725706  0.120998  0.248155  1
  Si  Si27  1  0.286335  0.972370  0.454812  1
  Si  Si28  1  0.950497  0.897101  0.250068  1
  Si  Si29  1  0.369897  0.974005  0.042498  1
  Si  Si30  1  0.716229  0.029717  0.543438  1
  Si  Si31  1  0.134633  0.478736  0.953113  1
  Si  Si32  1  0.207991  0.482173  0.554308  1
  Si  Si33  1  0.870900  0.522532  0.040394  1
  Si  Si34  1  0.270430  0.874643  0.752556  1
  I  I35  1  0.779834  0.520623  0.455184  1
