# generated using pymatgen
data_Tm8Lu7Sc4Si16Tc
_symmetry_space_group_name_H-M   'P 1'
_cell_length_a   7.06230983
_cell_length_b   7.47947657
_cell_length_c   14.02504537
_cell_angle_alpha   90.06602878
_cell_angle_beta   90.09622763
_cell_angle_gamma   90.22831212
_symmetry_Int_Tables_number   1
_chemical_formula_structural   Tm8Lu7Sc4Si16Tc
_chemical_formula_sum   'Tm8 Lu7 Sc4 Si16 Tc1'
_cell_volume   740.82886498
_cell_formula_units_Z   1
loop_
 _symmetry_equiv_pos_site_id
 _symmetry_equiv_pos_as_xyz
  1  'x, y, z'
loop_
 _atom_site_type_symbol
 _atom_site_label
 _atom_site_symmetry_multiplicity
 _atom_site_fract_x
 _atom_site_fract_y
 _atom_site_fract_z
 _atom_site_occupancy
  Tm  Tm0  1  0.018084  0.181688  0.093533  1
  Tm  Tm1  1  0.988750  0.813290  0.902573  1
  Tm  Tm2  1  0.481689  0.678207  0.903776  1
  Tm  Tm3  1  0.986744  0.813728  0.599164  1
  Tm  Tm4  1  0.516904  0.318414  0.094913  1
  Tm  Tm5  1  0.017971  0.183147  0.405426  1
  Tm  Tm6  1  0.518494  0.317537  0.403093  1
  Tm  Tm7  1  0.482383  0.678105  0.596048  1
  Lu  Lu8  1  0.318404  0.179218  0.628521  1
  Lu  Lu9  1  0.679334  0.824555  0.373325  1
  Lu  Lu10  1  0.179468  0.672721  0.375710  1
  Lu  Lu11  1  0.679320  0.823895  0.124787  1
  Lu  Lu12  1  0.820586  0.330302  0.630223  1
  Lu  Lu13  1  0.318946  0.179896  0.872336  1
  Lu  Lu14  1  0.821704  0.331509  0.871398  1
  Sc  Sc15  1  0.848396  0.490342  0.248797  1
  Sc  Sc16  1  0.348058  0.010242  0.248387  1
  Sc  Sc17  1  0.648507  0.983615  0.750197  1
  Sc  Sc18  1  0.179408  0.673031  0.125389  1
  Si  Si19  1  0.014346  0.093086  0.750640  1
  Si  Si20  1  0.986495  0.897574  0.248065  1
  Si  Si21  1  0.478560  0.601416  0.247390  1
  Si  Si22  1  0.505254  0.415309  0.750210  1
  Si  Si23  1  0.277398  0.850693  0.750251  1
  Si  Si24  1  0.723876  0.137849  0.249047  1
  Si  Si25  1  0.219960  0.364487  0.248353  1
  Si  Si26  1  0.787285  0.638280  0.750629  1
  Si  Si27  1  0.152823  0.473117  0.549024  1
  Si  Si28  1  0.844478  0.531622  0.462474  1
  Si  Si29  1  0.347263  0.969940  0.461414  1
  Si  Si30  1  0.851849  0.531406  0.039908  1
  Si  Si31  1  0.656163  0.031797  0.540591  1
  Si  Si32  1  0.156216  0.473169  0.955508  1
  Si  Si33  1  0.655452  0.031449  0.959336  1
  Si  Si34  1  0.342273  0.963957  0.038252  1
  Tc  Tc35  1  0.147155  0.511404  0.751313  1
