# generated using pymatgen
data_Dy3Er5Tc3B24Rh
_symmetry_space_group_name_H-M   'P 1'
_cell_length_a   3.66420300
_cell_length_b   9.12754732
_cell_length_c   11.51220604
_cell_angle_alpha   90.13447540
_cell_angle_beta   90.00000000
_cell_angle_gamma   90.00000000
_symmetry_Int_Tables_number   1
_chemical_formula_structural   Dy3Er5Tc3B24Rh
_chemical_formula_sum   'Dy3 Er5 Tc3 B24 Rh1'
_cell_volume   385.02681507
_cell_formula_units_Z   1
loop_
 _symmetry_equiv_pos_site_id
 _symmetry_equiv_pos_as_xyz
  1  'x, y, z'
loop_
 _atom_site_type_symbol
 _atom_site_label
 _atom_site_symmetry_multiplicity
 _atom_site_fract_x
 _atom_site_fract_y
 _atom_site_fract_z
 _atom_site_occupancy
  Dy  Dy0  1  0.500000  0.318824  0.415753  1
  Dy  Dy1  1  0.500000  0.677899  0.590923  1
  Dy  Dy2  1  0.500000  0.177051  0.912866  1
  Er  Er3  1  0.500000  0.827339  0.081124  1
  Er  Er4  1  0.500000  0.440801  0.128958  1
  Er  Er5  1  0.500000  0.557024  0.871192  1
  Er  Er6  1  0.500000  0.056061  0.629678  1
  Er  Er7  1  0.500000  0.943877  0.369612  1
  Tc  Tc8  1  0.500000  0.138455  0.180280  1
  Tc  Tc9  1  0.500000  0.861237  0.820807  1
  Tc  Tc10  1  0.500000  0.362189  0.678089  1
  B  B11  1  0.000000  0.100885  0.471473  1
  B  B12  1  0.000000  0.896056  0.527899  1
  B  B13  1  0.000000  0.397749  0.972185  1
  B  B14  1  0.000000  0.603961  0.029314  1
  B  B15  1  0.000000  0.130439  0.315019  1
  B  B16  1  0.000000  0.868637  0.685371  1
  B  B17  1  0.000000  0.369549  0.814425  1
  B  B18  1  0.000000  0.631803  0.183568  1
  B  B19  1  0.000000  0.053307  0.066692  1
  B  B20  1  0.000000  0.946861  0.932837  1
  B  B21  1  0.000000  0.446286  0.566756  1
  B  B22  1  0.000000  0.554174  0.433549  1
  B  B23  1  0.000000  0.483203  0.287543  1
  B  B24  1  0.000000  0.518042  0.712635  1
  B  B25  1  0.000000  0.017350  0.787088  1
  B  B26  1  0.000000  0.982359  0.211809  1
  B  B27  1  0.000000  0.249370  0.081415  1
  B  B28  1  0.000000  0.751454  0.919329  1
  B  B29  1  0.000000  0.249987  0.581099  1
  B  B30  1  0.000000  0.749547  0.419895  1
  B  B31  1  0.000000  0.291838  0.235230  1
  B  B32  1  0.000000  0.708060  0.766015  1
  B  B33  1  0.000000  0.208260  0.734264  1
  B  B34  1  0.000000  0.791592  0.264539  1
  Rh  Rh35  1  0.500000  0.638476  0.320770  1
