# generated using pymatgen
data_PrNdTh2(Pd2Pb)2
_symmetry_space_group_name_H-M   'P 1'
_cell_length_a   3.81007400
_cell_length_b   8.07258378
_cell_length_c   8.07258401
_cell_angle_alpha   92.26089159
_cell_angle_beta   90.00000000
_cell_angle_gamma   90.00000000
_symmetry_Int_Tables_number   1
_chemical_formula_structural   PrNdTh2(Pd2Pb)2
_chemical_formula_sum   'Pr1 Nd1 Th2 Pd4 Pb2'
_cell_volume   248.09632932
_cell_formula_units_Z   1
loop_
 _symmetry_equiv_pos_site_id
 _symmetry_equiv_pos_as_xyz
  1  'x, y, z'
loop_
 _atom_site_type_symbol
 _atom_site_label
 _atom_site_symmetry_multiplicity
 _atom_site_fract_x
 _atom_site_fract_y
 _atom_site_fract_z
 _atom_site_occupancy
  Pr  Pr0  1  0.500000  0.326413  0.173587  1
  Nd  Nd1  1  0.500000  0.673795  0.826205  1
  Th  Th2  1  0.500000  0.173778  0.674260  1
  Th  Th3  1  0.500000  0.825740  0.326222  1
  Pd  Pd4  1  0.000000  0.630755  0.128902  1
  Pd  Pd5  1  0.000000  0.371098  0.869245  1
  Pd  Pd6  1  0.000000  0.878406  0.621594  1
  Pd  Pd7  1  0.000000  0.120348  0.379652  1
  Pb  Pb8  1  0.000000  0.999165  0.999497  1
  Pb  Pb9  1  0.000000  0.500503  0.500835  1
