# generated using pymatgen
data_ThCu3PdAu
_symmetry_space_group_name_H-M   'P 1'
_cell_length_a   5.17477979
_cell_length_b   5.17478111
_cell_length_c   5.25327940
_cell_angle_alpha   60.49307934
_cell_angle_beta   60.49306994
_cell_angle_gamma   59.99999510
_symmetry_Int_Tables_number   1
_chemical_formula_structural   ThCu3PdAu
_chemical_formula_sum   'Th1 Cu3 Pd1 Au1'
_cell_volume   100.20656459
_cell_formula_units_Z   1
loop_
 _symmetry_equiv_pos_site_id
 _symmetry_equiv_pos_as_xyz
  1  'x, y, z'
loop_
 _atom_site_type_symbol
 _atom_site_label
 _atom_site_symmetry_multiplicity
 _atom_site_fract_x
 _atom_site_fract_y
 _atom_site_fract_z
 _atom_site_occupancy
  Th  Th0  1  0.000358  0.000358  0.998925  1
  Cu  Cu1  1  0.625622  0.129854  0.618902  1
  Cu  Cu2  1  0.129854  0.625622  0.618902  1
  Cu  Cu3  1  0.625622  0.625622  0.618902  1
  Pd  Pd4  1  0.626194  0.626194  0.121419  1
  Au  Au5  1  0.242350  0.242350  0.272952  1
