# generated using pymatgen
data_CsHf2F10
_symmetry_space_group_name_H-M   'P 1'
_cell_length_a   9.19329221
_cell_length_b   9.19329218
_cell_length_c   9.35367094
_cell_angle_alpha   85.34952925
_cell_angle_beta   85.34953094
_cell_angle_gamma   141.45373716
_symmetry_Int_Tables_number   1
_chemical_formula_structural   CsHf2F10
_chemical_formula_sum   'Cs2 Hf4 F20'
_cell_volume   477.52984477
_cell_formula_units_Z   2
loop_
 _symmetry_equiv_pos_site_id
 _symmetry_equiv_pos_as_xyz
  1  'x, y, z'
loop_
 _atom_site_type_symbol
 _atom_site_label
 _atom_site_symmetry_multiplicity
 _atom_site_fract_x
 _atom_site_fract_y
 _atom_site_fract_z
 _atom_site_occupancy
  Cs  Cs0  1  0.429524  0.570476  0.750000  1
  Cs  Cs1  1  0.570476  0.429524  0.250000  1
  Hf  Hf2  1  0.354509  0.020189  0.904100  1
  Hf  Hf3  1  0.979811  0.645491  0.595900  1
  Hf  Hf4  1  0.645491  0.979811  0.095900  1
  Hf  Hf5  1  0.020189  0.354509  0.404100  1
  F  F6  1  0.120700  0.542575  0.576242  1
  F  F7  1  0.457425  0.879300  0.923758  1
  F  F8  1  0.879300  0.457425  0.423758  1
  F  F9  1  0.542575  0.120700  0.076242  1
  F  F10  1  0.691173  0.308827  0.750000  1
  F  F11  1  0.308827  0.691173  0.250000  1
  F  F12  1  0.201957  0.798043  0.750000  1
  F  F13  1  0.798043  0.201957  0.250000  1
  F  F14  1  0.939556  0.243873  0.948339  1
  F  F15  1  0.756127  0.060444  0.551661  1
  F  F16  1  0.060444  0.756127  0.051661  1
  F  F17  1  0.243873  0.939556  0.448339  1
  F  F18  1  0.275422  0.432212  0.462041  1
  F  F19  1  0.567788  0.724578  0.037959  1
  F  F20  1  0.724578  0.567788  0.537959  1
  F  F21  1  0.432212  0.275422  0.962041  1
  F  F22  1  0.213149  0.077313  0.788414  1
  F  F23  1  0.922687  0.786851  0.711586  1
  F  F24  1  0.786851  0.922687  0.211586  1
  F  F25  1  0.077313  0.213149  0.288414  1
