# generated using pymatgen
data_Dy5Ho11Cd4(OsPt)2
_symmetry_space_group_name_H-M   'P 1'
_cell_length_a   9.63490179
_cell_length_b   9.63307763
_cell_length_c   9.68914302
_cell_angle_alpha   59.80491180
_cell_angle_beta   59.80563063
_cell_angle_gamma   59.62818600
_symmetry_Int_Tables_number   1
_chemical_formula_structural   Dy5Ho11Cd4(OsPt)2
_chemical_formula_sum   'Dy5 Ho11 Cd4 Os2 Pt2'
_cell_volume   632.22273671
_cell_formula_units_Z   1
loop_
 _symmetry_equiv_pos_site_id
 _symmetry_equiv_pos_as_xyz
  1  'x, y, z'
loop_
 _atom_site_type_symbol
 _atom_site_label
 _atom_site_symmetry_multiplicity
 _atom_site_fract_x
 _atom_site_fract_y
 _atom_site_fract_z
 _atom_site_occupancy
  Dy  Dy0  1  0.556885  0.938061  0.938379  1
  Dy  Dy1  1  0.557023  0.937938  0.566681  1
  Dy  Dy2  1  0.938048  0.556936  0.938209  1
  Dy  Dy3  1  0.564098  0.563975  0.935875  1
  Dy  Dy4  1  0.940005  0.939893  0.560005  1
  Ho  Ho5  1  0.349536  0.349618  0.352300  1
  Ho  Ho6  1  0.349563  0.349661  0.948575  1
  Ho  Ho7  1  0.346379  0.954513  0.349646  1
  Ho  Ho8  1  0.954450  0.346458  0.349631  1
  Ho  Ho9  1  0.814755  0.188008  0.190215  1
  Ho  Ho10  1  0.187987  0.814747  0.807021  1
  Ho  Ho11  1  0.187939  0.814681  0.190329  1
  Ho  Ho12  1  0.814810  0.188079  0.806936  1
  Ho  Ho13  1  0.188105  0.188234  0.811762  1
  Ho  Ho14  1  0.808741  0.808670  0.191370  1
  Ho  Ho15  1  0.938101  0.556825  0.566647  1
  Cd  Cd16  1  0.580304  0.580132  0.581331  1
  Cd  Cd17  1  0.580140  0.580151  0.258366  1
  Cd  Cd18  1  0.581011  0.255630  0.581678  1
  Cd  Cd19  1  0.255483  0.581004  0.581679  1
  Os  Os20  1  0.144039  0.144005  0.137941  1
  Os  Os21  1  0.143960  0.144108  0.573994  1
  Pt  Pt22  1  0.144258  0.574358  0.140775  1
  Pt  Pt23  1  0.574381  0.144313  0.140662  1
