# generated using pymatgen
data_DyY5(BePd5)2
_symmetry_space_group_name_H-M   'P 1'
_cell_length_a   8.11718026
_cell_length_b   8.11718174
_cell_length_c   8.11718100
_cell_angle_alpha   127.16706932
_cell_angle_beta   124.65863204
_cell_angle_gamma   80.04777685
_symmetry_Int_Tables_number   1
_chemical_formula_structural   DyY5(BePd5)2
_chemical_formula_sum   'Dy1 Y5 Be2 Pd10'
_cell_volume   338.46571685
_cell_formula_units_Z   1
loop_
 _symmetry_equiv_pos_site_id
 _symmetry_equiv_pos_as_xyz
  1  'x, y, z'
loop_
 _atom_site_type_symbol
 _atom_site_label
 _atom_site_symmetry_multiplicity
 _atom_site_fract_x
 _atom_site_fract_y
 _atom_site_fract_z
 _atom_site_occupancy
  Dy  Dy0  1  0.591899  0.749998  0.841897  1
  Y  Y1  1  0.221638  0.446602  0.775009  1
  Y  Y2  1  0.778194  0.553185  0.225045  1
  Y  Y3  1  0.828426  0.053375  0.775030  1
  Y  Y4  1  0.171840  0.946843  0.225017  1
  Y  Y5  1  0.406996  0.250003  0.156990  1
  Be  Be6  1  0.793354  0.250002  0.543353  1
  Be  Be7  1  0.206318  0.749997  0.456319  1
  Pd  Pd8  1  0.171765  0.408001  0.357298  1
  Pd  Pd9  1  0.827814  0.183948  0.235132  1
  Pd  Pd10  1  0.449298  0.091972  0.763750  1
  Pd  Pd11  1  0.551210  0.316071  0.643900  1
  Pd  Pd12  1  0.000592  0.499194  0.999784  1
  Pd  Pd13  1  0.000593  0.000810  0.501403  1
  Pd  Pd14  1  0.449284  0.685532  0.357290  1
  Pd  Pd15  1  0.551195  0.907334  0.235144  1
  Pd  Pd16  1  0.171764  0.814443  0.763753  1
  Pd  Pd17  1  0.827819  0.592690  0.643886  1
