# generated using pymatgen
data_Yb3Lu(Rh2O7)2
_symmetry_space_group_name_H-M   'P 1'
_cell_length_a   7.19302679
_cell_length_b   7.19302672
_cell_length_c   7.17116397
_cell_angle_alpha   59.89908809
_cell_angle_beta   59.89909031
_cell_angle_gamma   59.99999096
_symmetry_Int_Tables_number   1
_chemical_formula_structural   Yb3Lu(Rh2O7)2
_chemical_formula_sum   'Yb3 Lu1 Rh4 O14'
_cell_volume   261.95933267
_cell_formula_units_Z   1
loop_
 _symmetry_equiv_pos_site_id
 _symmetry_equiv_pos_as_xyz
  1  'x, y, z'
loop_
 _atom_site_type_symbol
 _atom_site_label
 _atom_site_symmetry_multiplicity
 _atom_site_fract_x
 _atom_site_fract_y
 _atom_site_fract_z
 _atom_site_occupancy
  Yb  Yb0  1  0.625000  0.625000  0.625000  1
  Yb  Yb1  1  0.625000  0.125000  0.625000  1
  Yb  Yb2  1  0.125000  0.625000  0.625000  1
  Lu  Lu3  1  0.625000  0.625000  0.125000  1
  Rh  Rh4  1  0.125000  0.125000  0.125000  1
  Rh  Rh5  1  0.625000  0.125000  0.125000  1
  Rh  Rh6  1  0.125000  0.125000  0.625000  1
  Rh  Rh7  1  0.125000  0.625000  0.125000  1
  O  O8  1  0.045085  0.456086  0.453744  1
  O  O9  1  0.794067  0.794067  0.196969  1
  O  O10  1  0.794067  0.214898  0.196969  1
  O  O11  1  0.456086  0.045085  0.453744  1
  O  O12  1  0.745355  0.745355  0.763937  1
  O  O13  1  0.035102  0.455933  0.053031  1
  O  O14  1  0.045085  0.045085  0.453744  1
  O  O15  1  0.214898  0.794067  0.196969  1
  O  O16  1  0.204915  0.204915  0.796256  1
  O  O17  1  0.793914  0.204915  0.796256  1
  O  O18  1  0.504645  0.504645  0.486063  1
  O  O19  1  0.455933  0.035102  0.053031  1
  O  O20  1  0.455933  0.455933  0.053031  1
  O  O21  1  0.204915  0.793914  0.796256  1
