# generated using pymatgen
data_Cs2NdBr5
_symmetry_space_group_name_H-M   'P 1'
_cell_length_a   9.14603000
_cell_length_b   9.58047500
_cell_length_c   14.77301400
_cell_angle_alpha   90.00000000
_cell_angle_beta   90.00000000
_cell_angle_gamma   90.00000000
_symmetry_Int_Tables_number   1
_chemical_formula_structural   Cs2NdBr5
_chemical_formula_sum   'Cs8 Nd4 Br20'
_cell_volume   1294.46041142
_cell_formula_units_Z   4
loop_
 _symmetry_equiv_pos_site_id
 _symmetry_equiv_pos_as_xyz
  1  'x, y, z'
loop_
 _atom_site_type_symbol
 _atom_site_label
 _atom_site_symmetry_multiplicity
 _atom_site_fract_x
 _atom_site_fract_y
 _atom_site_fract_z
 _atom_site_occupancy
  Cs  Cs0  1  0.944183  0.004440  0.827960  1
  Cs  Cs1  1  0.055817  0.995560  0.172040  1
  Cs  Cs2  1  0.444183  0.995560  0.672040  1
  Cs  Cs3  1  0.055817  0.504440  0.172040  1
  Cs  Cs4  1  0.555817  0.004440  0.327960  1
  Cs  Cs5  1  0.944183  0.495560  0.827960  1
  Cs  Cs6  1  0.555817  0.495560  0.327960  1
  Cs  Cs7  1  0.444183  0.504440  0.672040  1
  Nd  Nd8  1  0.931090  0.750000  0.503475  1
  Nd  Nd9  1  0.068910  0.250000  0.496525  1
  Nd  Nd10  1  0.431090  0.250000  0.996525  1
  Nd  Nd11  1  0.568910  0.750000  0.003475  1
  Br  Br12  1  0.111942  0.750000  0.667455  1
  Br  Br13  1  0.888058  0.250000  0.332545  1
  Br  Br14  1  0.611942  0.250000  0.832545  1
  Br  Br15  1  0.388058  0.750000  0.167455  1
  Br  Br16  1  0.844333  0.042129  0.568167  1
  Br  Br17  1  0.155667  0.957871  0.431833  1
  Br  Br18  1  0.344333  0.957871  0.931833  1
  Br  Br19  1  0.155667  0.542129  0.431833  1
  Br  Br20  1  0.655667  0.042129  0.068167  1
  Br  Br21  1  0.844333  0.457871  0.568167  1
  Br  Br22  1  0.655667  0.457871  0.068167  1
  Br  Br23  1  0.344333  0.542129  0.931833  1
  Br  Br24  1  0.606979  0.750000  0.513178  1
  Br  Br25  1  0.393021  0.250000  0.486822  1
  Br  Br26  1  0.106979  0.250000  0.986822  1
  Br  Br27  1  0.893021  0.750000  0.013178  1
  Br  Br28  1  0.649356  0.750000  0.810161  1
  Br  Br29  1  0.350644  0.250000  0.189839  1
  Br  Br30  1  0.149356  0.250000  0.689839  1
  Br  Br31  1  0.850644  0.750000  0.310161  1
