# generated using pymatgen
data_Dy2Y2MgP12Ru19
_symmetry_space_group_name_H-M   'P 1'
_cell_length_a   12.47849012
_cell_length_b   12.50495369
_cell_length_c   3.99127500
_cell_angle_alpha   90.00000000
_cell_angle_beta   90.00000000
_cell_angle_gamma   120.07017599
_symmetry_Int_Tables_number   1
_chemical_formula_structural   Dy2Y2MgP12Ru19
_chemical_formula_sum   'Dy2 Y2 Mg1 P12 Ru19'
_cell_volume   538.98771842
_cell_formula_units_Z   1
loop_
 _symmetry_equiv_pos_site_id
 _symmetry_equiv_pos_as_xyz
  1  'x, y, z'
loop_
 _atom_site_type_symbol
 _atom_site_label
 _atom_site_symmetry_multiplicity
 _atom_site_fract_x
 _atom_site_fract_y
 _atom_site_fract_z
 _atom_site_occupancy
  Dy  Dy0  1  0.672894  0.332713  0.000000  1
  Dy  Dy1  1  0.327106  0.659820  0.000000  1
  Y  Y2  1  0.816503  0.816002  0.500000  1
  Y  Y3  1  0.183497  0.999499  0.500000  1
  Mg  Mg4  1  0.000000  0.189969  0.500000  1
  P  P5  1  0.000000  0.827057  0.000000  1
  P  P6  1  0.194162  0.181294  0.000000  1
  P  P7  1  0.805838  0.987132  0.000000  1
  P  P8  1  0.698548  0.169558  0.500000  1
  P  P9  1  0.830616  0.524819  0.500000  1
  P  P10  1  0.481082  0.306616  0.500000  1
  P  P11  1  0.169384  0.694203  0.500000  1
  P  P12  1  0.518918  0.825532  0.500000  1
  P  P13  1  0.301452  0.471010  0.500000  1
  P  P14  1  0.000000  0.381051  0.000000  1
  P  P15  1  0.625271  0.626011  0.000000  1
  P  P16  1  0.374729  0.000740  0.000000  1
  Ru  Ru17  1  0.000000  0.560474  0.000000  1
  Ru  Ru18  1  0.439833  0.445891  0.000000  1
  Ru  Ru19  1  0.560167  0.006058  0.000000  1
  Ru  Ru20  1  0.000000  0.721678  0.500000  1
  Ru  Ru21  1  0.283416  0.279686  0.500000  1
  Ru  Ru22  1  0.716584  0.996271  0.500000  1
  Ru  Ru23  1  0.825287  0.182716  0.000000  1
  Ru  Ru24  1  0.815423  0.627382  0.000000  1
  Ru  Ru25  1  0.384610  0.194993  0.000000  1
  Ru  Ru26  1  0.184577  0.811958  0.000000  1
  Ru  Ru27  1  0.615390  0.810382  0.000000  1
  Ru  Ru28  1  0.174713  0.357428  0.000000  1
  Ru  Ru29  1  0.874116  0.364800  0.500000  1
  Ru  Ru30  1  0.633636  0.508487  0.500000  1
  Ru  Ru31  1  0.496610  0.126878  0.500000  1
  Ru  Ru32  1  0.366364  0.874851  0.500000  1
  Ru  Ru33  1  0.503390  0.630268  0.500000  1
  Ru  Ru34  1  0.125884  0.490685  0.500000  1
  Ru  Ru35  1  0.000000  0.016083  0.000000  1
