# generated using pymatgen
data_Tb4CuTcRu6
_symmetry_space_group_name_H-M   'P 1'
_cell_length_a   5.25178533
_cell_length_b   5.41301494
_cell_length_c   8.96413700
_cell_angle_alpha   90.00000000
_cell_angle_beta   90.00000000
_cell_angle_gamma   121.93518257
_symmetry_Int_Tables_number   1
_chemical_formula_structural   Tb4CuTcRu6
_chemical_formula_sum   'Tb4 Cu1 Tc1 Ru6'
_cell_volume   216.26277783
_cell_formula_units_Z   1
loop_
 _symmetry_equiv_pos_site_id
 _symmetry_equiv_pos_as_xyz
  1  'x, y, z'
loop_
 _atom_site_type_symbol
 _atom_site_label
 _atom_site_symmetry_multiplicity
 _atom_site_fract_x
 _atom_site_fract_y
 _atom_site_fract_z
 _atom_site_occupancy
  Tb  Tb0  1  0.333901  0.664772  0.433971  1
  Tb  Tb1  1  0.662002  0.329876  0.564448  1
  Tb  Tb2  1  0.662002  0.329876  0.935552  1
  Tb  Tb3  1  0.333901  0.664772  0.066029  1
  Cu  Cu4  1  0.832807  0.169408  0.250000  1
  Tc  Tc5  1  0.667300  0.834529  0.750000  1
  Ru  Ru6  1  0.994854  0.989783  0.499315  1
  Ru  Ru7  1  0.994854  0.989783  0.000685  1
  Ru  Ru8  1  0.823856  0.667165  0.250000  1
  Ru  Ru9  1  0.342475  0.181536  0.250000  1
  Ru  Ru10  1  0.173208  0.831242  0.750000  1
  Ru  Ru11  1  0.178842  0.347260  0.750000  1
