# generated using pymatgen
data_Ac4IrPd3
_symmetry_space_group_name_H-M   'P 1'
_cell_length_a   4.71666500
_cell_length_b   6.00598580
_cell_length_c   7.75122700
_cell_angle_alpha   89.67302229
_cell_angle_beta   90.00000000
_cell_angle_gamma   90.00000000
_symmetry_Int_Tables_number   1
_chemical_formula_structural   Ac4IrPd3
_chemical_formula_sum   'Ac4 Ir1 Pd3'
_cell_volume   219.57491152
_cell_formula_units_Z   1
loop_
 _symmetry_equiv_pos_site_id
 _symmetry_equiv_pos_as_xyz
  1  'x, y, z'
loop_
 _atom_site_type_symbol
 _atom_site_label
 _atom_site_symmetry_multiplicity
 _atom_site_fract_x
 _atom_site_fract_y
 _atom_site_fract_z
 _atom_site_occupancy
  Ac  Ac0  1  0.250000  0.360377  0.679315  1
  Ac  Ac1  1  0.250000  0.137716  0.185693  1
  Ac  Ac2  1  0.750000  0.650375  0.325229  1
  Ac  Ac3  1  0.750000  0.857836  0.807152  1
  Ir  Ir4  1  0.250000  0.837932  0.545605  1
  Pd  Pd5  1  0.250000  0.647582  0.043812  1
  Pd  Pd6  1  0.750000  0.157636  0.453110  1
  Pd  Pd7  1  0.750000  0.350545  0.960086  1
