# generated using pymatgen
data_Pr8Dy10Sc2Si15Ge
_symmetry_space_group_name_H-M   'P 1'
_cell_length_a   7.47897898
_cell_length_b   7.78500452
_cell_length_c   14.79611532
_cell_angle_alpha   89.89200556
_cell_angle_beta   89.98798225
_cell_angle_gamma   89.75523855
_symmetry_Int_Tables_number   1
_chemical_formula_structural   Pr8Dy10Sc2Si15Ge
_chemical_formula_sum   'Pr8 Dy10 Sc2 Si15 Ge1'
_cell_volume   861.47791064
_cell_formula_units_Z   1
loop_
 _symmetry_equiv_pos_site_id
 _symmetry_equiv_pos_as_xyz
  1  'x, y, z'
loop_
 _atom_site_type_symbol
 _atom_site_label
 _atom_site_symmetry_multiplicity
 _atom_site_fract_x
 _atom_site_fract_y
 _atom_site_fract_z
 _atom_site_occupancy
  Pr  Pr0  1  0.018383  0.177951  0.401179  1
  Pr  Pr1  1  0.520418  0.320463  0.400046  1
  Pr  Pr2  1  0.481480  0.676893  0.903972  1
  Pr  Pr3  1  0.480843  0.678209  0.599207  1
  Pr  Pr4  1  0.980689  0.819672  0.599107  1
  Pr  Pr5  1  0.980578  0.819144  0.901820  1
  Pr  Pr6  1  0.520776  0.322196  0.097618  1
  Pr  Pr7  1  0.018776  0.177971  0.095533  1
  Dy  Dy8  1  0.323902  0.177221  0.625293  1
  Dy  Dy9  1  0.676127  0.822151  0.375544  1
  Dy  Dy10  1  0.655244  0.989296  0.751375  1
  Dy  Dy11  1  0.174078  0.680421  0.375644  1
  Dy  Dy12  1  0.824842  0.321503  0.877339  1
  Dy  Dy13  1  0.824180  0.322239  0.624285  1
  Dy  Dy14  1  0.842716  0.491581  0.247252  1
  Dy  Dy15  1  0.344448  0.010815  0.248794  1
  Dy  Dy16  1  0.322395  0.177570  0.878299  1
  Dy  Dy17  1  0.174414  0.680269  0.121307  1
  Sc  Sc18  1  0.676838  0.823508  0.124859  1
  Sc  Sc19  1  0.156660  0.510849  0.752833  1
  Si  Si20  1  0.273762  0.872817  0.750979  1
  Si  Si21  1  0.470052  0.618594  0.247432  1
  Si  Si22  1  0.030113  0.110004  0.751053  1
  Si  Si23  1  0.525411  0.390288  0.751301  1
  Si  Si24  1  0.965024  0.887783  0.245911  1
  Si  Si25  1  0.726379  0.117497  0.246868  1
  Si  Si26  1  0.845201  0.538363  0.039434  1
  Si  Si27  1  0.362986  0.966064  0.042009  1
  Si  Si28  1  0.146049  0.469541  0.958861  1
  Si  Si29  1  0.647339  0.032273  0.539159  1
  Si  Si30  1  0.352477  0.968119  0.461027  1
  Si  Si31  1  0.848079  0.532393  0.459843  1
  Si  Si32  1  0.779670  0.619804  0.750820  1
  Si  Si33  1  0.225582  0.381923  0.248538  1
  Si  Si34  1  0.651540  0.028423  0.965165  1
  Ge  Ge35  1  0.152543  0.466195  0.540292  1
