# generated using pymatgen
data_CaNb2Hg3(SbO7)2
_symmetry_space_group_name_H-M   'P 1'
_cell_length_a   7.37336216
_cell_length_b   7.43907184
_cell_length_c   7.54347495
_cell_angle_alpha   60.92045771
_cell_angle_beta   60.74321389
_cell_angle_gamma   60.29176755
_symmetry_Int_Tables_number   1
_chemical_formula_structural   CaNb2Hg3(SbO7)2
_chemical_formula_sum   'Ca1 Nb2 Hg3 Sb2 O14'
_cell_volume   296.86444139
_cell_formula_units_Z   1
loop_
 _symmetry_equiv_pos_site_id
 _symmetry_equiv_pos_as_xyz
  1  'x, y, z'
loop_
 _atom_site_type_symbol
 _atom_site_label
 _atom_site_symmetry_multiplicity
 _atom_site_fract_x
 _atom_site_fract_y
 _atom_site_fract_z
 _atom_site_occupancy
  Ca  Ca0  1  0.125000  0.125000  0.625000  1
  Nb  Nb1  1  0.625000  0.625000  0.125000  1
  Nb  Nb2  1  0.625000  0.125000  0.625000  1
  Hg  Hg3  1  0.125000  0.625000  0.125000  1
  Hg  Hg4  1  0.625000  0.125000  0.125000  1
  Hg  Hg5  1  0.125000  0.125000  0.125000  1
  Sb  Sb6  1  0.125000  0.625000  0.625000  1
  Sb  Sb7  1  0.625000  0.625000  0.625000  1
  O  O8  1  0.258347  0.250813  0.232492  1
  O  O9  1  0.991653  0.999187  0.017508  1
  O  O10  1  0.546503  0.942172  0.565017  1
  O  O11  1  0.306393  0.689189  0.313355  1
  O  O12  1  0.558938  0.560811  0.936645  1
  O  O13  1  0.949883  0.541322  0.558912  1
  O  O14  1  0.564809  0.936817  0.933565  1
  O  O15  1  0.946307  0.942172  0.565017  1
  O  O16  1  0.943607  0.560811  0.936645  1
  O  O17  1  0.685191  0.313183  0.316435  1
  O  O18  1  0.300117  0.708678  0.691088  1
  O  O19  1  0.703497  0.307828  0.684983  1
  O  O20  1  0.303693  0.307828  0.684983  1
  O  O21  1  0.691062  0.689189  0.313355  1
