# generated using pymatgen
data_AlV3AuC
_symmetry_space_group_name_H-M   'P 1'
_cell_length_a   6.75234800
_cell_length_b   6.75234800
_cell_length_c   6.75234800
_cell_angle_alpha   90.00000000
_cell_angle_beta   90.00000000
_cell_angle_gamma   90.00000000
_symmetry_Int_Tables_number   1
_chemical_formula_structural   AlV3AuC
_chemical_formula_sum   'Al4 V12 Au4 C4'
_cell_volume   307.86792890
_cell_formula_units_Z   4
loop_
 _symmetry_equiv_pos_site_id
 _symmetry_equiv_pos_as_xyz
  1  'x, y, z'
loop_
 _atom_site_type_symbol
 _atom_site_label
 _atom_site_symmetry_multiplicity
 _atom_site_fract_x
 _atom_site_fract_y
 _atom_site_fract_z
 _atom_site_occupancy
  Al  Al0  1  0.568735  0.431265  0.931265  1
  Al  Al1  1  0.431265  0.931265  0.568735  1
  Al  Al2  1  0.931265  0.568735  0.431265  1
  Al  Al3  1  0.068735  0.068735  0.068735  1
  V  V4  1  0.784474  0.961698  0.376591  1
  V  V5  1  0.715526  0.038302  0.876591  1
  V  V6  1  0.215526  0.461698  0.123409  1
  V  V7  1  0.284474  0.538302  0.623409  1
  V  V8  1  0.961698  0.376591  0.784474  1
  V  V9  1  0.038302  0.876591  0.715526  1
  V  V10  1  0.461698  0.123409  0.215526  1
  V  V11  1  0.538302  0.623409  0.284474  1
  V  V12  1  0.376591  0.784474  0.961698  1
  V  V13  1  0.876591  0.715526  0.038302  1
  V  V14  1  0.123409  0.215526  0.461698  1
  V  V15  1  0.623409  0.284474  0.538302  1
  Au  Au16  1  0.176803  0.823197  0.323197  1
  Au  Au17  1  0.323197  0.176803  0.823197  1
  Au  Au18  1  0.823197  0.323197  0.176803  1
  Au  Au19  1  0.676803  0.676803  0.676803  1
  C  C20  1  0.875049  0.124951  0.624951  1
  C  C21  1  0.624951  0.875049  0.124951  1
  C  C22  1  0.124951  0.624951  0.875049  1
  C  C23  1  0.375049  0.375049  0.375049  1
