# generated using pymatgen
data_Zr6Zn16Cu7C
_symmetry_space_group_name_H-M   'P 1'
_cell_length_a   8.56980986
_cell_length_b   8.56980871
_cell_length_c   8.56980900
_cell_angle_alpha   59.99999501
_cell_angle_beta   59.99999945
_cell_angle_gamma   59.99999519
_symmetry_Int_Tables_number   1
_chemical_formula_structural   Zr6Zn16Cu7C
_chemical_formula_sum   'Zr6 Zn16 Cu7 C1'
_cell_volume   445.03936244
_cell_formula_units_Z   1
loop_
 _symmetry_equiv_pos_site_id
 _symmetry_equiv_pos_as_xyz
  1  'x, y, z'
loop_
 _atom_site_type_symbol
 _atom_site_label
 _atom_site_symmetry_multiplicity
 _atom_site_fract_x
 _atom_site_fract_y
 _atom_site_fract_z
 _atom_site_occupancy
  Zr  Zr0  1  0.691596  0.308404  0.308404  1
  Zr  Zr1  1  0.308404  0.691596  0.691596  1
  Zr  Zr2  1  0.308404  0.691596  0.308404  1
  Zr  Zr3  1  0.691596  0.308404  0.691596  1
  Zr  Zr4  1  0.308404  0.308404  0.691596  1
  Zr  Zr5  1  0.691596  0.691596  0.308404  1
  Zn  Zn6  1  0.119028  0.119028  0.119028  1
  Zn  Zn7  1  0.880972  0.880972  0.880972  1
  Zn  Zn8  1  0.119028  0.119028  0.642918  1
  Zn  Zn9  1  0.119028  0.642918  0.119028  1
  Zn  Zn10  1  0.880972  0.880972  0.357082  1
  Zn  Zn11  1  0.880972  0.357082  0.880972  1
  Zn  Zn12  1  0.642918  0.119028  0.119028  1
  Zn  Zn13  1  0.357082  0.880972  0.880972  1
  Zn  Zn14  1  0.331599  0.331599  0.331599  1
  Zn  Zn15  1  0.668401  0.668401  0.668401  1
  Zn  Zn16  1  0.331599  0.331599  0.005203  1
  Zn  Zn17  1  0.331599  0.005203  0.331599  1
  Zn  Zn18  1  0.668401  0.668401  0.994797  1
  Zn  Zn19  1  0.668401  0.994797  0.668401  1
  Zn  Zn20  1  0.005203  0.331599  0.331599  1
  Zn  Zn21  1  0.994797  0.668401  0.668401  1
  Cu  Cu22  1  0.500000  0.000000  0.000000  1
  Cu  Cu23  1  0.000000  0.500000  0.500000  1
  Cu  Cu24  1  0.000000  0.500000  0.000000  1
  Cu  Cu25  1  0.500000  0.000000  0.500000  1
  Cu  Cu26  1  0.000000  0.000000  0.500000  1
  Cu  Cu27  1  0.500000  0.500000  0.000000  1
  Cu  Cu28  1  0.000000  0.000000  0.000000  1
  C  C29  1  0.500000  0.500000  0.500000  1
