# generated using pymatgen
data_Lu3Hg(Pd2Au)4
_symmetry_space_group_name_H-M   'P 1'
_cell_length_a   5.98582500
_cell_length_b   5.98127464
_cell_length_c   7.94298400
_cell_angle_alpha   90.00049812
_cell_angle_beta   90.00012443
_cell_angle_gamma   89.97340816
_symmetry_Int_Tables_number   1
_chemical_formula_structural   Lu3Hg(Pd2Au)4
_chemical_formula_sum   'Lu3 Hg1 Pd8 Au4'
_cell_volume   284.38153969
_cell_formula_units_Z   1
loop_
 _symmetry_equiv_pos_site_id
 _symmetry_equiv_pos_as_xyz
  1  'x, y, z'
loop_
 _atom_site_type_symbol
 _atom_site_label
 _atom_site_symmetry_multiplicity
 _atom_site_fract_x
 _atom_site_fract_y
 _atom_site_fract_z
 _atom_site_occupancy
  Lu  Lu0  1  0.249859  0.250020  0.000001  1
  Lu  Lu1  1  0.750165  0.749995  0.999994  1
  Lu  Lu2  1  0.749857  0.750004  0.499999  1
  Hg  Hg3  1  0.250192  0.249994  0.500000  1
  Pd  Pd4  1  0.500902  0.999046  0.250454  1
  Pd  Pd5  1  0.500927  0.500987  0.250478  1
  Pd  Pd6  1  0.999074  0.999069  0.250664  1
  Pd  Pd7  1  0.999098  0.500906  0.250652  1
  Pd  Pd8  1  0.999049  0.999075  0.749324  1
  Pd  Pd9  1  0.999071  0.500888  0.749346  1
  Pd  Pd10  1  0.500911  0.999056  0.749548  1
  Pd  Pd11  1  0.500941  0.500961  0.749536  1
  Au  Au12  1  0.749976  0.249996  0.000011  1
  Au  Au13  1  0.250017  0.750000  0.999985  1
  Au  Au14  1  0.749962  0.250005  0.499986  1
  Au  Au15  1  0.249999  0.749995  0.500024  1
