# generated using pymatgen
data_SnTe28
_symmetry_space_group_name_H-M   'P 1'
_cell_length_a   11.94840564
_cell_length_b   10.77129257
_cell_length_c   12.42422500
_cell_angle_alpha   114.70317048
_cell_angle_beta   123.63460921
_cell_angle_gamma   88.59305117
_symmetry_Int_Tables_number   1
_chemical_formula_structural   SnTe28
_chemical_formula_sum   'Sn1 Te28'
_cell_volume   1163.32830564
_cell_formula_units_Z   1
loop_
 _symmetry_equiv_pos_site_id
 _symmetry_equiv_pos_as_xyz
  1  'x, y, z'
loop_
 _atom_site_type_symbol
 _atom_site_label
 _atom_site_symmetry_multiplicity
 _atom_site_fract_x
 _atom_site_fract_y
 _atom_site_fract_z
 _atom_site_occupancy
  Sn  Sn0  1  0.500000  0.000000  0.000000  1
  Te  Te1  1  0.233720  0.106258  0.427091  1
  Te  Te2  1  0.598824  0.151686  0.426131  1
  Te  Te3  1  0.274040  0.267962  0.892364  1
  Te  Te4  1  0.914858  0.306613  0.893744  1
  Te  Te5  1  0.207073  0.548698  0.720869  1
  Te  Te6  1  0.805904  0.529472  0.633564  1
  Te  Te7  1  0.401176  0.848314  0.573869  1
  Te  Te8  1  0.766280  0.893742  0.572909  1
  Te  Te9  1  0.085142  0.693387  0.106256  1
  Te  Te10  1  0.725960  0.732038  0.107636  1
  Te  Te11  1  0.194096  0.470528  0.366436  1
  Te  Te12  1  0.792927  0.451302  0.279131  1
  Te  Te13  1  0.757883  0.075180  0.841961  1
  Te  Te14  1  0.232310  0.978991  0.728875  1
  Te  Te15  1  0.807261  0.681052  0.900482  1
  Te  Te16  1  0.377639  0.770692  0.028166  1
  Te  Te17  1  0.517615  0.264788  0.232322  1
  Te  Te18  1  0.035892  0.277789  0.363004  1
  Te  Te19  1  0.767690  0.021009  0.271125  1
  Te  Te20  1  0.242117  0.924820  0.158039  1
  Te  Te21  1  0.622361  0.229308  0.971834  1
  Te  Te22  1  0.192739  0.318948  0.099518  1
  Te  Te23  1  0.964108  0.722211  0.636996  1
  Te  Te24  1  0.482385  0.735212  0.767678  1
  Te  Te25  1  0.035594  0.383976  0.734280  1
  Te  Te26  1  0.494252  0.292843  0.584983  1
  Te  Te27  1  0.505748  0.707157  0.415017  1
  Te  Te28  1  0.964406  0.616024  0.265720  1
