# generated using pymatgen
data_YbCdCu3Pd
_symmetry_space_group_name_H-M   'P 1'
_cell_length_a   5.10744242
_cell_length_b   5.18487339
_cell_length_c   5.10744400
_cell_angle_alpha   60.49279838
_cell_angle_beta   60.00000269
_cell_angle_gamma   60.49279384
_symmetry_Int_Tables_number   1
_chemical_formula_structural   YbCdCu3Pd
_chemical_formula_sum   'Yb1 Cd1 Cu3 Pd1'
_cell_volume   96.34414024
_cell_formula_units_Z   1
loop_
 _symmetry_equiv_pos_site_id
 _symmetry_equiv_pos_as_xyz
  1  'x, y, z'
loop_
 _atom_site_type_symbol
 _atom_site_label
 _atom_site_symmetry_multiplicity
 _atom_site_fract_x
 _atom_site_fract_y
 _atom_site_fract_z
 _atom_site_occupancy
  Yb  Yb0  1  0.750116  0.749651  0.750116  1
  Cd  Cd1  1  0.999354  0.001938  0.999354  1
  Cu  Cu2  1  0.375269  0.374295  0.375269  1
  Cu  Cu3  1  0.875167  0.374295  0.375269  1
  Cu  Cu4  1  0.375269  0.374295  0.875167  1
  Pd  Pd5  1  0.374825  0.875526  0.374825  1
