# generated using pymatgen
data_SmTaTcB6
_symmetry_space_group_name_H-M   'P 1'
_cell_length_a   3.51986700
_cell_length_b   9.04743900
_cell_length_c   11.36523400
_cell_angle_alpha   90.00000000
_cell_angle_beta   90.00000000
_cell_angle_gamma   90.00000000
_symmetry_Int_Tables_number   1
_chemical_formula_structural   SmTaTcB6
_chemical_formula_sum   'Sm4 Ta4 Tc4 B24'
_cell_volume   361.93476401
_cell_formula_units_Z   4
loop_
 _symmetry_equiv_pos_site_id
 _symmetry_equiv_pos_as_xyz
  1  'x, y, z'
loop_
 _atom_site_type_symbol
 _atom_site_label
 _atom_site_symmetry_multiplicity
 _atom_site_fract_x
 _atom_site_fract_y
 _atom_site_fract_z
 _atom_site_occupancy
  Sm  Sm0  1  0.000000  0.323577  0.413871  1
  Sm  Sm1  1  0.000000  0.676423  0.586129  1
  Sm  Sm2  1  0.000000  0.823577  0.086129  1
  Sm  Sm3  1  0.000000  0.176423  0.913871  1
  Ta  Ta4  1  0.000000  0.946571  0.374530  1
  Ta  Ta5  1  0.000000  0.053429  0.625470  1
  Ta  Ta6  1  0.000000  0.446571  0.125470  1
  Ta  Ta7  1  0.000000  0.553429  0.874530  1
  Tc  Tc8  1  0.000000  0.645113  0.316218  1
  Tc  Tc9  1  0.000000  0.354887  0.683782  1
  Tc  Tc10  1  0.000000  0.145113  0.183782  1
  Tc  Tc11  1  0.000000  0.854887  0.816218  1
  B  B12  1  0.500000  0.555815  0.431984  1
  B  B13  1  0.500000  0.444185  0.568016  1
  B  B14  1  0.500000  0.055815  0.068016  1
  B  B15  1  0.500000  0.944185  0.931984  1
  B  B16  1  0.500000  0.756104  0.416635  1
  B  B17  1  0.500000  0.243896  0.583365  1
  B  B18  1  0.500000  0.256104  0.083365  1
  B  B19  1  0.500000  0.743896  0.916635  1
  B  B20  1  0.500000  0.798432  0.264016  1
  B  B21  1  0.500000  0.201568  0.735984  1
  B  B22  1  0.500000  0.298432  0.235984  1
  B  B23  1  0.500000  0.701568  0.764016  1
  B  B24  1  0.500000  0.629399  0.181215  1
  B  B25  1  0.500000  0.370601  0.818785  1
  B  B26  1  0.500000  0.129399  0.318785  1
  B  B27  1  0.500000  0.870601  0.681215  1
  B  B28  1  0.500000  0.983511  0.215292  1
  B  B29  1  0.500000  0.016489  0.784708  1
  B  B30  1  0.500000  0.483511  0.284708  1
  B  B31  1  0.500000  0.516489  0.715292  1
  B  B32  1  0.500000  0.598563  0.025857  1
  B  B33  1  0.500000  0.401437  0.974143  1
  B  B34  1  0.500000  0.098563  0.474143  1
  B  B35  1  0.500000  0.901437  0.525857  1
