# generated using pymatgen
data_Yb6Co7Si24Os
_symmetry_space_group_name_H-M   'P 1'
_cell_length_a   9.81380973
_cell_length_b   9.81380915
_cell_length_c   8.00895029
_cell_angle_alpha   90.06735270
_cell_angle_beta   90.06735753
_cell_angle_gamma   131.76868035
_symmetry_Int_Tables_number   1
_chemical_formula_structural   Yb6Co7Si24Os
_chemical_formula_sum   'Yb6 Co7 Si24 Os1'
_cell_volume   575.30063103
_cell_formula_units_Z   1
loop_
 _symmetry_equiv_pos_site_id
 _symmetry_equiv_pos_as_xyz
  1  'x, y, z'
loop_
 _atom_site_type_symbol
 _atom_site_label
 _atom_site_symmetry_multiplicity
 _atom_site_fract_x
 _atom_site_fract_y
 _atom_site_fract_z
 _atom_site_occupancy
  Yb  Yb0  1  0.504868  0.003490  0.749170  1
  Yb  Yb1  1  0.996510  0.495132  0.250830  1
  Yb  Yb2  1  0.496809  0.996572  0.250215  1
  Yb  Yb3  1  0.003428  0.503191  0.749785  1
  Yb  Yb4  1  0.000796  0.999204  0.000000  1
  Yb  Yb5  1  0.499539  0.500461  0.500000  1
  Co  Co6  1  0.628239  0.630069  0.872721  1
  Co  Co7  1  0.125775  0.126383  0.628293  1
  Co  Co8  1  0.369931  0.371761  0.127279  1
  Co  Co9  1  0.873617  0.874225  0.371707  1
  Co  Co10  1  0.166641  0.833359  0.000000  1
  Co  Co11  1  0.333213  0.666787  0.500000  1
  Co  Co12  1  0.833136  0.166864  0.000000  1
  Si  Si13  1  0.797115  0.202885  0.500000  1
  Si  Si14  1  0.707052  0.292948  0.000000  1
  Si  Si15  1  0.207173  0.792827  0.500000  1
  Si  Si16  1  0.292563  0.707437  0.000000  1
  Si  Si17  1  0.664465  0.666293  0.165708  1
  Si  Si18  1  0.165329  0.165648  0.334164  1
  Si  Si19  1  0.834352  0.834671  0.665836  1
  Si  Si20  1  0.333707  0.335535  0.834292  1
  Si  Si21  1  0.848187  0.616769  0.994175  1
  Si  Si22  1  0.119931  0.349862  0.511260  1
  Si  Si23  1  0.650138  0.880069  0.488740  1
  Si  Si24  1  0.383231  0.151813  0.005825  1
  Si  Si25  1  0.150118  0.381904  0.007894  1
  Si  Si26  1  0.887493  0.658603  0.492028  1
  Si  Si27  1  0.123587  0.891411  0.732608  1
  Si  Si28  1  0.392380  0.624537  0.766553  1
  Si  Si29  1  0.375463  0.607620  0.233447  1
  Si  Si30  1  0.108589  0.876413  0.267392  1
  Si  Si31  1  0.872931  0.102998  0.264457  1
  Si  Si32  1  0.606137  0.377449  0.226925  1
  Si  Si33  1  0.622551  0.393863  0.773075  1
  Si  Si34  1  0.897002  0.127069  0.735543  1
  Si  Si35  1  0.618096  0.849882  0.992106  1
  Si  Si36  1  0.341397  0.112507  0.507972  1
  Os  Os37  1  0.668509  0.331491  0.500000  1
