# generated using pymatgen
data_BaBi3Te10
_symmetry_space_group_name_H-M   'P 1'
_cell_length_a   23.94362994
_cell_length_b   23.94362861
_cell_length_c   3.19896000
_cell_angle_alpha   90.00000000
_cell_angle_beta   90.00000000
_cell_angle_gamma   166.29910207
_symmetry_Int_Tables_number   1
_chemical_formula_structural   BaBi3Te10
_chemical_formula_sum   'Ba1 Bi3 Te10'
_cell_volume   434.37851967
_cell_formula_units_Z   1
loop_
 _symmetry_equiv_pos_site_id
 _symmetry_equiv_pos_as_xyz
  1  'x, y, z'
loop_
 _atom_site_type_symbol
 _atom_site_label
 _atom_site_symmetry_multiplicity
 _atom_site_fract_x
 _atom_site_fract_y
 _atom_site_fract_z
 _atom_site_occupancy
  Ba  Ba0  1  0.098492  0.901508  0.750000  1
  Bi  Bi1  1  0.685717  0.314283  0.250000  1
  Bi  Bi2  1  0.322090  0.677910  0.750000  1
  Bi  Bi3  1  0.889268  0.110732  0.250000  1
  Te  Te4  1  0.620800  0.379200  0.250000  1
  Te  Te5  1  0.387627  0.612373  0.750000  1
  Te  Te6  1  0.823960  0.176040  0.250000  1
  Te  Te7  1  0.179377  0.820623  0.750000  1
  Te  Te8  1  0.957399  0.042601  0.750000  1
  Te  Te9  1  0.034118  0.965882  0.250000  1
  Te  Te10  1  0.534720  0.465280  0.750000  1
  Te  Te11  1  0.460527  0.539473  0.250000  1
  Te  Te12  1  0.751130  0.248870  0.750000  1
  Te  Te13  1  0.254774  0.745226  0.250000  1
