# generated using pymatgen
data_Eu2Dy4TaNbO13F
_symmetry_space_group_name_H-M   'P 1'
_cell_length_a   6.52066114
_cell_length_b   6.52066014
_cell_length_c   7.60177200
_cell_angle_alpha   90.01193248
_cell_angle_beta   90.01193248
_cell_angle_gamma   109.18703987
_symmetry_Int_Tables_number   1
_chemical_formula_structural   Eu2Dy4TaNbO13F
_chemical_formula_sum   'Eu2 Dy4 Ta1 Nb1 O13 F1'
_cell_volume   305.26521394
_cell_formula_units_Z   1
loop_
 _symmetry_equiv_pos_site_id
 _symmetry_equiv_pos_as_xyz
  1  'x, y, z'
loop_
 _atom_site_type_symbol
 _atom_site_label
 _atom_site_symmetry_multiplicity
 _atom_site_fract_x
 _atom_site_fract_y
 _atom_site_fract_z
 _atom_site_occupancy
  Eu  Eu0  1  0.494659  0.509961  0.487034  1
  Eu  Eu1  1  0.491693  0.505135  0.012909  1
  Dy  Dy2  1  0.016356  0.467029  0.749553  1
  Dy  Dy3  1  0.996614  0.532310  0.249342  1
  Dy  Dy4  1  0.533228  0.983517  0.750903  1
  Dy  Dy5  1  0.467910  0.003331  0.250251  1
  Ta  Ta6  1  0.001518  0.998462  0.997827  1
  Nb  Nb7  1  0.002232  0.998356  0.500415  1
  O  O8  1  0.352559  0.647410  0.250379  1
  O  O9  1  0.929405  0.070702  0.751348  1
  O  O10  1  0.066236  0.933911  0.248192  1
  O  O11  1  0.931519  0.679108  0.538809  1
  O  O12  1  0.067033  0.319186  0.033065  1
  O  O13  1  0.319506  0.067397  0.960363  1
  O  O14  1  0.678811  0.932055  0.468414  1
  O  O15  1  0.366979  0.632898  0.750135  1
  O  O16  1  0.635114  0.364807  0.250672  1
  O  O17  1  0.933860  0.681406  0.959152  1
  O  O18  1  0.066839  0.320014  0.467127  1
  O  O19  1  0.319458  0.066306  0.540466  1
  O  O20  1  0.681638  0.933730  0.034039  1
  F  F21  1  0.646833  0.352970  0.749607  1
