# generated using pymatgen
data_Ca4YbRh
_symmetry_space_group_name_H-M   'P 1'
_cell_length_a   6.73838400
_cell_length_b   7.44440700
_cell_length_c   16.10590700
_cell_angle_alpha   90.00000000
_cell_angle_beta   90.00000000
_cell_angle_gamma   90.00000000
_symmetry_Int_Tables_number   1
_chemical_formula_structural   Ca4YbRh
_chemical_formula_sum   'Ca16 Yb4 Rh4'
_cell_volume   807.92501005
_cell_formula_units_Z   4
loop_
 _symmetry_equiv_pos_site_id
 _symmetry_equiv_pos_as_xyz
  1  'x, y, z'
loop_
 _atom_site_type_symbol
 _atom_site_label
 _atom_site_symmetry_multiplicity
 _atom_site_fract_x
 _atom_site_fract_y
 _atom_site_fract_z
 _atom_site_occupancy
  Ca  Ca0  1  0.351943  0.308872  0.064335  1
  Ca  Ca1  1  0.648057  0.691128  0.935665  1
  Ca  Ca2  1  0.851943  0.191128  0.935665  1
  Ca  Ca3  1  0.648057  0.691128  0.564335  1
  Ca  Ca4  1  0.148057  0.808872  0.064335  1
  Ca  Ca5  1  0.351943  0.308872  0.435665  1
  Ca  Ca6  1  0.148057  0.808872  0.435665  1
  Ca  Ca7  1  0.851943  0.191128  0.564335  1
  Ca  Ca8  1  0.324046  0.036440  0.645754  1
  Ca  Ca9  1  0.675954  0.963560  0.354246  1
  Ca  Ca10  1  0.824046  0.463560  0.354246  1
  Ca  Ca11  1  0.675954  0.963560  0.145754  1
  Ca  Ca12  1  0.175954  0.536440  0.645754  1
  Ca  Ca13  1  0.324046  0.036440  0.854246  1
  Ca  Ca14  1  0.175954  0.536440  0.854246  1
  Ca  Ca15  1  0.824046  0.463560  0.145754  1
  Yb  Yb16  1  0.158272  0.090999  0.250000  1
  Yb  Yb17  1  0.841728  0.909001  0.750000  1
  Yb  Yb18  1  0.658272  0.409001  0.750000  1
  Yb  Yb19  1  0.341728  0.590999  0.250000  1
  Rh  Rh20  1  0.521666  0.262141  0.250000  1
  Rh  Rh21  1  0.478334  0.737859  0.750000  1
  Rh  Rh22  1  0.021666  0.237859  0.750000  1
  Rh  Rh23  1  0.978334  0.762141  0.250000  1
