# generated using pymatgen
data_Eu5Cu6
_symmetry_space_group_name_H-M   'P 1'
_cell_length_a   15.44754929
_cell_length_b   15.44755028
_cell_length_c   4.32877600
_cell_angle_alpha   90.00000000
_cell_angle_beta   90.00000000
_cell_angle_gamma   164.67377796
_symmetry_Int_Tables_number   1
_chemical_formula_structural   Eu5Cu6
_chemical_formula_sum   'Eu5 Cu6'
_cell_volume   273.02677992
_cell_formula_units_Z   1
loop_
 _symmetry_equiv_pos_site_id
 _symmetry_equiv_pos_as_xyz
  1  'x, y, z'
loop_
 _atom_site_type_symbol
 _atom_site_label
 _atom_site_symmetry_multiplicity
 _atom_site_fract_x
 _atom_site_fract_y
 _atom_site_fract_z
 _atom_site_occupancy
  Eu  Eu0  1  0.000000  0.000000  0.000000  1
  Eu  Eu1  1  0.613956  0.386042  0.000000  1
  Eu  Eu2  1  0.386042  0.613956  0.000000  1
  Eu  Eu3  1  0.803329  0.196669  0.500001  1
  Eu  Eu4  1  0.196669  0.803329  0.500001  1
  Cu  Cu5  1  0.727576  0.272422  0.000000  1
  Cu  Cu6  1  0.272422  0.727576  0.000000  1
  Cu  Cu7  1  0.917116  0.082883  0.500001  1
  Cu  Cu8  1  0.540452  0.459546  0.500001  1
  Cu  Cu9  1  0.459546  0.540452  0.500001  1
  Cu  Cu10  1  0.082883  0.917116  0.500001  1
