# generated using pymatgen
data_Zr5Tl3S
_symmetry_space_group_name_H-M   'P 1'
_cell_length_a   8.63936800
_cell_length_b   8.63936823
_cell_length_c   6.11872300
_cell_angle_alpha   90.00000000
_cell_angle_beta   90.00000000
_cell_angle_gamma   119.99999147
_symmetry_Int_Tables_number   1
_chemical_formula_structural   Zr5Tl3S
_chemical_formula_sum   'Zr10 Tl6 S2'
_cell_volume   395.50813447
_cell_formula_units_Z   2
loop_
 _symmetry_equiv_pos_site_id
 _symmetry_equiv_pos_as_xyz
  1  'x, y, z'
loop_
 _atom_site_type_symbol
 _atom_site_label
 _atom_site_symmetry_multiplicity
 _atom_site_fract_x
 _atom_site_fract_y
 _atom_site_fract_z
 _atom_site_occupancy
  Zr  Zr0  1  0.755137  0.755137  0.250000  1
  Zr  Zr1  1  0.244863  0.000000  0.250000  1
  Zr  Zr2  1  0.000000  0.244863  0.250000  1
  Zr  Zr3  1  0.244863  0.244863  0.750000  1
  Zr  Zr4  1  0.755137  0.000000  0.750000  1
  Zr  Zr5  1  0.000000  0.755137  0.750000  1
  Zr  Zr6  1  0.666667  0.333333  0.500000  1
  Zr  Zr7  1  0.333333  0.666667  0.500000  1
  Zr  Zr8  1  0.333333  0.666667  0.000000  1
  Zr  Zr9  1  0.666667  0.333333  0.000000  1
  Tl  Tl10  1  0.398013  0.398013  0.250000  1
  Tl  Tl11  1  0.601987  0.000000  0.250000  1
  Tl  Tl12  1  0.000000  0.601987  0.250000  1
  Tl  Tl13  1  0.601987  0.601987  0.750000  1
  Tl  Tl14  1  0.398013  0.000000  0.750000  1
  Tl  Tl15  1  0.000000  0.398013  0.750000  1
  S  S16  1  0.000000  0.000000  0.500000  1
  S  S17  1  0.000000  0.000000  0.000000  1
