# generated using pymatgen
data_Dy7YRe2(TcB12)2
_symmetry_space_group_name_H-M   'P 1'
_cell_length_a   3.68908200
_cell_length_b   9.17617959
_cell_length_c   11.56043500
_cell_angle_alpha   90.05866039
_cell_angle_beta   90.00000000
_cell_angle_gamma   90.00000000
_symmetry_Int_Tables_number   1
_chemical_formula_structural   Dy7YRe2(TcB12)2
_chemical_formula_sum   'Dy7 Y1 Re2 Tc2 B24'
_cell_volume   391.33992936
_cell_formula_units_Z   1
loop_
 _symmetry_equiv_pos_site_id
 _symmetry_equiv_pos_as_xyz
  1  'x, y, z'
loop_
 _atom_site_type_symbol
 _atom_site_label
 _atom_site_symmetry_multiplicity
 _atom_site_fract_x
 _atom_site_fract_y
 _atom_site_fract_z
 _atom_site_occupancy
  Dy  Dy0  1  0.000000  0.675993  0.585988  1
  Dy  Dy1  1  0.000000  0.823643  0.085979  1
  Dy  Dy2  1  0.000000  0.176368  0.914046  1
  Dy  Dy3  1  0.000000  0.941982  0.369841  1
  Dy  Dy4  1  0.000000  0.057922  0.630184  1
  Dy  Dy5  1  0.000000  0.443644  0.130533  1
  Dy  Dy6  1  0.000000  0.556387  0.869450  1
  Y  Y7  1  0.000000  0.323890  0.414031  1
  Re  Re8  1  0.000000  0.138533  0.179176  1
  Re  Re9  1  0.000000  0.861408  0.820750  1
  Tc  Tc10  1  0.000000  0.638779  0.320732  1
  Tc  Tc11  1  0.000000  0.361364  0.679300  1
  B  B12  1  0.500000  0.553532  0.432887  1
  B  B13  1  0.500000  0.446747  0.567226  1
  B  B14  1  0.500000  0.053288  0.067011  1
  B  B15  1  0.500000  0.946717  0.932986  1
  B  B16  1  0.500000  0.748511  0.418528  1
  B  B17  1  0.500000  0.251449  0.581622  1
  B  B18  1  0.500000  0.248992  0.081441  1
  B  B19  1  0.500000  0.751006  0.918539  1
  B  B20  1  0.500000  0.791670  0.265481  1
  B  B21  1  0.500000  0.208317  0.734533  1
  B  B22  1  0.500000  0.291970  0.234513  1
  B  B23  1  0.500000  0.707998  0.765361  1
  B  B24  1  0.500000  0.631139  0.185844  1
  B  B25  1  0.500000  0.368884  0.814150  1
  B  B26  1  0.500000  0.130629  0.314327  1
  B  B27  1  0.500000  0.869225  0.685576  1
  B  B28  1  0.500000  0.982261  0.211780  1
  B  B29  1  0.500000  0.017730  0.788214  1
  B  B30  1  0.500000  0.482802  0.288221  1
  B  B31  1  0.500000  0.517372  0.711711  1
  B  B32  1  0.500000  0.600544  0.027996  1
  B  B33  1  0.500000  0.399465  0.971995  1
  B  B34  1  0.500000  0.100112  0.471846  1
  B  B35  1  0.500000  0.899729  0.528200  1
