# generated using pymatgen
data_Tb6CeDy(ReB6)4
_symmetry_space_group_name_H-M   'P 1'
_cell_length_a   3.71149100
_cell_length_b   9.20525373
_cell_length_c   11.59602909
_cell_angle_alpha   90.05856433
_cell_angle_beta   90.00000000
_cell_angle_gamma   90.00000000
_symmetry_Int_Tables_number   1
_chemical_formula_structural   Tb6CeDy(ReB6)4
_chemical_formula_sum   'Tb6 Ce1 Dy1 Re4 B24'
_cell_volume   396.18063576
_cell_formula_units_Z   1
loop_
 _symmetry_equiv_pos_site_id
 _symmetry_equiv_pos_as_xyz
  1  'x, y, z'
loop_
 _atom_site_type_symbol
 _atom_site_label
 _atom_site_symmetry_multiplicity
 _atom_site_fract_x
 _atom_site_fract_y
 _atom_site_fract_z
 _atom_site_occupancy
  Tb  Tb0  1  0.000000  0.677281  0.586684  1
  Tb  Tb1  1  0.000000  0.823275  0.085457  1
  Tb  Tb2  1  0.000000  0.176230  0.913982  1
  Tb  Tb3  1  0.000000  0.942185  0.369908  1
  Tb  Tb4  1  0.000000  0.057030  0.630460  1
  Tb  Tb5  1  0.000000  0.442775  0.129067  1
  Ce  Ce6  1  0.000000  0.323199  0.414105  1
  Dy  Dy7  1  0.000000  0.557599  0.870115  1
  Re  Re8  1  0.000000  0.637073  0.321305  1
  Re  Re9  1  0.000000  0.362470  0.678430  1
  Re  Re10  1  0.000000  0.138558  0.179549  1
  Re  Re11  1  0.000000  0.861820  0.821010  1
  B  B12  1  0.500000  0.553524  0.432209  1
  B  B13  1  0.500000  0.446399  0.567833  1
  B  B14  1  0.500000  0.053120  0.067031  1
  B  B15  1  0.500000  0.946840  0.932856  1
  B  B16  1  0.500000  0.748557  0.418025  1
  B  B17  1  0.500000  0.252025  0.582725  1
  B  B18  1  0.500000  0.248008  0.081258  1
  B  B19  1  0.500000  0.751382  0.918212  1
  B  B20  1  0.500000  0.791022  0.265492  1
  B  B21  1  0.500000  0.209249  0.735074  1
  B  B22  1  0.500000  0.290449  0.233964  1
  B  B23  1  0.500000  0.708641  0.765660  1
  B  B24  1  0.500000  0.631137  0.185450  1
  B  B25  1  0.500000  0.369984  0.814358  1
  B  B26  1  0.500000  0.130643  0.313534  1
  B  B27  1  0.500000  0.869191  0.686314  1
  B  B28  1  0.500000  0.982500  0.211486  1
  B  B29  1  0.500000  0.017234  0.788463  1
  B  B30  1  0.500000  0.483637  0.287675  1
  B  B31  1  0.500000  0.517857  0.712721  1
  B  B32  1  0.500000  0.601165  0.027748  1
  B  B33  1  0.500000  0.399437  0.971228  1
  B  B34  1  0.500000  0.100265  0.471984  1
  B  B35  1  0.500000  0.898240  0.528627  1
