# generated using pymatgen
data_Rb5PuO6
_symmetry_space_group_name_H-M   'P 1'
_cell_length_a   6.83780554
_cell_length_b   6.83776293
_cell_length_c   6.69692792
_cell_angle_alpha   100.07923358
_cell_angle_beta   100.07858676
_cell_angle_gamma   119.55243085
_symmetry_Int_Tables_number   1
_chemical_formula_structural   Rb5PuO6
_chemical_formula_sum   'Rb5 Pu1 O6'
_cell_volume   255.39087281
_cell_formula_units_Z   1
loop_
 _symmetry_equiv_pos_site_id
 _symmetry_equiv_pos_as_xyz
  1  'x, y, z'
loop_
 _atom_site_type_symbol
 _atom_site_label
 _atom_site_symmetry_multiplicity
 _atom_site_fract_x
 _atom_site_fract_y
 _atom_site_fract_z
 _atom_site_occupancy
  Rb  Rb0  1  0.666543  0.333459  0.000001  1
  Rb  Rb1  1  0.333458  0.666542  0.999999  1
  Rb  Rb2  1  0.835504  0.164485  0.500001  1
  Rb  Rb3  1  0.500001  0.500001  0.500001  1
  Rb  Rb4  1  0.164497  0.835516  0.500001  1
  Pu  Pu5  1  0.000000  0.000000  0.000000  1
  O  O6  1  0.822341  0.822341  0.187796  1
  O  O7  1  0.306628  0.062981  0.191694  1
  O  O8  1  0.062982  0.306627  0.191698  1
  O  O9  1  0.937018  0.693373  0.808302  1
  O  O10  1  0.693372  0.937019  0.808306  1
  O  O11  1  0.177659  0.177659  0.812204  1
