# generated using pymatgen
data_Ce2Er3FeCo
_symmetry_space_group_name_H-M   'P 1'
_cell_length_a   6.14223896
_cell_length_b   6.70891712
_cell_length_c   8.53954900
_cell_angle_alpha   94.99845984
_cell_angle_beta   111.07777074
_cell_angle_gamma   89.99999932
_symmetry_Int_Tables_number   1
_chemical_formula_structural   Ce2Er3FeCo
_chemical_formula_sum   'Ce4 Er6 Fe2 Co2'
_cell_volume   326.91693464
_cell_formula_units_Z   2
loop_
 _symmetry_equiv_pos_site_id
 _symmetry_equiv_pos_as_xyz
  1  'x, y, z'
loop_
 _atom_site_type_symbol
 _atom_site_label
 _atom_site_symmetry_multiplicity
 _atom_site_fract_x
 _atom_site_fract_y
 _atom_site_fract_z
 _atom_site_occupancy
  Ce  Ce0  1  0.796364  0.597499  0.811744  1
  Ce  Ce1  1  0.984620  0.902501  0.188256  1
  Ce  Ce2  1  0.213425  0.391609  0.191547  1
  Ce  Ce3  1  0.021878  0.108391  0.808453  1
  Er  Er4  1  0.213687  0.678690  0.568940  1
  Er  Er5  1  0.644746  0.821310  0.431060  1
  Er  Er6  1  0.789124  0.321871  0.428902  1
  Er  Er7  1  0.360223  0.178129  0.571098  1
  Er  Er8  1  0.417978  0.750000  0.000000  1
  Er  Er9  1  0.584562  0.250000  0.000000  1
  Fe  Fe10  1  0.360159  0.098483  0.220839  1
  Fe  Fe11  1  0.139320  0.401517  0.779161  1
  Co  Co12  1  0.627019  0.905254  0.780122  1
  Co  Co13  1  0.846896  0.594746  0.219878  1
