# generated using pymatgen
data_Eu2Fe7Ni5P7
_symmetry_space_group_name_H-M   'P 1'
_cell_length_a   9.12423233
_cell_length_b   9.11722369
_cell_length_c   3.66497200
_cell_angle_alpha   90.00000000
_cell_angle_beta   90.00000000
_cell_angle_gamma   120.13255483
_symmetry_Int_Tables_number   1
_chemical_formula_structural   Eu2Fe7Ni5P7
_chemical_formula_sum   'Eu2 Fe7 Ni5 P7'
_cell_volume   263.68085334
_cell_formula_units_Z   1
loop_
 _symmetry_equiv_pos_site_id
 _symmetry_equiv_pos_as_xyz
  1  'x, y, z'
loop_
 _atom_site_type_symbol
 _atom_site_label
 _atom_site_symmetry_multiplicity
 _atom_site_fract_x
 _atom_site_fract_y
 _atom_site_fract_z
 _atom_site_occupancy
  Eu  Eu0  1  0.667498  0.333597  0.000000  1
  Eu  Eu1  1  0.333436  0.667336  0.500000  1
  Fe  Fe2  1  0.271816  0.117913  0.000000  1
  Fe  Fe3  1  0.844541  0.727493  0.000000  1
  Fe  Fe4  1  0.883826  0.152291  0.000000  1
  Fe  Fe5  1  0.952644  0.384283  0.500000  1
  Fe  Fe6  1  0.095020  0.877332  0.500000  1
  Fe  Fe7  1  0.785329  0.904914  0.500000  1
  Fe  Fe8  1  0.117291  0.211280  0.500000  1
  Ni  Ni9  1  0.057556  0.629437  0.000000  1
  Ni  Ni10  1  0.569803  0.943986  0.000000  1
  Ni  Ni11  1  0.371150  0.431046  0.000000  1
  Ni  Ni12  1  0.433890  0.048910  0.500000  1
  Ni  Ni13  1  0.613962  0.567196  0.500000  1
  P  P14  1  0.293528  0.891130  0.000000  1
  P  P15  1  0.596759  0.707742  0.000000  1
  P  P16  1  0.105594  0.404856  0.000000  1
  P  P17  1  0.394028  0.283405  0.500000  1
  P  P18  1  0.889081  0.600619  0.500000  1
  P  P19  1  0.722729  0.117234  0.500000  1
  P  P20  1  0.000521  0.998000  0.000000  1
