# generated using pymatgen
data_HoHf2Zr7Sn6
_symmetry_space_group_name_H-M   'P 1'
_cell_length_a   8.61340015
_cell_length_b   8.61339996
_cell_length_c   5.83413813
_cell_angle_alpha   89.98800401
_cell_angle_beta   89.98800710
_cell_angle_gamma   120.86104281
_symmetry_Int_Tables_number   1
_chemical_formula_structural   HoHf2Zr7Sn6
_chemical_formula_sum   'Ho1 Hf2 Zr7 Sn6'
_cell_volume   371.55459569
_cell_formula_units_Z   1
loop_
 _symmetry_equiv_pos_site_id
 _symmetry_equiv_pos_as_xyz
  1  'x, y, z'
loop_
 _atom_site_type_symbol
 _atom_site_label
 _atom_site_symmetry_multiplicity
 _atom_site_fract_x
 _atom_site_fract_y
 _atom_site_fract_z
 _atom_site_occupancy
  Ho  Ho0  1  0.766637  0.766637  0.750685  1
  Hf  Hf1  1  0.333237  0.665174  0.499654  1
  Hf  Hf2  1  0.665174  0.333237  0.499654  1
  Zr  Zr3  1  0.252540  0.001704  0.750793  1
  Zr  Zr4  1  0.001704  0.252540  0.750793  1
  Zr  Zr5  1  0.237427  0.237427  0.249308  1
  Zr  Zr6  1  0.748790  0.999261  0.249095  1
  Zr  Zr7  1  0.999261  0.748790  0.249095  1
  Zr  Zr8  1  0.665468  0.333491  0.000729  1
  Zr  Zr9  1  0.333491  0.665468  0.000729  1
  Sn  Sn10  1  0.391791  0.391791  0.747579  1
  Sn  Sn11  1  0.606203  0.003230  0.747684  1
  Sn  Sn12  1  0.003230  0.606203  0.747684  1
  Sn  Sn13  1  0.604912  0.604912  0.252106  1
  Sn  Sn14  1  0.390845  0.999286  0.252206  1
  Sn  Sn15  1  0.999286  0.390845  0.252206  1
