# generated using pymatgen
data_Sr4YHoNb2O12
_symmetry_space_group_name_H-M   'P 1'
_cell_length_a   5.84947766
_cell_length_b   5.96429407
_cell_length_c   8.33074212
_cell_angle_alpha   89.98243709
_cell_angle_beta   90.19008271
_cell_angle_gamma   89.99662394
_symmetry_Int_Tables_number   1
_chemical_formula_structural   Sr4YHoNb2O12
_chemical_formula_sum   'Sr4 Y1 Ho1 Nb2 O12'
_cell_volume   290.64135853
_cell_formula_units_Z   1
loop_
 _symmetry_equiv_pos_site_id
 _symmetry_equiv_pos_as_xyz
  1  'x, y, z'
loop_
 _atom_site_type_symbol
 _atom_site_label
 _atom_site_symmetry_multiplicity
 _atom_site_fract_x
 _atom_site_fract_y
 _atom_site_fract_z
 _atom_site_occupancy
  Sr  Sr0  1  0.490315  0.042399  0.748959  1
  Sr  Sr1  1  0.009665  0.542019  0.749881  1
  Sr  Sr2  1  0.509686  0.957599  0.251042  1
  Sr  Sr3  1  0.990334  0.457979  0.250119  1
  Y  Y4  1  0.000000  0.000000  0.000000  1
  Ho  Ho5  1  0.500000  0.500000  0.500000  1
  Nb  Nb6  1  0.500000  0.500000  0.999999  1
  Nb  Nb7  1  0.000000  0.000000  0.500000  1
  O  O8  1  0.584458  0.473332  0.763883  1
  O  O9  1  0.914976  0.973094  0.735010  1
  O  O10  1  0.415543  0.526668  0.236117  1
  O  O11  1  0.085022  0.026906  0.264990  1
  O  O12  1  0.806779  0.722052  0.453369  1
  O  O13  1  0.691372  0.222039  0.047116  1
  O  O14  1  0.193222  0.277946  0.546630  1
  O  O15  1  0.308629  0.777961  0.952884  1
  O  O16  1  0.722197  0.195983  0.457158  1
  O  O17  1  0.777827  0.694277  0.043328  1
  O  O18  1  0.277803  0.804017  0.542842  1
  O  O19  1  0.222173  0.305723  0.956673  1
