# generated using pymatgen
data_Nd3LuAu5
_symmetry_space_group_name_H-M   'P 1'
_cell_length_a   8.18250877
_cell_length_b   8.18250903
_cell_length_c   8.18250897
_cell_angle_alpha   65.80584307
_cell_angle_beta   65.80583816
_cell_angle_gamma   65.80581366
_symmetry_Int_Tables_number   1
_chemical_formula_structural   Nd3LuAu5
_chemical_formula_sum   'Nd6 Lu2 Au10'
_cell_volume   436.14572443
_cell_formula_units_Z   2
loop_
 _symmetry_equiv_pos_site_id
 _symmetry_equiv_pos_as_xyz
  1  'x, y, z'
loop_
 _atom_site_type_symbol
 _atom_site_label
 _atom_site_symmetry_multiplicity
 _atom_site_fract_x
 _atom_site_fract_y
 _atom_site_fract_z
 _atom_site_occupancy
  Nd  Nd0  1  0.892367  0.186178  0.621102  1
  Nd  Nd1  1  0.621102  0.892367  0.186178  1
  Nd  Nd2  1  0.186178  0.621102  0.892367  1
  Nd  Nd3  1  0.107633  0.813822  0.378898  1
  Nd  Nd4  1  0.378898  0.107633  0.813822  1
  Nd  Nd5  1  0.813822  0.378898  0.107633  1
  Lu  Lu6  1  0.656654  0.656654  0.656654  1
  Lu  Lu7  1  0.343346  0.343346  0.343346  1
  Au  Au8  1  0.000000  0.000000  0.000000  1
  Au  Au9  1  0.500000  0.500000  0.500000  1
  Au  Au10  1  0.803185  0.803185  0.803185  1
  Au  Au11  1  0.196815  0.196815  0.196815  1
  Au  Au12  1  0.939962  0.548562  0.321806  1
  Au  Au13  1  0.321806  0.939962  0.548562  1
  Au  Au14  1  0.548562  0.321806  0.939962  1
  Au  Au15  1  0.060038  0.451438  0.678194  1
  Au  Au16  1  0.678194  0.060038  0.451438  1
  Au  Au17  1  0.451438  0.678194  0.060038  1
