# generated using pymatgen
data_TbLu15(CoAg)4
_symmetry_space_group_name_H-M   'P 1'
_cell_length_a   9.20831566
_cell_length_b   9.22247017
_cell_length_c   9.22247200
_cell_angle_alpha   60.00000062
_cell_angle_beta   59.94913926
_cell_angle_gamma   59.94913051
_symmetry_Int_Tables_number   1
_chemical_formula_structural   TbLu15(CoAg)4
_chemical_formula_sum   'Tb1 Lu15 Co4 Ag4'
_cell_volume   553.38257827
_cell_formula_units_Z   1
loop_
 _symmetry_equiv_pos_site_id
 _symmetry_equiv_pos_as_xyz
  1  'x, y, z'
loop_
 _atom_site_type_symbol
 _atom_site_label
 _atom_site_symmetry_multiplicity
 _atom_site_fract_x
 _atom_site_fract_y
 _atom_site_fract_z
 _atom_site_occupancy
  Tb  Tb0  1  0.954934  0.348355  0.348355  1
  Lu  Lu1  1  0.811758  0.187648  0.187648  1
  Lu  Lu2  1  0.187923  0.811994  0.811994  1
  Lu  Lu3  1  0.187923  0.811994  0.188089  1
  Lu  Lu4  1  0.811758  0.187648  0.812946  1
  Lu  Lu5  1  0.187923  0.188089  0.811994  1
  Lu  Lu6  1  0.811758  0.812946  0.187648  1
  Lu  Lu7  1  0.937667  0.562884  0.562885  1
  Lu  Lu8  1  0.562269  0.937651  0.937652  1
  Lu  Lu9  1  0.562270  0.937651  0.562428  1
  Lu  Lu10  1  0.937667  0.562884  0.936565  1
  Lu  Lu11  1  0.562270  0.562427  0.937652  1
  Lu  Lu12  1  0.937667  0.936564  0.562885  1
  Lu  Lu13  1  0.348097  0.347945  0.347945  1
  Lu  Lu14  1  0.348097  0.347945  0.956013  1
  Lu  Lu15  1  0.348097  0.956013  0.347945  1
  Co  Co16  1  0.142838  0.140314  0.140314  1
  Co  Co17  1  0.142838  0.140314  0.576535  1
  Co  Co18  1  0.142838  0.576535  0.140314  1
  Co  Co19  1  0.575288  0.141571  0.141571  1
  Ag  Ag20  1  0.580881  0.582106  0.582106  1
  Ag  Ag21  1  0.580881  0.582106  0.254908  1
  Ag  Ag22  1  0.580881  0.254908  0.582106  1
  Ag  Ag23  1  0.255474  0.581509  0.581509  1
