# generated using pymatgen
data_Li3Tb3IrPd2
_symmetry_space_group_name_H-M   'P 1'
_cell_length_a   7.25388700
_cell_length_b   7.25388725
_cell_length_c   3.96954900
_cell_angle_alpha   90.00000000
_cell_angle_beta   90.00000000
_cell_angle_gamma   119.99999428
_symmetry_Int_Tables_number   1
_chemical_formula_structural   Li3Tb3IrPd2
_chemical_formula_sum   'Li3 Tb3 Ir1 Pd2'
_cell_volume   180.88952194
_cell_formula_units_Z   1
loop_
 _symmetry_equiv_pos_site_id
 _symmetry_equiv_pos_as_xyz
  1  'x, y, z'
loop_
 _atom_site_type_symbol
 _atom_site_label
 _atom_site_symmetry_multiplicity
 _atom_site_fract_x
 _atom_site_fract_y
 _atom_site_fract_z
 _atom_site_occupancy
  Li  Li0  1  0.999831  0.759912  0.500000  1
  Li  Li1  1  0.240088  0.239919  0.500000  1
  Li  Li2  1  0.760081  0.000169  0.500000  1
  Tb  Tb3  1  0.012181  0.417313  0.000000  1
  Tb  Tb4  1  0.582687  0.594869  0.000000  1
  Tb  Tb5  1  0.405131  0.987819  0.000000  1
  Ir  Ir6  1  0.333333  0.666667  0.500000  1
  Pd  Pd7  1  0.000000  0.000000  0.000000  1
  Pd  Pd8  1  0.666667  0.333333  0.500000  1
