# generated using pymatgen
data_CaNpO4
_symmetry_space_group_name_H-M   'P 1'
_cell_length_a   5.06647160
_cell_length_b   5.06647160
_cell_length_c   3.51991100
_cell_angle_alpha   90.00000000
_cell_angle_beta   90.00000000
_cell_angle_gamma   87.12040532
_symmetry_Int_Tables_number   1
_chemical_formula_structural   CaNpO4
_chemical_formula_sum   'Ca1 Np1 O4'
_cell_volume   90.23898091
_cell_formula_units_Z   1
loop_
 _symmetry_equiv_pos_site_id
 _symmetry_equiv_pos_as_xyz
  1  'x, y, z'
loop_
 _atom_site_type_symbol
 _atom_site_label
 _atom_site_symmetry_multiplicity
 _atom_site_fract_x
 _atom_site_fract_y
 _atom_site_fract_z
 _atom_site_occupancy
  Ca  Ca0  1  0.000000  0.000000  0.000000  1
  Np  Np1  1  0.500000  0.500000  0.500000  1
  O  O2  1  0.324960  0.324960  0.000000  1
  O  O3  1  0.675039  0.675039  0.000000  1
  O  O4  1  0.777438  0.222561  0.500000  1
  O  O5  1  0.222561  0.777438  0.500000  1
