# generated using pymatgen
data_Li6Al5MoRh12
_symmetry_space_group_name_H-M   'P 1'
_cell_length_a   4.20929900
_cell_length_b   5.97473100
_cell_length_c   12.59011600
_cell_angle_alpha   90.00000000
_cell_angle_beta   89.99799610
_cell_angle_gamma   90.00000000
_symmetry_Int_Tables_number   1
_chemical_formula_structural   Li6Al5MoRh12
_chemical_formula_sum   'Li6 Al5 Mo1 Rh12'
_cell_volume   316.63423116
_cell_formula_units_Z   1
loop_
 _symmetry_equiv_pos_site_id
 _symmetry_equiv_pos_as_xyz
  1  'x, y, z'
loop_
 _atom_site_type_symbol
 _atom_site_label
 _atom_site_symmetry_multiplicity
 _atom_site_fract_x
 _atom_site_fract_y
 _atom_site_fract_z
 _atom_site_occupancy
  Li  Li0  1  0.000000  0.500001  0.000000  1
  Li  Li1  1  0.499760  0.000000  0.167529  1
  Li  Li2  1  0.999701  0.500001  0.335180  1
  Li  Li3  1  0.500000  0.000000  0.500000  1
  Li  Li4  1  0.000300  0.500001  0.664820  1
  Li  Li5  1  0.500240  0.000000  0.832471  1
  Al  Al6  1  0.499780  0.500001  0.171102  1
  Al  Al7  1  0.999748  0.000000  0.334929  1
  Al  Al8  1  0.500000  0.500001  0.500000  1
  Al  Al9  1  0.000253  0.000000  0.665071  1
  Al  Al10  1  0.500221  0.500001  0.828898  1
  Mo  Mo11  1  0.000000  0.000000  0.000000  1
  Rh  Rh12  1  0.500000  0.255009  0.000000  1
  Rh  Rh13  1  0.500000  0.744991  0.000000  1
  Rh  Rh14  1  0.999807  0.250406  0.165191  1
  Rh  Rh15  1  0.999807  0.749593  0.165191  1
  Rh  Rh16  1  0.499754  0.248876  0.333064  1
  Rh  Rh17  1  0.499754  0.751124  0.333064  1
  Rh  Rh18  1  0.000000  0.250218  0.500000  1
  Rh  Rh19  1  0.000000  0.749783  0.500000  1
  Rh  Rh20  1  0.500246  0.248876  0.666935  1
  Rh  Rh21  1  0.500246  0.751124  0.666935  1
  Rh  Rh22  1  0.000194  0.250406  0.834809  1
  Rh  Rh23  1  0.000194  0.749593  0.834809  1
