# generated using pymatgen
data_Ho12InFe2Ni2Rh
_symmetry_space_group_name_H-M   'P 1'
_cell_length_a   8.31386258
_cell_length_b   8.31385591
_cell_length_c   8.31386391
_cell_angle_alpha   111.33146500
_cell_angle_beta   111.42453622
_cell_angle_gamma   105.72153535
_symmetry_Int_Tables_number   1
_chemical_formula_structural   Ho12InFe2Ni2Rh
_chemical_formula_sum   'Ho12 In1 Fe2 Ni2 Rh1'
_cell_volume   440.96123237
_cell_formula_units_Z   1
loop_
 _symmetry_equiv_pos_site_id
 _symmetry_equiv_pos_as_xyz
  1  'x, y, z'
loop_
 _atom_site_type_symbol
 _atom_site_label
 _atom_site_symmetry_multiplicity
 _atom_site_fract_x
 _atom_site_fract_y
 _atom_site_fract_z
 _atom_site_occupancy
  Ho  Ho0  1  0.317714  0.620731  0.303016  1
  Ho  Ho1  1  0.682286  0.379269  0.696984  1
  Ho  Ho2  1  0.317715  0.014697  0.696983  1
  Ho  Ho3  1  0.682285  0.985303  0.303017  1
  Ho  Ho4  1  0.187184  0.288148  0.475334  1
  Ho  Ho5  1  0.812816  0.711852  0.524666  1
  Ho  Ho6  1  0.187186  0.711852  0.899037  1
  Ho  Ho7  1  0.812814  0.288148  0.100963  1
  Ho  Ho8  1  0.407942  0.213699  0.194247  1
  Ho  Ho9  1  0.592058  0.786301  0.805753  1
  Ho  Ho10  1  0.019452  0.213699  0.805757  1
  Ho  Ho11  1  0.980548  0.786301  0.194243  1
  In  In12  1  0.500000  0.500000  0.000000  1
  Fe  Fe13  1  0.381732  0.000000  0.381732  1
  Fe  Fe14  1  0.618268  0.000000  0.618268  1
  Ni  Ni15  1  0.116198  0.616202  0.500004  1
  Ni  Ni16  1  0.883802  0.383798  0.499996  1
  Rh  Rh17  1  0.000000  0.000000  0.000000  1
