# generated using pymatgen
data_Y7Lu(OsI4)2
_symmetry_space_group_name_H-M   'P 1'
_cell_length_a   11.43002619
_cell_length_b   11.42729495
_cell_length_c   6.17909627
_cell_angle_alpha   89.96629721
_cell_angle_beta   90.06866368
_cell_angle_gamma   88.37810171
_symmetry_Int_Tables_number   1
_chemical_formula_structural   Y7Lu(OsI4)2
_chemical_formula_sum   'Y7 Lu1 Os2 I8'
_cell_volume   806.75413942
_cell_formula_units_Z   1
loop_
 _symmetry_equiv_pos_site_id
 _symmetry_equiv_pos_as_xyz
  1  'x, y, z'
loop_
 _atom_site_type_symbol
 _atom_site_label
 _atom_site_symmetry_multiplicity
 _atom_site_fract_x
 _atom_site_fract_y
 _atom_site_fract_z
 _atom_site_occupancy
  Y  Y0  1  0.082898  0.801842  0.499582  1
  Y  Y1  1  0.078798  0.195997  0.999816  1
  Y  Y2  1  0.195179  0.079305  0.500135  1
  Y  Y3  1  0.921837  0.803785  0.999756  1
  Y  Y4  1  0.914510  0.198127  0.499955  1
  Y  Y5  1  0.197643  0.916180  0.000771  1
  Y  Y6  1  0.803085  0.922663  0.499486  1
  Lu  Lu7  1  0.811532  0.080033  0.998584  1
  Os  Os8  1  0.000202  0.999959  0.250269  1
  Os  Os9  1  0.000420  0.999759  0.749367  1
  I  I10  1  0.644375  0.152173  0.508974  1
  I  I11  1  0.856398  0.649354  0.504920  1
  I  I12  1  0.349976  0.142672  0.995128  1
  I  I13  1  0.141584  0.351469  0.495237  1
  I  I14  1  0.650692  0.862804  0.004465  1
  I  I15  1  0.353995  0.848488  0.492922  1
  I  I16  1  0.151632  0.644710  0.007340  1
  I  I17  1  0.845244  0.350680  0.993293  1
