# generated using pymatgen
data_Zn2Fe2NiPdO8
_symmetry_space_group_name_H-M   'P 1'
_cell_length_a   6.08487824
_cell_length_b   6.08840626
_cell_length_c   6.08487883
_cell_angle_alpha   59.15029723
_cell_angle_beta   59.39110946
_cell_angle_gamma   59.15029143
_symmetry_Int_Tables_number   1
_chemical_formula_structural   Zn2Fe2NiPdO8
_chemical_formula_sum   'Zn2 Fe2 Ni1 Pd1 O8'
_cell_volume   156.60574421
_cell_formula_units_Z   1
loop_
 _symmetry_equiv_pos_site_id
 _symmetry_equiv_pos_as_xyz
  1  'x, y, z'
loop_
 _atom_site_type_symbol
 _atom_site_label
 _atom_site_symmetry_multiplicity
 _atom_site_fract_x
 _atom_site_fract_y
 _atom_site_fract_z
 _atom_site_occupancy
  Zn  Zn0  1  0.495458  0.485243  0.495458  1
  Zn  Zn1  1  0.754542  0.764757  0.754542  1
  Fe  Fe2  1  0.625000  0.125000  0.125000  1
  Fe  Fe3  1  0.125000  0.125000  0.625000  1
  Ni  Ni4  1  0.125000  0.625000  0.125000  1
  Pd  Pd5  1  0.125000  0.125000  0.125000  1
  O  O6  1  0.883641  0.897289  0.883641  1
  O  O7  1  0.902853  0.359581  0.367272  1
  O  O8  1  0.365584  0.899526  0.365584  1
  O  O9  1  0.367272  0.359581  0.902853  1
  O  O10  1  0.884416  0.350474  0.884416  1
  O  O11  1  0.882728  0.890419  0.347147  1
  O  O12  1  0.347147  0.890419  0.882728  1
  O  O13  1  0.366359  0.352711  0.366359  1
