# generated using pymatgen
data_Sc12CuIr6Rh5
_symmetry_space_group_name_H-M   'P 1'
_cell_length_a   4.55818900
_cell_length_b   6.53519200
_cell_length_c   13.69434001
_cell_angle_alpha   90.00015840
_cell_angle_beta   90.00393990
_cell_angle_gamma   90.00004267
_symmetry_Int_Tables_number   1
_chemical_formula_structural   Sc12CuIr6Rh5
_chemical_formula_sum   'Sc12 Cu1 Ir6 Rh5'
_cell_volume   407.93576775
_cell_formula_units_Z   1
loop_
 _symmetry_equiv_pos_site_id
 _symmetry_equiv_pos_as_xyz
  1  'x, y, z'
loop_
 _atom_site_type_symbol
 _atom_site_label
 _atom_site_symmetry_multiplicity
 _atom_site_fract_x
 _atom_site_fract_y
 _atom_site_fract_z
 _atom_site_occupancy
  Sc  Sc0  1  0.500003  0.248764  0.000001  1
  Sc  Sc1  1  0.499997  0.751236  0.999999  1
  Sc  Sc2  1  0.999897  0.249388  0.167614  1
  Sc  Sc3  1  0.999896  0.750612  0.167614  1
  Sc  Sc4  1  0.499912  0.249673  0.333272  1
  Sc  Sc5  1  0.499908  0.750322  0.333273  1
  Sc  Sc6  1  0.000003  0.249994  0.499999  1
  Sc  Sc7  1  0.999997  0.750005  0.500001  1
  Sc  Sc8  1  0.500092  0.249677  0.666727  1
  Sc  Sc9  1  0.500088  0.750326  0.666728  1
  Sc  Sc10  1  0.000105  0.249387  0.832386  1
  Sc  Sc11  1  0.000104  0.750611  0.832386  1
  Cu  Cu12  1  0.000000  0.500000  0.000000  1
  Ir  Ir13  1  0.000000  0.000000  0.000000  1
  Ir  Ir14  1  0.499884  0.500003  0.164807  1
  Ir  Ir15  1  0.999909  0.000002  0.332940  1
  Ir  Ir16  1  0.500000  0.500000  0.500000  1
  Ir  Ir17  1  0.000091  0.999998  0.667060  1
  Ir  Ir18  1  0.500116  0.499997  0.835193  1
  Rh  Rh19  1  0.499913  0.999999  0.166746  1
  Rh  Rh20  1  0.999923  0.499993  0.333996  1
  Rh  Rh21  1  0.500000  0.000000  0.500000  1
  Rh  Rh22  1  0.000077  0.500007  0.666004  1
  Rh  Rh23  1  0.500087  0.000001  0.833254  1
