# generated using pymatgen
data_Li4Ac3SmIn8
_symmetry_space_group_name_H-M   'P 1'
_cell_length_a   5.03749100
_cell_length_b   7.25372254
_cell_length_c   11.52528280
_cell_angle_alpha   89.44182741
_cell_angle_beta   90.00000000
_cell_angle_gamma   90.00000000
_symmetry_Int_Tables_number   1
_chemical_formula_structural   Li4Ac3SmIn8
_chemical_formula_sum   'Li4 Ac3 Sm1 In8'
_cell_volume   421.12032658
_cell_formula_units_Z   1
loop_
 _symmetry_equiv_pos_site_id
 _symmetry_equiv_pos_as_xyz
  1  'x, y, z'
loop_
 _atom_site_type_symbol
 _atom_site_label
 _atom_site_symmetry_multiplicity
 _atom_site_fract_x
 _atom_site_fract_y
 _atom_site_fract_z
 _atom_site_occupancy
  Li  Li0  1  0.250000  0.458283  0.388746  1
  Li  Li1  1  0.250000  0.931506  0.119015  1
  Li  Li2  1  0.750000  0.563563  0.617020  1
  Li  Li3  1  0.750000  0.046877  0.890662  1
  Ac  Ac4  1  0.250000  0.254742  0.653378  1
  Ac  Ac5  1  0.250000  0.742202  0.843845  1
  Ac  Ac6  1  0.750000  0.762543  0.342959  1
  Sm  Sm7  1  0.750000  0.247036  0.151005  1
  In  In8  1  0.250000  0.236272  0.956219  1
  In  In9  1  0.250000  0.761926  0.547826  1
  In  In10  1  0.750000  0.735480  0.051278  1
  In  In11  1  0.750000  0.264518  0.442568  1
  In  In12  1  0.250000  0.080926  0.343076  1
  In  In13  1  0.250000  0.536344  0.150063  1
  In  In14  1  0.750000  0.949218  0.645348  1
  In  In15  1  0.750000  0.428563  0.856991  1
