# generated using pymatgen
data_YEr7(InAu2)4
_symmetry_space_group_name_H-M   'P 1'
_cell_length_a   8.02067000
_cell_length_b   8.02067099
_cell_length_c   7.31535000
_cell_angle_alpha   90.00000000
_cell_angle_beta   90.00000000
_cell_angle_gamma   90.13109075
_symmetry_Int_Tables_number   1
_chemical_formula_structural   YEr7(InAu2)4
_chemical_formula_sum   'Y1 Er7 In4 Au8'
_cell_volume   470.60368455
_cell_formula_units_Z   1
loop_
 _symmetry_equiv_pos_site_id
 _symmetry_equiv_pos_as_xyz
  1  'x, y, z'
loop_
 _atom_site_type_symbol
 _atom_site_label
 _atom_site_symmetry_multiplicity
 _atom_site_fract_x
 _atom_site_fract_y
 _atom_site_fract_z
 _atom_site_occupancy
  Y  Y0  1  0.820094  0.179906  0.000000  1
  Er  Er1  1  0.840906  0.159094  0.500000  1
  Er  Er2  1  0.159422  0.840578  0.500000  1
  Er  Er3  1  0.340802  0.341069  0.000000  1
  Er  Er4  1  0.658931  0.659198  0.000000  1
  Er  Er5  1  0.678671  0.679172  0.500000  1
  Er  Er6  1  0.320828  0.321329  0.500000  1
  Er  Er7  1  0.178924  0.821076  0.000000  1
  In  In8  1  0.499866  0.999996  0.250443  1
  In  In9  1  0.000004  0.500134  0.749557  1
  In  In10  1  0.499866  0.999996  0.749557  1
  In  In11  1  0.000004  0.500134  0.250443  1
  Au  Au12  1  0.627832  0.372168  0.272020  1
  Au  Au13  1  0.370536  0.629464  0.268826  1
  Au  Au14  1  0.130681  0.128207  0.767970  1
  Au  Au15  1  0.871793  0.869319  0.767970  1
  Au  Au16  1  0.370536  0.629464  0.731174  1
  Au  Au17  1  0.627832  0.372168  0.727980  1
  Au  Au18  1  0.871793  0.869319  0.232030  1
  Au  Au19  1  0.130681  0.128207  0.232030  1
