# generated using pymatgen
data_Pr10IrOs3
_symmetry_space_group_name_H-M   'P 1'
_cell_length_a   9.00084564
_cell_length_b   8.98629435
_cell_length_c   7.49268810
_cell_angle_alpha   83.68142230
_cell_angle_beta   83.67230250
_cell_angle_gamma   43.86536872
_symmetry_Int_Tables_number   1
_chemical_formula_structural   Pr10IrOs3
_chemical_formula_sum   'Pr10 Ir1 Os3'
_cell_volume   416.99498362
_cell_formula_units_Z   1
loop_
 _symmetry_equiv_pos_site_id
 _symmetry_equiv_pos_as_xyz
  1  'x, y, z'
loop_
 _atom_site_type_symbol
 _atom_site_label
 _atom_site_symmetry_multiplicity
 _atom_site_fract_x
 _atom_site_fract_y
 _atom_site_fract_z
 _atom_site_occupancy
  Pr  Pr0  1  0.020871  0.797199  0.913793  1
  Pr  Pr1  1  0.201099  0.982103  0.585051  1
  Pr  Pr2  1  0.983413  0.201814  0.084454  1
  Pr  Pr3  1  0.800424  0.017466  0.416613  1
  Pr  Pr4  1  0.353173  0.210668  0.816899  1
  Pr  Pr5  1  0.788296  0.646699  0.683192  1
  Pr  Pr6  1  0.646268  0.785733  0.182934  1
  Pr  Pr7  1  0.208217  0.356253  0.318633  1
  Pr  Pr8  1  0.570393  0.431292  0.747608  1
  Pr  Pr9  1  0.430313  0.570433  0.250183  1
  Ir  Ir10  1  0.599828  0.176808  0.075230  1
  Os  Os11  1  0.176557  0.601831  0.574585  1
  Os  Os12  1  0.397225  0.824120  0.926282  1
  Os  Os13  1  0.823923  0.397583  0.424545  1
