# generated using pymatgen
data_Dy7Y(Si3Ir)4
_symmetry_space_group_name_H-M   'P 1'
_cell_length_a   8.17415600
_cell_length_b   8.17415708
_cell_length_c   7.94578000
_cell_angle_alpha   90.00000000
_cell_angle_beta   90.00000000
_cell_angle_gamma   119.99999562
_symmetry_Int_Tables_number   1
_chemical_formula_structural   Dy7Y(Si3Ir)4
_chemical_formula_sum   'Dy7 Y1 Si12 Ir4'
_cell_volume   459.78318901
_cell_formula_units_Z   1
loop_
 _symmetry_equiv_pos_site_id
 _symmetry_equiv_pos_as_xyz
  1  'x, y, z'
loop_
 _atom_site_type_symbol
 _atom_site_label
 _atom_site_symmetry_multiplicity
 _atom_site_fract_x
 _atom_site_fract_y
 _atom_site_fract_z
 _atom_site_occupancy
  Dy  Dy0  1  0.000000  0.000000  0.750000  1
  Dy  Dy1  1  0.509326  0.490674  0.250000  1
  Dy  Dy2  1  0.509326  0.018654  0.250000  1
  Dy  Dy3  1  0.981346  0.490674  0.250000  1
  Dy  Dy4  1  0.490662  0.509338  0.750000  1
  Dy  Dy5  1  0.490662  0.981321  0.750000  1
  Dy  Dy6  1  0.018679  0.509338  0.750000  1
  Y  Y7  1  0.000000  0.000000  0.250000  1
  Si  Si8  1  0.166782  0.833218  0.499353  1
  Si  Si9  1  0.166782  0.333565  0.499353  1
  Si  Si10  1  0.666435  0.833218  0.499353  1
  Si  Si11  1  0.833218  0.166782  0.500749  1
  Si  Si12  1  0.833218  0.666435  0.500749  1
  Si  Si13  1  0.333565  0.166782  0.500749  1
  Si  Si14  1  0.833218  0.166782  0.999251  1
  Si  Si15  1  0.833218  0.666435  0.999251  1
  Si  Si16  1  0.333565  0.166782  0.999251  1
  Si  Si17  1  0.166782  0.833218  0.000647  1
  Si  Si18  1  0.166782  0.333565  0.000647  1
  Si  Si19  1  0.666435  0.833218  0.000647  1
  Ir  Ir20  1  0.333333  0.666667  0.467152  1
  Ir  Ir21  1  0.666667  0.333333  0.532824  1
  Ir  Ir22  1  0.666667  0.333333  0.967176  1
  Ir  Ir23  1  0.333333  0.666667  0.032848  1
