# generated using pymatgen
data_Zr16TaCo4Os3
_symmetry_space_group_name_H-M   'P 1'
_cell_length_a   8.72429934
_cell_length_b   8.72427712
_cell_length_c   8.72256076
_cell_angle_alpha   60.15910497
_cell_angle_beta   60.15780405
_cell_angle_gamma   60.16641227
_symmetry_Int_Tables_number   1
_chemical_formula_structural   Zr16TaCo4Os3
_chemical_formula_sum   'Zr16 Ta1 Co4 Os3'
_cell_volume   471.16264897
_cell_formula_units_Z   1
loop_
 _symmetry_equiv_pos_site_id
 _symmetry_equiv_pos_as_xyz
  1  'x, y, z'
loop_
 _atom_site_type_symbol
 _atom_site_label
 _atom_site_symmetry_multiplicity
 _atom_site_fract_x
 _atom_site_fract_y
 _atom_site_fract_z
 _atom_site_occupancy
  Zr  Zr0  1  0.048542  0.650288  0.650367  1
  Zr  Zr1  1  0.650297  0.048627  0.650343  1
  Zr  Zr2  1  0.650342  0.650309  0.048572  1
  Zr  Zr3  1  0.649212  0.649261  0.649330  1
  Zr  Zr4  1  0.795195  0.795186  0.205130  1
  Zr  Zr5  1  0.201468  0.201487  0.799200  1
  Zr  Zr6  1  0.795204  0.205151  0.795212  1
  Zr  Zr7  1  0.201530  0.799174  0.201463  1
  Zr  Zr8  1  0.205123  0.795196  0.795214  1
  Zr  Zr9  1  0.799196  0.201530  0.201445  1
  Zr  Zr10  1  0.435020  0.434978  0.063147  1
  Zr  Zr11  1  0.063748  0.063734  0.436084  1
  Zr  Zr12  1  0.435026  0.063152  0.434973  1
  Zr  Zr13  1  0.063757  0.436085  0.063743  1
  Zr  Zr14  1  0.063119  0.435036  0.435024  1
  Zr  Zr15  1  0.436118  0.063719  0.063718  1
  Ta  Ta16  1  0.422765  0.422770  0.422751  1
  Co  Co17  1  0.419864  0.860146  0.860151  1
  Co  Co18  1  0.860129  0.419871  0.860138  1
  Co  Co19  1  0.860137  0.860144  0.419858  1
  Co  Co20  1  0.860466  0.860437  0.860446  1
  Os  Os21  1  0.749482  0.417125  0.417100  1
  Os  Os22  1  0.417134  0.749456  0.417122  1
  Os  Os23  1  0.417126  0.417137  0.749469  1
