# generated using pymatgen
data_Dy9HoIn8(RuPt)2
_symmetry_space_group_name_H-M   'P 1'
_cell_length_a   3.62685500
_cell_length_b   8.09889453
_cell_length_c   18.32621765
_cell_angle_alpha   89.73808503
_cell_angle_beta   90.00000000
_cell_angle_gamma   90.00000000
_symmetry_Int_Tables_number   1
_chemical_formula_structural   Dy9HoIn8(RuPt)2
_chemical_formula_sum   'Dy9 Ho1 In8 Ru2 Pt2'
_cell_volume   538.29982498
_cell_formula_units_Z   1
loop_
 _symmetry_equiv_pos_site_id
 _symmetry_equiv_pos_as_xyz
  1  'x, y, z'
loop_
 _atom_site_type_symbol
 _atom_site_label
 _atom_site_symmetry_multiplicity
 _atom_site_fract_x
 _atom_site_fract_y
 _atom_site_fract_z
 _atom_site_occupancy
  Dy  Dy0  1  0.000000  0.884315  0.587589  1
  Dy  Dy1  1  0.000000  0.381916  0.913345  1
  Dy  Dy2  1  0.000000  0.618064  0.086785  1
  Dy  Dy3  1  0.000000  0.235082  0.222865  1
  Dy  Dy4  1  0.000000  0.764870  0.777222  1
  Dy  Dy5  1  0.000000  0.247563  0.720683  1
  Dy  Dy6  1  0.000000  0.752741  0.279372  1
  Dy  Dy7  1  0.000000  0.999965  0.000071  1
  Dy  Dy8  1  0.000000  0.499891  0.499937  1
  Ho  Ho9  1  0.000000  0.115338  0.412114  1
  In  In10  1  0.500000  0.426070  0.351900  1
  In  In11  1  0.500000  0.573107  0.648054  1
  In  In12  1  0.500000  0.067451  0.850259  1
  In  In13  1  0.500000  0.932872  0.149881  1
  In  In14  1  0.500000  0.292144  0.066489  1
  In  In15  1  0.500000  0.707906  0.933545  1
  In  In16  1  0.500000  0.206930  0.568340  1
  In  In17  1  0.500000  0.793329  0.431258  1
  Ru  Ru18  1  0.500000  0.020215  0.304350  1
  Ru  Ru19  1  0.500000  0.980241  0.695865  1
  Pt  Pt20  1  0.500000  0.478347  0.803425  1
  Pt  Pt21  1  0.500000  0.521642  0.196654  1
