# generated using pymatgen
data_TbYb2Ga8Ag3
_symmetry_space_group_name_H-M   'P 1'
_cell_length_a   4.40221262
_cell_length_b   8.30057557
_cell_length_c   8.30057547
_cell_angle_alpha   71.42376320
_cell_angle_beta   74.62264383
_cell_angle_gamma   74.62263039
_symmetry_Int_Tables_number   1
_chemical_formula_structural   TbYb2Ga8Ag3
_chemical_formula_sum   'Tb1 Yb2 Ga8 Ag3'
_cell_volume   271.74344872
_cell_formula_units_Z   1
loop_
 _symmetry_equiv_pos_site_id
 _symmetry_equiv_pos_as_xyz
  1  'x, y, z'
loop_
 _atom_site_type_symbol
 _atom_site_label
 _atom_site_symmetry_multiplicity
 _atom_site_fract_x
 _atom_site_fract_y
 _atom_site_fract_z
 _atom_site_occupancy
  Tb  Tb0  1  0.500000  0.500000  0.500000  1
  Yb  Yb1  1  0.198955  0.801045  0.801045  1
  Yb  Yb2  1  0.801045  0.198955  0.198955  1
  Ga  Ga3  1  0.357601  0.363062  0.921734  1
  Ga  Ga4  1  0.642399  0.636938  0.078266  1
  Ga  Ga5  1  0.357601  0.921734  0.363062  1
  Ga  Ga6  1  0.642399  0.078266  0.636938  1
  Ga  Ga7  1  0.160771  0.469631  0.208828  1
  Ga  Ga8  1  0.839229  0.530369  0.791172  1
  Ga  Ga9  1  0.160771  0.208828  0.469631  1
  Ga  Ga10  1  0.839229  0.791172  0.530369  1
  Ag  Ag11  1  0.500000  0.000000  0.000000  1
  Ag  Ag12  1  0.000000  0.805618  0.194382  1
  Ag  Ag13  1  0.000000  0.194382  0.805618  1
