# generated using pymatgen
data_Dy6Ti4Al12Rh7
_symmetry_space_group_name_H-M   'P 1'
_cell_length_a   8.99303049
_cell_length_b   8.99303086
_cell_length_c   8.99303100
_cell_angle_alpha   60.00000317
_cell_angle_beta   60.00000179
_cell_angle_gamma   59.99999832
_symmetry_Int_Tables_number   1
_chemical_formula_structural   Dy6Ti4Al12Rh7
_chemical_formula_sum   'Dy6 Ti4 Al12 Rh7'
_cell_volume   514.28428401
_cell_formula_units_Z   1
loop_
 _symmetry_equiv_pos_site_id
 _symmetry_equiv_pos_as_xyz
  1  'x, y, z'
loop_
 _atom_site_type_symbol
 _atom_site_label
 _atom_site_symmetry_multiplicity
 _atom_site_fract_x
 _atom_site_fract_y
 _atom_site_fract_z
 _atom_site_occupancy
  Dy  Dy0  1  0.703008  0.296992  0.296992  1
  Dy  Dy1  1  0.703008  0.296992  0.703008  1
  Dy  Dy2  1  0.703008  0.703008  0.296992  1
  Dy  Dy3  1  0.296992  0.703008  0.703008  1
  Dy  Dy4  1  0.296992  0.703008  0.296992  1
  Dy  Dy5  1  0.296992  0.296992  0.703008  1
  Ti  Ti6  1  0.642557  0.119147  0.119147  1
  Ti  Ti7  1  0.119147  0.642557  0.119147  1
  Ti  Ti8  1  0.119147  0.119147  0.642557  1
  Ti  Ti9  1  0.119147  0.119147  0.119147  1
  Al  Al10  1  0.356668  0.881111  0.881111  1
  Al  Al11  1  0.881111  0.356668  0.881111  1
  Al  Al12  1  0.881111  0.881111  0.356668  1
  Al  Al13  1  0.881111  0.881111  0.881111  1
  Al  Al14  1  0.011411  0.329530  0.329530  1
  Al  Al15  1  0.329530  0.011411  0.329530  1
  Al  Al16  1  0.329530  0.329530  0.011411  1
  Al  Al17  1  0.329530  0.329530  0.329530  1
  Al  Al18  1  0.984220  0.671927  0.671927  1
  Al  Al19  1  0.671927  0.984220  0.671927  1
  Al  Al20  1  0.671927  0.671927  0.984220  1
  Al  Al21  1  0.671927  0.671927  0.671927  1
  Rh  Rh22  1  0.000000  0.000000  0.000000  1
  Rh  Rh23  1  0.498602  0.001398  0.001398  1
  Rh  Rh24  1  0.498602  0.001398  0.498602  1
  Rh  Rh25  1  0.498602  0.498602  0.001398  1
  Rh  Rh26  1  0.001398  0.498602  0.498602  1
  Rh  Rh27  1  0.001398  0.498602  0.001398  1
  Rh  Rh28  1  0.001398  0.001398  0.498602  1
