# generated using pymatgen
data_Y2Tm2Th(FeB3)2
_symmetry_space_group_name_H-M   'P 1'
_cell_length_a   5.42730870
_cell_length_b   5.42730712
_cell_length_c   8.10781381
_cell_angle_alpha   70.44593179
_cell_angle_beta   70.44593499
_cell_angle_gamma   59.99998790
_symmetry_Int_Tables_number   1
_chemical_formula_structural   Y2Tm2Th(FeB3)2
_chemical_formula_sum   'Y2 Tm2 Th1 Fe2 B6'
_cell_volume   190.75487315
_cell_formula_units_Z   1
loop_
 _symmetry_equiv_pos_site_id
 _symmetry_equiv_pos_as_xyz
  1  'x, y, z'
loop_
 _atom_site_type_symbol
 _atom_site_label
 _atom_site_symmetry_multiplicity
 _atom_site_fract_x
 _atom_site_fract_y
 _atom_site_fract_z
 _atom_site_occupancy
  Y  Y0  1  0.585504  0.585504  0.243487  1
  Y  Y1  1  0.414496  0.414496  0.756513  1
  Tm  Tm2  1  0.749888  0.749888  0.750338  1
  Tm  Tm3  1  0.250112  0.250112  0.249662  1
  Th  Th4  1  0.000000  0.000000  0.000000  1
  Fe  Fe5  1  0.887632  0.887632  0.337102  1
  Fe  Fe6  1  0.112368  0.112368  0.662898  1
  B  B7  1  0.500000  0.167412  0.500000  1
  B  B8  1  0.832588  0.500000  0.500000  1
  B  B9  1  0.167412  0.832588  0.500000  1
  B  B10  1  0.167412  0.500000  0.500000  1
  B  B11  1  0.832588  0.167412  0.500000  1
  B  B12  1  0.500000  0.832588  0.500000  1
