# generated using pymatgen
data_Sc12Si(OsBr8)2
_symmetry_space_group_name_H-M   'P 1'
_cell_length_a   9.11760160
_cell_length_b   11.13752532
_cell_length_c   11.79240252
_cell_angle_alpha   116.96664193
_cell_angle_beta   101.99153194
_cell_angle_gamma   101.41947184
_symmetry_Int_Tables_number   1
_chemical_formula_structural   Sc12Si(OsBr8)2
_chemical_formula_sum   'Sc12 Si1 Os2 Br16'
_cell_volume   983.61045332
_cell_formula_units_Z   1
loop_
 _symmetry_equiv_pos_site_id
 _symmetry_equiv_pos_as_xyz
  1  'x, y, z'
loop_
 _atom_site_type_symbol
 _atom_site_label
 _atom_site_symmetry_multiplicity
 _atom_site_fract_x
 _atom_site_fract_y
 _atom_site_fract_z
 _atom_site_occupancy
  Sc  Sc0  1  0.071485  0.259764  0.352718  1
  Sc  Sc1  1  0.917285  0.740052  0.647363  1
  Sc  Sc2  1  0.778636  0.537180  0.322868  1
  Sc  Sc3  1  0.210726  0.462688  0.677184  1
  Sc  Sc4  1  0.268371  0.740455  0.647698  1
  Sc  Sc5  1  0.720527  0.259596  0.352342  1
  Sc  Sc6  1  0.129225  0.536842  0.323347  1
  Sc  Sc7  1  0.859452  0.463344  0.676881  1
  Sc  Sc8  1  0.412094  0.348993  0.259252  1
  Sc  Sc9  1  0.613713  0.651320  0.741117  1
  Sc  Sc10  1  0.468420  0.294711  0.521712  1
  Sc  Sc11  1  0.556971  0.705542  0.478361  1
  Si  Si12  1  0.360434  0.500084  0.499571  1
  Os  Os13  1  0.000065  0.499927  0.499888  1
  Os  Os14  1  0.653008  0.500093  0.500717  1
  Br  Br15  1  0.398481  0.737579  0.877834  1
  Br  Br16  1  0.598785  0.254672  0.109328  1
  Br  Br17  1  0.190952  0.969321  0.785447  1
  Br  Br18  1  0.809854  0.030733  0.214100  1
  Br  Br19  1  0.330891  0.093959  0.250729  1
  Br  Br20  1  0.651961  0.905458  0.748810  1
  Br  Br21  1  0.545690  0.437944  0.797749  1
  Br  Br22  1  0.436514  0.562639  0.201354  1
  Br  Br23  1  0.310495  0.821452  0.463485  1
  Br  Br24  1  0.689540  0.167308  0.538286  1
  Br  Br25  1  0.172331  0.175728  0.531674  1
  Br  Br26  1  0.833936  0.834686  0.466738  1
  Br  Br27  1  0.925458  0.576372  0.158406  1
  Br  Br28  1  0.075957  0.423164  0.841144  1
  Br  Br29  1  0.925327  0.744111  0.891080  1
  Br  Br30  1  0.083414  0.264281  0.122817  1
