# generated using pymatgen
data_TbGdHo6(WO6)4
_symmetry_space_group_name_H-M   'P 1'
_cell_length_a   5.39771500
_cell_length_b   7.70325696
_cell_length_c   11.48016108
_cell_angle_alpha   75.43269244
_cell_angle_beta   90.00000000
_cell_angle_gamma   90.00000000
_symmetry_Int_Tables_number   1
_chemical_formula_structural   TbGdHo6(WO6)4
_chemical_formula_sum   'Tb1 Gd1 Ho6 W4 O24'
_cell_volume   461.99964982
_cell_formula_units_Z   1
loop_
 _symmetry_equiv_pos_site_id
 _symmetry_equiv_pos_as_xyz
  1  'x, y, z'
loop_
 _atom_site_type_symbol
 _atom_site_label
 _atom_site_symmetry_multiplicity
 _atom_site_fract_x
 _atom_site_fract_y
 _atom_site_fract_z
 _atom_site_occupancy
  Tb  Tb0  1  0.316095  0.500000  0.250000  1
  Gd  Gd1  1  0.684550  0.500000  0.750000  1
  Ho  Ho2  1  0.738993  0.000000  0.750000  1
  Ho  Ho3  1  0.261096  0.000000  0.250000  1
  Ho  Ho4  1  0.186503  0.796597  0.577521  1
  Ho  Ho5  1  0.813667  0.796183  0.077844  1
  Ho  Ho6  1  0.186503  0.203403  0.922479  1
  Ho  Ho7  1  0.813667  0.203817  0.422156  1
  W  W8  1  0.254116  0.724312  0.885795  1
  W  W9  1  0.745912  0.723970  0.385110  1
  W  W10  1  0.254116  0.275688  0.614205  1
  W  W11  1  0.745912  0.276030  0.114890  1
  O  O12  1  0.040427  0.940182  0.895617  1
  O  O13  1  0.531301  0.849063  0.930848  1
  O  O14  1  0.959402  0.940346  0.395269  1
  O  O15  1  0.458118  0.791642  0.727559  1
  O  O16  1  0.469226  0.849016  0.430766  1
  O  O17  1  0.983863  0.713175  0.770843  1
  O  O18  1  0.540915  0.790523  0.227500  1
  O  O19  1  0.853152  0.636642  0.547297  1
  O  O20  1  0.357500  0.489874  0.887631  1
  O  O21  1  0.017638  0.711545  0.270981  1
  O  O22  1  0.357500  0.510126  0.612369  1
  O  O23  1  0.853152  0.363358  0.952703  1
  O  O24  1  0.147827  0.636509  0.048357  1
  O  O25  1  0.640067  0.489959  0.386855  1
  O  O26  1  0.983863  0.286825  0.729157  1
  O  O27  1  0.640067  0.510041  0.113145  1
  O  O28  1  0.147827  0.363491  0.451643  1
  O  O29  1  0.458118  0.208358  0.772441  1
  O  O30  1  0.017638  0.288455  0.229019  1
  O  O31  1  0.531301  0.150937  0.569152  1
  O  O32  1  0.540915  0.209477  0.272500  1
  O  O33  1  0.040427  0.059818  0.604383  1
  O  O34  1  0.469226  0.150984  0.069234  1
  O  O35  1  0.959402  0.059654  0.104731  1
