# generated using pymatgen
data_Ho4MgCo2Hg
_symmetry_space_group_name_H-M   'P 1'
_cell_length_a   8.72724877
_cell_length_b   8.72724980
_cell_length_c   8.72802578
_cell_angle_alpha   130.81876900
_cell_angle_beta   130.81877970
_cell_angle_gamma   72.10112434
_symmetry_Int_Tables_number   1
_chemical_formula_structural   Ho4MgCo2Hg
_chemical_formula_sum   'Ho8 Mg2 Co4 Hg2'
_cell_volume   372.28159125
_cell_formula_units_Z   2
loop_
 _symmetry_equiv_pos_site_id
 _symmetry_equiv_pos_as_xyz
  1  'x, y, z'
loop_
 _atom_site_type_symbol
 _atom_site_label
 _atom_site_symmetry_multiplicity
 _atom_site_fract_x
 _atom_site_fract_y
 _atom_site_fract_z
 _atom_site_occupancy
  Ho  Ho0  1  0.694133  0.551424  0.499986  1
  Ho  Ho1  1  0.448603  0.948603  0.142767  1
  Ho  Ho2  1  0.805832  0.305832  0.857259  1
  Ho  Ho3  1  0.551397  0.051397  0.857233  1
  Ho  Ho4  1  0.051424  0.194133  0.499986  1
  Ho  Ho5  1  0.305867  0.448576  0.500014  1
  Ho  Ho6  1  0.194168  0.694168  0.142741  1
  Ho  Ho7  1  0.948576  0.805867  0.500014  1
  Mg  Mg8  1  0.000000  0.000000  0.000000  1
  Mg  Mg9  1  0.500000  0.500000  0.000000  1
  Co  Co10  1  0.113494  0.613494  0.726985  1
  Co  Co11  1  0.886506  0.386506  0.273015  1
  Co  Co12  1  0.613514  0.886486  0.500000  1
  Co  Co13  1  0.386486  0.113514  0.500000  1
  Hg  Hg14  1  0.249991  0.250009  0.000000  1
  Hg  Hg15  1  0.750009  0.749991  0.000000  1
