# generated using pymatgen
data_Gd4YRe2C7
_symmetry_space_group_name_H-M   'P 1'
_cell_length_a   8.40377115
_cell_length_b   8.40377183
_cell_length_c   3.46172700
_cell_angle_alpha   90.00000000
_cell_angle_beta   90.00000000
_cell_angle_gamma   123.29886420
_symmetry_Int_Tables_number   1
_chemical_formula_structural   Gd4YRe2C7
_chemical_formula_sum   'Gd4 Y1 Re2 C7'
_cell_volume   204.33987884
_cell_formula_units_Z   1
loop_
 _symmetry_equiv_pos_site_id
 _symmetry_equiv_pos_as_xyz
  1  'x, y, z'
loop_
 _atom_site_type_symbol
 _atom_site_label
 _atom_site_symmetry_multiplicity
 _atom_site_fract_x
 _atom_site_fract_y
 _atom_site_fract_z
 _atom_site_occupancy
  Gd  Gd0  1  0.071772  0.331819  0.500000  1
  Gd  Gd1  1  0.928228  0.668181  0.500000  1
  Gd  Gd2  1  0.668181  0.928228  0.500000  1
  Gd  Gd3  1  0.331819  0.071772  0.500000  1
  Y  Y4  1  0.500000  0.500000  0.000000  1
  Re  Re5  1  0.712834  0.287166  0.000000  1
  Re  Re6  1  0.287166  0.712834  0.000000  1
  C  C7  1  0.628042  0.371958  0.500000  1
  C  C8  1  0.371958  0.628042  0.500000  1
  C  C9  1  0.000000  0.000000  0.000000  1
  C  C10  1  0.169796  0.169796  0.000000  1
  C  C11  1  0.830204  0.830204  0.000000  1
  C  C12  1  0.000000  0.500000  0.000000  1
  C  C13  1  0.500000  0.000000  0.000000  1
