# generated using pymatgen
data_Tb4Dy6InBi5
_symmetry_space_group_name_H-M   'P 1'
_cell_length_a   9.12705400
_cell_length_b   9.15480116
_cell_length_c   6.45849900
_cell_angle_alpha   90.00000000
_cell_angle_beta   90.00000000
_cell_angle_gamma   120.10061433
_symmetry_Int_Tables_number   1
_chemical_formula_structural   Tb4Dy6InBi5
_chemical_formula_sum   'Tb4 Dy6 In1 Bi5'
_cell_volume   466.87493482
_cell_formula_units_Z   1
loop_
 _symmetry_equiv_pos_site_id
 _symmetry_equiv_pos_as_xyz
  1  'x, y, z'
loop_
 _atom_site_type_symbol
 _atom_site_label
 _atom_site_symmetry_multiplicity
 _atom_site_fract_x
 _atom_site_fract_y
 _atom_site_fract_z
 _atom_site_occupancy
  Tb  Tb0  1  0.758735  0.757206  0.750000  1
  Tb  Tb1  1  0.241265  0.998470  0.750000  1
  Tb  Tb2  1  0.235958  0.243743  0.250000  1
  Tb  Tb3  1  0.764042  0.007785  0.250000  1
  Dy  Dy4  1  0.671297  0.333917  0.000734  1
  Dy  Dy5  1  0.328703  0.662622  0.000734  1
  Dy  Dy6  1  0.328703  0.662622  0.499266  1
  Dy  Dy7  1  0.671297  0.333917  0.499266  1
  Dy  Dy8  1  0.000000  0.241712  0.750000  1
  Dy  Dy9  1  0.000000  0.755124  0.250000  1
  In  In10  1  0.000000  0.396258  0.250000  1
  Bi  Bi11  1  0.391735  0.389479  0.750000  1
  Bi  Bi12  1  0.608265  0.997743  0.750000  1
  Bi  Bi13  1  0.000000  0.607658  0.750000  1
  Bi  Bi14  1  0.609942  0.610843  0.250000  1
  Bi  Bi15  1  0.390058  0.000901  0.250000  1
