# generated using pymatgen
data_LiTb2Y2Al17Pd6
_symmetry_space_group_name_H-M   'P 1'
_cell_length_a   7.62170906
_cell_length_b   7.62170836
_cell_length_c   9.49253200
_cell_angle_alpha   90.00000000
_cell_angle_beta   90.00000000
_cell_angle_gamma   119.35593867
_symmetry_Int_Tables_number   1
_chemical_formula_structural   LiTb2Y2Al17Pd6
_chemical_formula_sum   'Li1 Tb2 Y2 Al17 Pd6'
_cell_volume   480.61744853
_cell_formula_units_Z   1
loop_
 _symmetry_equiv_pos_site_id
 _symmetry_equiv_pos_as_xyz
  1  'x, y, z'
loop_
 _atom_site_type_symbol
 _atom_site_label
 _atom_site_symmetry_multiplicity
 _atom_site_fract_x
 _atom_site_fract_y
 _atom_site_fract_z
 _atom_site_occupancy
  Li  Li0  1  0.129299  0.129299  0.250000  1
  Tb  Tb1  1  0.007335  0.330849  0.750000  1
  Tb  Tb2  1  0.330849  0.007336  0.750000  1
  Y  Y3  1  0.994562  0.664647  0.250000  1
  Y  Y4  1  0.664647  0.994562  0.250000  1
  Al  Al5  1  0.866895  0.866895  0.750000  1
  Al  Al6  1  0.001748  0.328594  0.079570  1
  Al  Al7  1  0.000302  0.665197  0.924923  1
  Al  Al8  1  0.000302  0.665197  0.575077  1
  Al  Al9  1  0.328594  0.001748  0.420430  1
  Al  Al10  1  0.001748  0.328594  0.420430  1
  Al  Al11  1  0.665197  0.000302  0.575077  1
  Al  Al12  1  0.665197  0.000302  0.924923  1
  Al  Al13  1  0.328594  0.001748  0.079570  1
  Al  Al14  1  0.334744  0.334744  0.548227  1
  Al  Al15  1  0.670678  0.670677  0.440554  1
  Al  Al16  1  0.670678  0.670677  0.059446  1
  Al  Al17  1  0.334744  0.334744  0.951773  1
  Al  Al18  1  0.339867  0.541810  0.250000  1
  Al  Al19  1  0.659949  0.452825  0.750000  1
  Al  Al20  1  0.541810  0.339866  0.250000  1
  Al  Al21  1  0.452825  0.659949  0.750000  1
  Pd  Pd22  1  0.674936  0.329754  0.000171  1
  Pd  Pd23  1  0.329754  0.674936  0.000170  1
  Pd  Pd24  1  0.329754  0.674936  0.499830  1
  Pd  Pd25  1  0.674936  0.329754  0.499829  1
  Pd  Pd26  1  0.000029  0.000029  0.993468  1
  Pd  Pd27  1  0.000029  0.000029  0.506532  1
