# generated using pymatgen
data_Tb4Al18(IrPt)3
_symmetry_space_group_name_H-M   'P 1'
_cell_length_a   7.59905321
_cell_length_b   7.59905334
_cell_length_c   9.45334600
_cell_angle_alpha   89.98753577
_cell_angle_beta   89.98753752
_cell_angle_gamma   119.64924102
_symmetry_Int_Tables_number   1
_chemical_formula_structural   Tb4Al18(IrPt)3
_chemical_formula_sum   'Tb4 Al18 Ir3 Pt3'
_cell_volume   474.41597348
_cell_formula_units_Z   1
loop_
 _symmetry_equiv_pos_site_id
 _symmetry_equiv_pos_as_xyz
  1  'x, y, z'
loop_
 _atom_site_type_symbol
 _atom_site_label
 _atom_site_symmetry_multiplicity
 _atom_site_fract_x
 _atom_site_fract_y
 _atom_site_fract_z
 _atom_site_occupancy
  Tb  Tb0  1  0.995781  0.670078  0.250435  1
  Tb  Tb1  1  0.005029  0.330542  0.749643  1
  Tb  Tb2  1  0.669458  0.994971  0.250357  1
  Tb  Tb3  1  0.329922  0.004219  0.749565  1
  Al  Al4  1  0.126382  0.127149  0.250447  1
  Al  Al5  1  0.872851  0.873618  0.749553  1
  Al  Al6  1  0.000357  0.331411  0.076323  1
  Al  Al7  1  0.999158  0.668983  0.923107  1
  Al  Al8  1  0.996588  0.664997  0.575121  1
  Al  Al9  1  0.335003  0.003412  0.424879  1
  Al  Al10  1  0.996746  0.331037  0.424934  1
  Al  Al11  1  0.668963  0.003254  0.575066  1
  Al  Al12  1  0.668589  0.999643  0.923677  1
  Al  Al13  1  0.331017  0.000842  0.076893  1
  Al  Al14  1  0.332963  0.329594  0.553608  1
  Al  Al15  1  0.670406  0.667037  0.446392  1
  Al  Al16  1  0.669430  0.669520  0.056897  1
  Al  Al17  1  0.330480  0.330570  0.943103  1
  Al  Al18  1  0.339698  0.545122  0.250504  1
  Al  Al19  1  0.659651  0.452543  0.747387  1
  Al  Al20  1  0.547457  0.340349  0.252613  1
  Al  Al21  1  0.454878  0.660302  0.749496  1
  Ir  Ir22  1  0.671771  0.328229  0.500000  1
  Ir  Ir23  1  0.999810  0.000190  0.000000  1
  Ir  Ir24  1  0.000296  0.999704  0.500000  1
  Pt  Pt25  1  0.671933  0.328067  0.000000  1
  Pt  Pt26  1  0.327616  0.672384  0.000000  1
  Pt  Pt27  1  0.327769  0.672231  0.500000  1
