# generated using pymatgen
data_Cs4MgMn(ZnTe2)4
_symmetry_space_group_name_H-M   'P 1'
_cell_length_a   10.66171788
_cell_length_b   10.69566560
_cell_length_c   10.66171678
_cell_angle_alpha   144.26954692
_cell_angle_beta   105.27355476
_cell_angle_gamma   85.55288331
_symmetry_Int_Tables_number   1
_chemical_formula_structural   Cs4MgMn(ZnTe2)4
_chemical_formula_sum   'Cs4 Mg1 Mn1 Zn4 Te8'
_cell_volume   664.56577536
_cell_formula_units_Z   1
loop_
 _symmetry_equiv_pos_site_id
 _symmetry_equiv_pos_as_xyz
  1  'x, y, z'
loop_
 _atom_site_type_symbol
 _atom_site_label
 _atom_site_symmetry_multiplicity
 _atom_site_fract_x
 _atom_site_fract_y
 _atom_site_fract_z
 _atom_site_occupancy
  Cs  Cs0  1  0.123468  0.234445  0.358245  1
  Cs  Cs1  1  0.376070  0.732643  0.110568  1
  Cs  Cs2  1  0.623800  0.265555  0.889024  1
  Cs  Cs3  1  0.877925  0.767357  0.643427  1
  Mg  Mg4  1  0.518595  0.750000  0.768595  1
  Mn  Mn5  1  0.012763  0.250000  0.762763  1
  Zn  Zn6  1  0.984035  0.750000  0.234035  1
  Zn  Zn7  1  0.482455  0.250000  0.232455  1
  Zn  Zn8  1  0.753258  0.250000  0.503258  1
  Zn  Zn9  1  0.251396  0.750000  0.501396  1
  Te  Te10  1  0.217144  0.069837  0.591351  1
  Te  Te11  1  0.278667  0.884998  0.862221  1
  Te  Te12  1  0.021514  0.430163  0.147308  1
  Te  Te13  1  0.477222  0.615002  0.393668  1
  Te  Te14  1  0.780940  0.920848  0.398734  1
  Te  Te15  1  0.722543  0.137124  0.157443  1
  Te  Te16  1  0.977885  0.579152  0.860091  1
  Te  Te17  1  0.520319  0.362876  0.585419  1
