# generated using pymatgen
data_Sr4AlSi7Au20
_symmetry_space_group_name_H-M   'P 1'
_cell_length_a   7.14405700
_cell_length_b   8.99611922
_cell_length_c   9.98300262
_cell_angle_alpha   89.25278550
_cell_angle_beta   90.00000000
_cell_angle_gamma   90.00000000
_symmetry_Int_Tables_number   1
_chemical_formula_structural   Sr4AlSi7Au20
_chemical_formula_sum   'Sr4 Al1 Si7 Au20'
_cell_volume   641.54092478
_cell_formula_units_Z   1
loop_
 _symmetry_equiv_pos_site_id
 _symmetry_equiv_pos_as_xyz
  1  'x, y, z'
loop_
 _atom_site_type_symbol
 _atom_site_label
 _atom_site_symmetry_multiplicity
 _atom_site_fract_x
 _atom_site_fract_y
 _atom_site_fract_z
 _atom_site_occupancy
  Sr  Sr0  1  0.250000  0.248044  0.119395  1
  Sr  Sr1  1  0.250000  0.749127  0.378697  1
  Sr  Sr2  1  0.750000  0.754279  0.880583  1
  Sr  Sr3  1  0.750000  0.247234  0.621818  1
  Al  Al4  1  0.250000  0.047172  0.622222  1
  Si  Si5  1  0.250000  0.543068  0.877018  1
  Si  Si6  1  0.750000  0.957136  0.375772  1
  Si  Si7  1  0.750000  0.461702  0.127471  1
  Si  Si8  1  0.250000  0.325389  0.464380  1
  Si  Si9  1  0.250000  0.837572  0.039196  1
  Si  Si10  1  0.750000  0.661825  0.537041  1
  Si  Si11  1  0.750000  0.159945  0.958417  1
  Au  Au12  1  0.048771  0.097276  0.392029  1
  Au  Au13  1  0.448937  0.601071  0.107520  1
  Au  Au14  1  0.551209  0.894728  0.606983  1
  Au  Au15  1  0.947503  0.401535  0.895464  1
  Au  Au16  1  0.948791  0.894728  0.606983  1
  Au  Au17  1  0.552497  0.401535  0.895464  1
  Au  Au18  1  0.451229  0.097276  0.392029  1
  Au  Au19  1  0.051063  0.601071  0.107520  1
  Au  Au20  1  0.037038  0.069007  0.858218  1
  Au  Au21  1  0.468002  0.566675  0.639643  1
  Au  Au22  1  0.534714  0.935371  0.135949  1
  Au  Au23  1  0.970251  0.432147  0.362597  1
  Au  Au24  1  0.965286  0.935371  0.135949  1
  Au  Au25  1  0.529749  0.432147  0.362597  1
  Au  Au26  1  0.462962  0.069007  0.858218  1
  Au  Au27  1  0.031998  0.566675  0.639643  1
  Au  Au28  1  0.250000  0.307989  0.710406  1
  Au  Au29  1  0.250000  0.800854  0.795411  1
  Au  Au30  1  0.750000  0.700707  0.293821  1
  Au  Au31  1  0.750000  0.202339  0.201545  1
