# generated using pymatgen
data_Sr4CuNiH12
_symmetry_space_group_name_H-M   'P 1'
_cell_length_a   7.43201668
_cell_length_b   7.43201577
_cell_length_c   5.45993960
_cell_angle_alpha   90.17942603
_cell_angle_beta   90.17942933
_cell_angle_gamma   136.99333562
_symmetry_Int_Tables_number   1
_chemical_formula_structural   Sr4CuNiH12
_chemical_formula_sum   'Sr4 Cu1 Ni1 H12'
_cell_volume   205.69454835
_cell_formula_units_Z   1
loop_
 _symmetry_equiv_pos_site_id
 _symmetry_equiv_pos_as_xyz
  1  'x, y, z'
loop_
 _atom_site_type_symbol
 _atom_site_label
 _atom_site_symmetry_multiplicity
 _atom_site_fract_x
 _atom_site_fract_y
 _atom_site_fract_z
 _atom_site_occupancy
  Sr  Sr0  1  0.143480  0.856520  0.500000  1
  Sr  Sr1  1  0.644171  0.355829  0.000000  1
  Sr  Sr2  1  0.856520  0.143480  0.500000  1
  Sr  Sr3  1  0.355829  0.644171  0.000000  1
  Cu  Cu4  1  0.000000  0.000000  0.000000  1
  Ni  Ni5  1  0.500000  0.500000  0.500000  1
  H  H6  1  0.999715  0.499957  0.748775  1
  H  H7  1  0.500043  0.000285  0.251225  1
  H  H8  1  0.000285  0.500043  0.251225  1
  H  H9  1  0.499957  0.999715  0.748775  1
  H  H10  1  0.387974  0.612026  0.500000  1
  H  H11  1  0.886241  0.113759  0.000000  1
  H  H12  1  0.612026  0.387974  0.500000  1
  H  H13  1  0.113759  0.886241  0.000000  1
  H  H14  1  0.285937  0.285937  0.715066  1
  H  H15  1  0.714063  0.714063  0.284934  1
  H  H16  1  0.281060  0.281060  0.281605  1
  H  H17  1  0.718940  0.718940  0.718395  1
