# generated using pymatgen
data_NaTm(InCl3)2
_symmetry_space_group_name_H-M   'P 1'
_cell_length_a   7.16801672
_cell_length_b   7.82887700
_cell_length_c   12.51107195
_cell_angle_alpha   90.00000000
_cell_angle_beta   123.26835053
_cell_angle_gamma   90.00000000
_symmetry_Int_Tables_number   1
_chemical_formula_structural   NaTm(InCl3)2
_chemical_formula_sum   'Na2 Tm2 In4 Cl12'
_cell_volume   587.02511537
_cell_formula_units_Z   2
loop_
 _symmetry_equiv_pos_site_id
 _symmetry_equiv_pos_as_xyz
  1  'x, y, z'
loop_
 _atom_site_type_symbol
 _atom_site_label
 _atom_site_symmetry_multiplicity
 _atom_site_fract_x
 _atom_site_fract_y
 _atom_site_fract_z
 _atom_site_occupancy
  Na  Na0  1  0.500000  0.000000  0.000000  1
  Na  Na1  1  0.500001  0.500000  0.500000  1
  Tm  Tm2  1  0.000000  0.500000  0.000000  1
  Tm  Tm3  1  0.000000  0.000000  0.500000  1
  In  In4  1  0.285224  0.087263  0.253687  1
  In  In5  1  0.714776  0.587263  0.246313  1
  In  In6  1  0.285223  0.412737  0.753687  1
  In  In7  1  0.714776  0.912737  0.746312  1
  Cl  Cl8  1  0.345220  0.321925  0.043528  1
  Cl  Cl9  1  0.227315  0.784697  0.052732  1
  Cl  Cl10  1  0.131668  0.468486  0.240724  1
  Cl  Cl11  1  0.868332  0.968486  0.259276  1
  Cl  Cl12  1  0.772686  0.284697  0.447269  1
  Cl  Cl13  1  0.654780  0.821925  0.456473  1
  Cl  Cl14  1  0.345221  0.178075  0.543528  1
  Cl  Cl15  1  0.227315  0.715303  0.552732  1
  Cl  Cl16  1  0.131667  0.031514  0.740724  1
  Cl  Cl17  1  0.868333  0.531515  0.759276  1
  Cl  Cl18  1  0.772685  0.215303  0.947269  1
  Cl  Cl19  1  0.654779  0.678075  0.956473  1
