# generated using pymatgen
data_Ba3HoFeIrO9
_symmetry_space_group_name_H-M   'P 1'
_cell_length_a   5.97981600
_cell_length_b   5.97981551
_cell_length_c   14.80026300
_cell_angle_alpha   90.00000000
_cell_angle_beta   90.00000000
_cell_angle_gamma   120.00000271
_symmetry_Int_Tables_number   1
_chemical_formula_structural   Ba3HoFeIrO9
_chemical_formula_sum   'Ba6 Ho2 Fe2 Ir2 O18'
_cell_volume   458.32722858
_cell_formula_units_Z   2
loop_
 _symmetry_equiv_pos_site_id
 _symmetry_equiv_pos_as_xyz
  1  'x, y, z'
loop_
 _atom_site_type_symbol
 _atom_site_label
 _atom_site_symmetry_multiplicity
 _atom_site_fract_x
 _atom_site_fract_y
 _atom_site_fract_z
 _atom_site_occupancy
  Ba  Ba0  1  0.000000  0.000000  0.754840  1
  Ba  Ba1  1  0.000000  0.000000  0.254840  1
  Ba  Ba2  1  0.666667  0.333333  0.402972  1
  Ba  Ba3  1  0.333333  0.666667  0.595441  1
  Ba  Ba4  1  0.333333  0.666667  0.902972  1
  Ba  Ba5  1  0.666667  0.333333  0.095441  1
  Ho  Ho6  1  0.000000  0.000000  0.498436  1
  Ho  Ho7  1  0.000000  0.000000  0.998436  1
  Fe  Fe8  1  0.333333  0.666667  0.353146  1
  Fe  Fe9  1  0.666667  0.333333  0.853146  1
  Ir  Ir10  1  0.666667  0.333333  0.663447  1
  Ir  Ir11  1  0.333333  0.666667  0.163447  1
  O  O12  1  0.830437  0.660873  0.912408  1
  O  O13  1  0.830437  0.169563  0.912408  1
  O  O14  1  0.339127  0.169563  0.912408  1
  O  O15  1  0.177619  0.355238  0.088474  1
  O  O16  1  0.177619  0.822381  0.088474  1
  O  O17  1  0.644762  0.822381  0.088474  1
  O  O18  1  0.169563  0.339127  0.412408  1
  O  O19  1  0.169563  0.830437  0.412408  1
  O  O20  1  0.660873  0.830437  0.412408  1
  O  O21  1  0.822381  0.644762  0.588474  1
  O  O22  1  0.822381  0.177619  0.588474  1
  O  O23  1  0.355238  0.177619  0.588474  1
  O  O24  1  0.514673  0.029346  0.743032  1
  O  O25  1  0.514673  0.485327  0.743032  1
  O  O26  1  0.970654  0.485327  0.743032  1
  O  O27  1  0.485327  0.970654  0.243032  1
  O  O28  1  0.485327  0.514673  0.243032  1
  O  O29  1  0.029346  0.514673  0.243032  1
