# generated using pymatgen
data_LiGd4GaTc6
_symmetry_space_group_name_H-M   'P 1'
_cell_length_a   5.28486900
_cell_length_b   5.28486841
_cell_length_c   9.24198600
_cell_angle_alpha   90.00000000
_cell_angle_beta   90.00000000
_cell_angle_gamma   119.99998488
_symmetry_Int_Tables_number   1
_chemical_formula_structural   LiGd4GaTc6
_chemical_formula_sum   'Li1 Gd4 Ga1 Tc6'
_cell_volume   223.54471625
_cell_formula_units_Z   1
loop_
 _symmetry_equiv_pos_site_id
 _symmetry_equiv_pos_as_xyz
  1  'x, y, z'
loop_
 _atom_site_type_symbol
 _atom_site_label
 _atom_site_symmetry_multiplicity
 _atom_site_fract_x
 _atom_site_fract_y
 _atom_site_fract_z
 _atom_site_occupancy
  Li  Li0  1  0.000000  0.000000  0.000000  1
  Gd  Gd1  1  0.333333  0.666667  0.430537  1
  Gd  Gd2  1  0.666667  0.333333  0.569463  1
  Gd  Gd3  1  0.666667  0.333333  0.928220  1
  Gd  Gd4  1  0.333333  0.666667  0.071780  1
  Ga  Ga5  1  0.000000  0.000000  0.500000  1
  Tc  Tc6  1  0.830964  0.169036  0.253267  1
  Tc  Tc7  1  0.830964  0.661928  0.253267  1
  Tc  Tc8  1  0.338072  0.169036  0.253267  1
  Tc  Tc9  1  0.169036  0.830964  0.746733  1
  Tc  Tc10  1  0.169036  0.338072  0.746733  1
  Tc  Tc11  1  0.661928  0.830964  0.746733  1
