# generated using pymatgen
data_DyCrFe2P3Ir2
_symmetry_space_group_name_H-M   'P 1'
_cell_length_a   3.77520700
_cell_length_b   10.52242100
_cell_length_c   12.38764300
_cell_angle_alpha   90.00000000
_cell_angle_beta   90.00000000
_cell_angle_gamma   90.00000000
_symmetry_Int_Tables_number   1
_chemical_formula_structural   DyCrFe2P3Ir2
_chemical_formula_sum   'Dy4 Cr4 Fe8 P12 Ir8'
_cell_volume   492.09066257
_cell_formula_units_Z   4
loop_
 _symmetry_equiv_pos_site_id
 _symmetry_equiv_pos_as_xyz
  1  'x, y, z'
loop_
 _atom_site_type_symbol
 _atom_site_label
 _atom_site_symmetry_multiplicity
 _atom_site_fract_x
 _atom_site_fract_y
 _atom_site_fract_z
 _atom_site_occupancy
  Dy  Dy0  1  0.250000  0.579633  0.713013  1
  Dy  Dy1  1  0.250000  0.920367  0.213013  1
  Dy  Dy2  1  0.750000  0.420367  0.286987  1
  Dy  Dy3  1  0.750000  0.079633  0.786987  1
  Cr  Cr4  1  0.250000  0.701846  0.990348  1
  Cr  Cr5  1  0.250000  0.798154  0.490348  1
  Cr  Cr6  1  0.750000  0.298154  0.009652  1
  Cr  Cr7  1  0.750000  0.201846  0.509652  1
  Fe  Fe8  1  0.250000  0.877366  0.694434  1
  Fe  Fe9  1  0.250000  0.622634  0.194434  1
  Fe  Fe10  1  0.750000  0.122634  0.305566  1
  Fe  Fe11  1  0.750000  0.377366  0.805566  1
  Fe  Fe12  1  0.250000  0.462044  0.936794  1
  Fe  Fe13  1  0.250000  0.037956  0.436794  1
  Fe  Fe14  1  0.750000  0.537956  0.063206  1
  Fe  Fe15  1  0.750000  0.962044  0.563206  1
  P  P16  1  0.250000  0.434700  0.110284  1
  P  P17  1  0.250000  0.065300  0.610284  1
  P  P18  1  0.750000  0.565300  0.889716  1
  P  P19  1  0.750000  0.934700  0.389716  1
  P  P20  1  0.250000  0.274930  0.864372  1
  P  P21  1  0.250000  0.225070  0.364372  1
  P  P22  1  0.750000  0.725070  0.135628  1
  P  P23  1  0.750000  0.774930  0.635628  1
  P  P24  1  0.250000  0.600243  0.379790  1
  P  P25  1  0.250000  0.899757  0.879790  1
  P  P26  1  0.750000  0.399757  0.620210  1
  P  P27  1  0.750000  0.100243  0.120210  1
  Ir  Ir28  1  0.250000  0.403616  0.476365  1
  Ir  Ir29  1  0.250000  0.096384  0.976365  1
  Ir  Ir30  1  0.750000  0.596384  0.523635  1
  Ir  Ir31  1  0.750000  0.903616  0.023635  1
  Ir  Ir32  1  0.250000  0.225275  0.173256  1
  Ir  Ir33  1  0.250000  0.274725  0.673256  1
  Ir  Ir34  1  0.750000  0.774725  0.826744  1
  Ir  Ir35  1  0.750000  0.725275  0.326744  1
