# generated using pymatgen
data_TaNb9(Si2Ge)2
_symmetry_space_group_name_H-M   'P 1'
_cell_length_a   7.60688278
_cell_length_b   7.60688194
_cell_length_c   7.60688383
_cell_angle_alpha   128.07103217
_cell_angle_beta   128.07102419
_cell_angle_gamma   76.50999042
_symmetry_Int_Tables_number   1
_chemical_formula_structural   TaNb9(Si2Ge)2
_chemical_formula_sum   'Ta1 Nb9 Si4 Ge2'
_cell_volume   265.01746014
_cell_formula_units_Z   1
loop_
 _symmetry_equiv_pos_site_id
 _symmetry_equiv_pos_as_xyz
  1  'x, y, z'
loop_
 _atom_site_type_symbol
 _atom_site_label
 _atom_site_symmetry_multiplicity
 _atom_site_fract_x
 _atom_site_fract_y
 _atom_site_fract_z
 _atom_site_occupancy
  Ta  Ta0  1  0.500000  0.500000  0.000000  1
  Nb  Nb1  1  0.017629  0.188111  0.500748  1
  Nb  Nb2  1  0.516881  0.017629  0.829518  1
  Nb  Nb3  1  0.188111  0.687364  0.170482  1
  Nb  Nb4  1  0.483119  0.982371  0.170482  1
  Nb  Nb5  1  0.687364  0.516881  0.499252  1
  Nb  Nb6  1  0.982371  0.811889  0.499252  1
  Nb  Nb7  1  0.312636  0.483119  0.500748  1
  Nb  Nb8  1  0.811889  0.312636  0.829518  1
  Nb  Nb9  1  0.000000  0.000000  0.000000  1
  Si  Si10  1  0.129974  0.630044  0.760018  1
  Si  Si11  1  0.630044  0.870026  0.500070  1
  Si  Si12  1  0.369956  0.129974  0.499930  1
  Si  Si13  1  0.870026  0.369956  0.239982  1
  Ge  Ge14  1  0.750079  0.750079  0.000000  1
  Ge  Ge15  1  0.249921  0.249921  0.000000  1
