# generated using pymatgen
data_Hf16Cu3Ir5N4
_symmetry_space_group_name_H-M   'P 1'
_cell_length_a   8.67860406
_cell_length_b   8.67851460
_cell_length_c   8.67880661
_cell_angle_alpha   60.19757584
_cell_angle_beta   60.19837325
_cell_angle_gamma   60.19791546
_symmetry_Int_Tables_number   1
_chemical_formula_structural   Hf16Cu3Ir5N4
_chemical_formula_sum   'Hf16 Cu3 Ir5 N4'
_cell_volume   464.28287048
_cell_formula_units_Z   1
loop_
 _symmetry_equiv_pos_site_id
 _symmetry_equiv_pos_as_xyz
  1  'x, y, z'
loop_
 _atom_site_type_symbol
 _atom_site_label
 _atom_site_symmetry_multiplicity
 _atom_site_fract_x
 _atom_site_fract_y
 _atom_site_fract_z
 _atom_site_occupancy
  Hf  Hf0  1  0.133299  0.622578  0.622567  1
  Hf  Hf1  1  0.622581  0.133294  0.622567  1
  Hf  Hf2  1  0.622581  0.622579  0.133287  1
  Hf  Hf3  1  0.621694  0.621693  0.621685  1
  Hf  Hf4  1  0.818179  0.818177  0.182239  1
  Hf  Hf5  1  0.182971  0.182969  0.817416  1
  Hf  Hf6  1  0.818179  0.182248  0.818168  1
  Hf  Hf7  1  0.182974  0.817421  0.182963  1
  Hf  Hf8  1  0.182250  0.818177  0.818167  1
  Hf  Hf9  1  0.817424  0.182972  0.182962  1
  Hf  Hf10  1  0.434712  0.434710  0.066950  1
  Hf  Hf11  1  0.067754  0.067755  0.432264  1
  Hf  Hf12  1  0.434709  0.066965  0.434700  1
  Hf  Hf13  1  0.067757  0.432268  0.067753  1
  Hf  Hf14  1  0.066965  0.434707  0.434702  1
  Hf  Hf15  1  0.432271  0.067755  0.067751  1
  Cu  Cu16  1  0.776281  0.407156  0.407128  1
  Cu  Cu17  1  0.407130  0.776309  0.407115  1
  Cu  Cu18  1  0.407049  0.407042  0.776481  1
  Ir  Ir19  1  0.404769  0.404767  0.404749  1
  Ir  Ir20  1  0.485986  0.837154  0.837146  1
  Ir  Ir21  1  0.837157  0.485984  0.837145  1
  Ir  Ir22  1  0.837159  0.837155  0.485974  1
  Ir  Ir23  1  0.838582  0.838579  0.838568  1
  N  N24  1  0.624244  0.125024  0.125014  1
  N  N25  1  0.125026  0.624241  0.125014  1
  N  N26  1  0.125025  0.125023  0.624232  1
  N  N27  1  0.125297  0.125295  0.125291  1
