# generated using pymatgen
data_SrYSi7Ir12
_symmetry_space_group_name_H-M   'P 1'
_cell_length_a   9.80661600
_cell_length_b   9.80661550
_cell_length_c   3.90888300
_cell_angle_alpha   90.00000000
_cell_angle_beta   90.00000000
_cell_angle_gamma   120.00000170
_symmetry_Int_Tables_number   1
_chemical_formula_structural   SrYSi7Ir12
_chemical_formula_sum   'Sr1 Y1 Si7 Ir12'
_cell_volume   325.55293354
_cell_formula_units_Z   1
loop_
 _symmetry_equiv_pos_site_id
 _symmetry_equiv_pos_as_xyz
  1  'x, y, z'
loop_
 _atom_site_type_symbol
 _atom_site_label
 _atom_site_symmetry_multiplicity
 _atom_site_fract_x
 _atom_site_fract_y
 _atom_site_fract_z
 _atom_site_occupancy
  Sr  Sr0  1  0.666667  0.333333  0.250256  1
  Y  Y1  1  0.333333  0.666667  0.750082  1
  Si  Si2  1  0.000000  0.000000  0.501669  1
  Si  Si3  1  0.290848  0.886926  0.248806  1
  Si  Si4  1  0.596078  0.709152  0.248806  1
  Si  Si5  1  0.113074  0.403922  0.248806  1
  Si  Si6  1  0.711556  0.113960  0.750774  1
  Si  Si7  1  0.402404  0.288444  0.750774  1
  Si  Si8  1  0.886040  0.597596  0.750774  1
  Ir  Ir9  1  0.259900  0.116274  0.253907  1
  Ir  Ir10  1  0.856375  0.740100  0.253907  1
  Ir  Ir11  1  0.883726  0.143625  0.253907  1
  Ir  Ir12  1  0.740326  0.884865  0.745538  1
  Ir  Ir13  1  0.144538  0.259674  0.745538  1
  Ir  Ir14  1  0.115135  0.855462  0.745538  1
  Ir  Ir15  1  0.065423  0.621785  0.248880  1
  Ir  Ir16  1  0.556363  0.934577  0.248880  1
  Ir  Ir17  1  0.378215  0.443637  0.248880  1
  Ir  Ir18  1  0.945324  0.384803  0.751427  1
  Ir  Ir19  1  0.439478  0.054676  0.751427  1
  Ir  Ir20  1  0.615197  0.560522  0.751427  1
