# generated using pymatgen
data_CeY3(Si4Tc3)2
_symmetry_space_group_name_H-M   'P 1'
_cell_length_a   6.78917189
_cell_length_b   6.86089894
_cell_length_c   6.79541926
_cell_angle_alpha   69.59642637
_cell_angle_beta   89.91040451
_cell_angle_gamma   88.57451099
_symmetry_Int_Tables_number   1
_chemical_formula_structural   CeY3(Si4Tc3)2
_chemical_formula_sum   'Ce1 Y3 Si8 Tc6'
_cell_volume   296.57009330
_cell_formula_units_Z   1
loop_
 _symmetry_equiv_pos_site_id
 _symmetry_equiv_pos_as_xyz
  1  'x, y, z'
loop_
 _atom_site_type_symbol
 _atom_site_label
 _atom_site_symmetry_multiplicity
 _atom_site_fract_x
 _atom_site_fract_y
 _atom_site_fract_z
 _atom_site_occupancy
  Ce  Ce0  1  0.164391  0.948356  0.188322  1
  Y  Y1  1  0.332242  0.436682  0.191173  1
  Y  Y2  1  0.832906  0.054825  0.810516  1
  Y  Y3  1  0.667091  0.562312  0.807043  1
  Si  Si4  1  0.564932  0.113171  0.111878  1
  Si  Si5  1  0.358719  0.628026  0.506441  1
  Si  Si6  1  0.850614  0.871460  0.475729  1
  Si  Si7  1  0.048021  0.380486  0.897384  1
  Si  Si8  1  0.146646  0.129482  0.525746  1
  Si  Si9  1  0.639777  0.367309  0.494620  1
  Si  Si10  1  0.951332  0.628193  0.097172  1
  Si  Si11  1  0.441065  0.882055  0.891554  1
  Tc  Tc12  1  0.851239  0.253679  0.247129  1
  Tc  Tc13  1  0.351819  0.265233  0.767705  1
  Tc  Tc14  1  0.152257  0.746527  0.753055  1
  Tc  Tc15  1  0.644500  0.727199  0.237034  1
  Tc  Tc16  1  0.500586  0.003106  0.500152  1
  Tc  Tc17  1  0.001863  0.501898  0.497346  1
