# generated using pymatgen
data_Ho8Ga12CoAg3
_symmetry_space_group_name_H-M   'P 1'
_cell_length_a   7.08364900
_cell_length_b   8.91076451
_cell_length_c   8.91076500
_cell_angle_alpha   120.00000554
_cell_angle_beta   90.00000000
_cell_angle_gamma   90.00000000
_symmetry_Int_Tables_number   1
_chemical_formula_structural   Ho8Ga12CoAg3
_chemical_formula_sum   'Ho8 Ga12 Co1 Ag3'
_cell_volume   487.09940334
_cell_formula_units_Z   1
loop_
 _symmetry_equiv_pos_site_id
 _symmetry_equiv_pos_as_xyz
  1  'x, y, z'
loop_
 _atom_site_type_symbol
 _atom_site_label
 _atom_site_symmetry_multiplicity
 _atom_site_fract_x
 _atom_site_fract_y
 _atom_site_fract_z
 _atom_site_occupancy
  Ho  Ho0  1  0.739178  0.000000  0.000000  1
  Ho  Ho1  1  0.253190  0.000000  0.000000  1
  Ho  Ho2  1  0.749103  0.488457  0.511543  1
  Ho  Ho3  1  0.258178  0.522425  0.477575  1
  Ho  Ho4  1  0.749103  0.023085  0.511543  1
  Ho  Ho5  1  0.258178  0.955152  0.477575  1
  Ho  Ho6  1  0.749103  0.488457  0.976915  1
  Ho  Ho7  1  0.258178  0.522425  0.044848  1
  Ga  Ga8  1  0.963443  0.836972  0.163028  1
  Ga  Ga9  1  0.040426  0.165385  0.834615  1
  Ga  Ga10  1  0.963443  0.326057  0.163028  1
  Ga  Ga11  1  0.464302  0.164345  0.835655  1
  Ga  Ga12  1  0.040426  0.669228  0.834615  1
  Ga  Ga13  1  0.539644  0.825748  0.174252  1
  Ga  Ga14  1  0.963443  0.836972  0.673943  1
  Ga  Ga15  1  0.464302  0.671310  0.835655  1
  Ga  Ga16  1  0.040426  0.165385  0.330772  1
  Ga  Ga17  1  0.539644  0.348506  0.174252  1
  Ga  Ga18  1  0.464302  0.164345  0.328690  1
  Ga  Ga19  1  0.539644  0.825748  0.651494  1
  Co  Co20  1  0.511789  0.666667  0.333333  1
  Ag  Ag21  1  0.943375  0.666667  0.333333  1
  Ag  Ag22  1  0.039990  0.333333  0.666667  1
  Ag  Ag23  1  0.467193  0.333333  0.666667  1
