# generated using pymatgen
data_Lu8B24IrW3
_symmetry_space_group_name_H-M   'P 1'
_cell_length_a   3.55739200
_cell_length_b   9.16971461
_cell_length_c   11.54691606
_cell_angle_alpha   90.11791388
_cell_angle_beta   90.00000000
_cell_angle_gamma   90.00000000
_symmetry_Int_Tables_number   1
_chemical_formula_structural   Lu8B24IrW3
_chemical_formula_sum   'Lu8 B24 Ir1 W3'
_cell_volume   376.66271463
_cell_formula_units_Z   1
loop_
 _symmetry_equiv_pos_site_id
 _symmetry_equiv_pos_as_xyz
  1  'x, y, z'
loop_
 _atom_site_type_symbol
 _atom_site_label
 _atom_site_symmetry_multiplicity
 _atom_site_fract_x
 _atom_site_fract_y
 _atom_site_fract_z
 _atom_site_occupancy
  Lu  Lu0  1  0.000000  0.316443  0.414562  1
  Lu  Lu1  1  0.000000  0.680658  0.589388  1
  Lu  Lu2  1  0.000000  0.824232  0.082197  1
  Lu  Lu3  1  0.000000  0.179239  0.912531  1
  Lu  Lu4  1  0.000000  0.942884  0.371786  1
  Lu  Lu5  1  0.000000  0.054374  0.626810  1
  Lu  Lu6  1  0.000000  0.443765  0.128262  1
  Lu  Lu7  1  0.000000  0.556137  0.873195  1
  B  B8  1  0.500000  0.555086  0.433498  1
  B  B9  1  0.500000  0.449794  0.562403  1
  B  B10  1  0.500000  0.051307  0.064955  1
  B  B11  1  0.500000  0.949120  0.935504  1
  B  B12  1  0.500000  0.749922  0.420478  1
  B  B13  1  0.500000  0.246393  0.576804  1
  B  B14  1  0.500000  0.252878  0.078271  1
  B  B15  1  0.500000  0.748230  0.922983  1
  B  B16  1  0.500000  0.791303  0.264638  1
  B  B17  1  0.500000  0.204780  0.735998  1
  B  B18  1  0.500000  0.296887  0.238418  1
  B  B19  1  0.500000  0.704362  0.764080  1
  B  B20  1  0.500000  0.631484  0.183971  1
  B  B21  1  0.500000  0.369702  0.817304  1
  B  B22  1  0.500000  0.130776  0.318988  1
  B  B23  1  0.500000  0.868287  0.681928  1
  B  B24  1  0.500000  0.976292  0.212548  1
  B  B25  1  0.500000  0.022415  0.786431  1
  B  B26  1  0.500000  0.482567  0.288167  1
  B  B27  1  0.500000  0.522976  0.712623  1
  B  B28  1  0.500000  0.603078  0.030359  1
  B  B29  1  0.500000  0.398817  0.972730  1
  B  B30  1  0.500000  0.099682  0.471436  1
  B  B31  1  0.500000  0.895234  0.526917  1
  Ir  Ir32  1  0.000000  0.638740  0.320618  1
  W  W33  1  0.000000  0.361636  0.677759  1
  W  W34  1  0.000000  0.139512  0.180998  1
  W  W35  1  0.000000  0.861010  0.820464  1
