# generated using pymatgen
data_Ce2Ta3Co9P7
_symmetry_space_group_name_H-M   'P 1'
_cell_length_a   9.26556100
_cell_length_b   9.26556145
_cell_length_c   3.73298700
_cell_angle_alpha   90.00000000
_cell_angle_beta   90.00000000
_cell_angle_gamma   120.00000116
_symmetry_Int_Tables_number   1
_chemical_formula_structural   Ce2Ta3Co9P7
_chemical_formula_sum   'Ce2 Ta3 Co9 P7'
_cell_volume   277.54318275
_cell_formula_units_Z   1
loop_
 _symmetry_equiv_pos_site_id
 _symmetry_equiv_pos_as_xyz
  1  'x, y, z'
loop_
 _atom_site_type_symbol
 _atom_site_label
 _atom_site_symmetry_multiplicity
 _atom_site_fract_x
 _atom_site_fract_y
 _atom_site_fract_z
 _atom_site_occupancy
  Ce  Ce0  1  0.000000  0.000000  0.000000  1
  Ce  Ce1  1  0.333333  0.666667  0.500000  1
  Ta  Ta2  1  0.890499  0.436039  0.500000  1
  Ta  Ta3  1  0.545541  0.109501  0.500000  1
  Ta  Ta4  1  0.563961  0.454459  0.500000  1
  Co  Co5  1  0.100026  0.398339  0.000000  1
  Co  Co6  1  0.298313  0.899974  0.000000  1
  Co  Co7  1  0.601661  0.701687  0.000000  1
  Co  Co8  1  0.823657  0.614938  0.000000  1
  Co  Co9  1  0.791281  0.176343  0.000000  1
  Co  Co10  1  0.385062  0.208719  0.000000  1
  Co  Co11  1  0.051251  0.771617  0.500000  1
  Co  Co12  1  0.720366  0.948749  0.500000  1
  Co  Co13  1  0.228383  0.279634  0.500000  1
  P  P14  1  0.079687  0.642400  0.000000  1
  P  P15  1  0.562713  0.920313  0.000000  1
  P  P16  1  0.357600  0.437287  0.000000  1
  P  P17  1  0.784338  0.743712  0.500000  1
  P  P18  1  0.959375  0.215662  0.500000  1
  P  P19  1  0.256288  0.040625  0.500000  1
  P  P20  1  0.666667  0.333333  0.000000  1
