# generated using pymatgen
data_LiLa2Ce2Zn7Ru2
_symmetry_space_group_name_H-M   'P 1'
_cell_length_a   7.26124383
_cell_length_b   7.26124383
_cell_length_c   5.20873083
_cell_angle_alpha   90.14848535
_cell_angle_beta   90.14848535
_cell_angle_gamma   90.85613845
_symmetry_Int_Tables_number   1
_chemical_formula_structural   LiLa2Ce2Zn7Ru2
_chemical_formula_sum   'Li1 La2 Ce2 Zn7 Ru2'
_cell_volume   274.60124987
_cell_formula_units_Z   1
loop_
 _symmetry_equiv_pos_site_id
 _symmetry_equiv_pos_as_xyz
  1  'x, y, z'
loop_
 _atom_site_type_symbol
 _atom_site_label
 _atom_site_symmetry_multiplicity
 _atom_site_fract_x
 _atom_site_fract_y
 _atom_site_fract_z
 _atom_site_occupancy
  Li  Li0  1  0.185277  0.685277  0.294405  1
  La  La1  1  0.000271  0.500271  0.769071  1
  La  La2  1  0.501335  0.001335  0.226077  1
  Ce  Ce3  1  0.001004  0.999309  0.001785  1
  Ce  Ce4  1  0.499309  0.501004  0.001785  1
  Zn  Zn5  1  0.814874  0.685775  0.291375  1
  Zn  Zn6  1  0.815886  0.315886  0.289423  1
  Zn  Zn7  1  0.313868  0.185324  0.708953  1
  Zn  Zn8  1  0.185775  0.314874  0.291375  1
  Zn  Zn9  1  0.685357  0.185357  0.709900  1
  Zn  Zn10  1  0.685324  0.813868  0.708953  1
  Zn  Zn11  1  0.311461  0.811461  0.709724  1
  Ru  Ru12  1  0.502394  0.497864  0.498586  1
  Ru  Ru13  1  0.997864  0.002394  0.498586  1
