# generated using pymatgen
data_La4AsI5
_symmetry_space_group_name_H-M   'P 1'
_cell_length_a   10.14211287
_cell_length_b   10.14211259
_cell_length_c   9.28682209
_cell_angle_alpha   77.58990209
_cell_angle_beta   77.58990354
_cell_angle_gamma   24.60708824
_symmetry_Int_Tables_number   1
_chemical_formula_structural   La4AsI5
_chemical_formula_sum   'La4 As1 I5'
_cell_volume   388.02436072
_cell_formula_units_Z   1
loop_
 _symmetry_equiv_pos_site_id
 _symmetry_equiv_pos_as_xyz
  1  'x, y, z'
loop_
 _atom_site_type_symbol
 _atom_site_label
 _atom_site_symmetry_multiplicity
 _atom_site_fract_x
 _atom_site_fract_y
 _atom_site_fract_z
 _atom_site_occupancy
  La  La0  1  0.849102  0.849102  0.076755  1
  La  La1  1  0.150898  0.150898  0.923245  1
  La  La2  1  0.501376  0.501376  0.217443  1
  La  La3  1  0.498624  0.498624  0.782557  1
  As  As4  1  0.000000  0.000000  0.000000  1
  I  I5  1  0.671453  0.671453  0.178152  1
  I  I6  1  0.328547  0.328547  0.821848  1
  I  I7  1  0.664907  0.664907  0.657113  1
  I  I8  1  0.335093  0.335093  0.342887  1
  I  I9  1  0.000000  0.000000  0.500000  1
