# generated using pymatgen
data_ReTc5NiIr
_symmetry_space_group_name_H-M   'P 1'
_cell_length_a   5.49744000
_cell_length_b   5.49512517
_cell_length_c   4.32947700
_cell_angle_alpha   90.00000000
_cell_angle_beta   90.00000000
_cell_angle_gamma   120.01394788
_symmetry_Int_Tables_number   1
_chemical_formula_structural   ReTc5NiIr
_chemical_formula_sum   'Re1 Tc5 Ni1 Ir1'
_cell_volume   113.25127496
_cell_formula_units_Z   1
loop_
 _symmetry_equiv_pos_site_id
 _symmetry_equiv_pos_as_xyz
  1  'x, y, z'
loop_
 _atom_site_type_symbol
 _atom_site_label
 _atom_site_symmetry_multiplicity
 _atom_site_fract_x
 _atom_site_fract_y
 _atom_site_fract_z
 _atom_site_occupancy
  Re  Re0  1  0.838382  0.676766  0.750000  1
  Tc  Tc1  1  0.168195  0.832865  0.250000  1
  Tc  Tc2  1  0.664671  0.832865  0.250000  1
  Tc  Tc3  1  0.167999  0.335997  0.250000  1
  Tc  Tc4  1  0.839960  0.161924  0.750000  1
  Tc  Tc5  1  0.321963  0.161924  0.750000  1
  Ni  Ni6  1  0.332722  0.665446  0.750000  1
  Ir  Ir7  1  0.666107  0.332213  0.250000  1
