# generated using pymatgen
data_DyHf3(Al3Rh)6
_symmetry_space_group_name_H-M   'P 1'
_cell_length_a   7.46895412
_cell_length_b   7.46092195
_cell_length_c   9.27559000
_cell_angle_alpha   90.00000000
_cell_angle_beta   90.00000000
_cell_angle_gamma   119.69460403
_symmetry_Int_Tables_number   1
_chemical_formula_structural   DyHf3(Al3Rh)6
_chemical_formula_sum   'Dy1 Hf3 Al18 Rh6'
_cell_volume   449.00661687
_cell_formula_units_Z   1
loop_
 _symmetry_equiv_pos_site_id
 _symmetry_equiv_pos_as_xyz
  1  'x, y, z'
loop_
 _atom_site_type_symbol
 _atom_site_label
 _atom_site_symmetry_multiplicity
 _atom_site_fract_x
 _atom_site_fract_y
 _atom_site_fract_z
 _atom_site_occupancy
  Dy  Dy0  1  0.329106  0.006330  0.250000  1
  Hf  Hf1  1  0.993850  0.671595  0.750000  1
  Hf  Hf2  1  0.005668  0.328971  0.250000  1
  Hf  Hf3  1  0.671614  0.994130  0.750000  1
  Al  Al4  1  0.121106  0.122418  0.750000  1
  Al  Al5  1  0.871937  0.875739  0.250000  1
  Al  Al6  1  0.996572  0.334706  0.578472  1
  Al  Al7  1  0.000124  0.662535  0.426636  1
  Al  Al8  1  0.000124  0.662535  0.073364  1
  Al  Al9  1  0.335041  0.997163  0.918057  1
  Al  Al10  1  0.996572  0.334706  0.921528  1
  Al  Al11  1  0.668195  0.002416  0.073437  1
  Al  Al12  1  0.668195  0.002416  0.426563  1
  Al  Al13  1  0.335041  0.997163  0.581943  1
  Al  Al14  1  0.331243  0.333932  0.054026  1
  Al  Al15  1  0.669139  0.669037  0.938650  1
  Al  Al16  1  0.669139  0.669037  0.561350  1
  Al  Al17  1  0.331243  0.333932  0.445974  1
  Al  Al18  1  0.337897  0.553859  0.750000  1
  Al  Al19  1  0.666710  0.451935  0.250000  1
  Al  Al20  1  0.555822  0.339194  0.750000  1
  Al  Al21  1  0.445935  0.656397  0.250000  1
  Rh  Rh22  1  0.673230  0.327730  0.501580  1
  Rh  Rh23  1  0.327801  0.673135  0.502158  1
  Rh  Rh24  1  0.327801  0.673135  0.997842  1
  Rh  Rh25  1  0.673230  0.327730  0.998420  1
  Rh  Rh26  1  0.998831  0.999062  0.501850  1
  Rh  Rh27  1  0.998831  0.999062  0.998150  1
