# generated using pymatgen
data_ErGaPRh3
_symmetry_space_group_name_H-M   'P 1'
_cell_length_a   6.63459494
_cell_length_b   6.63459519
_cell_length_c   6.63459532
_cell_angle_alpha   130.03205509
_cell_angle_beta   113.88867934
_cell_angle_gamma   87.23859052
_symmetry_Int_Tables_number   1
_chemical_formula_structural   ErGaPRh3
_chemical_formula_sum   'Er2 Ga2 P2 Rh6'
_cell_volume   194.82781929
_cell_formula_units_Z   2
loop_
 _symmetry_equiv_pos_site_id
 _symmetry_equiv_pos_as_xyz
  1  'x, y, z'
loop_
 _atom_site_type_symbol
 _atom_site_label
 _atom_site_symmetry_multiplicity
 _atom_site_fract_x
 _atom_site_fract_y
 _atom_site_fract_z
 _atom_site_occupancy
  Er  Er0  1  0.750000  0.066425  0.316425  1
  Er  Er1  1  0.250000  0.965175  0.715175  1
  Ga  Ga2  1  0.604969  0.408582  0.803613  1
  Ga  Ga3  1  0.895031  0.698643  0.803613  1
  P  P4  1  0.440537  0.638092  0.197556  1
  P  P5  1  0.059463  0.257019  0.197556  1
  Rh  Rh6  1  0.216851  0.501729  0.716536  1
  Rh  Rh7  1  0.785193  0.501729  0.284877  1
  Rh  Rh8  1  0.453439  0.481617  0.435056  1
  Rh  Rh9  1  0.046561  0.481617  0.028180  1
  Rh  Rh10  1  0.714807  0.999685  0.716536  1
  Rh  Rh11  1  0.283149  0.999685  0.284877  1
