# generated using pymatgen
data_Er6Lu4InSb5
_symmetry_space_group_name_H-M   'P 1'
_cell_length_a   8.83244000
_cell_length_b   8.85908066
_cell_length_c   6.29334200
_cell_angle_alpha   90.00000000
_cell_angle_beta   90.00000000
_cell_angle_gamma   119.90057375
_symmetry_Int_Tables_number   1
_chemical_formula_structural   Er6Lu4InSb5
_chemical_formula_sum   'Er6 Lu4 In1 Sb5'
_cell_volume   426.88958428
_cell_formula_units_Z   1
loop_
 _symmetry_equiv_pos_site_id
 _symmetry_equiv_pos_as_xyz
  1  'x, y, z'
loop_
 _atom_site_type_symbol
 _atom_site_label
 _atom_site_symmetry_multiplicity
 _atom_site_fract_x
 _atom_site_fract_y
 _atom_site_fract_z
 _atom_site_occupancy
  Er  Er0  1  0.004443  0.759122  0.750000  1
  Er  Er1  1  0.997653  0.243506  0.250000  1
  Er  Er2  1  0.754148  0.756494  0.250000  1
  Er  Er3  1  0.757956  0.000000  0.750000  1
  Er  Er4  1  0.245321  0.240878  0.750000  1
  Er  Er5  1  0.241794  0.000000  0.250000  1
  Lu  Lu6  1  0.333813  0.669292  0.499710  1
  Lu  Lu7  1  0.664522  0.330708  0.000290  1
  Lu  Lu8  1  0.664522  0.330708  0.499710  1
  Lu  Lu9  1  0.333813  0.669292  0.000290  1
  In  In10  1  0.396693  0.000000  0.750000  1
  Sb  Sb11  1  0.389784  0.391557  0.250000  1
  Sb  Sb12  1  0.998226  0.608443  0.250000  1
  Sb  Sb13  1  0.000822  0.391065  0.750000  1
  Sb  Sb14  1  0.609757  0.608935  0.750000  1
  Sb  Sb15  1  0.606731  0.000000  0.250000  1
