# generated using pymatgen
data_Li2Mn3Fe2(NiAs)7
_symmetry_space_group_name_H-M   'P 1'
_cell_length_a   9.47132310
_cell_length_b   9.48353457
_cell_length_c   3.65478300
_cell_angle_alpha   90.00000000
_cell_angle_beta   90.00000000
_cell_angle_gamma   120.24607277
_symmetry_Int_Tables_number   1
_chemical_formula_structural   Li2Mn3Fe2(NiAs)7
_chemical_formula_sum   'Li2 Mn3 Fe2 Ni7 As7'
_cell_volume   283.58998466
_cell_formula_units_Z   1
loop_
 _symmetry_equiv_pos_site_id
 _symmetry_equiv_pos_as_xyz
  1  'x, y, z'
loop_
 _atom_site_type_symbol
 _atom_site_label
 _atom_site_symmetry_multiplicity
 _atom_site_fract_x
 _atom_site_fract_y
 _atom_site_fract_z
 _atom_site_occupancy
  Li  Li0  1  0.334070  0.667732  0.000000  1
  Li  Li1  1  0.999302  0.999496  0.500000  1
  Mn  Mn2  1  0.761093  0.553811  0.500000  1
  Mn  Mn3  1  0.444769  0.207733  0.500000  1
  Mn  Mn4  1  0.793690  0.236690  0.500000  1
  Fe  Fe5  1  0.503306  0.448471  0.000000  1
  Fe  Fe6  1  0.550946  0.053453  0.000000  1
  Ni  Ni7  1  0.278456  0.380207  0.500000  1
  Ni  Ni8  1  0.617928  0.895771  0.500000  1
  Ni  Ni9  1  0.103301  0.720796  0.500000  1
  Ni  Ni10  1  0.943967  0.495333  0.000000  1
  Ni  Ni11  1  0.723163  0.765366  0.000000  1
  Ni  Ni12  1  0.236596  0.959713  0.000000  1
  Ni  Ni13  1  0.042241  0.281523  0.000000  1
  As  As14  1  0.961903  0.755512  0.000000  1
  As  As15  1  0.245543  0.207804  0.000000  1
  As  As16  1  0.792360  0.039307  0.000000  1
  As  As17  1  0.662651  0.330162  0.000000  1
  As  As18  1  0.535317  0.619431  0.500000  1
  As  As19  1  0.380831  0.915682  0.500000  1
  As  As20  1  0.088567  0.466006  0.500000  1
