# generated using pymatgen
data_Be2B4Mo9W
_symmetry_space_group_name_H-M   'P 1'
_cell_length_a   6.92690086
_cell_length_b   6.92690097
_cell_length_c   6.92690038
_cell_angle_alpha   128.82875244
_cell_angle_beta   128.82875240
_cell_angle_gamma   75.28627751
_symmetry_Int_Tables_number   1
_chemical_formula_structural   Be2B4Mo9W
_chemical_formula_sum   'Be2 B4 Mo9 W1'
_cell_volume   196.33318697
_cell_formula_units_Z   1
loop_
 _symmetry_equiv_pos_site_id
 _symmetry_equiv_pos_as_xyz
  1  'x, y, z'
loop_
 _atom_site_type_symbol
 _atom_site_label
 _atom_site_symmetry_multiplicity
 _atom_site_fract_x
 _atom_site_fract_y
 _atom_site_fract_z
 _atom_site_occupancy
  Be  Be0  1  0.750198  0.750198  0.000000  1
  Be  Be1  1  0.249802  0.249802  0.000000  1
  B  B2  1  0.380514  0.880556  0.261072  1
  B  B3  1  0.880556  0.619486  0.500042  1
  B  B4  1  0.619486  0.119444  0.738928  1
  B  B5  1  0.119444  0.380514  0.499958  1
  Mo  Mo6  1  0.809248  0.976797  0.499844  1
  Mo  Mo7  1  0.309404  0.809248  0.832450  1
  Mo  Mo8  1  0.190752  0.023203  0.500156  1
  Mo  Mo9  1  0.523047  0.690596  0.499844  1
  Mo  Mo10  1  0.023203  0.523047  0.832450  1
  Mo  Mo11  1  0.690596  0.190752  0.167550  1
  Mo  Mo12  1  0.976797  0.476953  0.167550  1
  Mo  Mo13  1  0.500000  0.500000  0.000000  1
  Mo  Mo14  1  0.476953  0.309404  0.500156  1
  W  W15  1  0.000000  0.000000  0.000000  1
