# generated using pymatgen
data_YbDy6Sn23Ir6
_symmetry_space_group_name_H-M   'P 1'
_cell_length_a   9.89027800
_cell_length_b   9.89027800
_cell_length_c   10.07983300
_cell_angle_alpha   90.00000000
_cell_angle_beta   90.00000000
_cell_angle_gamma   120.00000000
_symmetry_Int_Tables_number   1
_chemical_formula_structural   YbDy6Sn23Ir6
_chemical_formula_sum   'Yb1 Dy6 Sn23 Ir6'
_cell_volume   853.88811120
_cell_formula_units_Z   1
loop_
 _symmetry_equiv_pos_site_id
 _symmetry_equiv_pos_as_xyz
  1  'x, y, z'
loop_
 _atom_site_type_symbol
 _atom_site_label
 _atom_site_symmetry_multiplicity
 _atom_site_fract_x
 _atom_site_fract_y
 _atom_site_fract_z
 _atom_site_occupancy
  Yb  Yb0  1  0.000000  0.000000  0.000000  1
  Dy  Dy1  1  0.481130  0.518870  0.306670  1
  Dy  Dy2  1  0.518870  0.481130  0.693330  1
  Dy  Dy3  1  0.481130  0.962259  0.306670  1
  Dy  Dy4  1  0.518870  0.037741  0.693330  1
  Dy  Dy5  1  0.037741  0.518870  0.306670  1
  Dy  Dy6  1  0.962259  0.481130  0.693330  1
  Sn  Sn7  1  0.351543  0.000000  0.000000  1
  Sn  Sn8  1  0.648457  0.000000  0.000000  1
  Sn  Sn9  1  0.000000  0.351543  0.000000  1
  Sn  Sn10  1  0.000000  0.648457  0.000000  1
  Sn  Sn11  1  0.648457  0.648457  0.000000  1
  Sn  Sn12  1  0.351543  0.351543  0.000000  1
  Sn  Sn13  1  0.333333  0.666667  0.824173  1
  Sn  Sn14  1  0.666667  0.333333  0.175827  1
  Sn  Sn15  1  0.000000  0.000000  0.500000  1
  Sn  Sn16  1  0.778070  0.221930  0.458283  1
  Sn  Sn17  1  0.221930  0.778070  0.541717  1
  Sn  Sn18  1  0.778070  0.556140  0.458283  1
  Sn  Sn19  1  0.221930  0.443860  0.541717  1
  Sn  Sn20  1  0.443860  0.221930  0.458283  1
  Sn  Sn21  1  0.556140  0.778070  0.541717  1
  Sn  Sn22  1  0.333333  0.666667  0.121866  1
  Sn  Sn23  1  0.666667  0.333333  0.878134  1
  Sn  Sn24  1  0.117687  0.882313  0.282231  1
  Sn  Sn25  1  0.882313  0.117687  0.717769  1
  Sn  Sn26  1  0.117687  0.235374  0.282231  1
  Sn  Sn27  1  0.882313  0.764626  0.717769  1
  Sn  Sn28  1  0.764626  0.882313  0.282231  1
  Sn  Sn29  1  0.235374  0.117687  0.717769  1
  Ir  Ir30  1  0.829764  0.170236  0.200517  1
  Ir  Ir31  1  0.170236  0.829764  0.799483  1
  Ir  Ir32  1  0.829764  0.659526  0.200517  1
  Ir  Ir33  1  0.170236  0.340474  0.799483  1
  Ir  Ir34  1  0.340474  0.170236  0.200517  1
  Ir  Ir35  1  0.659526  0.829764  0.799483  1
