# generated using pymatgen
data_ErTm4Bi2As
_symmetry_space_group_name_H-M   'P 1'
_cell_length_a   7.96090800
_cell_length_b   9.08679600
_cell_length_c   11.87875900
_cell_angle_alpha   90.00000000
_cell_angle_beta   90.00000000
_cell_angle_gamma   90.00000000
_symmetry_Int_Tables_number   1
_chemical_formula_structural   ErTm4Bi2As
_chemical_formula_sum   'Er4 Tm16 Bi8 As4'
_cell_volume   859.29929313
_cell_formula_units_Z   4
loop_
 _symmetry_equiv_pos_site_id
 _symmetry_equiv_pos_as_xyz
  1  'x, y, z'
loop_
 _atom_site_type_symbol
 _atom_site_label
 _atom_site_symmetry_multiplicity
 _atom_site_fract_x
 _atom_site_fract_y
 _atom_site_fract_z
 _atom_site_occupancy
  Er  Er0  1  0.638175  0.750000  0.294145  1
  Er  Er1  1  0.861825  0.750000  0.794145  1
  Er  Er2  1  0.361825  0.250000  0.705855  1
  Er  Er3  1  0.138175  0.250000  0.205855  1
  Tm  Tm4  1  0.818065  0.557778  0.062020  1
  Tm  Tm5  1  0.681935  0.942222  0.562020  1
  Tm  Tm6  1  0.181935  0.057778  0.937980  1
  Tm  Tm7  1  0.318065  0.442222  0.437980  1
  Tm  Tm8  1  0.181935  0.442222  0.937980  1
  Tm  Tm9  1  0.318065  0.057778  0.437980  1
  Tm  Tm10  1  0.818065  0.942222  0.062020  1
  Tm  Tm11  1  0.681935  0.557778  0.562020  1
  Tm  Tm12  1  0.161027  0.750000  0.212199  1
  Tm  Tm13  1  0.338973  0.750000  0.712199  1
  Tm  Tm14  1  0.838973  0.250000  0.787801  1
  Tm  Tm15  1  0.661027  0.250000  0.287801  1
  Tm  Tm16  1  0.466906  0.750000  0.001321  1
  Tm  Tm17  1  0.033094  0.750000  0.501321  1
  Tm  Tm18  1  0.533094  0.250000  0.998679  1
  Tm  Tm19  1  0.966906  0.250000  0.498679  1
  Bi  Bi20  1  0.929853  0.510234  0.325940  1
  Bi  Bi21  1  0.570147  0.989766  0.825940  1
  Bi  Bi22  1  0.070147  0.010234  0.674060  1
  Bi  Bi23  1  0.429853  0.489766  0.174060  1
  Bi  Bi24  1  0.070147  0.489766  0.674060  1
  Bi  Bi25  1  0.429853  0.010234  0.174060  1
  Bi  Bi26  1  0.929853  0.989766  0.325940  1
  Bi  Bi27  1  0.570147  0.510234  0.825940  1
  As  As28  1  0.408074  0.750000  0.478696  1
  As  As29  1  0.091926  0.750000  0.978696  1
  As  As30  1  0.591926  0.250000  0.521304  1
  As  As31  1  0.908074  0.250000  0.021304  1
