# generated using pymatgen
data_Pr5Nd(Al4Cl)2
_symmetry_space_group_name_H-M   'P 1'
_cell_length_a   8.13953316
_cell_length_b   8.13953319
_cell_length_c   8.13953211
_cell_angle_alpha   119.18904393
_cell_angle_beta   119.18904111
_cell_angle_gamma   91.41044804
_symmetry_Int_Tables_number   1
_chemical_formula_structural   Pr5Nd(Al4Cl)2
_chemical_formula_sum   'Pr5 Nd1 Al8 Cl2'
_cell_volume   385.86209943
_cell_formula_units_Z   1
loop_
 _symmetry_equiv_pos_site_id
 _symmetry_equiv_pos_as_xyz
  1  'x, y, z'
loop_
 _atom_site_type_symbol
 _atom_site_label
 _atom_site_symmetry_multiplicity
 _atom_site_fract_x
 _atom_site_fract_y
 _atom_site_fract_z
 _atom_site_occupancy
  Pr  Pr0  1  0.659124  0.159124  0.818247  1
  Pr  Pr1  1  0.159124  0.340876  0.500000  1
  Pr  Pr2  1  0.840876  0.659124  0.500000  1
  Pr  Pr3  1  0.750000  0.750000  0.000000  1
  Pr  Pr4  1  0.340876  0.840876  0.181753  1
  Nd  Nd5  1  0.250000  0.250000  0.000000  1
  Al  Al6  1  0.946011  0.445673  0.787636  1
  Al  Al7  1  0.841963  0.054327  0.500339  1
  Al  Al8  1  0.341625  0.841963  0.787636  1
  Al  Al9  1  0.445673  0.658037  0.499661  1
  Al  Al10  1  0.553989  0.341625  0.499661  1
  Al  Al11  1  0.054327  0.553989  0.212364  1
  Al  Al12  1  0.158375  0.946011  0.500339  1
  Al  Al13  1  0.658037  0.158375  0.212364  1
  Cl  Cl14  1  0.499431  0.499431  0.000000  1
  Cl  Cl15  1  0.000569  0.000569  0.000000  1
