# generated using pymatgen
data_Th4Ga18IrRu5
_symmetry_space_group_name_H-M   'P 1'
_cell_length_a   7.64004943
_cell_length_b   7.64003981
_cell_length_c   9.64457201
_cell_angle_alpha   90.07719561
_cell_angle_beta   90.07655150
_cell_angle_gamma   119.38590070
_symmetry_Int_Tables_number   1
_chemical_formula_structural   Th4Ga18IrRu5
_chemical_formula_sum   'Th4 Ga18 Ir1 Ru5'
_cell_volume   490.52163572
_cell_formula_units_Z   1
loop_
 _symmetry_equiv_pos_site_id
 _symmetry_equiv_pos_as_xyz
  1  'x, y, z'
loop_
 _atom_site_type_symbol
 _atom_site_label
 _atom_site_symmetry_multiplicity
 _atom_site_fract_x
 _atom_site_fract_y
 _atom_site_fract_z
 _atom_site_occupancy
  Th  Th0  1  0.998410  0.670314  0.249969  1
  Th  Th1  1  0.001590  0.329686  0.750031  1
  Th  Th2  1  0.670314  0.998409  0.249969  1
  Th  Th3  1  0.329686  0.001591  0.750031  1
  Ga  Ga4  1  0.133332  0.133332  0.251197  1
  Ga  Ga5  1  0.866668  0.866668  0.748803  1
  Ga  Ga6  1  0.007552  0.337316  0.077165  1
  Ga  Ga7  1  0.992448  0.662684  0.922835  1
  Ga  Ga8  1  0.991473  0.663831  0.576551  1
  Ga  Ga9  1  0.336170  0.008527  0.423450  1
  Ga  Ga10  1  0.008527  0.336169  0.423449  1
  Ga  Ga11  1  0.663830  0.991473  0.576550  1
  Ga  Ga12  1  0.662685  0.992448  0.922835  1
  Ga  Ga13  1  0.337315  0.007552  0.077165  1
  Ga  Ga14  1  0.338651  0.338651  0.557916  1
  Ga  Ga15  1  0.661349  0.661349  0.442084  1
  Ga  Ga16  1  0.659739  0.659739  0.058446  1
  Ga  Ga17  1  0.340261  0.340261  0.941554  1
  Ga  Ga18  1  0.337346  0.546156  0.249786  1
  Ga  Ga19  1  0.662654  0.453844  0.750214  1
  Ga  Ga20  1  0.546156  0.337346  0.249786  1
  Ga  Ga21  1  0.453844  0.662654  0.750214  1
  Ir  Ir22  1  0.000000  0.000000  0.000000  1
  Ru  Ru23  1  0.673355  0.326645  0.000000  1
  Ru  Ru24  1  0.326645  0.673355  0.000000  1
  Ru  Ru25  1  0.326227  0.673773  0.500000  1
  Ru  Ru26  1  0.673773  0.326227  0.500000  1
  Ru  Ru27  1  0.000000  0.000000  0.500000  1
