# generated using pymatgen
data_Nd4DyMg2P12Ir17
_symmetry_space_group_name_H-M   'P 1'
_cell_length_a   12.74321500
_cell_length_b   12.88806599
_cell_length_c   4.01899700
_cell_angle_alpha   90.00000000
_cell_angle_beta   90.00000000
_cell_angle_gamma   119.62890551
_symmetry_Int_Tables_number   1
_chemical_formula_structural   Nd4DyMg2P12Ir17
_chemical_formula_sum   'Nd4 Dy1 Mg2 P12 Ir17'
_cell_volume   573.75562724
_cell_formula_units_Z   1
loop_
 _symmetry_equiv_pos_site_id
 _symmetry_equiv_pos_as_xyz
  1  'x, y, z'
loop_
 _atom_site_type_symbol
 _atom_site_label
 _atom_site_symmetry_multiplicity
 _atom_site_fract_x
 _atom_site_fract_y
 _atom_site_fract_z
 _atom_site_occupancy
  Nd  Nd0  1  0.332409  0.664078  0.500000  1
  Nd  Nd1  1  0.668331  0.335922  0.500000  1
  Nd  Nd2  1  0.002695  0.812765  0.000000  1
  Nd  Nd3  1  0.189930  0.187235  0.000000  1
  Dy  Dy4  1  0.809055  0.000000  0.000000  1
  Mg  Mg5  1  0.996940  0.441868  0.500000  1
  Mg  Mg6  1  0.555071  0.558132  0.500000  1
  P  P7  1  0.002666  0.639815  0.500000  1
  P  P8  1  0.362850  0.360185  0.500000  1
  P  P9  1  0.642391  0.000000  0.500000  1
  P  P10  1  0.515193  0.686321  0.000000  1
  P  P11  1  0.307983  0.824643  0.000000  1
  P  P12  1  0.166723  0.478728  0.000000  1
  P  P13  1  0.483340  0.175357  0.000000  1
  P  P14  1  0.687995  0.521272  0.000000  1
  P  P15  1  0.828872  0.313679  0.000000  1
  P  P16  1  0.996885  0.175548  0.500000  1
  P  P17  1  0.821337  0.824452  0.500000  1
  P  P18  1  0.180564  0.000000  0.500000  1
  Ir  Ir19  1  0.506970  0.868538  0.000000  1
  Ir  Ir20  1  0.126595  0.639548  0.000000  1
  Ir  Ir21  1  0.357067  0.490602  0.000000  1
  Ir  Ir22  1  0.487049  0.360452  0.000000  1
  Ir  Ir23  1  0.866467  0.509398  0.000000  1
  Ir  Ir24  1  0.638433  0.131462  0.000000  1
  Ir  Ir25  1  0.462729  0.000000  0.500000  1
  Ir  Ir26  1  0.994442  0.278183  0.000000  1
  Ir  Ir27  1  0.716259  0.721817  0.000000  1
  Ir  Ir28  1  0.289938  0.000000  0.000000  1
  Ir  Ir29  1  0.623891  0.808616  0.500000  1
  Ir  Ir30  1  0.204631  0.825777  0.500000  1
  Ir  Ir31  1  0.175238  0.369730  0.500000  1
  Ir  Ir32  1  0.378853  0.174223  0.500000  1
  Ir  Ir33  1  0.805508  0.630270  0.500000  1
  Ir  Ir34  1  0.815275  0.191384  0.500000  1
  Ir  Ir35  1  0.999422  0.000000  0.500000  1
