# generated using pymatgen
data_TbY3Ga4(NiIr)2
_symmetry_space_group_name_H-M   'P 1'
_cell_length_a   4.33935700
_cell_length_b   6.83794967
_cell_length_c   7.57083176
_cell_angle_alpha   89.94903327
_cell_angle_beta   90.00000000
_cell_angle_gamma   90.00000000
_symmetry_Int_Tables_number   1
_chemical_formula_structural   TbY3Ga4(NiIr)2
_chemical_formula_sum   'Tb1 Y3 Ga4 Ni2 Ir2'
_cell_volume   224.64393832
_cell_formula_units_Z   1
loop_
 _symmetry_equiv_pos_site_id
 _symmetry_equiv_pos_as_xyz
  1  'x, y, z'
loop_
 _atom_site_type_symbol
 _atom_site_label
 _atom_site_symmetry_multiplicity
 _atom_site_fract_x
 _atom_site_fract_y
 _atom_site_fract_z
 _atom_site_occupancy
  Tb  Tb0  1  0.750000  0.984038  0.192514  1
  Y  Y1  1  0.250000  0.021387  0.809110  1
  Y  Y2  1  0.250000  0.521547  0.690236  1
  Y  Y3  1  0.750000  0.483702  0.307301  1
  Ga  Ga4  1  0.250000  0.168701  0.435662  1
  Ga  Ga5  1  0.250000  0.667128  0.064548  1
  Ga  Ga6  1  0.750000  0.836305  0.581931  1
  Ga  Ga7  1  0.750000  0.336482  0.918061  1
  Ni  Ni8  1  0.750000  0.214078  0.604392  1
  Ni  Ni9  1  0.750000  0.712521  0.896712  1
  Ir  Ir10  1  0.250000  0.777846  0.395737  1
  Ir  Ir11  1  0.250000  0.276264  0.103796  1
