# generated using pymatgen
data_La2Pr5Nd5(PtBr3)4
_symmetry_space_group_name_H-M   'P 1'
_cell_length_a   10.62787406
_cell_length_b   10.61098223
_cell_length_c   10.62916604
_cell_angle_alpha   109.46010690
_cell_angle_beta   109.48041811
_cell_angle_gamma   109.46021010
_symmetry_Int_Tables_number   1
_chemical_formula_structural   La2Pr5Nd5(PtBr3)4
_chemical_formula_sum   'La2 Pr5 Nd5 Pt4 Br12'
_cell_volume   922.88702223
_cell_formula_units_Z   1
loop_
 _symmetry_equiv_pos_site_id
 _symmetry_equiv_pos_as_xyz
  1  'x, y, z'
loop_
 _atom_site_type_symbol
 _atom_site_label
 _atom_site_symmetry_multiplicity
 _atom_site_fract_x
 _atom_site_fract_y
 _atom_site_fract_z
 _atom_site_occupancy
  La  La0  1  0.028500  0.265392  0.014242  1
  La  La1  1  0.012845  0.027969  0.265791  1
  Pr  Pr2  1  0.483977  0.747446  0.013229  1
  Pr  Pr3  1  0.485343  0.236945  0.471471  1
  Pr  Pr4  1  0.013578  0.483405  0.746034  1
  Pr  Pr5  1  0.267582  0.014883  0.031408  1
  Pr  Pr6  1  0.236320  0.265628  0.751433  1
  Nd  Nd7  1  0.471265  0.485312  0.236719  1
  Nd  Nd8  1  0.749133  0.235192  0.265762  1
  Nd  Nd9  1  0.746831  0.014611  0.482565  1
  Nd  Nd10  1  0.236249  0.471682  0.485774  1
  Nd  Nd11  1  0.266984  0.749928  0.234146  1
  Pt  Pt12  1  0.249476  0.250987  0.250809  1
  Pt  Pt13  1  0.501166  0.000572  0.250627  1
  Pt  Pt14  1  0.000033  0.249493  0.498614  1
  Pt  Pt15  1  0.250202  0.499650  0.000691  1
  Br  Br16  1  0.250571  0.752709  0.744960  1
  Br  Br17  1  0.507074  0.505201  0.752735  1
  Br  Br18  1  0.994269  0.744324  0.996845  1
  Br  Br19  1  0.743999  0.247922  0.750391  1
  Br  Br20  1  0.995877  0.992215  0.744474  1
  Br  Br21  1  0.252039  0.995777  0.504153  1
  Br  Br22  1  0.752786  0.506989  0.500155  1
  Br  Br23  1  0.506980  0.253169  0.000754  1
  Br  Br24  1  0.750766  0.744610  0.253139  1
  Br  Br25  1  0.743225  0.997975  0.993315  1
  Br  Br26  1  0.000318  0.507263  0.254999  1
  Br  Br27  1  0.502613  0.752754  0.504766  1
