# generated using pymatgen
data_Ta8Co7Si14Ir
_symmetry_space_group_name_H-M   'P 1'
_cell_length_a   9.26259603
_cell_length_b   9.27240219
_cell_length_c   9.25657373
_cell_angle_alpha   94.25688641
_cell_angle_beta   94.20050166
_cell_angle_gamma   148.50641998
_symmetry_Int_Tables_number   1
_chemical_formula_structural   Ta8Co7Si14Ir
_chemical_formula_sum   'Ta8 Co7 Si14 Ir1'
_cell_volume   399.69384358
_cell_formula_units_Z   1
loop_
 _symmetry_equiv_pos_site_id
 _symmetry_equiv_pos_as_xyz
  1  'x, y, z'
loop_
 _atom_site_type_symbol
 _atom_site_label
 _atom_site_symmetry_multiplicity
 _atom_site_fract_x
 _atom_site_fract_y
 _atom_site_fract_z
 _atom_site_occupancy
  Ta  Ta0  1  0.132930  0.132930  0.265860  1
  Ta  Ta1  1  0.866913  0.866913  0.733826  1
  Ta  Ta2  1  0.868251  0.132529  0.001509  1
  Ta  Ta3  1  0.133257  0.868979  0.001509  1
  Ta  Ta4  1  0.499106  0.310778  0.810435  1
  Ta  Ta5  1  0.500993  0.689283  0.190995  1
  Ta  Ta6  1  0.690002  0.501712  0.190995  1
  Ta  Ta7  1  0.311328  0.499657  0.810435  1
  Co  Co8  1  0.103477  0.603477  0.206955  1
  Co  Co9  1  0.100877  0.899294  0.499856  1
  Co  Co10  1  0.398979  0.600563  0.499856  1
  Co  Co11  1  0.597888  0.398255  0.497096  1
  Co  Co12  1  0.899208  0.098841  0.497096  1
  Co  Co13  1  0.899162  0.399162  0.798324  1
  Co  Co14  1  0.599953  0.099953  0.199906  1
  Si  Si15  1  0.510852  0.107367  0.587293  1
  Si  Si16  1  0.501986  0.906907  0.406327  1
  Si  Si17  1  0.904340  0.499420  0.406327  1
  Si  Si18  1  0.076442  0.479926  0.587293  1
  Si  Si19  1  0.750804  0.751140  0.000353  1
  Si  Si20  1  0.249549  0.249212  0.000353  1
  Si  Si21  1  0.291706  0.291706  0.583412  1
  Si  Si22  1  0.708084  0.708084  0.416167  1
  Si  Si23  1  0.724718  0.312012  0.006510  1
  Si  Si24  1  0.281792  0.694498  0.006510  1
  Si  Si25  1  0.998732  0.295232  0.296226  1
  Si  Si26  1  0.985731  0.695609  0.701792  1
  Si  Si27  1  0.716060  0.006182  0.701792  1
  Si  Si28  1  0.297494  0.000994  0.296226  1
  Ir  Ir29  1  0.399383  0.899383  0.798766  1
