# generated using pymatgen
data_CaNd2(HoSi2)2
_symmetry_space_group_name_H-M   'P 1'
_cell_length_a   7.48264800
_cell_length_b   7.85112800
_cell_length_c   14.88202200
_cell_angle_alpha   90.00000000
_cell_angle_beta   90.00000000
_cell_angle_gamma   90.00000000
_symmetry_Int_Tables_number   1
_chemical_formula_structural   CaNd2(HoSi2)2
_chemical_formula_sum   'Ca4 Nd8 Ho8 Si16'
_cell_volume   874.27752803
_cell_formula_units_Z   4
loop_
 _symmetry_equiv_pos_site_id
 _symmetry_equiv_pos_as_xyz
  1  'x, y, z'
loop_
 _atom_site_type_symbol
 _atom_site_label
 _atom_site_symmetry_multiplicity
 _atom_site_fract_x
 _atom_site_fract_y
 _atom_site_fract_z
 _atom_site_occupancy
  Ca  Ca0  1  0.650294  0.988788  0.250000  1
  Ca  Ca1  1  0.150294  0.511212  0.250000  1
  Ca  Ca2  1  0.849706  0.488788  0.750000  1
  Ca  Ca3  1  0.349706  0.011212  0.750000  1
  Nd  Nd4  1  0.974123  0.819734  0.098218  1
  Nd  Nd5  1  0.474123  0.680266  0.401782  1
  Nd  Nd6  1  0.525877  0.319734  0.901782  1
  Nd  Nd7  1  0.025877  0.180266  0.598218  1
  Nd  Nd8  1  0.025877  0.180266  0.901782  1
  Nd  Nd9  1  0.525877  0.319734  0.598218  1
  Nd  Nd10  1  0.474123  0.680266  0.098218  1
  Nd  Nd11  1  0.974123  0.819734  0.401782  1
  Ho  Ho12  1  0.679858  0.819142  0.877142  1
  Ho  Ho13  1  0.179858  0.680858  0.622858  1
  Ho  Ho14  1  0.820142  0.319142  0.122858  1
  Ho  Ho15  1  0.320142  0.180858  0.377142  1
  Ho  Ho16  1  0.320142  0.180858  0.122858  1
  Ho  Ho17  1  0.820142  0.319142  0.377142  1
  Ho  Ho18  1  0.179858  0.680858  0.877142  1
  Ho  Ho19  1  0.679858  0.819142  0.622858  1
  Si  Si20  1  0.763855  0.613184  0.250000  1
  Si  Si21  1  0.263855  0.886816  0.250000  1
  Si  Si22  1  0.736145  0.113184  0.750000  1
  Si  Si23  1  0.236145  0.386816  0.750000  1
  Si  Si24  1  0.028446  0.107673  0.250000  1
  Si  Si25  1  0.528446  0.392327  0.250000  1
  Si  Si26  1  0.471554  0.607673  0.750000  1
  Si  Si27  1  0.971554  0.892327  0.750000  1
  Si  Si28  1  0.852656  0.532285  0.963987  1
  Si  Si29  1  0.352656  0.967715  0.536013  1
  Si  Si30  1  0.647344  0.032285  0.036013  1
  Si  Si31  1  0.147344  0.467715  0.463987  1
  Si  Si32  1  0.147344  0.467715  0.036013  1
  Si  Si33  1  0.647344  0.032285  0.463987  1
  Si  Si34  1  0.352656  0.967715  0.963987  1
  Si  Si35  1  0.852656  0.532285  0.536013  1
