# generated using pymatgen
data_DyY3Ir3RhO14
_symmetry_space_group_name_H-M   'P 1'
_cell_length_a   7.25722230
_cell_length_b   7.25722209
_cell_length_c   7.25722159
_cell_angle_alpha   59.95006190
_cell_angle_beta   59.95005967
_cell_angle_gamma   59.95005965
_symmetry_Int_Tables_number   1
_chemical_formula_structural   DyY3Ir3RhO14
_chemical_formula_sum   'Dy1 Y3 Ir3 Rh1 O14'
_cell_volume   269.96288513
_cell_formula_units_Z   1
loop_
 _symmetry_equiv_pos_site_id
 _symmetry_equiv_pos_as_xyz
  1  'x, y, z'
loop_
 _atom_site_type_symbol
 _atom_site_label
 _atom_site_symmetry_multiplicity
 _atom_site_fract_x
 _atom_site_fract_y
 _atom_site_fract_z
 _atom_site_occupancy
  Dy  Dy0  1  0.125000  0.125000  0.125000  1
  Y  Y1  1  0.625000  0.125000  0.125000  1
  Y  Y2  1  0.125000  0.625000  0.125000  1
  Y  Y3  1  0.125000  0.125000  0.625000  1
  Ir  Ir4  1  0.125000  0.625000  0.625000  1
  Ir  Ir5  1  0.625000  0.125000  0.625000  1
  Ir  Ir6  1  0.625000  0.625000  0.125000  1
  Rh  Rh7  1  0.625000  0.625000  0.625000  1
  O  O8  1  0.713631  0.713631  0.283745  1
  O  O9  1  0.289826  0.289826  0.714041  1
  O  O10  1  0.713631  0.283745  0.713631  1
  O  O11  1  0.289826  0.714041  0.289826  1
  O  O12  1  0.283745  0.713631  0.713631  1
  O  O13  1  0.714041  0.289826  0.289826  1
  O  O14  1  0.536369  0.536369  0.966255  1
  O  O15  1  0.960174  0.960174  0.535959  1
  O  O16  1  0.536369  0.966255  0.536369  1
  O  O17  1  0.960174  0.535959  0.960174  1
  O  O18  1  0.966255  0.536369  0.536369  1
  O  O19  1  0.535959  0.960174  0.960174  1
  O  O20  1  0.249211  0.249211  0.249211  1
  O  O21  1  0.000789  0.000789  0.000789  1
