# generated using pymatgen
data_NdSi2(AsRh3)2
_symmetry_space_group_name_H-M   'P 1'
_cell_length_a   7.17595848
_cell_length_b   7.17595903
_cell_length_c   3.83801600
_cell_angle_alpha   90.00000000
_cell_angle_beta   90.00000000
_cell_angle_gamma   119.92360959
_symmetry_Int_Tables_number   1
_chemical_formula_structural   NdSi2(AsRh3)2
_chemical_formula_sum   'Nd1 Si2 As2 Rh6'
_cell_volume   171.28962886
_cell_formula_units_Z   1
loop_
 _symmetry_equiv_pos_site_id
 _symmetry_equiv_pos_as_xyz
  1  'x, y, z'
loop_
 _atom_site_type_symbol
 _atom_site_label
 _atom_site_symmetry_multiplicity
 _atom_site_fract_x
 _atom_site_fract_y
 _atom_site_fract_z
 _atom_site_occupancy
  Nd  Nd0  1  0.996878  0.003122  0.000000  1
  Si  Si1  1  0.802549  0.197451  0.500000  1
  Si  Si2  1  0.333860  0.666140  0.000000  1
  As  As3  1  0.387210  0.191807  0.500000  1
  As  As4  1  0.808193  0.612790  0.500000  1
  Rh  Rh5  1  0.204316  0.795684  0.500000  1
  Rh  Rh6  1  0.194902  0.399999  0.500000  1
  Rh  Rh7  1  0.540792  0.066565  0.000000  1
  Rh  Rh8  1  0.933435  0.459208  0.000000  1
  Rh  Rh9  1  0.531198  0.468802  0.000000  1
  Rh  Rh10  1  0.600001  0.805098  0.500000  1
