# generated using pymatgen
data_Cs5Rb11(SnSe4)4
_symmetry_space_group_name_H-M   'P 1'
_cell_length_a   8.77942265
_cell_length_b   10.83445100
_cell_length_c   16.05425501
_cell_angle_alpha   90.00000000
_cell_angle_beta   90.19607620
_cell_angle_gamma   90.00000000
_symmetry_Int_Tables_number   1
_chemical_formula_structural   Cs5Rb11(SnSe4)4
_chemical_formula_sum   'Cs5 Rb11 Sn4 Se16'
_cell_volume   1527.07539778
_cell_formula_units_Z   1
loop_
 _symmetry_equiv_pos_site_id
 _symmetry_equiv_pos_as_xyz
  1  'x, y, z'
loop_
 _atom_site_type_symbol
 _atom_site_label
 _atom_site_symmetry_multiplicity
 _atom_site_fract_x
 _atom_site_fract_y
 _atom_site_fract_z
 _atom_site_occupancy
  Cs  Cs0  1  0.999468  0.999697  0.999575  1
  Cs  Cs1  1  0.500692  0.000679  0.500391  1
  Cs  Cs2  1  0.999468  0.500303  0.999575  1
  Cs  Cs3  1  0.500692  0.499321  0.500391  1
  Cs  Cs4  1  0.991447  0.750000  0.424391  1
  Rb  Rb5  1  0.478966  0.250000  0.074300  1
  Rb  Rb6  1  0.021953  0.250000  0.574210  1
  Rb  Rb7  1  0.521129  0.750000  0.925280  1
  Rb  Rb8  1  0.835227  0.050275  0.267879  1
  Rb  Rb9  1  0.334547  0.950316  0.229421  1
  Rb  Rb10  1  0.164900  0.550190  0.732378  1
  Rb  Rb11  1  0.664584  0.448892  0.770400  1
  Rb  Rb12  1  0.164900  0.949810  0.732378  1
  Rb  Rb13  1  0.664584  0.051108  0.770400  1
  Rb  Rb14  1  0.835227  0.449725  0.267879  1
  Rb  Rb15  1  0.334547  0.549684  0.229421  1
  Sn  Sn16  1  0.769843  0.750000  0.670073  1
  Sn  Sn17  1  0.230894  0.250000  0.330566  1
  Sn  Sn18  1  0.726421  0.750000  0.167003  1
  Sn  Sn19  1  0.271027  0.250000  0.832242  1
  Se  Se20  1  0.977086  0.250000  0.822957  1
  Se  Se21  1  0.524694  0.250000  0.321637  1
  Se  Se22  1  0.475818  0.750000  0.678197  1
  Se  Se23  1  0.020801  0.750000  0.175761  1
  Se  Se24  1  0.632213  0.557419  0.090315  1
  Se  Se25  1  0.135343  0.440724  0.407481  1
  Se  Se26  1  0.366701  0.058089  0.909262  1
  Se  Se27  1  0.864102  0.943715  0.594996  1
  Se  Se28  1  0.366701  0.441911  0.909262  1
  Se  Se29  1  0.864102  0.556285  0.594996  1
  Se  Se30  1  0.632213  0.942581  0.090315  1
  Se  Se31  1  0.135343  0.059276  0.407481  1
  Se  Se32  1  0.617211  0.750000  0.317322  1
  Se  Se33  1  0.123099  0.250000  0.179802  1
  Se  Se34  1  0.376586  0.250000  0.681122  1
  Se  Se35  1  0.877468  0.750000  0.820944  1
