# generated using pymatgen
data_NdEr(CoB)8
_symmetry_space_group_name_H-M   'P 1'
_cell_length_a   6.98739000
_cell_length_b   6.98739000
_cell_length_c   3.80256200
_cell_angle_alpha   90.00000000
_cell_angle_beta   90.00000000
_cell_angle_gamma   90.00000000
_symmetry_Int_Tables_number   1
_chemical_formula_structural   NdEr(CoB)8
_chemical_formula_sum   'Nd1 Er1 Co8 B8'
_cell_volume   185.65483836
_cell_formula_units_Z   1
loop_
 _symmetry_equiv_pos_site_id
 _symmetry_equiv_pos_as_xyz
  1  'x, y, z'
loop_
 _atom_site_type_symbol
 _atom_site_label
 _atom_site_symmetry_multiplicity
 _atom_site_fract_x
 _atom_site_fract_y
 _atom_site_fract_z
 _atom_site_occupancy
  Nd  Nd0  1  0.500000  0.500000  0.500000  1
  Er  Er1  1  0.000000  0.000000  0.000000  1
  Co  Co2  1  0.354702  0.884819  0.392305  1
  Co  Co3  1  0.618921  0.861288  0.891517  1
  Co  Co4  1  0.645298  0.115181  0.392305  1
  Co  Co5  1  0.138712  0.618921  0.108483  1
  Co  Co6  1  0.884819  0.645298  0.607695  1
  Co  Co7  1  0.861288  0.381079  0.108483  1
  Co  Co8  1  0.381079  0.138712  0.891517  1
  Co  Co9  1  0.115181  0.354702  0.607695  1
  B  B10  1  0.840036  0.292133  0.606505  1
  B  B11  1  0.159964  0.707867  0.606505  1
  B  B12  1  0.802275  0.664148  0.103150  1
  B  B13  1  0.335852  0.802275  0.896850  1
  B  B14  1  0.664148  0.197725  0.896850  1
  B  B15  1  0.292133  0.159964  0.393495  1
  B  B16  1  0.707867  0.840036  0.393495  1
  B  B17  1  0.197725  0.335852  0.103150  1
