# generated using pymatgen
data_Tb2HoLu2Sn3
_symmetry_space_group_name_H-M   'P 1'
_cell_length_a   8.92958758
_cell_length_b   8.92958768
_cell_length_c   6.45615000
_cell_angle_alpha   90.00000000
_cell_angle_beta   90.00000000
_cell_angle_gamma   120.04147900
_symmetry_Int_Tables_number   1
_chemical_formula_structural   Tb2HoLu2Sn3
_chemical_formula_sum   'Tb4 Ho2 Lu4 Sn6'
_cell_volume   445.64124319
_cell_formula_units_Z   2
loop_
 _symmetry_equiv_pos_site_id
 _symmetry_equiv_pos_as_xyz
  1  'x, y, z'
loop_
 _atom_site_type_symbol
 _atom_site_label
 _atom_site_symmetry_multiplicity
 _atom_site_fract_x
 _atom_site_fract_y
 _atom_site_fract_z
 _atom_site_occupancy
  Tb  Tb0  1  0.760656  0.760656  0.750000  1
  Tb  Tb1  1  0.239486  0.999883  0.750000  1
  Tb  Tb2  1  0.999883  0.239486  0.750000  1
  Tb  Tb3  1  0.239313  0.239313  0.250000  1
  Ho  Ho4  1  0.760455  0.999875  0.250000  1
  Ho  Ho5  1  0.999875  0.760455  0.250000  1
  Lu  Lu6  1  0.666727  0.333341  0.000090  1
  Lu  Lu7  1  0.333341  0.666727  0.000090  1
  Lu  Lu8  1  0.333341  0.666727  0.499910  1
  Lu  Lu9  1  0.666727  0.333341  0.499910  1
  Sn  Sn10  1  0.396783  0.396783  0.750000  1
  Sn  Sn11  1  0.603242  0.999984  0.750000  1
  Sn  Sn12  1  0.999984  0.603242  0.750000  1
  Sn  Sn13  1  0.604155  0.604155  0.250000  1
  Sn  Sn14  1  0.396458  0.999572  0.250000  1
  Sn  Sn15  1  0.999572  0.396458  0.250000  1
