# generated using pymatgen
data_Tb6Al24Ru7Rh
_symmetry_space_group_name_H-M   'P 1'
_cell_length_a   8.83399502
_cell_length_b   8.83289932
_cell_length_c   9.61031664
_cell_angle_alpha   89.99999980
_cell_angle_beta   89.86667291
_cell_angle_gamma   119.99590051
_symmetry_Int_Tables_number   1
_chemical_formula_structural   Tb6Al24Ru7Rh
_chemical_formula_sum   'Tb6 Al24 Ru7 Rh1'
_cell_volume   649.44911653
_cell_formula_units_Z   1
loop_
 _symmetry_equiv_pos_site_id
 _symmetry_equiv_pos_as_xyz
  1  'x, y, z'
loop_
 _atom_site_type_symbol
 _atom_site_label
 _atom_site_symmetry_multiplicity
 _atom_site_fract_x
 _atom_site_fract_y
 _atom_site_fract_z
 _atom_site_occupancy
  Tb  Tb0  1  0.386797  0.193399  0.249614  1
  Tb  Tb1  1  0.806410  0.192330  0.249300  1
  Tb  Tb2  1  0.806410  0.614079  0.249300  1
  Tb  Tb3  1  0.613203  0.806601  0.750386  1
  Tb  Tb4  1  0.193590  0.807670  0.750700  1
  Tb  Tb5  1  0.193590  0.385921  0.750700  1
  Al  Al6  1  0.438216  0.876999  0.250277  1
  Al  Al7  1  0.122825  0.561413  0.249226  1
  Al  Al8  1  0.438216  0.561217  0.250277  1
  Al  Al9  1  0.561784  0.123001  0.749723  1
  Al  Al10  1  0.877175  0.438587  0.750774  1
  Al  Al11  1  0.561784  0.438783  0.749723  1
  Al  Al12  1  0.164224  0.839151  0.422749  1
  Al  Al13  1  0.164224  0.325074  0.422749  1
  Al  Al14  1  0.674770  0.837385  0.422515  1
  Al  Al15  1  0.835776  0.160849  0.577251  1
  Al  Al16  1  0.835776  0.674926  0.577251  1
  Al  Al17  1  0.325230  0.162615  0.577485  1
  Al  Al18  1  0.837369  0.162795  0.923141  1
  Al  Al19  1  0.837369  0.674573  0.923141  1
  Al  Al20  1  0.325687  0.162843  0.922913  1
  Al  Al21  1  0.162631  0.837205  0.076859  1
  Al  Al22  1  0.162631  0.325427  0.076859  1
  Al  Al23  1  0.674313  0.837157  0.077087  1
  Al  Al24  1  0.335046  0.667523  0.515414  1
  Al  Al25  1  0.664954  0.332477  0.484586  1
  Al  Al26  1  0.666648  0.333324  0.015289  1
  Al  Al27  1  0.333352  0.666676  0.984711  1
  Al  Al28  1  0.999434  0.999717  0.249971  1
  Al  Al29  1  0.000566  0.000283  0.750029  1
  Ru  Ru30  1  0.000000  0.000000  0.500000  1
  Ru  Ru31  1  0.000000  0.000000  0.000000  1
  Ru  Ru32  1  0.500000  0.000000  0.500000  1
  Ru  Ru33  1  0.500000  0.500000  0.500000  1
  Ru  Ru34  1  0.500000  0.000000  0.000000  1
  Ru  Ru35  1  0.000000  0.500000  0.000000  1
  Ru  Ru36  1  0.500000  0.500000  0.000000  1
  Rh  Rh37  1  0.000000  0.500000  0.500000  1
