# generated using pymatgen
data_SmEu7Sb6
_symmetry_space_group_name_H-M   'P 1'
_cell_length_a   8.44600530
_cell_length_b   8.38107765
_cell_length_c   8.44600516
_cell_angle_alpha   109.31557734
_cell_angle_beta   109.62641379
_cell_angle_gamma   109.31557594
_symmetry_Int_Tables_number   1
_chemical_formula_structural   SmEu7Sb6
_chemical_formula_sum   'Sm1 Eu7 Sb6'
_cell_volume   461.11716303
_cell_formula_units_Z   1
loop_
 _symmetry_equiv_pos_site_id
 _symmetry_equiv_pos_as_xyz
  1  'x, y, z'
loop_
 _atom_site_type_symbol
 _atom_site_label
 _atom_site_symmetry_multiplicity
 _atom_site_fract_x
 _atom_site_fract_y
 _atom_site_fract_z
 _atom_site_occupancy
  Sm  Sm0  1  0.000000  0.138381  0.500000  1
  Eu  Eu1  1  0.142967  0.502442  0.002422  1
  Eu  Eu2  1  0.644149  0.500222  0.000279  1
  Eu  Eu3  1  0.499721  0.999943  0.643870  1
  Eu  Eu4  1  0.359455  0.359474  0.357033  1
  Eu  Eu5  1  0.497578  0.000019  0.140545  1
  Eu  Eu6  1  0.000000  0.642239  0.500000  1
  Eu  Eu7  1  0.856130  0.856072  0.855851  1
  Sb  Sb8  1  0.369690  0.617649  0.746381  1
  Sb  Sb9  1  0.876691  0.247958  0.130310  1
  Sb  Sb10  1  0.631149  0.757331  0.376512  1
  Sb  Sb11  1  0.123488  0.880820  0.254637  1
  Sb  Sb12  1  0.245363  0.126182  0.868851  1
  Sb  Sb13  1  0.753619  0.371268  0.623309  1
