# generated using pymatgen
data_Mg2NbInRh4
_symmetry_space_group_name_H-M   'P 1'
_cell_length_a   4.48692900
_cell_length_b   6.33729400
_cell_length_c   13.45645600
_cell_angle_alpha   90.00000000
_cell_angle_beta   90.00040443
_cell_angle_gamma   90.00000000
_symmetry_Int_Tables_number   1
_chemical_formula_structural   Mg2NbInRh4
_chemical_formula_sum   'Mg6 Nb3 In3 Rh12'
_cell_volume   382.63416797
_cell_formula_units_Z   3
loop_
 _symmetry_equiv_pos_site_id
 _symmetry_equiv_pos_as_xyz
  1  'x, y, z'
loop_
 _atom_site_type_symbol
 _atom_site_label
 _atom_site_symmetry_multiplicity
 _atom_site_fract_x
 _atom_site_fract_y
 _atom_site_fract_z
 _atom_site_occupancy
  Mg  Mg0  1  0.000007  0.000000  0.002028  1
  Mg  Mg1  1  0.500047  0.500001  0.166641  1
  Mg  Mg2  1  0.000104  0.000000  0.331328  1
  Mg  Mg3  1  0.500003  0.500001  0.499611  1
  Mg  Mg4  1  0.000002  0.000000  0.666637  1
  Mg  Mg5  1  0.499948  0.500001  0.833759  1
  Nb  Nb6  1  0.500044  0.000000  0.497347  1
  Nb  Nb7  1  0.999881  0.500001  0.666640  1
  Nb  Nb8  1  0.499932  0.000000  0.835946  1
  In  In9  1  0.000029  0.500001  0.000638  1
  In  In10  1  0.499840  0.000000  0.166650  1
  In  In11  1  0.000153  0.500001  0.332661  1
  Rh  Rh12  1  0.500025  0.244341  0.993697  1
  Rh  Rh13  1  0.500025  0.755659  0.993697  1
  Rh  Rh14  1  0.999930  0.250149  0.166692  1
  Rh  Rh15  1  0.999930  0.749853  0.166692  1
  Rh  Rh16  1  0.500094  0.244321  0.339714  1
  Rh  Rh17  1  0.500094  0.755679  0.339714  1
  Rh  Rh18  1  0.000039  0.247759  0.504548  1
  Rh  Rh19  1  0.000039  0.752241  0.504548  1
  Rh  Rh20  1  0.499970  0.249863  0.666633  1
  Rh  Rh21  1  0.499970  0.750137  0.666633  1
  Rh  Rh22  1  0.999946  0.247737  0.828773  1
  Rh  Rh23  1  0.999946  0.752265  0.828773  1
