# generated using pymatgen
data_Tb12Th4Mg4Fe3Ru
_symmetry_space_group_name_H-M   'P 1'
_cell_length_a   9.69968608
_cell_length_b   9.67104212
_cell_length_c   9.67104200
_cell_angle_alpha   60.00000042
_cell_angle_beta   60.09763955
_cell_angle_gamma   60.09764052
_symmetry_Int_Tables_number   1
_chemical_formula_structural   Tb12Th4Mg4Fe3Ru
_chemical_formula_sum   'Tb12 Th4 Mg4 Fe3 Ru1'
_cell_volume   642.43411733
_cell_formula_units_Z   1
loop_
 _symmetry_equiv_pos_site_id
 _symmetry_equiv_pos_as_xyz
  1  'x, y, z'
loop_
 _atom_site_type_symbol
 _atom_site_label
 _atom_site_symmetry_multiplicity
 _atom_site_fract_x
 _atom_site_fract_y
 _atom_site_fract_z
 _atom_site_occupancy
  Tb  Tb0  1  0.067381  0.437201  0.437201  1
  Tb  Tb1  1  0.436735  0.063463  0.063463  1
  Tb  Tb2  1  0.436735  0.063463  0.436340  1
  Tb  Tb3  1  0.067381  0.437201  0.058217  1
  Tb  Tb4  1  0.436735  0.436340  0.063463  1
  Tb  Tb5  1  0.067381  0.058217  0.437201  1
  Tb  Tb6  1  0.186304  0.813533  0.813533  1
  Tb  Tb7  1  0.813122  0.186907  0.186907  1
  Tb  Tb8  1  0.813122  0.186907  0.813063  1
  Tb  Tb9  1  0.186304  0.813533  0.186630  1
  Tb  Tb10  1  0.813122  0.813063  0.186907  1
  Tb  Tb11  1  0.186304  0.186630  0.813533  1
  Th  Th12  1  0.586423  0.596905  0.596905  1
  Th  Th13  1  0.586423  0.596905  0.219770  1
  Th  Th14  1  0.586423  0.219770  0.596905  1
  Th  Th15  1  0.223501  0.592167  0.592167  1
  Mg  Mg16  1  0.829412  0.829042  0.829042  1
  Mg  Mg17  1  0.829412  0.829042  0.512503  1
  Mg  Mg18  1  0.829412  0.512503  0.829042  1
  Mg  Mg19  1  0.511574  0.829475  0.829475  1
  Fe  Fe20  1  0.394803  0.394368  0.394368  1
  Fe  Fe21  1  0.394803  0.394368  0.816460  1
  Fe  Fe22  1  0.394803  0.816460  0.394368  1
  Ru  Ru23  1  0.822388  0.392537  0.392537  1
