# generated using pymatgen
data_DyLu5TcRh
_symmetry_space_group_name_H-M   'P 1'
_cell_length_a   6.19129400
_cell_length_b   7.25564300
_cell_length_c   9.00455500
_cell_angle_alpha   90.00000000
_cell_angle_beta   90.00000000
_cell_angle_gamma   90.00000000
_symmetry_Int_Tables_number   1
_chemical_formula_structural   DyLu5TcRh
_chemical_formula_sum   'Dy2 Lu10 Tc2 Rh2'
_cell_volume   404.50098963
_cell_formula_units_Z   2
loop_
 _symmetry_equiv_pos_site_id
 _symmetry_equiv_pos_as_xyz
  1  'x, y, z'
loop_
 _atom_site_type_symbol
 _atom_site_label
 _atom_site_symmetry_multiplicity
 _atom_site_fract_x
 _atom_site_fract_y
 _atom_site_fract_z
 _atom_site_occupancy
  Dy  Dy0  1  0.135822  0.459803  0.750000  1
  Dy  Dy1  1  0.364178  0.959803  0.750000  1
  Lu  Lu2  1  0.329368  0.677775  0.068001  1
  Lu  Lu3  1  0.170632  0.177775  0.431999  1
  Lu  Lu4  1  0.664839  0.322876  0.558646  1
  Lu  Lu5  1  0.835161  0.822876  0.941354  1
  Lu  Lu6  1  0.664839  0.322876  0.941354  1
  Lu  Lu7  1  0.835161  0.822876  0.558646  1
  Lu  Lu8  1  0.329368  0.677775  0.431999  1
  Lu  Lu9  1  0.170632  0.177775  0.068001  1
  Lu  Lu10  1  0.872482  0.538558  0.250000  1
  Lu  Lu11  1  0.627518  0.038558  0.250000  1
  Tc  Tc12  1  0.036711  0.886010  0.250000  1
  Tc  Tc13  1  0.463289  0.386010  0.250000  1
  Rh  Rh14  1  0.947217  0.114327  0.750000  1
  Rh  Rh15  1  0.552783  0.614327  0.750000  1
