# generated using pymatgen
data_NdYCdIrO7
_symmetry_space_group_name_H-M   'P 1'
_cell_length_a   6.44101113
_cell_length_b   6.63674928
_cell_length_c   7.57742800
_cell_angle_alpha   90.00000000
_cell_angle_beta   90.00000000
_cell_angle_gamma   111.60234277
_symmetry_Int_Tables_number   1
_chemical_formula_structural   NdYCdIrO7
_chemical_formula_sum   'Nd2 Y2 Cd2 Ir2 O14'
_cell_volume   301.16382695
_cell_formula_units_Z   2
loop_
 _symmetry_equiv_pos_site_id
 _symmetry_equiv_pos_as_xyz
  1  'x, y, z'
loop_
 _atom_site_type_symbol
 _atom_site_label
 _atom_site_symmetry_multiplicity
 _atom_site_fract_x
 _atom_site_fract_y
 _atom_site_fract_z
 _atom_site_occupancy
  Nd  Nd0  1  0.000000  0.000000  0.000000  1
  Nd  Nd1  1  0.000000  0.000000  0.500000  1
  Y  Y2  1  0.953991  0.489171  0.750000  1
  Y  Y3  1  0.046009  0.510829  0.250000  1
  Cd  Cd4  1  0.484683  0.983637  0.750000  1
  Cd  Cd5  1  0.515317  0.016363  0.250000  1
  Ir  Ir6  1  0.500000  0.500000  0.000000  1
  Ir  Ir7  1  0.500000  0.500000  0.500000  1
  O  O8  1  0.589503  0.504720  0.750000  1
  O  O9  1  0.410497  0.495280  0.250000  1
  O  O10  1  0.843724  0.126135  0.750000  1
  O  O11  1  0.156276  0.873865  0.250000  1
  O  O12  1  0.124403  0.853966  0.750000  1
  O  O13  1  0.875597  0.146034  0.250000  1
  O  O14  1  0.430646  0.194639  0.002329  1
  O  O15  1  0.569354  0.805361  0.502329  1
  O  O16  1  0.174698  0.429697  0.967354  1
  O  O17  1  0.825302  0.570303  0.467354  1
  O  O18  1  0.430646  0.194639  0.497671  1
  O  O19  1  0.569354  0.805361  0.997671  1
  O  O20  1  0.825302  0.570303  0.032646  1
  O  O21  1  0.174698  0.429697  0.532646  1
