# generated using pymatgen
data_Sm4CrGe3F28
_symmetry_space_group_name_H-M   'P 1'
_cell_length_a   5.50067536
_cell_length_b   8.90180547
_cell_length_c   11.91424200
_cell_angle_alpha   61.88267050
_cell_angle_beta   89.97919898
_cell_angle_gamma   90.01867809
_symmetry_Int_Tables_number   1
_chemical_formula_structural   Sm4CrGe3F28
_chemical_formula_sum   'Sm4 Cr1 Ge3 F28'
_cell_volume   514.54258048
_cell_formula_units_Z   1
loop_
 _symmetry_equiv_pos_site_id
 _symmetry_equiv_pos_as_xyz
  1  'x, y, z'
loop_
 _atom_site_type_symbol
 _atom_site_label
 _atom_site_symmetry_multiplicity
 _atom_site_fract_x
 _atom_site_fract_y
 _atom_site_fract_z
 _atom_site_occupancy
  Sm  Sm0  1  0.760616  0.808373  0.764875  1
  Sm  Sm1  1  0.260917  0.190541  0.736587  1
  Sm  Sm2  1  0.239065  0.190715  0.235698  1
  Sm  Sm3  1  0.738916  0.811230  0.263155  1
  Cr  Cr4  1  0.742679  0.274491  0.457754  1
  Ge  Ge5  1  0.757855  0.274857  0.957612  1
  Ge  Ge6  1  0.257788  0.725443  0.542256  1
  Ge  Ge7  1  0.242004  0.725249  0.042432  1
  F  F8  1  0.434077  0.707587  0.924074  1
  F  F9  1  0.933876  0.292047  0.579109  1
  F  F10  1  0.565264  0.292478  0.075515  1
  F  F11  1  0.064816  0.707973  0.424243  1
  F  F12  1  0.457689  0.282434  0.541125  1
  F  F13  1  0.964572  0.715351  0.959807  1
  F  F14  1  0.535001  0.715796  0.459439  1
  F  F15  1  0.034969  0.284672  0.040229  1
  F  F16  1  0.768605  0.506546  0.864396  1
  F  F17  1  0.268433  0.493784  0.635261  1
  F  F18  1  0.231102  0.493795  0.135592  1
  F  F19  1  0.731645  0.508985  0.363405  1
  F  F20  1  0.762629  0.042864  0.047311  1
  F  F21  1  0.262853  0.957215  0.452753  1
  F  F22  1  0.237334  0.956964  0.952567  1
  F  F23  1  0.738735  0.040750  0.547514  1
  F  F24  1  0.989560  0.729133  0.631707  1
  F  F25  1  0.489460  0.270958  0.868626  1
  F  F26  1  0.020291  0.270706  0.369540  1
  F  F27  1  0.510811  0.729275  0.131171  1
  F  F28  1  0.050914  0.739126  0.164215  1
  F  F29  1  0.552743  0.260064  0.332662  1
  F  F30  1  0.948632  0.261329  0.835866  1
  F  F31  1  0.449221  0.739167  0.664126  1
  F  F32  1  0.398068  0.966727  0.225963  1
  F  F33  1  0.898090  0.033407  0.274076  1
  F  F34  1  0.601022  0.032655  0.773344  1
  F  F35  1  0.099743  0.967310  0.726001  1
