# generated using pymatgen
data_Tm5In4AgRu
_symmetry_space_group_name_H-M   'P 1'
_cell_length_a   3.55886500
_cell_length_b   8.16238101
_cell_length_c   18.26946800
_cell_angle_alpha   90.26757002
_cell_angle_beta   90.00000000
_cell_angle_gamma   90.00000000
_symmetry_Int_Tables_number   1
_chemical_formula_structural   Tm5In4AgRu
_chemical_formula_sum   'Tm10 In8 Ag2 Ru2'
_cell_volume   530.70055567
_cell_formula_units_Z   2
loop_
 _symmetry_equiv_pos_site_id
 _symmetry_equiv_pos_as_xyz
  1  'x, y, z'
loop_
 _atom_site_type_symbol
 _atom_site_label
 _atom_site_symmetry_multiplicity
 _atom_site_fract_x
 _atom_site_fract_y
 _atom_site_fract_z
 _atom_site_occupancy
  Tm  Tm0  1  0.000000  0.500000  0.500000  1
  Tm  Tm1  1  0.000000  0.000000  0.000000  1
  Tm  Tm2  1  0.000000  0.768405  0.283194  1
  Tm  Tm3  1  0.000000  0.231595  0.716806  1
  Tm  Tm4  1  0.000000  0.781939  0.776378  1
  Tm  Tm5  1  0.000000  0.218061  0.223622  1
  Tm  Tm6  1  0.000000  0.623947  0.078225  1
  Tm  Tm7  1  0.000000  0.376053  0.921775  1
  Tm  Tm8  1  0.000000  0.881905  0.585242  1
  Tm  Tm9  1  0.000000  0.118095  0.414758  1
  In  In10  1  0.500000  0.708596  0.931167  1
  In  In11  1  0.500000  0.291404  0.068833  1
  In  In12  1  0.500000  0.793520  0.432283  1
  In  In13  1  0.500000  0.206480  0.567717  1
  In  In14  1  0.500000  0.576636  0.648115  1
  In  In15  1  0.500000  0.423364  0.351885  1
  In  In16  1  0.500000  0.923965  0.148646  1
  In  In17  1  0.500000  0.076035  0.851354  1
  Ag  Ag18  1  0.500000  0.523469  0.198700  1
  Ag  Ag19  1  0.500000  0.476531  0.801300  1
  Ru  Ru20  1  0.500000  0.974281  0.694427  1
  Ru  Ru21  1  0.500000  0.025719  0.305573  1
