# generated using pymatgen
data_Dy4Ho2Al21Si3Os8
_symmetry_space_group_name_H-M   'P 1'
_cell_length_a   8.72385100
_cell_length_b   8.72385021
_cell_length_c   9.65323100
_cell_angle_alpha   90.00141058
_cell_angle_beta   89.99859093
_cell_angle_gamma   120.00243525
_symmetry_Int_Tables_number   1
_chemical_formula_structural   Dy4Ho2Al21Si3Os8
_chemical_formula_sum   'Dy4 Ho2 Al21 Si3 Os8'
_cell_volume   636.22262926
_cell_formula_units_Z   1
loop_
 _symmetry_equiv_pos_site_id
 _symmetry_equiv_pos_as_xyz
  1  'x, y, z'
loop_
 _atom_site_type_symbol
 _atom_site_label
 _atom_site_symmetry_multiplicity
 _atom_site_fract_x
 _atom_site_fract_y
 _atom_site_fract_z
 _atom_site_occupancy
  Dy  Dy0  1  0.194879  0.389889  0.247592  1
  Dy  Dy1  1  0.804591  0.609036  0.752710  1
  Dy  Dy2  1  0.610111  0.805121  0.247592  1
  Dy  Dy3  1  0.390964  0.195409  0.752710  1
  Ho  Ho4  1  0.195150  0.804850  0.247512  1
  Ho  Ho5  1  0.804286  0.195714  0.752723  1
  Al  Al6  1  0.333271  0.666729  0.475810  1
  Al  Al7  1  0.164235  0.328580  0.574214  1
  Al  Al8  1  0.835076  0.670042  0.423678  1
  Al  Al9  1  0.671420  0.835765  0.574214  1
  Al  Al10  1  0.834925  0.669731  0.076602  1
  Al  Al11  1  0.329958  0.164924  0.423678  1
  Al  Al12  1  0.165449  0.331024  0.922824  1
  Al  Al13  1  0.164308  0.835692  0.574140  1
  Al  Al14  1  0.330269  0.165075  0.076602  1
  Al  Al15  1  0.834999  0.165001  0.423751  1
  Al  Al16  1  0.668976  0.834551  0.922824  1
  Al  Al17  1  0.834846  0.165154  0.076512  1
  Al  Al18  1  0.165531  0.834469  0.922905  1
  Al  Al19  1  0.563430  0.127018  0.248891  1
  Al  Al20  1  0.436901  0.873641  0.748833  1
  Al  Al21  1  0.872982  0.436570  0.248891  1
  Al  Al22  1  0.126359  0.563099  0.748833  1
  Al  Al23  1  0.563592  0.436408  0.248892  1
  Al  Al24  1  0.436735  0.563265  0.748835  1
  Al  Al25  1  0.000059  0.999941  0.248741  1
  Al  Al26  1  0.999942  0.000058  0.749374  1
  Si  Si27  1  0.333230  0.666770  0.039677  1
  Si  Si28  1  0.666768  0.333232  0.961706  1
  Si  Si29  1  0.666764  0.333236  0.539588  1
  Os  Os30  1  0.499973  0.999928  0.998924  1
  Os  Os31  1  0.000072  0.500027  0.998924  1
  Os  Os32  1  0.504298  0.008584  0.501524  1
  Os  Os33  1  0.499958  0.500042  0.998931  1
  Os  Os34  1  0.991416  0.495702  0.501524  1
  Os  Os35  1  0.504284  0.495716  0.501500  1
  Os  Os36  1  0.999994  0.000006  0.998769  1
  Os  Os37  1  0.000001  0.999999  0.499050  1
