# generated using pymatgen
data_Er8Sc12Si15Se
_symmetry_space_group_name_H-M   'P 1'
_cell_length_a   7.12737170
_cell_length_b   7.32228912
_cell_length_c   13.91467341
_cell_angle_alpha   89.89290464
_cell_angle_beta   88.12905769
_cell_angle_gamma   90.08695375
_symmetry_Int_Tables_number   1
_chemical_formula_structural   Er8Sc12Si15Se
_chemical_formula_sum   'Er8 Sc12 Si15 Se1'
_cell_volume   725.79908261
_cell_formula_units_Z   1
loop_
 _symmetry_equiv_pos_site_id
 _symmetry_equiv_pos_as_xyz
  1  'x, y, z'
loop_
 _atom_site_type_symbol
 _atom_site_label
 _atom_site_symmetry_multiplicity
 _atom_site_fract_x
 _atom_site_fract_y
 _atom_site_fract_z
 _atom_site_occupancy
  Er  Er0  1  0.010390  0.176629  0.097045  1
  Er  Er1  1  0.990029  0.824600  0.902654  1
  Er  Er2  1  0.490222  0.676848  0.902987  1
  Er  Er3  1  0.999490  0.825373  0.596486  1
  Er  Er4  1  0.510054  0.324070  0.097073  1
  Er  Er5  1  0.994900  0.174307  0.401779  1
  Er  Er6  1  0.500023  0.316412  0.400977  1
  Er  Er7  1  0.509883  0.683037  0.598829  1
  Sc  Sc8  1  0.169230  0.501254  0.752348  1
  Sc  Sc9  1  0.830436  0.498342  0.253272  1
  Sc  Sc10  1  0.329188  0.000976  0.251764  1
  Sc  Sc11  1  0.670853  0.998828  0.748825  1
  Sc  Sc12  1  0.351499  0.165990  0.626383  1
  Sc  Sc13  1  0.650048  0.829494  0.374642  1
  Sc  Sc14  1  0.149029  0.669858  0.377238  1
  Sc  Sc15  1  0.665190  0.822961  0.125336  1
  Sc  Sc16  1  0.845741  0.331796  0.621689  1
  Sc  Sc17  1  0.333997  0.176387  0.873889  1
  Sc  Sc18  1  0.834771  0.323850  0.873995  1
  Sc  Sc19  1  0.165335  0.676540  0.125363  1
  Si  Si20  1  0.042366  0.117413  0.748559  1
  Si  Si21  1  0.956782  0.883471  0.249619  1
  Si  Si22  1  0.455156  0.614637  0.249750  1
  Si  Si23  1  0.543152  0.385695  0.749433  1
  Si  Si24  1  0.293622  0.868540  0.750523  1
  Si  Si25  1  0.706753  0.128469  0.248172  1
  Si  Si26  1  0.205859  0.370913  0.249678  1
  Si  Si27  1  0.796964  0.630274  0.750321  1
  Si  Si28  1  0.799875  0.539438  0.457287  1
  Si  Si29  1  0.314447  0.960500  0.460332  1
  Si  Si30  1  0.841757  0.534623  0.039187  1
  Si  Si31  1  0.683080  0.039981  0.540631  1
  Si  Si32  1  0.157584  0.466409  0.960402  1
  Si  Si33  1  0.657349  0.035028  0.959801  1
  Si  Si34  1  0.342015  0.966189  0.039875  1
  Se  Se35  1  0.202930  0.460865  0.543855  1
