# generated using pymatgen
data_Y2Cr3Re14C3
_symmetry_space_group_name_H-M   'P 1'
_cell_length_a   6.95170847
_cell_length_b   6.95170869
_cell_length_c   6.95170934
_cell_angle_alpha   82.56912676
_cell_angle_beta   82.56912755
_cell_angle_gamma   82.56911585
_symmetry_Int_Tables_number   1
_chemical_formula_structural   Y2Cr3Re14C3
_chemical_formula_sum   'Y2 Cr3 Re14 C3'
_cell_volume   328.15763986
_cell_formula_units_Z   1
loop_
 _symmetry_equiv_pos_site_id
 _symmetry_equiv_pos_as_xyz
  1  'x, y, z'
loop_
 _atom_site_type_symbol
 _atom_site_label
 _atom_site_symmetry_multiplicity
 _atom_site_fract_x
 _atom_site_fract_y
 _atom_site_fract_z
 _atom_site_occupancy
  Y  Y0  1  0.649021  0.649021  0.649021  1
  Y  Y1  1  0.350979  0.350979  0.350979  1
  Cr  Cr2  1  0.000000  0.000000  0.500000  1
  Cr  Cr3  1  0.500000  0.000000  0.000000  1
  Cr  Cr4  1  0.000000  0.500000  0.000000  1
  Re  Re5  1  0.721114  0.278886  0.000000  1
  Re  Re6  1  0.000000  0.721114  0.278886  1
  Re  Re7  1  0.278886  0.000000  0.721114  1
  Re  Re8  1  0.000000  0.278886  0.721114  1
  Re  Re9  1  0.721114  0.000000  0.278886  1
  Re  Re10  1  0.278886  0.721114  0.000000  1
  Re  Re11  1  0.345431  0.345431  0.863173  1
  Re  Re12  1  0.863173  0.345431  0.345431  1
  Re  Re13  1  0.345431  0.863173  0.345431  1
  Re  Re14  1  0.654569  0.654569  0.136827  1
  Re  Re15  1  0.136827  0.654569  0.654569  1
  Re  Re16  1  0.654569  0.136827  0.654569  1
  Re  Re17  1  0.900122  0.900122  0.900122  1
  Re  Re18  1  0.099878  0.099878  0.099878  1
  C  C19  1  0.500000  0.500000  0.000000  1
  C  C20  1  0.000000  0.500000  0.500000  1
  C  C21  1  0.500000  0.000000  0.500000  1
