# generated using pymatgen
data_TbNdDy2(WO6)2
_symmetry_space_group_name_H-M   'P 1'
_cell_length_a   5.45548700
_cell_length_b   7.77794342
_cell_length_c   11.56670199
_cell_angle_alpha   75.60800616
_cell_angle_beta   90.00000000
_cell_angle_gamma   90.00000000
_symmetry_Int_Tables_number   1
_chemical_formula_structural   TbNdDy2(WO6)2
_chemical_formula_sum   'Tb2 Nd2 Dy4 W4 O24'
_cell_volume   475.40127535
_cell_formula_units_Z   2
loop_
 _symmetry_equiv_pos_site_id
 _symmetry_equiv_pos_as_xyz
  1  'x, y, z'
loop_
 _atom_site_type_symbol
 _atom_site_label
 _atom_site_symmetry_multiplicity
 _atom_site_fract_x
 _atom_site_fract_y
 _atom_site_fract_z
 _atom_site_occupancy
  Tb  Tb0  1  0.740611  0.000000  0.750000  1
  Tb  Tb1  1  0.259389  0.000000  0.250000  1
  Nd  Nd2  1  0.685229  0.500000  0.750000  1
  Nd  Nd3  1  0.314771  0.500000  0.250000  1
  Dy  Dy4  1  0.187541  0.797596  0.576906  1
  Dy  Dy5  1  0.812459  0.797596  0.076906  1
  Dy  Dy6  1  0.187541  0.202404  0.923094  1
  Dy  Dy7  1  0.812459  0.202404  0.423094  1
  W  W8  1  0.253152  0.726687  0.884846  1
  W  W9  1  0.746848  0.726687  0.384846  1
  W  W10  1  0.253152  0.273313  0.615154  1
  W  W11  1  0.746848  0.273313  0.115154  1
  O  O12  1  0.041646  0.940452  0.896070  1
  O  O13  1  0.529791  0.847448  0.930853  1
  O  O14  1  0.958354  0.940452  0.396070  1
  O  O15  1  0.455829  0.792802  0.727926  1
  O  O16  1  0.470209  0.847448  0.430853  1
  O  O17  1  0.986696  0.717521  0.770160  1
  O  O18  1  0.544171  0.792802  0.227926  1
  O  O19  1  0.854756  0.640719  0.545646  1
  O  O20  1  0.351272  0.493194  0.887857  1
  O  O21  1  0.013304  0.717521  0.270160  1
  O  O22  1  0.351272  0.506806  0.612143  1
  O  O23  1  0.854756  0.359281  0.954354  1
  O  O24  1  0.145244  0.640719  0.045646  1
  O  O25  1  0.648728  0.493194  0.387857  1
  O  O26  1  0.986696  0.282479  0.729840  1
  O  O27  1  0.648728  0.506806  0.112143  1
  O  O28  1  0.145244  0.359281  0.454354  1
  O  O29  1  0.455829  0.207198  0.772074  1
  O  O30  1  0.013304  0.282479  0.229840  1
  O  O31  1  0.529791  0.152552  0.569147  1
  O  O32  1  0.544171  0.207198  0.272074  1
  O  O33  1  0.041646  0.059548  0.603930  1
  O  O34  1  0.470209  0.152552  0.069147  1
  O  O35  1  0.958354  0.059548  0.103930  1
