# generated using pymatgen
data_Hf5Zr5Ga2(BiPb2)2
_symmetry_space_group_name_H-M   'P 1'
_cell_length_a   8.83278507
_cell_length_b   8.84095616
_cell_length_c   5.92500800
_cell_angle_alpha   90.00000000
_cell_angle_beta   90.00000000
_cell_angle_gamma   120.01834692
_symmetry_Int_Tables_number   1
_chemical_formula_structural   Hf5Zr5Ga2(BiPb2)2
_chemical_formula_sum   'Hf5 Zr5 Ga2 Bi2 Pb4'
_cell_volume   400.62325223
_cell_formula_units_Z   1
loop_
 _symmetry_equiv_pos_site_id
 _symmetry_equiv_pos_as_xyz
  1  'x, y, z'
loop_
 _atom_site_type_symbol
 _atom_site_label
 _atom_site_symmetry_multiplicity
 _atom_site_fract_x
 _atom_site_fract_y
 _atom_site_fract_z
 _atom_site_occupancy
  Hf  Hf0  1  0.667209  0.333962  0.000762  1
  Hf  Hf1  1  0.333161  0.666826  0.001032  1
  Hf  Hf2  1  0.333161  0.666826  0.498968  1
  Hf  Hf3  1  0.667209  0.333962  0.499238  1
  Hf  Hf4  1  0.735958  0.734617  0.750000  1
  Zr  Zr5  1  0.265234  0.999803  0.750000  1
  Zr  Zr6  1  0.001055  0.265589  0.750000  1
  Zr  Zr7  1  0.263950  0.263241  0.250000  1
  Zr  Zr8  1  0.735370  0.998664  0.250000  1
  Zr  Zr9  1  0.998905  0.735615  0.250000  1
  Ga  Ga10  1  0.999258  0.998933  0.999119  1
  Ga  Ga11  1  0.999258  0.998933  0.500881  1
  Bi  Bi12  1  0.391006  0.390939  0.750000  1
  Bi  Bi13  1  0.610273  0.999713  0.750000  1
  Pb  Pb14  1  0.999904  0.612331  0.750000  1
  Pb  Pb15  1  0.611187  0.610918  0.250000  1
  Pb  Pb16  1  0.388063  0.999559  0.250000  1
  Pb  Pb17  1  0.999838  0.389570  0.250000  1
