# generated using pymatgen
data_Dy5Sc3P12(IrRh)8
_symmetry_space_group_name_H-M   'P 1'
_cell_length_a   12.86739492
_cell_length_b   12.86453605
_cell_length_c   3.94338700
_cell_angle_alpha   90.00000000
_cell_angle_beta   90.00000000
_cell_angle_gamma   119.94482067
_symmetry_Int_Tables_number   1
_chemical_formula_structural   Dy5Sc3P12(IrRh)8
_chemical_formula_sum   'Dy5 Sc3 P12 Ir8 Rh8'
_cell_volume   565.62161823
_cell_formula_units_Z   1
loop_
 _symmetry_equiv_pos_site_id
 _symmetry_equiv_pos_as_xyz
  1  'x, y, z'
loop_
 _atom_site_type_symbol
 _atom_site_label
 _atom_site_symmetry_multiplicity
 _atom_site_fract_x
 _atom_site_fract_y
 _atom_site_fract_z
 _atom_site_occupancy
  Dy  Dy0  1  0.333500  0.666765  0.500000  1
  Dy  Dy1  1  0.666690  0.333322  0.500000  1
  Dy  Dy2  1  0.000003  0.811213  0.000000  1
  Dy  Dy3  1  0.188639  0.188557  0.000000  1
  Dy  Dy4  1  0.810964  0.999668  0.000000  1
  Sc  Sc5  1  0.000079  0.444627  0.500000  1
  Sc  Sc6  1  0.555558  0.556131  0.500000  1
  Sc  Sc7  1  0.443839  0.999232  0.500000  1
  P  P8  1  0.999594  0.645470  0.500000  1
  P  P9  1  0.354520  0.354405  0.500000  1
  P  P10  1  0.645620  0.000411  0.500000  1
  P  P11  1  0.517147  0.687331  0.000000  1
  P  P12  1  0.312721  0.829707  0.000000  1
  P  P13  1  0.170696  0.483025  0.000000  1
  P  P14  1  0.482775  0.170656  0.000000  1
  P  P15  1  0.687775  0.517249  0.000000  1
  P  P16  1  0.829184  0.312187  0.000000  1
  P  P17  1  0.000084  0.177022  0.500000  1
  P  P18  1  0.822843  0.822675  0.500000  1
  P  P19  1  0.177327  0.000244  0.500000  1
  Ir  Ir20  1  0.999985  0.277535  0.000000  1
  Ir  Ir21  1  0.722065  0.722546  0.000000  1
  Ir  Ir22  1  0.277532  0.999458  0.000000  1
  Ir  Ir23  1  0.179078  0.373691  0.500000  1
  Ir  Ir24  1  0.373656  0.179104  0.500000  1
  Ir  Ir25  1  0.805035  0.626011  0.500000  1
  Ir  Ir26  1  0.820877  0.194799  0.500000  1
  Ir  Ir27  1  0.999863  0.999956  0.500000  1
  Rh  Rh28  1  0.513173  0.870100  0.000000  1
  Rh  Rh29  1  0.130138  0.642622  0.000000  1
  Rh  Rh30  1  0.357490  0.487845  0.000000  1
  Rh  Rh31  1  0.488558  0.358198  0.000000  1
  Rh  Rh32  1  0.869924  0.511851  0.000000  1
  Rh  Rh33  1  0.641868  0.129954  0.000000  1
  Rh  Rh34  1  0.626497  0.805418  0.500000  1
  Rh  Rh35  1  0.194704  0.821016  0.500000  1
