# generated using pymatgen
data_LaAl2IrPt
_symmetry_space_group_name_H-M   'P 1'
_cell_length_a   4.34406800
_cell_length_b   4.34406800
_cell_length_c   10.27045500
_cell_angle_alpha   90.00000000
_cell_angle_beta   90.00000000
_cell_angle_gamma   90.00000000
_symmetry_Int_Tables_number   1
_chemical_formula_structural   LaAl2IrPt
_chemical_formula_sum   'La2 Al4 Ir2 Pt2'
_cell_volume   193.81300439
_cell_formula_units_Z   2
loop_
 _symmetry_equiv_pos_site_id
 _symmetry_equiv_pos_as_xyz
  1  'x, y, z'
loop_
 _atom_site_type_symbol
 _atom_site_label
 _atom_site_symmetry_multiplicity
 _atom_site_fract_x
 _atom_site_fract_y
 _atom_site_fract_z
 _atom_site_occupancy
  La  La0  1  0.000000  0.500000  0.238149  1
  La  La1  1  0.500000  0.000000  0.761851  1
  Al  Al2  1  0.000000  0.000000  0.500000  1
  Al  Al3  1  0.500000  0.500000  0.500000  1
  Al  Al4  1  0.000000  0.500000  0.880595  1
  Al  Al5  1  0.500000  0.000000  0.119405  1
  Ir  Ir6  1  0.000000  0.000000  0.000000  1
  Ir  Ir7  1  0.500000  0.500000  0.000000  1
  Pt  Pt8  1  0.000000  0.500000  0.632390  1
  Pt  Pt9  1  0.500000  0.000000  0.367610  1
