# generated using pymatgen
data_Dy10CuBi6As
_symmetry_space_group_name_H-M   'P 1'
_cell_length_a   9.34542204
_cell_length_b   9.34542486
_cell_length_c   6.43797701
_cell_angle_alpha   90.00017715
_cell_angle_beta   89.99980403
_cell_angle_gamma   119.99995468
_symmetry_Int_Tables_number   1
_chemical_formula_structural   Dy10CuBi6As
_chemical_formula_sum   'Dy10 Cu1 Bi6 As1'
_cell_volume   486.94310429
_cell_formula_units_Z   1
loop_
 _symmetry_equiv_pos_site_id
 _symmetry_equiv_pos_as_xyz
  1  'x, y, z'
loop_
 _atom_site_type_symbol
 _atom_site_label
 _atom_site_symmetry_multiplicity
 _atom_site_fract_x
 _atom_site_fract_y
 _atom_site_fract_z
 _atom_site_occupancy
  Dy  Dy0  1  0.251945  0.000002  0.251211  1
  Dy  Dy1  1  0.748055  0.999998  0.748789  1
  Dy  Dy2  1  0.000002  0.251945  0.251212  1
  Dy  Dy3  1  0.999998  0.748055  0.748788  1
  Dy  Dy4  1  0.748054  0.748054  0.251207  1
  Dy  Dy5  1  0.251946  0.251946  0.748793  1
  Dy  Dy6  1  0.333330  0.666668  0.000000  1
  Dy  Dy7  1  0.666670  0.333332  0.000000  1
  Dy  Dy8  1  0.666668  0.333332  0.500000  1
  Dy  Dy9  1  0.333332  0.666668  0.500000  1
  Cu  Cu10  1  0.000000  0.000000  0.500000  1
  Bi  Bi11  1  0.609991  0.999999  0.251437  1
  Bi  Bi12  1  0.390009  0.000001  0.748563  1
  Bi  Bi13  1  0.999999  0.609991  0.251437  1
  Bi  Bi14  1  0.000001  0.390009  0.748563  1
  Bi  Bi15  1  0.390012  0.390010  0.251440  1
  Bi  Bi16  1  0.609988  0.609990  0.748560  1
  As  As17  1  0.000000  0.000000  0.000000  1
