# generated using pymatgen
data_NpFe4CoO8
_symmetry_space_group_name_H-M   'P 1'
_cell_length_a   6.28891926
_cell_length_b   6.26458100
_cell_length_c   6.32101280
_cell_angle_alpha   58.99067679
_cell_angle_beta   58.87484928
_cell_angle_gamma   59.48813259
_symmetry_Int_Tables_number   1
_chemical_formula_structural   NpFe4CoO8
_chemical_formula_sum   'Np1 Fe4 Co1 O8'
_cell_volume   172.53976019
_cell_formula_units_Z   1
loop_
 _symmetry_equiv_pos_site_id
 _symmetry_equiv_pos_as_xyz
  1  'x, y, z'
loop_
 _atom_site_type_symbol
 _atom_site_label
 _atom_site_symmetry_multiplicity
 _atom_site_fract_x
 _atom_site_fract_y
 _atom_site_fract_z
 _atom_site_occupancy
  Np  Np0  1  0.999824  0.999270  0.999635  1
  Fe  Fe1  1  0.635756  0.644385  0.637673  1
  Fe  Fe2  1  0.499645  0.000447  0.000361  1
  Fe  Fe3  1  0.000274  0.000124  0.500158  1
  Fe  Fe4  1  0.000634  0.498687  0.001251  1
  Co  Co5  1  0.364406  0.364644  0.359542  1
  O  O6  1  0.232895  0.757061  0.766923  1
  O  O7  1  0.760157  0.761783  0.237978  1
  O  O8  1  0.766921  0.234937  0.765768  1
  O  O9  1  0.769057  0.763933  0.772299  1
  O  O10  1  0.761485  0.242049  0.234008  1
  O  O11  1  0.240134  0.237246  0.755742  1
  O  O12  1  0.234646  0.760688  0.236501  1
  O  O13  1  0.234166  0.234746  0.232163  1
