# generated using pymatgen
data_YAg6CO11
_symmetry_space_group_name_H-M   'P 1'
_cell_length_a   7.09767429
_cell_length_b   7.09767424
_cell_length_c   7.09767451
_cell_angle_alpha   60.99882699
_cell_angle_beta   60.99882673
_cell_angle_gamma   60.99882100
_symmetry_Int_Tables_number   1
_chemical_formula_structural   YAg6CO11
_chemical_formula_sum   'Y1 Ag6 C1 O11'
_cell_volume   258.52105846
_cell_formula_units_Z   1
loop_
 _symmetry_equiv_pos_site_id
 _symmetry_equiv_pos_as_xyz
  1  'x, y, z'
loop_
 _atom_site_type_symbol
 _atom_site_label
 _atom_site_symmetry_multiplicity
 _atom_site_fract_x
 _atom_site_fract_y
 _atom_site_fract_z
 _atom_site_occupancy
  Y  Y0  1  0.998954  0.998954  0.998954  1
  Ag  Ag1  1  0.499411  0.000474  0.000474  1
  Ag  Ag2  1  0.500387  0.500387  0.000712  1
  Ag  Ag3  1  0.500387  0.000712  0.500387  1
  Ag  Ag4  1  0.000474  0.000474  0.499411  1
  Ag  Ag5  1  0.000712  0.500387  0.500387  1
  Ag  Ag6  1  0.000474  0.499411  0.000474  1
  C  C7  1  0.499891  0.499891  0.499891  1
  O  O8  1  0.586801  0.142550  0.142550  1
  O  O9  1  0.142550  0.586801  0.142550  1
  O  O10  1  0.138131  0.138131  0.138131  1
  O  O11  1  0.142550  0.142550  0.586801  1
  O  O12  1  0.603219  0.603219  0.293148  1
  O  O13  1  0.603219  0.293148  0.603219  1
  O  O14  1  0.293148  0.603219  0.603219  1
  O  O15  1  0.858719  0.858719  0.410727  1
  O  O16  1  0.858719  0.410727  0.858719  1
  O  O17  1  0.861530  0.861530  0.861530  1
  O  O18  1  0.410727  0.858719  0.858719  1
