# generated using pymatgen
data_Re2MoO6
_symmetry_space_group_name_H-M   'P 1'
_cell_length_a   4.88152100
_cell_length_b   5.68870905
_cell_length_c   7.58731245
_cell_angle_alpha   82.77496013
_cell_angle_beta   90.00000000
_cell_angle_gamma   90.00000000
_symmetry_Int_Tables_number   1
_chemical_formula_structural   Re2MoO6
_chemical_formula_sum   'Re4 Mo2 O12'
_cell_volume   209.02330911
_cell_formula_units_Z   2
loop_
 _symmetry_equiv_pos_site_id
 _symmetry_equiv_pos_as_xyz
  1  'x, y, z'
loop_
 _atom_site_type_symbol
 _atom_site_label
 _atom_site_symmetry_multiplicity
 _atom_site_fract_x
 _atom_site_fract_y
 _atom_site_fract_z
 _atom_site_occupancy
  Re  Re0  1  0.990327  0.127189  0.851020  1
  Re  Re1  1  0.009673  0.872811  0.148980  1
  Re  Re2  1  0.509673  0.627189  0.851020  1
  Re  Re3  1  0.490327  0.372811  0.148980  1
  Mo  Mo4  1  0.500000  0.000000  0.500000  1
  Mo  Mo5  1  0.000000  0.500000  0.500000  1
  O  O6  1  0.326072  0.672758  0.619059  1
  O  O7  1  0.230328  0.841206  0.930458  1
  O  O8  1  0.215040  0.579472  0.246468  1
  O  O9  1  0.826072  0.827242  0.380941  1
  O  O10  1  0.715040  0.920528  0.753532  1
  O  O11  1  0.784960  0.420528  0.753532  1
  O  O12  1  0.673928  0.327242  0.380941  1
  O  O13  1  0.284960  0.079472  0.246468  1
  O  O14  1  0.269672  0.341206  0.930458  1
  O  O15  1  0.173928  0.172758  0.619059  1
  O  O16  1  0.769672  0.158794  0.069542  1
  O  O17  1  0.730328  0.658794  0.069542  1
