# generated using pymatgen
data_Nb2Mo2Pb4O13
_symmetry_space_group_name_H-M   'P 1'
_cell_length_a   7.57978764
_cell_length_b   7.57978820
_cell_length_c   7.57978790
_cell_angle_alpha   119.30121428
_cell_angle_beta   120.64575800
_cell_angle_gamma   90.04987235
_symmetry_Int_Tables_number   1
_chemical_formula_structural   Nb2Mo2Pb4O13
_chemical_formula_sum   'Nb2 Mo2 Pb4 O13'
_cell_volume   308.00326726
_cell_formula_units_Z   1
loop_
 _symmetry_equiv_pos_site_id
 _symmetry_equiv_pos_as_xyz
  1  'x, y, z'
loop_
 _atom_site_type_symbol
 _atom_site_label
 _atom_site_symmetry_multiplicity
 _atom_site_fract_x
 _atom_site_fract_y
 _atom_site_fract_z
 _atom_site_occupancy
  Nb  Nb0  1  0.749472  0.999063  0.249591  1
  Nb  Nb1  1  0.749472  0.499881  0.750409  1
  Mo  Mo2  1  0.250572  0.499971  0.750600  1
  Mo  Mo3  1  0.749371  0.499971  0.249400  1
  Pb  Pb4  1  0.752330  0.000393  0.751936  1
  Pb  Pb5  1  0.248457  0.000393  0.248064  1
  Pb  Pb6  1  0.250334  0.502024  0.251689  1
  Pb  Pb7  1  0.250334  0.998645  0.748311  1
  O  O8  1  0.076600  0.576600  0.500000  1
  O  O9  1  0.682601  0.182601  0.500000  1
  O  O10  1  0.069488  0.172798  0.493642  1
  O  O11  1  0.679157  0.575846  0.506358  1
  O  O12  1  0.679157  0.172798  0.103311  1
  O  O13  1  0.069488  0.575846  0.896689  1
  O  O14  1  0.425903  0.425903  0.000000  1
  O  O15  1  0.814423  0.814423  0.000000  1
  O  O16  1  0.433631  0.823337  0.006594  1
  O  O17  1  0.816741  0.427037  0.993406  1
  O  O18  1  0.816741  0.823337  0.389705  1
  O  O19  1  0.433631  0.427037  0.610295  1
  O  O20  1  0.377093  0.877093  0.500000  1
