# generated using pymatgen
data_La3Ho(MoN3)4
_symmetry_space_group_name_H-M   'P 1'
_cell_length_a   7.32979237
_cell_length_b   7.32979211
_cell_length_c   6.25800200
_cell_angle_alpha   76.15714749
_cell_angle_beta   76.15714800
_cell_angle_gamma   83.86591604
_symmetry_Int_Tables_number   1
_chemical_formula_structural   La3Ho(MoN3)4
_chemical_formula_sum   'La3 Ho1 Mo4 N12'
_cell_volume   316.53054551
_cell_formula_units_Z   1
loop_
 _symmetry_equiv_pos_site_id
 _symmetry_equiv_pos_as_xyz
  1  'x, y, z'
loop_
 _atom_site_type_symbol
 _atom_site_label
 _atom_site_symmetry_multiplicity
 _atom_site_fract_x
 _atom_site_fract_y
 _atom_site_fract_z
 _atom_site_occupancy
  La  La0  1  0.687533  0.312467  0.250000  1
  La  La1  1  0.087270  0.912730  0.250000  1
  La  La2  1  0.315021  0.684979  0.750000  1
  Ho  Ho3  1  0.908994  0.091006  0.750000  1
  Mo  Mo4  1  0.802076  0.619439  0.747320  1
  Mo  Mo5  1  0.197922  0.378801  0.260774  1
  Mo  Mo6  1  0.621199  0.802078  0.239226  1
  Mo  Mo7  1  0.380561  0.197924  0.752680  1
  N  N8  1  0.216057  0.005928  0.839599  1
  N  N9  1  0.342645  0.378696  0.487779  1
  N  N10  1  0.673379  0.633112  0.503642  1
  N  N11  1  0.616635  0.111359  0.659485  1
  N  N12  1  0.994072  0.783943  0.660401  1
  N  N13  1  0.777920  0.001389  0.134750  1
  N  N14  1  0.113750  0.610474  0.148510  1
  N  N15  1  0.888641  0.383365  0.840515  1
  N  N16  1  0.998611  0.222080  0.365250  1
  N  N17  1  0.366888  0.326621  0.996358  1
  N  N18  1  0.621304  0.657355  0.012221  1
  N  N19  1  0.389526  0.886250  0.351490  1
