# generated using pymatgen
data_Tb3GdHo2C3Cl5
_symmetry_space_group_name_H-M   'P 1'
_cell_length_a   3.67103930
_cell_length_b   8.35961290
_cell_length_c   10.38140158
_cell_angle_alpha   85.42910359
_cell_angle_beta   79.76069963
_cell_angle_gamma   77.32767865
_symmetry_Int_Tables_number   1
_chemical_formula_structural   Tb3GdHo2C3Cl5
_chemical_formula_sum   'Tb3 Gd1 Ho2 C3 Cl5'
_cell_volume   305.60347375
_cell_formula_units_Z   1
loop_
 _symmetry_equiv_pos_site_id
 _symmetry_equiv_pos_as_xyz
  1  'x, y, z'
loop_
 _atom_site_type_symbol
 _atom_site_label
 _atom_site_symmetry_multiplicity
 _atom_site_fract_x
 _atom_site_fract_y
 _atom_site_fract_z
 _atom_site_occupancy
  Tb  Tb0  1  0.575072  0.072843  0.778706  1
  Tb  Tb1  1  0.958635  0.429542  0.656270  1
  Tb  Tb2  1  0.683874  0.179601  0.455384  1
  Gd  Gd3  1  0.431226  0.923677  0.218819  1
  Ho  Ho4  1  0.044743  0.569681  0.344570  1
  Ho  Ho5  1  0.321905  0.818524  0.541571  1
  C  C6  1  0.128814  0.121114  0.624078  1
  C  C7  1  0.878020  0.873703  0.374188  1
  C  C8  1  0.501203  0.502045  0.498803  1
  Cl  Cl9  1  0.755278  0.745643  0.749630  1
  Cl  Cl10  1  0.380156  0.378753  0.864554  1
  Cl  Cl11  1  0.249215  0.255267  0.247781  1
  Cl  Cl12  1  0.625276  0.614187  0.138344  1
  Cl  Cl13  1  0.003803  0.999009  0.996617  1
