# generated using pymatgen
data_Dy3AlAg2C
_symmetry_space_group_name_H-M   'P 1'
_cell_length_a   9.19906030
_cell_length_b   9.19905971
_cell_length_c   9.19906000
_cell_angle_alpha   59.99999897
_cell_angle_beta   60.00000109
_cell_angle_gamma   60.00000484
_symmetry_Int_Tables_number   1
_chemical_formula_structural   Dy3AlAg2C
_chemical_formula_sum   'Dy12 Al4 Ag8 C4'
_cell_volume   550.44682818
_cell_formula_units_Z   4
loop_
 _symmetry_equiv_pos_site_id
 _symmetry_equiv_pos_as_xyz
  1  'x, y, z'
loop_
 _atom_site_type_symbol
 _atom_site_label
 _atom_site_symmetry_multiplicity
 _atom_site_fract_x
 _atom_site_fract_y
 _atom_site_fract_z
 _atom_site_occupancy
  Dy  Dy0  1  0.445441  0.445441  0.054559  1
  Dy  Dy1  1  0.054559  0.445441  0.054559  1
  Dy  Dy2  1  0.445441  0.054559  0.054559  1
  Dy  Dy3  1  0.054559  0.054559  0.445441  1
  Dy  Dy4  1  0.445441  0.054559  0.445441  1
  Dy  Dy5  1  0.054559  0.445441  0.445441  1
  Dy  Dy6  1  0.804559  0.804559  0.195441  1
  Dy  Dy7  1  0.195441  0.804559  0.195441  1
  Dy  Dy8  1  0.804559  0.195441  0.195441  1
  Dy  Dy9  1  0.195441  0.195441  0.804559  1
  Dy  Dy10  1  0.804559  0.195441  0.804559  1
  Dy  Dy11  1  0.195441  0.804559  0.804559  1
  Al  Al12  1  0.625000  0.625000  0.125000  1
  Al  Al13  1  0.625000  0.125000  0.625000  1
  Al  Al14  1  0.125000  0.625000  0.625000  1
  Al  Al15  1  0.625000  0.625000  0.625000  1
  Ag  Ag16  1  0.831531  0.831531  0.505409  1
  Ag  Ag17  1  0.831531  0.505409  0.831531  1
  Ag  Ag18  1  0.505409  0.831531  0.831531  1
  Ag  Ag19  1  0.831531  0.831531  0.831531  1
  Ag  Ag20  1  0.418469  0.418469  0.744591  1
  Ag  Ag21  1  0.418469  0.744591  0.418469  1
  Ag  Ag22  1  0.744591  0.418469  0.418469  1
  Ag  Ag23  1  0.418469  0.418469  0.418469  1
  C  C24  1  0.125000  0.125000  0.625000  1
  C  C25  1  0.125000  0.625000  0.125000  1
  C  C26  1  0.625000  0.125000  0.125000  1
  C  C27  1  0.125000  0.125000  0.125000  1
