# generated using pymatgen
data_Hf16Tc3Ni4Os
_symmetry_space_group_name_H-M   'P 1'
_cell_length_a   8.62886070
_cell_length_b   8.62886031
_cell_length_c   8.62886103
_cell_angle_alpha   60.05196786
_cell_angle_beta   60.05196574
_cell_angle_gamma   60.05197144
_symmetry_Int_Tables_number   1
_chemical_formula_structural   Hf16Tc3Ni4Os
_chemical_formula_sum   'Hf16 Tc3 Ni4 Os1'
_cell_volume   454.83786535
_cell_formula_units_Z   1
loop_
 _symmetry_equiv_pos_site_id
 _symmetry_equiv_pos_as_xyz
  1  'x, y, z'
loop_
 _atom_site_type_symbol
 _atom_site_label
 _atom_site_symmetry_multiplicity
 _atom_site_fract_x
 _atom_site_fract_y
 _atom_site_fract_z
 _atom_site_occupancy
  Hf  Hf0  1  0.678142  0.107988  0.107988  1
  Hf  Hf1  1  0.107988  0.678142  0.107988  1
  Hf  Hf2  1  0.107988  0.107988  0.678142  1
  Hf  Hf3  1  0.105585  0.105585  0.105585  1
  Hf  Hf4  1  0.316081  0.316081  0.685412  1
  Hf  Hf5  1  0.683999  0.683999  0.316305  1
  Hf  Hf6  1  0.316081  0.685412  0.316081  1
  Hf  Hf7  1  0.683999  0.316305  0.683999  1
  Hf  Hf8  1  0.685412  0.316081  0.316081  1
  Hf  Hf9  1  0.316305  0.683999  0.683999  1
  Hf  Hf10  1  0.950481  0.950481  0.548923  1
  Hf  Hf11  1  0.550000  0.550000  0.950859  1
  Hf  Hf12  1  0.950481  0.548923  0.950481  1
  Hf  Hf13  1  0.550000  0.950859  0.550000  1
  Hf  Hf14  1  0.548923  0.950481  0.950481  1
  Hf  Hf15  1  0.950859  0.550000  0.550000  1
  Tc  Tc16  1  0.997235  0.333918  0.333918  1
  Tc  Tc17  1  0.333918  0.997235  0.333918  1
  Tc  Tc18  1  0.333918  0.333918  0.997235  1
  Ni  Ni19  1  0.318894  0.893017  0.893017  1
  Ni  Ni20  1  0.893017  0.318894  0.893017  1
  Ni  Ni21  1  0.893017  0.893017  0.318894  1
  Ni  Ni22  1  0.893923  0.893923  0.893923  1
  Os  Os23  1  0.333751  0.333751  0.333751  1
