# generated using pymatgen
data_Dy9Sc10Si16Mo
_symmetry_space_group_name_H-M   'P 1'
_cell_length_a   7.05915935
_cell_length_b   7.39506739
_cell_length_c   13.96966786
_cell_angle_alpha   90.15186806
_cell_angle_beta   90.14838897
_cell_angle_gamma   89.59209024
_symmetry_Int_Tables_number   1
_chemical_formula_structural   Dy9Sc10Si16Mo
_chemical_formula_sum   'Dy9 Sc10 Si16 Mo1'
_cell_volume   729.23454720
_cell_formula_units_Z   1
loop_
 _symmetry_equiv_pos_site_id
 _symmetry_equiv_pos_as_xyz
  1  'x, y, z'
loop_
 _atom_site_type_symbol
 _atom_site_label
 _atom_site_symmetry_multiplicity
 _atom_site_fract_x
 _atom_site_fract_y
 _atom_site_fract_z
 _atom_site_occupancy
  Dy  Dy0  1  0.990105  0.681878  0.600486  1
  Dy  Dy1  1  0.013544  0.323286  0.404624  1
  Dy  Dy2  1  0.514546  0.178136  0.401037  1
  Dy  Dy3  1  0.012521  0.322535  0.094137  1
  Dy  Dy4  1  0.484804  0.824234  0.598333  1
  Dy  Dy5  1  0.991244  0.681966  0.902206  1
  Dy  Dy6  1  0.486018  0.825989  0.903849  1
  Dy  Dy7  1  0.511783  0.177642  0.096109  1
  Dy  Dy8  1  0.327180  0.321831  0.625673  1
  Sc  Sc9  1  0.842751  0.004055  0.249337  1
  Sc  Sc10  1  0.342929  0.497577  0.248419  1
  Sc  Sc11  1  0.657885  0.507367  0.751814  1
  Sc  Sc12  1  0.673646  0.677795  0.372235  1
  Sc  Sc13  1  0.173811  0.827724  0.374246  1
  Sc  Sc14  1  0.672699  0.675987  0.125602  1
  Sc  Sc15  1  0.826997  0.168138  0.629893  1
  Sc  Sc16  1  0.326242  0.319293  0.873888  1
  Sc  Sc17  1  0.826293  0.168223  0.873460  1
  Sc  Sc18  1  0.173026  0.826712  0.123741  1
  Si  Si19  1  0.024947  0.378477  0.754492  1
  Si  Si20  1  0.973745  0.615647  0.249075  1
  Si  Si21  1  0.470187  0.885631  0.249020  1
  Si  Si22  1  0.521879  0.098349  0.752963  1
  Si  Si23  1  0.281777  0.642841  0.751819  1
  Si  Si24  1  0.718236  0.371900  0.249208  1
  Si  Si25  1  0.214401  0.129648  0.248957  1
  Si  Si26  1  0.792050  0.871163  0.751455  1
  Si  Si27  1  0.147025  0.027217  0.545255  1
  Si  Si28  1  0.843026  0.964526  0.461777  1
  Si  Si29  1  0.350265  0.538597  0.457235  1
  Si  Si30  1  0.843220  0.964723  0.038496  1
  Si  Si31  1  0.666208  0.466107  0.536260  1
  Si  Si32  1  0.154358  0.033265  0.953526  1
  Si  Si33  1  0.656192  0.465394  0.960913  1
  Si  Si34  1  0.345345  0.534714  0.037586  1
  Mo  Mo35  1  0.149116  0.001429  0.752875  1
