# generated using pymatgen
data_RbBaBiSb3Au4
_symmetry_space_group_name_H-M   'P 1'
_cell_length_a   4.92163800
_cell_length_b   5.03499645
_cell_length_c   11.40425149
_cell_angle_alpha   88.75616105
_cell_angle_beta   90.00000000
_cell_angle_gamma   90.00000000
_symmetry_Int_Tables_number   1
_chemical_formula_structural   RbBaBiSb3Au4
_chemical_formula_sum   'Rb1 Ba1 Bi1 Sb3 Au4'
_cell_volume   282.53566358
_cell_formula_units_Z   1
loop_
 _symmetry_equiv_pos_site_id
 _symmetry_equiv_pos_as_xyz
  1  'x, y, z'
loop_
 _atom_site_type_symbol
 _atom_site_label
 _atom_site_symmetry_multiplicity
 _atom_site_fract_x
 _atom_site_fract_y
 _atom_site_fract_z
 _atom_site_occupancy
  Rb  Rb0  1  0.750000  0.262250  0.241528  1
  Ba  Ba1  1  0.250000  0.737540  0.761067  1
  Bi  Bi2  1  0.750000  0.752038  0.500552  1
  Sb  Sb3  1  0.250000  0.249721  0.500931  1
  Sb  Sb4  1  0.250000  0.802002  0.117590  1
  Sb  Sb5  1  0.750000  0.196352  0.880625  1
  Au  Au6  1  0.750000  0.691813  0.999524  1
  Au  Au7  1  0.750000  0.249308  0.639863  1
  Au  Au8  1  0.250000  0.749320  0.359603  1
  Au  Au9  1  0.250000  0.309657  0.998717  1
