# generated using pymatgen
data_Tb4Dy4Re3B24Os
_symmetry_space_group_name_H-M   'P 1'
_cell_length_a   3.68625300
_cell_length_b   9.18689602
_cell_length_c   11.57695201
_cell_angle_alpha   90.07325624
_cell_angle_beta   90.00000000
_cell_angle_gamma   90.00000000
_symmetry_Int_Tables_number   1
_chemical_formula_structural   Tb4Dy4Re3B24Os
_chemical_formula_sum   'Tb4 Dy4 Re3 B24 Os1'
_cell_volume   392.05574138
_cell_formula_units_Z   1
loop_
 _symmetry_equiv_pos_site_id
 _symmetry_equiv_pos_as_xyz
  1  'x, y, z'
loop_
 _atom_site_type_symbol
 _atom_site_label
 _atom_site_symmetry_multiplicity
 _atom_site_fract_x
 _atom_site_fract_y
 _atom_site_fract_z
 _atom_site_occupancy
  Tb  Tb0  1  0.000000  0.322079  0.414158  1
  Tb  Tb1  1  0.000000  0.677170  0.587530  1
  Tb  Tb2  1  0.000000  0.824636  0.084571  1
  Tb  Tb3  1  0.000000  0.176628  0.913657  1
  Dy  Dy4  1  0.000000  0.942494  0.369793  1
  Dy  Dy5  1  0.000000  0.056619  0.629520  1
  Dy  Dy6  1  0.000000  0.442649  0.130040  1
  Dy  Dy7  1  0.000000  0.556953  0.870729  1
  Re  Re8  1  0.000000  0.362070  0.678213  1
  Re  Re9  1  0.000000  0.138569  0.179834  1
  Re  Re10  1  0.000000  0.861396  0.820597  1
  B  B11  1  0.500000  0.553907  0.432488  1
  B  B12  1  0.500000  0.446927  0.567168  1
  B  B13  1  0.500000  0.053316  0.067172  1
  B  B14  1  0.500000  0.946839  0.932605  1
  B  B15  1  0.500000  0.748326  0.418078  1
  B  B16  1  0.500000  0.250992  0.581526  1
  B  B17  1  0.500000  0.248904  0.081659  1
  B  B18  1  0.500000  0.751620  0.918458  1
  B  B19  1  0.500000  0.790647  0.265772  1
  B  B20  1  0.500000  0.208442  0.734088  1
  B  B21  1  0.500000  0.291404  0.234561  1
  B  B22  1  0.500000  0.708283  0.766039  1
  B  B23  1  0.500000  0.631273  0.186148  1
  B  B24  1  0.500000  0.369369  0.813749  1
  B  B25  1  0.500000  0.131010  0.314563  1
  B  B26  1  0.500000  0.868847  0.685887  1
  B  B27  1  0.500000  0.983028  0.211935  1
  B  B28  1  0.500000  0.017140  0.787684  1
  B  B29  1  0.500000  0.483822  0.288103  1
  B  B30  1  0.500000  0.517584  0.712092  1
  B  B31  1  0.500000  0.601705  0.028856  1
  B  B32  1  0.500000  0.398527  0.971978  1
  B  B33  1  0.500000  0.100689  0.471500  1
  B  B34  1  0.500000  0.897869  0.528147  1
  Os  Os35  1  0.000000  0.638262  0.321099  1
