# generated using pymatgen
data_Ba3LuPuS6
_symmetry_space_group_name_H-M   'P 1'
_cell_length_a   8.54808313
_cell_length_b   8.54808277
_cell_length_c   8.54808400
_cell_angle_alpha   92.00572909
_cell_angle_beta   92.00572901
_cell_angle_gamma   92.00573656
_symmetry_Int_Tables_number   1
_chemical_formula_structural   Ba3LuPuS6
_chemical_formula_sum   'Ba6 Lu2 Pu2 S12'
_cell_volume   623.43055859
_cell_formula_units_Z   2
loop_
 _symmetry_equiv_pos_site_id
 _symmetry_equiv_pos_as_xyz
  1  'x, y, z'
loop_
 _atom_site_type_symbol
 _atom_site_label
 _atom_site_symmetry_multiplicity
 _atom_site_fract_x
 _atom_site_fract_y
 _atom_site_fract_z
 _atom_site_occupancy
  Ba  Ba0  1  0.373676  0.750000  0.126324  1
  Ba  Ba1  1  0.126324  0.373676  0.750000  1
  Ba  Ba2  1  0.750000  0.126324  0.373676  1
  Ba  Ba3  1  0.626324  0.250000  0.873676  1
  Ba  Ba4  1  0.873676  0.626324  0.250000  1
  Ba  Ba5  1  0.250000  0.873676  0.626324  1
  Lu  Lu6  1  0.500000  0.500000  0.500000  1
  Lu  Lu7  1  0.000000  0.000000  0.000000  1
  Pu  Pu8  1  0.250000  0.250000  0.250000  1
  Pu  Pu9  1  0.750000  0.750000  0.750000  1
  S  S10  1  0.540301  0.409819  0.201799  1
  S  S11  1  0.201799  0.540301  0.409819  1
  S  S12  1  0.409819  0.201799  0.540301  1
  S  S13  1  0.959699  0.298201  0.090181  1
  S  S14  1  0.090181  0.959699  0.298201  1
  S  S15  1  0.298201  0.090181  0.959699  1
  S  S16  1  0.459699  0.590181  0.798201  1
  S  S17  1  0.798201  0.459699  0.590181  1
  S  S18  1  0.590181  0.798201  0.459699  1
  S  S19  1  0.040301  0.701799  0.909819  1
  S  S20  1  0.701799  0.909819  0.040301  1
  S  S21  1  0.909819  0.040301  0.701799  1
