# generated using pymatgen
data_ErLuCo12GeP6
_symmetry_space_group_name_H-M   'P 1'
_cell_length_a   9.05905500
_cell_length_b   9.05905495
_cell_length_c   3.56417000
_cell_angle_alpha   90.00000000
_cell_angle_beta   90.00000000
_cell_angle_gamma   119.99999652
_symmetry_Int_Tables_number   1
_chemical_formula_structural   ErLuCo12GeP6
_chemical_formula_sum   'Er1 Lu1 Co12 Ge1 P6'
_cell_volume   253.31146575
_cell_formula_units_Z   1
loop_
 _symmetry_equiv_pos_site_id
 _symmetry_equiv_pos_as_xyz
  1  'x, y, z'
loop_
 _atom_site_type_symbol
 _atom_site_label
 _atom_site_symmetry_multiplicity
 _atom_site_fract_x
 _atom_site_fract_y
 _atom_site_fract_z
 _atom_site_occupancy
  Er  Er0  1  0.666667  0.333333  0.500000  1
  Lu  Lu1  1  0.333333  0.666667  0.000000  1
  Co  Co2  1  0.126358  0.838257  0.000000  1
  Co  Co3  1  0.385761  0.440020  0.500000  1
  Co  Co4  1  0.711899  0.873642  0.000000  1
  Co  Co5  1  0.559980  0.945741  0.500000  1
  Co  Co6  1  0.250077  0.110555  0.500000  1
  Co  Co7  1  0.860477  0.749923  0.500000  1
  Co  Co8  1  0.889445  0.139523  0.500000  1
  Co  Co9  1  0.939287  0.376484  0.000000  1
  Co  Co10  1  0.623516  0.562802  0.000000  1
  Co  Co11  1  0.437198  0.060713  0.000000  1
  Co  Co12  1  0.054259  0.614239  0.500000  1
  Co  Co13  1  0.161743  0.288101  0.000000  1
  Ge  Ge14  1  0.000000  0.000000  0.000000  1
  P  P15  1  0.595141  0.708443  0.500000  1
  P  P16  1  0.707329  0.113490  0.000000  1
  P  P17  1  0.886510  0.593839  0.000000  1
  P  P18  1  0.406161  0.292671  0.000000  1
  P  P19  1  0.291557  0.886698  0.500000  1
  P  P20  1  0.113302  0.404859  0.500000  1
