# generated using pymatgen
data_Y10In8NiPd3
_symmetry_space_group_name_H-M   'P 1'
_cell_length_a   3.62203200
_cell_length_b   8.15943669
_cell_length_c   18.27682485
_cell_angle_alpha   90.07407512
_cell_angle_beta   90.00000000
_cell_angle_gamma   90.00000000
_symmetry_Int_Tables_number   1
_chemical_formula_structural   Y10In8NiPd3
_chemical_formula_sum   'Y10 In8 Ni1 Pd3'
_cell_volume   540.14809277
_cell_formula_units_Z   1
loop_
 _symmetry_equiv_pos_site_id
 _symmetry_equiv_pos_as_xyz
  1  'x, y, z'
loop_
 _atom_site_type_symbol
 _atom_site_label
 _atom_site_symmetry_multiplicity
 _atom_site_fract_x
 _atom_site_fract_y
 _atom_site_fract_z
 _atom_site_occupancy
  Y  Y0  1  0.500000  0.233030  0.778152  1
  Y  Y1  1  0.500000  0.760093  0.218766  1
  Y  Y2  1  0.500000  0.259667  0.281640  1
  Y  Y3  1  0.500000  0.749245  0.718164  1
  Y  Y4  1  0.500000  0.116025  0.587668  1
  Y  Y5  1  0.500000  0.881677  0.418364  1
  Y  Y6  1  0.500000  0.380358  0.082174  1
  Y  Y7  1  0.500000  0.618996  0.915842  1
  Y  Y8  1  0.500000  0.999968  0.999158  1
  Y  Y9  1  0.500000  0.499918  0.501237  1
  In  In10  1  0.000000  0.079590  0.150530  1
  In  In11  1  0.000000  0.921625  0.847141  1
  In  In12  1  0.000000  0.421603  0.651219  1
  In  In13  1  0.000000  0.580311  0.349991  1
  In  In14  1  0.000000  0.207356  0.433567  1
  In  In15  1  0.000000  0.794859  0.569308  1
  In  In16  1  0.000000  0.292112  0.930608  1
  In  In17  1  0.000000  0.707517  0.067260  1
  Ni  Ni18  1  0.000000  0.021749  0.695682  1
  Pd  Pd19  1  0.000000  0.975394  0.304559  1
  Pd  Pd20  1  0.000000  0.475136  0.195938  1
  Pd  Pd21  1  0.000000  0.523772  0.803031  1
