# generated using pymatgen
data_LiAl11ReTc2
_symmetry_space_group_name_H-M   'P 1'
_cell_length_a   5.18006648
_cell_length_b   5.19301293
_cell_length_c   9.08302767
_cell_angle_alpha   105.33387892
_cell_angle_beta   88.39151809
_cell_angle_gamma   100.05177435
_symmetry_Int_Tables_number   1
_chemical_formula_structural   LiAl11ReTc2
_chemical_formula_sum   'Li1 Al11 Re1 Tc2'
_cell_volume   231.97779808
_cell_formula_units_Z   1
loop_
 _symmetry_equiv_pos_site_id
 _symmetry_equiv_pos_as_xyz
  1  'x, y, z'
loop_
 _atom_site_type_symbol
 _atom_site_label
 _atom_site_symmetry_multiplicity
 _atom_site_fract_x
 _atom_site_fract_y
 _atom_site_fract_z
 _atom_site_occupancy
  Li  Li0  1  0.323804  0.154818  0.606357  1
  Al  Al1  1  0.827348  0.282117  0.629050  1
  Al  Al2  1  0.161720  0.701243  0.381526  1
  Al  Al3  1  0.149119  0.467594  0.878537  1
  Al  Al4  1  0.849292  0.548896  0.131469  1
  Al  Al5  1  0.013846  0.994418  0.980397  1
  Al  Al6  1  0.539550  0.110042  0.885856  1
  Al  Al7  1  0.487933  0.903670  0.132668  1
  Al  Al8  1  0.579023  0.337270  0.370768  1
  Al  Al9  1  0.414240  0.675315  0.633172  1
  Al  Al10  1  0.930874  0.820464  0.662955  1
  Al  Al11  1  0.048573  0.140149  0.303912  1
  Re  Re12  1  0.331183  0.387957  0.134342  1
  Tc  Tc13  1  0.682442  0.861836  0.400190  1
  Tc  Tc14  1  0.661054  0.614213  0.868800  1
