# generated using pymatgen
data_Tb9Ho11(SiBi2)4
_symmetry_space_group_name_H-M   'P 1'
_cell_length_a   12.10618619
_cell_length_b   9.16313002
_cell_length_c   8.07664114
_cell_angle_alpha   90.00689180
_cell_angle_beta   89.98004217
_cell_angle_gamma   89.99567897
_symmetry_Int_Tables_number   1
_chemical_formula_structural   Tb9Ho11(SiBi2)4
_chemical_formula_sum   'Tb9 Ho11 Si4 Bi8'
_cell_volume   895.94624604
_cell_formula_units_Z   1
loop_
 _symmetry_equiv_pos_site_id
 _symmetry_equiv_pos_as_xyz
  1  'x, y, z'
loop_
 _atom_site_type_symbol
 _atom_site_label
 _atom_site_symmetry_multiplicity
 _atom_site_fract_x
 _atom_site_fract_y
 _atom_site_fract_z
 _atom_site_occupancy
  Tb  Tb0  1  0.563415  0.551961  0.680753  1
  Tb  Tb1  1  0.211657  0.750011  0.164429  1
  Tb  Tb2  1  0.711776  0.750180  0.335324  1
  Tb  Tb3  1  0.788363  0.249948  0.835624  1
  Tb  Tb4  1  0.288327  0.249993  0.664462  1
  Tb  Tb5  1  0.294976  0.750177  0.636083  1
  Tb  Tb6  1  0.795422  0.750131  0.863863  1
  Tb  Tb7  1  0.704862  0.250017  0.363693  1
  Tb  Tb8  1  0.204807  0.250066  0.136303  1
  Ho  Ho9  1  0.063301  0.552265  0.820056  1
  Ho  Ho10  1  0.563332  0.948074  0.679875  1
  Ho  Ho11  1  0.936721  0.052336  0.179950  1
  Ho  Ho12  1  0.436561  0.447643  0.319914  1
  Ho  Ho13  1  0.936744  0.447701  0.179989  1
  Ho  Ho14  1  0.436658  0.052277  0.319981  1
  Ho  Ho15  1  0.063354  0.947716  0.819979  1
  Ho  Ho16  1  0.000915  0.750031  0.460024  1
  Ho  Ho17  1  0.500803  0.750007  0.040383  1
  Ho  Ho18  1  0.999162  0.249971  0.540006  1
  Ho  Ho19  1  0.499100  0.249868  0.960070  1
  Si  Si20  1  0.479570  0.750689  0.413274  1
  Si  Si21  1  0.979729  0.749990  0.086274  1
  Si  Si22  1  0.519996  0.248814  0.585885  1
  Si  Si23  1  0.020261  0.250019  0.913795  1
  Bi  Bi24  1  0.326575  0.510723  0.931952  1
  Bi  Bi25  1  0.826737  0.989269  0.567969  1
  Bi  Bi26  1  0.673295  0.010846  0.067985  1
  Bi  Bi27  1  0.173221  0.489226  0.431992  1
  Bi  Bi28  1  0.673425  0.489205  0.068276  1
  Bi  Bi29  1  0.173247  0.010786  0.432022  1
  Bi  Bi30  1  0.326700  0.989307  0.932037  1
  Bi  Bi31  1  0.826987  0.510755  0.567779  1
