# generated using pymatgen
data_YbDy4Y3(B6Ru)4
_symmetry_space_group_name_H-M   'P 1'
_cell_length_a   3.66774400
_cell_length_b   9.15196307
_cell_length_c   11.53772700
_cell_angle_alpha   89.90822783
_cell_angle_beta   90.00000000
_cell_angle_gamma   90.00000000
_symmetry_Int_Tables_number   1
_chemical_formula_structural   YbDy4Y3(B6Ru)4
_chemical_formula_sum   'Yb1 Dy4 Y3 B24 Ru4'
_cell_volume   387.28705041
_cell_formula_units_Z   1
loop_
 _symmetry_equiv_pos_site_id
 _symmetry_equiv_pos_as_xyz
  1  'x, y, z'
loop_
 _atom_site_type_symbol
 _atom_site_label
 _atom_site_symmetry_multiplicity
 _atom_site_fract_x
 _atom_site_fract_y
 _atom_site_fract_z
 _atom_site_occupancy
  Yb  Yb0  1  0.000000  0.324054  0.413690  1
  Dy  Dy1  1  0.000000  0.944015  0.371107  1
  Dy  Dy2  1  0.000000  0.058135  0.628038  1
  Dy  Dy3  1  0.000000  0.442855  0.129881  1
  Dy  Dy4  1  0.000000  0.556172  0.871978  1
  Y  Y5  1  0.000000  0.675446  0.584881  1
  Y  Y6  1  0.000000  0.822853  0.086362  1
  Y  Y7  1  0.000000  0.177558  0.914547  1
  B  B8  1  0.500000  0.553750  0.432418  1
  B  B9  1  0.500000  0.445604  0.567244  1
  B  B10  1  0.500000  0.053494  0.066931  1
  B  B11  1  0.500000  0.945789  0.932316  1
  B  B12  1  0.500000  0.747926  0.419145  1
  B  B13  1  0.500000  0.252573  0.580674  1
  B  B14  1  0.500000  0.247252  0.080780  1
  B  B15  1  0.500000  0.752083  0.919471  1
  B  B16  1  0.500000  0.791012  0.266370  1
  B  B17  1  0.500000  0.210112  0.733760  1
  B  B18  1  0.500000  0.289716  0.233662  1
  B  B19  1  0.500000  0.709496  0.766411  1
  B  B20  1  0.500000  0.632113  0.186253  1
  B  B21  1  0.500000  0.368212  0.814792  1
  B  B22  1  0.500000  0.131653  0.313996  1
  B  B23  1  0.500000  0.868405  0.685315  1
  B  B24  1  0.500000  0.983919  0.211942  1
  B  B25  1  0.500000  0.016166  0.787240  1
  B  B26  1  0.500000  0.484180  0.287984  1
  B  B27  1  0.500000  0.515856  0.712548  1
  B  B28  1  0.500000  0.608734  0.030375  1
  B  B29  1  0.500000  0.391340  0.970406  1
  B  B30  1  0.500000  0.105445  0.470738  1
  B  B31  1  0.500000  0.893819  0.529310  1
  Ru  Ru32  1  0.000000  0.639166  0.320780  1
  Ru  Ru33  1  0.000000  0.362095  0.679861  1
  Ru  Ru34  1  0.000000  0.136873  0.177730  1
  Ru  Ru35  1  0.000000  0.862130  0.821067  1
