# generated using pymatgen
data_CdIr2Pd2Pb3O14
_symmetry_space_group_name_H-M   'P 1'
_cell_length_a   7.26259659
_cell_length_b   7.22656848
_cell_length_c   7.26259671
_cell_angle_alpha   61.23869233
_cell_angle_beta   61.36531401
_cell_angle_gamma   61.23869701
_symmetry_Int_Tables_number   1
_chemical_formula_structural   CdIr2Pd2Pb3O14
_chemical_formula_sum   'Cd1 Ir2 Pd2 Pb3 O14'
_cell_volume   277.28681180
_cell_formula_units_Z   1
loop_
 _symmetry_equiv_pos_site_id
 _symmetry_equiv_pos_as_xyz
  1  'x, y, z'
loop_
 _atom_site_type_symbol
 _atom_site_label
 _atom_site_symmetry_multiplicity
 _atom_site_fract_x
 _atom_site_fract_y
 _atom_site_fract_z
 _atom_site_occupancy
  Cd  Cd0  1  0.125000  0.125000  0.125000  1
  Ir  Ir1  1  0.125000  0.625000  0.625000  1
  Ir  Ir2  1  0.625000  0.625000  0.125000  1
  Pd  Pd3  1  0.625000  0.125000  0.625000  1
  Pd  Pd4  1  0.625000  0.625000  0.625000  1
  Pb  Pb5  1  0.625000  0.125000  0.125000  1
  Pb  Pb6  1  0.125000  0.625000  0.125000  1
  Pb  Pb7  1  0.125000  0.125000  0.625000  1
  O  O8  1  0.708357  0.705437  0.289520  1
  O  O9  1  0.287183  0.298132  0.708714  1
  O  O10  1  0.709905  0.291919  0.709905  1
  O  O11  1  0.295722  0.703358  0.295722  1
  O  O12  1  0.289520  0.705437  0.708357  1
  O  O13  1  0.708714  0.298132  0.287183  1
  O  O14  1  0.541643  0.544563  0.960480  1
  O  O15  1  0.962817  0.951868  0.541286  1
  O  O16  1  0.540095  0.958081  0.540095  1
  O  O17  1  0.954278  0.546642  0.954278  1
  O  O18  1  0.960480  0.544563  0.541643  1
  O  O19  1  0.541286  0.951868  0.962817  1
  O  O20  1  0.252471  0.244960  0.252471  1
  O  O21  1  0.997529  0.005040  0.997529  1
