# generated using pymatgen
data_Pr3ZnIn3IrRh
_symmetry_space_group_name_H-M   'P 1'
_cell_length_a   7.85372900
_cell_length_b   7.85372976
_cell_length_c   3.99925100
_cell_angle_alpha   90.00000000
_cell_angle_beta   90.00000000
_cell_angle_gamma   119.99999257
_symmetry_Int_Tables_number   1
_chemical_formula_structural   Pr3ZnIn3IrRh
_chemical_formula_sum   'Pr3 Zn1 In3 Ir1 Rh1'
_cell_volume   213.62948401
_cell_formula_units_Z   1
loop_
 _symmetry_equiv_pos_site_id
 _symmetry_equiv_pos_as_xyz
  1  'x, y, z'
loop_
 _atom_site_type_symbol
 _atom_site_label
 _atom_site_symmetry_multiplicity
 _atom_site_fract_x
 _atom_site_fract_y
 _atom_site_fract_z
 _atom_site_occupancy
  Pr  Pr0  1  0.020111  0.601099  0.500000  1
  Pr  Pr1  1  0.398901  0.419011  0.500000  1
  Pr  Pr2  1  0.580989  0.979889  0.500000  1
  Zn  Zn3  1  0.666667  0.333333  0.000000  1
  In  In4  1  0.750211  0.749274  0.000000  1
  In  In5  1  0.999063  0.249789  0.000000  1
  In  In6  1  0.250726  0.000937  0.000000  1
  Ir  Ir7  1  0.333333  0.666667  0.000000  1
  Rh  Rh8  1  0.000000  0.000000  0.500000  1
