# generated using pymatgen
data_YTm3(BeSi3)2
_symmetry_space_group_name_H-M   'P 1'
_cell_length_a   7.79914400
_cell_length_b   7.79914328
_cell_length_c   7.96308800
_cell_angle_alpha   90.00000000
_cell_angle_beta   90.00000000
_cell_angle_gamma   120.00000306
_symmetry_Int_Tables_number   1
_chemical_formula_structural   YTm3(BeSi3)2
_chemical_formula_sum   'Y2 Tm6 Be4 Si12'
_cell_volume   419.47489251
_cell_formula_units_Z   2
loop_
 _symmetry_equiv_pos_site_id
 _symmetry_equiv_pos_as_xyz
  1  'x, y, z'
loop_
 _atom_site_type_symbol
 _atom_site_label
 _atom_site_symmetry_multiplicity
 _atom_site_fract_x
 _atom_site_fract_y
 _atom_site_fract_z
 _atom_site_occupancy
  Y  Y0  1  0.000000  0.000000  0.250000  1
  Y  Y1  1  0.000000  0.000000  0.750000  1
  Tm  Tm2  1  0.999680  0.499839  0.250000  1
  Tm  Tm3  1  0.500161  0.499839  0.250000  1
  Tm  Tm4  1  0.499839  0.999680  0.750000  1
  Tm  Tm5  1  0.500161  0.000320  0.250000  1
  Tm  Tm6  1  0.499839  0.500161  0.750000  1
  Tm  Tm7  1  0.000320  0.500161  0.750000  1
  Be  Be8  1  0.333333  0.666667  0.999273  1
  Be  Be9  1  0.333333  0.666667  0.500727  1
  Be  Be10  1  0.666667  0.333333  0.000727  1
  Be  Be11  1  0.666667  0.333333  0.499273  1
  Si  Si12  1  0.173131  0.346261  0.000024  1
  Si  Si13  1  0.653739  0.826869  0.000024  1
  Si  Si14  1  0.173131  0.346261  0.499976  1
  Si  Si15  1  0.346261  0.173131  0.999976  1
  Si  Si16  1  0.173131  0.826869  0.000024  1
  Si  Si17  1  0.653739  0.826869  0.499976  1
  Si  Si18  1  0.826869  0.653739  0.999976  1
  Si  Si19  1  0.346261  0.173131  0.500024  1
  Si  Si20  1  0.173131  0.826869  0.499976  1
  Si  Si21  1  0.826869  0.653739  0.500024  1
  Si  Si22  1  0.826869  0.173131  0.999976  1
  Si  Si23  1  0.826869  0.173131  0.500024  1
