# generated using pymatgen
data_Nd16Ni3Ag4Rh
_symmetry_space_group_name_H-M   'P 1'
_cell_length_a   9.80602886
_cell_length_b   9.80602848
_cell_length_c   9.80602801
_cell_angle_alpha   60.00509840
_cell_angle_beta   60.00509974
_cell_angle_gamma   60.00510071
_symmetry_Int_Tables_number   1
_chemical_formula_structural   Nd16Ni3Ag4Rh
_chemical_formula_sum   'Nd16 Ni3 Ag4 Rh1'
_cell_volume   666.82927551
_cell_formula_units_Z   1
loop_
 _symmetry_equiv_pos_site_id
 _symmetry_equiv_pos_as_xyz
  1  'x, y, z'
loop_
 _atom_site_type_symbol
 _atom_site_label
 _atom_site_symmetry_multiplicity
 _atom_site_fract_x
 _atom_site_fract_y
 _atom_site_fract_z
 _atom_site_occupancy
  Nd  Nd0  1  0.598511  0.598511  0.598511  1
  Nd  Nd1  1  0.602452  0.602452  0.198280  1
  Nd  Nd2  1  0.602452  0.198280  0.602452  1
  Nd  Nd3  1  0.198280  0.602452  0.602452  1
  Nd  Nd4  1  0.058543  0.439266  0.439266  1
  Nd  Nd5  1  0.441138  0.058786  0.058786  1
  Nd  Nd6  1  0.439266  0.058543  0.439266  1
  Nd  Nd7  1  0.058786  0.441138  0.058786  1
  Nd  Nd8  1  0.439266  0.439266  0.058543  1
  Nd  Nd9  1  0.058786  0.058786  0.441138  1
  Nd  Nd10  1  0.185769  0.814730  0.814730  1
  Nd  Nd11  1  0.812262  0.186842  0.186842  1
  Nd  Nd12  1  0.814730  0.185769  0.814730  1
  Nd  Nd13  1  0.186842  0.812262  0.186842  1
  Nd  Nd14  1  0.814730  0.814730  0.185769  1
  Nd  Nd15  1  0.186842  0.186842  0.812262  1
  Ni  Ni16  1  0.393447  0.393447  0.821953  1
  Ni  Ni17  1  0.393447  0.821953  0.393447  1
  Ni  Ni18  1  0.821953  0.393447  0.393447  1
  Ag  Ag19  1  0.831685  0.831685  0.831685  1
  Ag  Ag20  1  0.830482  0.830482  0.507494  1
  Ag  Ag21  1  0.830482  0.507494  0.830482  1
  Ag  Ag22  1  0.507494  0.830482  0.830482  1
  Rh  Rh23  1  0.392356  0.392356  0.392356  1
