# generated using pymatgen
data_Zr8Al7Ga8Ir7
_symmetry_space_group_name_H-M   'P 1'
_cell_length_a   8.89121258
_cell_length_b   8.88821537
_cell_length_c   8.88821600
_cell_angle_alpha   120.27644570
_cell_angle_beta   119.75657333
_cell_angle_gamma   89.96242636
_symmetry_Int_Tables_number   1
_chemical_formula_structural   Zr8Al7Ga8Ir7
_chemical_formula_sum   'Zr8 Al7 Ga8 Ir7'
_cell_volume   496.58292279
_cell_formula_units_Z   1
loop_
 _symmetry_equiv_pos_site_id
 _symmetry_equiv_pos_as_xyz
  1  'x, y, z'
loop_
 _atom_site_type_symbol
 _atom_site_label
 _atom_site_symmetry_multiplicity
 _atom_site_fract_x
 _atom_site_fract_y
 _atom_site_fract_z
 _atom_site_occupancy
  Zr  Zr0  1  0.799110  0.293661  0.080439  1
  Zr  Zr1  1  0.212309  0.292415  0.491937  1
  Zr  Zr2  1  0.198943  0.699621  0.499323  1
  Zr  Zr3  1  0.212309  0.720373  0.919894  1
  Zr  Zr4  1  0.799110  0.718671  0.505448  1
  Zr  Zr5  1  0.782320  0.281735  0.500585  1
  Zr  Zr6  1  0.377097  0.122541  0.744804  1
  Zr  Zr7  1  0.377097  0.632292  0.254555  1
  Al  Al8  1  0.481493  0.660066  0.821426  1
  Al  Al9  1  0.380106  0.122624  0.257484  1
  Al  Al10  1  0.865249  0.122027  0.743222  1
  Al  Al11  1  0.621694  0.876067  0.253458  1
  Al  Al12  1  0.621694  0.368235  0.745627  1
  Al  Al13  1  0.622729  0.877866  0.744861  1
  Al  Al14  1  0.131683  0.877244  0.254439  1
  Ga  Ga15  1  0.991855  0.490865  0.500990  1
  Ga  Ga16  1  0.155694  0.339184  0.182405  1
  Ga  Ga17  1  0.155694  0.973289  0.816512  1
  Ga  Ga18  1  0.150076  0.347996  0.802079  1
  Ga  Ga19  1  0.544968  0.347051  0.197918  1
  Ga  Ga20  1  0.842697  0.654000  0.810320  1
  Ga  Ga21  1  0.842697  0.032378  0.188696  1
  Ga  Ga22  1  0.841679  0.657301  0.184378  1
  Ir  Ir23  1  0.994939  0.000183  0.500687  1
  Ir  Ir24  1  0.498196  0.996235  0.001922  1
  Ir  Ir25  1  0.499994  0.501378  0.998615  1
  Ir  Ir26  1  0.498196  0.496273  0.501961  1
  Ir  Ir27  1  0.994939  0.494250  0.994756  1
  Ir  Ir28  1  0.999853  0.998877  0.000976  1
  Ir  Ir29  1  0.505580  0.005302  0.500279  1
