# generated using pymatgen
data_Pr3TmAgIr3O14
_symmetry_space_group_name_H-M   'P 1'
_cell_length_a   7.52288756
_cell_length_b   7.52288803
_cell_length_c   7.40146103
_cell_angle_alpha   59.45580989
_cell_angle_beta   59.45580526
_cell_angle_gamma   59.99999811
_symmetry_Int_Tables_number   1
_chemical_formula_structural   Pr3TmAgIr3O14
_chemical_formula_sum   'Pr3 Tm1 Ag1 Ir3 O14'
_cell_volume   293.73110490
_cell_formula_units_Z   1
loop_
 _symmetry_equiv_pos_site_id
 _symmetry_equiv_pos_as_xyz
  1  'x, y, z'
loop_
 _atom_site_type_symbol
 _atom_site_label
 _atom_site_symmetry_multiplicity
 _atom_site_fract_x
 _atom_site_fract_y
 _atom_site_fract_z
 _atom_site_occupancy
  Pr  Pr0  1  0.125000  0.125000  0.125000  1
  Pr  Pr1  1  0.625000  0.125000  0.125000  1
  Pr  Pr2  1  0.125000  0.625000  0.125000  1
  Tm  Tm3  1  0.625000  0.625000  0.125000  1
  Ag  Ag4  1  0.125000  0.125000  0.625000  1
  Ir  Ir5  1  0.625000  0.625000  0.625000  1
  Ir  Ir6  1  0.125000  0.625000  0.625000  1
  Ir  Ir7  1  0.625000  0.125000  0.625000  1
  O  O8  1  0.937014  0.546617  0.579355  1
  O  O9  1  0.312986  0.312986  0.670645  1
  O  O10  1  0.985229  0.528235  0.958302  1
  O  O11  1  0.721765  0.264771  0.291698  1
  O  O12  1  0.528235  0.528235  0.958302  1
  O  O13  1  0.546617  0.937014  0.579355  1
  O  O14  1  0.528235  0.985229  0.958302  1
  O  O15  1  0.240672  0.240672  0.277984  1
  O  O16  1  0.312986  0.703383  0.670645  1
  O  O17  1  0.703383  0.312986  0.670645  1
  O  O18  1  0.009328  0.009328  0.972016  1
  O  O19  1  0.937014  0.937014  0.579355  1
  O  O20  1  0.264771  0.721765  0.291698  1
  O  O21  1  0.721765  0.721765  0.291698  1
