# generated using pymatgen
data_Lu5OsRh
_symmetry_space_group_name_H-M   'P 1'
_cell_length_a   6.26032868
_cell_length_b   7.21734280
_cell_length_c   8.26809184
_cell_angle_alpha   96.62349384
_cell_angle_beta   112.61478005
_cell_angle_gamma   90.19764988
_symmetry_Int_Tables_number   1
_chemical_formula_structural   Lu5OsRh
_chemical_formula_sum   'Lu10 Os2 Rh2'
_cell_volume   342.08524300
_cell_formula_units_Z   2
loop_
 _symmetry_equiv_pos_site_id
 _symmetry_equiv_pos_as_xyz
  1  'x, y, z'
loop_
 _atom_site_type_symbol
 _atom_site_label
 _atom_site_symmetry_multiplicity
 _atom_site_fract_x
 _atom_site_fract_y
 _atom_site_fract_z
 _atom_site_occupancy
  Lu  Lu0  1  0.530512  0.082516  0.821013  1
  Lu  Lu1  1  0.469488  0.917484  0.178987  1
  Lu  Lu2  1  0.710635  0.416982  0.187165  1
  Lu  Lu3  1  0.289365  0.583018  0.812835  1
  Lu  Lu4  1  0.287841  0.313596  0.436531  1
  Lu  Lu5  1  0.712159  0.686404  0.563469  1
  Lu  Lu6  1  0.854012  0.178471  0.558974  1
  Lu  Lu7  1  0.145988  0.821529  0.441026  1
  Lu  Lu8  1  0.079750  0.247566  0.999652  1
  Lu  Lu9  1  0.920250  0.752434  0.000348  1
  Os  Os10  1  0.108912  0.922351  0.784596  1
  Os  Os11  1  0.891088  0.077649  0.215404  1
  Rh  Rh12  1  0.324805  0.574672  0.224656  1
  Rh  Rh13  1  0.675195  0.425328  0.775344  1
