# generated using pymatgen
data_YEr4Os2C7
_symmetry_space_group_name_H-M   'P 1'
_cell_length_a   8.13011212
_cell_length_b   8.13011263
_cell_length_c   3.49387200
_cell_angle_alpha   90.00000000
_cell_angle_beta   90.00000000
_cell_angle_gamma   121.75180439
_symmetry_Int_Tables_number   1
_chemical_formula_structural   YEr4Os2C7
_chemical_formula_sum   'Y1 Er4 Os2 C7'
_cell_volume   196.37693433
_cell_formula_units_Z   1
loop_
 _symmetry_equiv_pos_site_id
 _symmetry_equiv_pos_as_xyz
  1  'x, y, z'
loop_
 _atom_site_type_symbol
 _atom_site_label
 _atom_site_symmetry_multiplicity
 _atom_site_fract_x
 _atom_site_fract_y
 _atom_site_fract_z
 _atom_site_occupancy
  Y  Y0  1  0.500000  0.500000  0.000000  1
  Er  Er1  1  0.077320  0.338322  0.500000  1
  Er  Er2  1  0.922680  0.661678  0.500000  1
  Er  Er3  1  0.661678  0.922680  0.500000  1
  Er  Er4  1  0.338322  0.077320  0.500000  1
  Os  Os5  1  0.714600  0.285400  0.000000  1
  Os  Os6  1  0.285400  0.714600  0.000000  1
  C  C7  1  0.632630  0.367370  0.500000  1
  C  C8  1  0.367370  0.632630  0.500000  1
  C  C9  1  0.000000  0.000000  0.000000  1
  C  C10  1  0.171526  0.171526  0.000000  1
  C  C11  1  0.828474  0.828474  0.000000  1
  C  C12  1  0.000000  0.500000  0.000000  1
  C  C13  1  0.500000  0.000000  0.000000  1
