# generated using pymatgen
data_Dy18Bi10NO9
_symmetry_space_group_name_H-M   'P 1'
_cell_length_a   10.01509800
_cell_length_b   10.01509800
_cell_length_c   9.01424400
_cell_angle_alpha   90.00000000
_cell_angle_beta   90.00000000
_cell_angle_gamma   90.00000000
_symmetry_Int_Tables_number   1
_chemical_formula_structural   Dy18Bi10NO9
_chemical_formula_sum   'Dy18 Bi10 N1 O9'
_cell_volume   904.14839591
_cell_formula_units_Z   1
loop_
 _symmetry_equiv_pos_site_id
 _symmetry_equiv_pos_as_xyz
  1  'x, y, z'
loop_
 _atom_site_type_symbol
 _atom_site_label
 _atom_site_symmetry_multiplicity
 _atom_site_fract_x
 _atom_site_fract_y
 _atom_site_fract_z
 _atom_site_occupancy
  Dy  Dy0  1  0.500000  0.000000  0.687153  1
  Dy  Dy1  1  0.792992  0.105500  0.334661  1
  Dy  Dy2  1  0.278293  0.081245  0.000812  1
  Dy  Dy3  1  0.581245  0.221707  0.000812  1
  Dy  Dy4  1  0.207008  0.894500  0.334661  1
  Dy  Dy5  1  0.605500  0.707008  0.334661  1
  Dy  Dy6  1  0.293311  0.605552  0.665568  1
  Dy  Dy7  1  0.418755  0.778293  0.000812  1
  Dy  Dy8  1  0.225596  0.415821  0.997284  1
  Dy  Dy9  1  0.894448  0.793311  0.665568  1
  Dy  Dy10  1  0.000000  0.500000  0.319844  1
  Dy  Dy11  1  0.084179  0.725596  0.997284  1
  Dy  Dy12  1  0.915821  0.274404  0.997284  1
  Dy  Dy13  1  0.774404  0.584179  0.997284  1
  Dy  Dy14  1  0.721707  0.918755  0.000812  1
  Dy  Dy15  1  0.394500  0.292992  0.334661  1
  Dy  Dy16  1  0.706689  0.394448  0.665568  1
  Dy  Dy17  1  0.105552  0.206689  0.665568  1
  Bi  Bi18  1  0.595303  0.692456  0.695174  1
  Bi  Bi19  1  0.905075  0.805579  0.304191  1
  Bi  Bi20  1  0.694421  0.405075  0.304191  1
  Bi  Bi21  1  0.000000  0.500000  0.679323  1
  Bi  Bi22  1  0.305579  0.594925  0.304191  1
  Bi  Bi23  1  0.807544  0.095303  0.695174  1
  Bi  Bi24  1  0.404697  0.307544  0.695174  1
  Bi  Bi25  1  0.192456  0.904697  0.695174  1
  Bi  Bi26  1  0.094925  0.194421  0.304191  1
  Bi  Bi27  1  0.500000  0.000000  0.322243  1
  N  N28  1  0.500000  0.000000  0.937649  1
  O  O29  1  0.224713  0.879475  0.085113  1
  O  O30  1  0.273093  0.620044  0.914817  1
  O  O31  1  0.120044  0.226907  0.914817  1
  O  O32  1  0.879956  0.773093  0.914817  1
  O  O33  1  0.726907  0.379956  0.914817  1
  O  O34  1  0.775287  0.120525  0.085113  1
  O  O35  1  0.000000  0.500000  0.063313  1
  O  O36  1  0.379475  0.275287  0.085113  1
  O  O37  1  0.620525  0.724713  0.085113  1
