# generated using pymatgen
data_Li4La2TbYSi8
_symmetry_space_group_name_H-M   'P 1'
_cell_length_a   3.86860400
_cell_length_b   7.73419936
_cell_length_c   10.44635088
_cell_angle_alpha   89.58144551
_cell_angle_beta   90.00000000
_cell_angle_gamma   90.00000000
_symmetry_Int_Tables_number   1
_chemical_formula_structural   Li4La2TbYSi8
_chemical_formula_sum   'Li4 La2 Tb1 Y1 Si8'
_cell_volume   312.55227146
_cell_formula_units_Z   1
loop_
 _symmetry_equiv_pos_site_id
 _symmetry_equiv_pos_as_xyz
  1  'x, y, z'
loop_
 _atom_site_type_symbol
 _atom_site_label
 _atom_site_symmetry_multiplicity
 _atom_site_fract_x
 _atom_site_fract_y
 _atom_site_fract_z
 _atom_site_occupancy
  Li  Li0  1  0.250000  0.995437  0.388679  1
  Li  Li1  1  0.750000  0.003661  0.610661  1
  Li  Li2  1  0.250000  0.492123  0.106799  1
  Li  Li3  1  0.750000  0.509189  0.892987  1
  La  La4  1  0.250000  0.639628  0.637188  1
  La  La5  1  0.750000  0.359223  0.363050  1
  Tb  Tb6  1  0.250000  0.132619  0.865648  1
  Y  Y7  1  0.750000  0.868055  0.134674  1
  Si  Si8  1  0.750000  0.264740  0.063874  1
  Si  Si9  1  0.250000  0.736385  0.936162  1
  Si  Si10  1  0.750000  0.778047  0.423020  1
  Si  Si11  1  0.250000  0.221132  0.576910  1
  Si  Si12  1  0.750000  0.843133  0.826885  1
  Si  Si13  1  0.250000  0.157897  0.173123  1
  Si  Si14  1  0.750000  0.330050  0.684382  1
  Si  Si15  1  0.250000  0.668678  0.315956  1
