# generated using pymatgen
data_Tm12Tc3Sn2
_symmetry_space_group_name_H-M   'P 1'
_cell_length_a   8.36795544
_cell_length_b   8.36795609
_cell_length_c   8.36795576
_cell_angle_alpha   109.10748688
_cell_angle_beta   109.10748139
_cell_angle_gamma   110.20117136
_symmetry_Int_Tables_number   1
_chemical_formula_structural   Tm12Tc3Sn2
_chemical_formula_sum   'Tm12 Tc3 Sn2'
_cell_volume   451.00699130
_cell_formula_units_Z   1
loop_
 _symmetry_equiv_pos_site_id
 _symmetry_equiv_pos_as_xyz
  1  'x, y, z'
loop_
 _atom_site_type_symbol
 _atom_site_label
 _atom_site_symmetry_multiplicity
 _atom_site_fract_x
 _atom_site_fract_y
 _atom_site_fract_z
 _atom_site_occupancy
  Tm  Tm0  1  0.306650  0.306650  0.613302  1
  Tm  Tm1  1  0.693350  0.693350  0.386698  1
  Tm  Tm2  1  0.693350  0.306650  0.000000  1
  Tm  Tm3  1  0.306650  0.693350  0.000000  1
  Tm  Tm4  1  0.190756  0.430239  0.239483  1
  Tm  Tm5  1  0.809244  0.569761  0.760517  1
  Tm  Tm6  1  0.190756  0.951271  0.760517  1
  Tm  Tm7  1  0.951271  0.190756  0.760517  1
  Tm  Tm8  1  0.809244  0.048729  0.239483  1
  Tm  Tm9  1  0.048729  0.809244  0.239483  1
  Tm  Tm10  1  0.430239  0.190756  0.239483  1
  Tm  Tm11  1  0.569761  0.809244  0.760517  1
  Tc  Tc12  1  0.369566  0.369566  0.000000  1
  Tc  Tc13  1  0.630434  0.630434  0.000000  1
  Tc  Tc14  1  0.000000  0.000000  0.000000  1
  Sn  Sn15  1  0.000000  0.500000  0.500000  1
  Sn  Sn16  1  0.500000  0.000000  0.500000  1
