# generated using pymatgen
data_Ho4Sc4In3Fe
_symmetry_space_group_name_H-M   'P 1'
_cell_length_a   9.96385700
_cell_length_b   9.96385651
_cell_length_c   6.86620900
_cell_angle_alpha   90.00000000
_cell_angle_beta   90.00000000
_cell_angle_gamma   119.99999832
_symmetry_Int_Tables_number   1
_chemical_formula_structural   Ho4Sc4In3Fe
_chemical_formula_sum   'Ho8 Sc8 In6 Fe2'
_cell_volume   590.34053999
_cell_formula_units_Z   2
loop_
 _symmetry_equiv_pos_site_id
 _symmetry_equiv_pos_as_xyz
  1  'x, y, z'
loop_
 _atom_site_type_symbol
 _atom_site_label
 _atom_site_symmetry_multiplicity
 _atom_site_fract_x
 _atom_site_fract_y
 _atom_site_fract_z
 _atom_site_occupancy
  Ho  Ho0  1  0.466347  0.533653  0.215965  1
  Ho  Ho1  1  0.067306  0.533653  0.215965  1
  Ho  Ho2  1  0.466347  0.932694  0.215965  1
  Ho  Ho3  1  0.533653  0.466347  0.715965  1
  Ho  Ho4  1  0.932694  0.466347  0.715965  1
  Ho  Ho5  1  0.533653  0.067306  0.715965  1
  Ho  Ho6  1  0.000000  0.000000  0.225234  1
  Ho  Ho7  1  0.000000  0.000000  0.725234  1
  Sc  Sc8  1  0.180011  0.819989  0.509596  1
  Sc  Sc9  1  0.639976  0.819989  0.509596  1
  Sc  Sc10  1  0.180011  0.360024  0.509596  1
  Sc  Sc11  1  0.819989  0.180011  0.009596  1
  Sc  Sc12  1  0.360024  0.180011  0.009596  1
  Sc  Sc13  1  0.819989  0.639976  0.009596  1
  Sc  Sc14  1  0.333333  0.666667  0.811789  1
  Sc  Sc15  1  0.666667  0.333333  0.311789  1
  In  In16  1  0.163608  0.836392  0.957314  1
  In  In17  1  0.672784  0.836392  0.957314  1
  In  In18  1  0.163608  0.327216  0.957314  1
  In  In19  1  0.836392  0.163608  0.457314  1
  In  In20  1  0.327216  0.163608  0.457314  1
  In  In21  1  0.836392  0.672784  0.457314  1
  Fe  Fe22  1  0.333333  0.666667  0.451374  1
  Fe  Fe23  1  0.666667  0.333333  0.951374  1
