# generated using pymatgen
data_Tm12Th4MgCo4Hg3
_symmetry_space_group_name_H-M   'P 1'
_cell_length_a   9.46347820
_cell_length_b   9.44777353
_cell_length_c   9.44777400
_cell_angle_alpha   60.00000535
_cell_angle_beta   60.05488609
_cell_angle_gamma   60.05488237
_symmetry_Int_Tables_number   1
_chemical_formula_structural   Tm12Th4MgCo4Hg3
_chemical_formula_sum   'Tm12 Th4 Mg1 Co4 Hg3'
_cell_volume   597.79813809
_cell_formula_units_Z   1
loop_
 _symmetry_equiv_pos_site_id
 _symmetry_equiv_pos_as_xyz
  1  'x, y, z'
loop_
 _atom_site_type_symbol
 _atom_site_label
 _atom_site_symmetry_multiplicity
 _atom_site_fract_x
 _atom_site_fract_y
 _atom_site_fract_z
 _atom_site_occupancy
  Tm  Tm0  1  0.811087  0.187976  0.187976  1
  Tm  Tm1  1  0.184041  0.814465  0.814465  1
  Tm  Tm2  1  0.184041  0.814465  0.187029  1
  Tm  Tm3  1  0.811087  0.187976  0.812961  1
  Tm  Tm4  1  0.184041  0.187029  0.814465  1
  Tm  Tm5  1  0.811087  0.812961  0.187976  1
  Tm  Tm6  1  0.933207  0.566172  0.566172  1
  Tm  Tm7  1  0.563171  0.935794  0.935794  1
  Tm  Tm8  1  0.563171  0.935794  0.565241  1
  Tm  Tm9  1  0.933207  0.566172  0.934448  1
  Tm  Tm10  1  0.563171  0.565241  0.935794  1
  Tm  Tm11  1  0.933207  0.934448  0.566172  1
  Th  Th12  1  0.346306  0.346688  0.346688  1
  Th  Th13  1  0.346306  0.346688  0.960318  1
  Th  Th14  1  0.346306  0.960318  0.346688  1
  Th  Th15  1  0.956181  0.347940  0.347940  1
  Mg  Mg16  1  0.275561  0.574813  0.574813  1
  Co  Co17  1  0.143577  0.143195  0.143195  1
  Co  Co18  1  0.143577  0.143195  0.570033  1
  Co  Co19  1  0.143577  0.570033  0.143195  1
  Co  Co20  1  0.567718  0.144094  0.144094  1
  Hg  Hg21  1  0.585458  0.587797  0.587797  1
  Hg  Hg22  1  0.585458  0.587797  0.238947  1
  Hg  Hg23  1  0.585458  0.238947  0.587797  1
