# generated using pymatgen
data_Er3Th2Sc3(CdIr)2
_symmetry_space_group_name_H-M   'P 1'
_cell_length_a   9.50052525
_cell_length_b   9.50052582
_cell_length_c   9.50052600
_cell_angle_alpha   59.99999939
_cell_angle_beta   59.99999739
_cell_angle_gamma   60.00000227
_symmetry_Int_Tables_number   1
_chemical_formula_structural   Er3Th2Sc3(CdIr)2
_chemical_formula_sum   'Er6 Th4 Sc6 Cd4 Ir4'
_cell_volume   606.35632089
_cell_formula_units_Z   2
loop_
 _symmetry_equiv_pos_site_id
 _symmetry_equiv_pos_as_xyz
  1  'x, y, z'
loop_
 _atom_site_type_symbol
 _atom_site_label
 _atom_site_symmetry_multiplicity
 _atom_site_fract_x
 _atom_site_fract_y
 _atom_site_fract_z
 _atom_site_occupancy
  Er  Er0  1  0.186798  0.813202  0.813202  1
  Er  Er1  1  0.813202  0.186798  0.186798  1
  Er  Er2  1  0.813202  0.186798  0.813202  1
  Er  Er3  1  0.186798  0.813202  0.186798  1
  Er  Er4  1  0.813202  0.813202  0.186798  1
  Er  Er5  1  0.186798  0.186798  0.813202  1
  Th  Th6  1  0.601824  0.601824  0.601824  1
  Th  Th7  1  0.601824  0.601824  0.194529  1
  Th  Th8  1  0.601824  0.194529  0.601824  1
  Th  Th9  1  0.194529  0.601824  0.601824  1
  Sc  Sc10  1  0.068033  0.431967  0.431967  1
  Sc  Sc11  1  0.431967  0.068033  0.068033  1
  Sc  Sc12  1  0.431967  0.068033  0.431967  1
  Sc  Sc13  1  0.068033  0.431967  0.068033  1
  Sc  Sc14  1  0.431967  0.431967  0.068033  1
  Sc  Sc15  1  0.068033  0.068033  0.431967  1
  Cd  Cd16  1  0.833396  0.833396  0.833396  1
  Cd  Cd17  1  0.833396  0.833396  0.499811  1
  Cd  Cd18  1  0.833396  0.499811  0.833396  1
  Cd  Cd19  1  0.499811  0.833396  0.833396  1
  Ir  Ir20  1  0.389980  0.389980  0.389980  1
  Ir  Ir21  1  0.389980  0.389980  0.830059  1
  Ir  Ir22  1  0.389980  0.830059  0.389980  1
  Ir  Ir23  1  0.830059  0.389980  0.389980  1
