# generated using pymatgen
data_PPd5Pt
_symmetry_space_group_name_H-M   'P 1'
_cell_length_a   9.58059300
_cell_length_b   5.75709347
_cell_length_c   8.42481806
_cell_angle_alpha   69.40653435
_cell_angle_beta   90.00000000
_cell_angle_gamma   90.00000000
_symmetry_Int_Tables_number   1
_chemical_formula_structural   PPd5Pt
_chemical_formula_sum   'P4 Pd20 Pt4'
_cell_volume   434.98901290
_cell_formula_units_Z   4
loop_
 _symmetry_equiv_pos_site_id
 _symmetry_equiv_pos_as_xyz
  1  'x, y, z'
loop_
 _atom_site_type_symbol
 _atom_site_label
 _atom_site_symmetry_multiplicity
 _atom_site_fract_x
 _atom_site_fract_y
 _atom_site_fract_z
 _atom_site_occupancy
  P  P0  1  0.762444  0.874240  0.751633  1
  P  P1  1  0.262444  0.125760  0.748367  1
  P  P2  1  0.237556  0.125760  0.248367  1
  P  P3  1  0.737556  0.874240  0.251633  1
  Pd  Pd4  1  0.135788  0.773797  0.431324  1
  Pd  Pd5  1  0.635788  0.226203  0.068676  1
  Pd  Pd6  1  0.864212  0.226203  0.568676  1
  Pd  Pd7  1  0.364212  0.773797  0.931324  1
  Pd  Pd8  1  0.865386  0.713511  0.563483  1
  Pd  Pd9  1  0.365386  0.286489  0.936517  1
  Pd  Pd10  1  0.134614  0.286489  0.436517  1
  Pd  Pd11  1  0.634614  0.713511  0.063483  1
  Pd  Pd12  1  0.419310  0.866596  0.250314  1
  Pd  Pd13  1  0.919310  0.133404  0.249686  1
  Pd  Pd14  1  0.580690  0.133404  0.749686  1
  Pd  Pd15  1  0.080690  0.866596  0.750314  1
  Pd  Pd16  1  0.580939  0.618926  0.747427  1
  Pd  Pd17  1  0.080939  0.381074  0.752573  1
  Pd  Pd18  1  0.419061  0.381074  0.252573  1
  Pd  Pd19  1  0.919061  0.618926  0.247427  1
  Pd  Pd20  1  0.363849  0.954768  0.565593  1
  Pd  Pd21  1  0.863849  0.045232  0.934407  1
  Pd  Pd22  1  0.636151  0.045232  0.434407  1
  Pd  Pd23  1  0.136151  0.954768  0.065593  1
  Pt  Pt24  1  0.869266  0.528964  0.931775  1
  Pt  Pt25  1  0.369266  0.471036  0.568225  1
  Pt  Pt26  1  0.130734  0.471036  0.068225  1
  Pt  Pt27  1  0.630734  0.528964  0.431775  1
