# generated using pymatgen
data_DyY19(Hg3Ru)2
_symmetry_space_group_name_H-M   'P 1'
_cell_length_a   9.65361402
_cell_length_b   9.65364203
_cell_length_c   9.70900564
_cell_angle_alpha   90.07323863
_cell_angle_beta   89.92669274
_cell_angle_gamma   119.99021452
_symmetry_Int_Tables_number   1
_chemical_formula_structural   DyY19(Hg3Ru)2
_chemical_formula_sum   'Dy1 Y19 Hg6 Ru2'
_cell_volume   783.66210667
_cell_formula_units_Z   1
loop_
 _symmetry_equiv_pos_site_id
 _symmetry_equiv_pos_as_xyz
  1  'x, y, z'
loop_
 _atom_site_type_symbol
 _atom_site_label
 _atom_site_symmetry_multiplicity
 _atom_site_fract_x
 _atom_site_fract_y
 _atom_site_fract_z
 _atom_site_occupancy
  Dy  Dy0  1  0.210173  0.789826  0.438709  1
  Y  Y1  1  0.000217  0.999783  0.499859  1
  Y  Y2  1  0.000005  0.999996  0.999996  1
  Y  Y3  1  0.209433  0.419010  0.439827  1
  Y  Y4  1  0.580988  0.790566  0.439828  1
  Y  Y5  1  0.790485  0.209516  0.560350  1
  Y  Y6  1  0.790679  0.580921  0.560318  1
  Y  Y7  1  0.419080  0.209325  0.560316  1
  Y  Y8  1  0.790445  0.209554  0.939601  1
  Y  Y9  1  0.790488  0.580890  0.939653  1
  Y  Y10  1  0.419111  0.209514  0.939652  1
  Y  Y11  1  0.209442  0.790559  0.060530  1
  Y  Y12  1  0.209658  0.419155  0.060314  1
  Y  Y13  1  0.580843  0.790340  0.060313  1
  Y  Y14  1  0.541167  0.458832  0.249983  1
  Y  Y15  1  0.540965  0.082087  0.250145  1
  Y  Y16  1  0.917914  0.459036  0.250144  1
  Y  Y17  1  0.458874  0.541126  0.750017  1
  Y  Y18  1  0.458710  0.917580  0.749780  1
  Y  Y19  1  0.082420  0.541289  0.749779  1
  Hg  Hg20  1  0.881051  0.118950  0.250077  1
  Hg  Hg21  1  0.881076  0.762131  0.249941  1
  Hg  Hg22  1  0.237869  0.118922  0.249940  1
  Hg  Hg23  1  0.118915  0.881085  0.750036  1
  Hg  Hg24  1  0.118913  0.237965  0.750021  1
  Hg  Hg25  1  0.762036  0.881089  0.750022  1
  Ru  Ru26  1  0.332439  0.667558  0.250934  1
  Ru  Ru27  1  0.666606  0.333396  0.749914  1
