# generated using pymatgen
data_ErZr(SiTc2)4
_symmetry_space_group_name_H-M   'P 1'
_cell_length_a   7.31592578
_cell_length_b   7.31592578
_cell_length_c   4.11383000
_cell_angle_alpha   90.00000000
_cell_angle_beta   90.00000000
_cell_angle_gamma   88.84629996
_symmetry_Int_Tables_number   1
_chemical_formula_structural   ErZr(SiTc2)4
_chemical_formula_sum   'Er1 Zr1 Si4 Tc8'
_cell_volume   220.13894144
_cell_formula_units_Z   1
loop_
 _symmetry_equiv_pos_site_id
 _symmetry_equiv_pos_as_xyz
  1  'x, y, z'
loop_
 _atom_site_type_symbol
 _atom_site_label
 _atom_site_symmetry_multiplicity
 _atom_site_fract_x
 _atom_site_fract_y
 _atom_site_fract_z
 _atom_site_occupancy
  Er  Er0  1  0.500000  0.500000  0.000000  1
  Zr  Zr1  1  0.000000  0.000000  0.500000  1
  Si  Si2  1  0.202422  0.797578  0.000000  1
  Si  Si3  1  0.286999  0.286999  0.500000  1
  Si  Si4  1  0.713001  0.713001  0.500000  1
  Si  Si5  1  0.797578  0.202422  0.000000  1
  Tc  Tc6  1  0.600370  0.152413  0.500000  1
  Tc  Tc7  1  0.399630  0.847587  0.500000  1
  Tc  Tc8  1  0.152413  0.600370  0.500000  1
  Tc  Tc9  1  0.847587  0.399630  0.500000  1
  Tc  Tc10  1  0.088222  0.342333  0.000000  1
  Tc  Tc11  1  0.911778  0.657667  0.000000  1
  Tc  Tc12  1  0.657667  0.911778  0.000000  1
  Tc  Tc13  1  0.342333  0.088222  0.000000  1
