# generated using pymatgen
data_MgNpReH6
_symmetry_space_group_name_H-M   'P 1'
_cell_length_a   4.96967639
_cell_length_b   4.96971158
_cell_length_c   4.96964500
_cell_angle_alpha   120.00058851
_cell_angle_beta   120.00006919
_cell_angle_gamma   89.99868208
_symmetry_Int_Tables_number   1
_chemical_formula_structural   MgNpReH6
_chemical_formula_sum   'Mg1 Np1 Re1 H6'
_cell_volume   86.79013029
_cell_formula_units_Z   1
loop_
 _symmetry_equiv_pos_site_id
 _symmetry_equiv_pos_as_xyz
  1  'x, y, z'
loop_
 _atom_site_type_symbol
 _atom_site_label
 _atom_site_symmetry_multiplicity
 _atom_site_fract_x
 _atom_site_fract_y
 _atom_site_fract_z
 _atom_site_occupancy
  Mg  Mg0  1  0.250007  0.749998  0.499990  1
  Np  Np1  1  0.749983  0.249987  0.499996  1
  Re  Re2  1  0.999997  0.999995  0.999996  1
  H  H3  1  0.252963  0.252966  0.000003  1
  H  H4  1  0.747047  0.252967  0.000010  1
  H  H5  1  0.252961  0.747038  0.000001  1
  H  H6  1  0.747038  0.747039  0.000002  1
  H  H7  1  0.747039  0.747045  0.494082  1
  H  H8  1  0.252960  0.252959  0.505915  1
