# generated using pymatgen
data_Tb2Yb4Cr(RuC4)3
_symmetry_space_group_name_H-M   'P 1'
_cell_length_a   8.25674018
_cell_length_b   8.26528107
_cell_length_c   5.11153350
_cell_angle_alpha   90.05858438
_cell_angle_beta   89.84091381
_cell_angle_gamma   119.90990309
_symmetry_Int_Tables_number   1
_chemical_formula_structural   Tb2Yb4Cr(RuC4)3
_chemical_formula_sum   'Tb2 Yb4 Cr1 Ru3 C12'
_cell_volume   302.37086818
_cell_formula_units_Z   1
loop_
 _symmetry_equiv_pos_site_id
 _symmetry_equiv_pos_as_xyz
  1  'x, y, z'
loop_
 _atom_site_type_symbol
 _atom_site_label
 _atom_site_symmetry_multiplicity
 _atom_site_fract_x
 _atom_site_fract_y
 _atom_site_fract_z
 _atom_site_occupancy
  Tb  Tb0  1  0.064361  0.378387  0.746001  1
  Tb  Tb1  1  0.376298  0.309652  0.253005  1
  Yb  Yb2  1  0.618492  0.689294  0.748114  1
  Yb  Yb3  1  0.929685  0.620305  0.251371  1
  Yb  Yb4  1  0.683856  0.068226  0.252058  1
  Yb  Yb5  1  0.311558  0.930186  0.749137  1
  Cr  Cr6  1  0.998803  0.998864  0.499590  1
  Ru  Ru7  1  0.999417  0.997191  0.999553  1
  Ru  Ru8  1  0.668521  0.333476  0.753459  1
  Ru  Ru9  1  0.332152  0.662740  0.246451  1
  C  C10  1  0.958209  0.775056  0.740858  1
  C  C11  1  0.190649  0.961487  0.260019  1
  C  C12  1  0.775687  0.817672  0.259259  1
  C  C13  1  0.227819  0.193376  0.738794  1
  C  C14  1  0.817914  0.041434  0.740850  1
  C  C15  1  0.038225  0.222375  0.261830  1
  C  C16  1  0.871966  0.589867  0.751126  1
  C  C17  1  0.281524  0.865653  0.249487  1
  C  C18  1  0.590018  0.721826  0.248483  1
  C  C19  1  0.415407  0.281320  0.751361  1
  C  C20  1  0.127738  0.409638  0.246920  1
  C  C21  1  0.721700  0.131973  0.752278  1
