# generated using pymatgen
data_DyHoCrSbO7
_symmetry_space_group_name_H-M   'P 1'
_cell_length_a   7.26478939
_cell_length_b   7.24239831
_cell_length_c   7.32418700
_cell_angle_alpha   90.00009205
_cell_angle_beta   59.72950994
_cell_angle_gamma   119.89832769
_symmetry_Int_Tables_number   1
_chemical_formula_structural   DyHoCrSbO7
_chemical_formula_sum   'Dy2 Ho2 Cr2 Sb2 O14'
_cell_volume   271.79012231
_cell_formula_units_Z   2
loop_
 _symmetry_equiv_pos_site_id
 _symmetry_equiv_pos_as_xyz
  1  'x, y, z'
loop_
 _atom_site_type_symbol
 _atom_site_label
 _atom_site_symmetry_multiplicity
 _atom_site_fract_x
 _atom_site_fract_y
 _atom_site_fract_z
 _atom_site_occupancy
  Dy  Dy0  1  0.000003  0.000003  0.500001  1
  Dy  Dy1  1  0.999995  0.000000  0.000005  1
  Ho  Ho2  1  0.500002  0.499998  0.999998  1
  Ho  Ho3  1  0.499998  0.999994  0.000000  1
  Cr  Cr4  1  0.500024  0.000020  0.499984  1
  Cr  Cr5  1  0.499974  0.499990  0.499989  1
  Sb  Sb6  1  0.999997  0.499997  0.000001  1
  Sb  Sb7  1  0.000003  0.500001  0.500000  1
  O  O8  1  0.257674  0.128836  0.121163  1
  O  O9  1  0.742321  0.871160  0.878841  1
  O  O10  1  0.681259  0.840630  0.409387  1
  O  O11  1  0.836386  0.418191  0.831816  1
  O  O12  1  0.252699  0.831757  0.837250  1
  O  O13  1  0.252710  0.420948  0.410032  1
  O  O14  1  0.252702  0.420942  0.837239  1
  O  O15  1  0.252712  0.831758  0.410030  1
  O  O16  1  0.318748  0.159372  0.590612  1
  O  O17  1  0.163613  0.581809  0.168186  1
  O  O18  1  0.747299  0.168241  0.162760  1
  O  O19  1  0.747289  0.579053  0.589973  1
  O  O20  1  0.747298  0.579058  0.162756  1
  O  O21  1  0.747293  0.168243  0.589977  1
