# generated using pymatgen
data_YbAgSn2(Pt2O7)2
_symmetry_space_group_name_H-M   'P 1'
_cell_length_a   7.26779566
_cell_length_b   7.15283601
_cell_length_c   7.26779400
_cell_angle_alpha   59.28209118
_cell_angle_beta   59.88692807
_cell_angle_gamma   59.28208611
_symmetry_Int_Tables_number   1
_chemical_formula_structural   YbAgSn2(Pt2O7)2
_chemical_formula_sum   'Yb1 Ag1 Sn2 Pt4 O14'
_cell_volume   264.00095730
_cell_formula_units_Z   1
loop_
 _symmetry_equiv_pos_site_id
 _symmetry_equiv_pos_as_xyz
  1  'x, y, z'
loop_
 _atom_site_type_symbol
 _atom_site_label
 _atom_site_symmetry_multiplicity
 _atom_site_fract_x
 _atom_site_fract_y
 _atom_site_fract_z
 _atom_site_occupancy
  Yb  Yb0  1  0.625000  0.625000  0.625000  1
  Ag  Ag1  1  0.625000  0.125000  0.625000  1
  Sn  Sn2  1  0.625000  0.625000  0.125000  1
  Sn  Sn3  1  0.125000  0.625000  0.625000  1
  Pt  Pt4  1  0.125000  0.125000  0.125000  1
  Pt  Pt5  1  0.625000  0.125000  0.125000  1
  Pt  Pt6  1  0.125000  0.125000  0.625000  1
  Pt  Pt7  1  0.125000  0.625000  0.125000  1
  O  O8  1  0.039947  0.473227  0.465964  1
  O  O9  1  0.784036  0.776773  0.210053  1
  O  O10  1  0.787501  0.231032  0.195961  1
  O  O11  1  0.461925  0.035499  0.461925  1
  O  O12  1  0.769687  0.732552  0.769687  1
  O  O13  1  0.037324  0.464839  0.037324  1
  O  O14  1  0.054039  0.018968  0.462499  1
  O  O15  1  0.212676  0.785161  0.212676  1
  O  O16  1  0.195961  0.231032  0.787501  1
  O  O17  1  0.788075  0.214501  0.788075  1
  O  O18  1  0.480313  0.517448  0.480313  1
  O  O19  1  0.462499  0.018968  0.054039  1
  O  O20  1  0.465964  0.473227  0.039947  1
  O  O21  1  0.210053  0.776773  0.784036  1
