# generated using pymatgen
data_Eu(As3Pt2)2
_symmetry_space_group_name_H-M   'P 1'
_cell_length_a   6.05332784
_cell_length_b   6.05332823
_cell_length_c   12.13268412
_cell_angle_alpha   90.58377092
_cell_angle_beta   90.58377062
_cell_angle_gamma   88.43407840
_symmetry_Int_Tables_number   1
_chemical_formula_structural   Eu(As3Pt2)2
_chemical_formula_sum   'Eu2 As12 Pt8'
_cell_volume   444.36434177
_cell_formula_units_Z   2
loop_
 _symmetry_equiv_pos_site_id
 _symmetry_equiv_pos_as_xyz
  1  'x, y, z'
loop_
 _atom_site_type_symbol
 _atom_site_label
 _atom_site_symmetry_multiplicity
 _atom_site_fract_x
 _atom_site_fract_y
 _atom_site_fract_z
 _atom_site_occupancy
  Eu  Eu0  1  0.590966  0.409035  0.250000  1
  Eu  Eu1  1  0.409035  0.590966  0.750000  1
  As  As2  1  0.123048  0.615811  0.054743  1
  As  As3  1  0.623055  0.879936  0.056398  1
  As  As4  1  0.135888  0.097282  0.191441  1
  As  As5  1  0.902718  0.864111  0.308558  1
  As  As6  1  0.120064  0.376946  0.443602  1
  As  As7  1  0.384189  0.876952  0.445257  1
  As  As8  1  0.615811  0.123048  0.554743  1
  As  As9  1  0.879936  0.623055  0.556398  1
  As  As10  1  0.097282  0.135888  0.691441  1
  As  As11  1  0.864111  0.902718  0.808558  1
  As  As12  1  0.376946  0.120064  0.943602  1
  As  As13  1  0.876952  0.384189  0.945257  1
  Pt  Pt14  1  0.000000  0.000000  0.000000  1
  Pt  Pt15  1  0.500000  0.500000  0.000000  1
  Pt  Pt16  1  0.072635  0.494311  0.249631  1
  Pt  Pt17  1  0.505688  0.927365  0.250369  1
  Pt  Pt18  1  0.000000  0.000000  0.500000  1
  Pt  Pt19  1  0.500000  0.500000  0.500000  1
  Pt  Pt20  1  0.494311  0.072635  0.749631  1
  Pt  Pt21  1  0.927365  0.505688  0.750370  1
