# generated using pymatgen
data_Sr3Ce(Pt2O7)2
_symmetry_space_group_name_H-M   'P 1'
_cell_length_a   7.45061177
_cell_length_b   7.47232777
_cell_length_c   7.45061200
_cell_angle_alpha   60.09608847
_cell_angle_beta   59.99999898
_cell_angle_gamma   60.09608370
_symmetry_Int_Tables_number   1
_chemical_formula_structural   Sr3Ce(Pt2O7)2
_chemical_formula_sum   'Sr3 Ce1 Pt4 O14'
_cell_volume   293.73386054
_cell_formula_units_Z   1
loop_
 _symmetry_equiv_pos_site_id
 _symmetry_equiv_pos_as_xyz
  1  'x, y, z'
loop_
 _atom_site_type_symbol
 _atom_site_label
 _atom_site_symmetry_multiplicity
 _atom_site_fract_x
 _atom_site_fract_y
 _atom_site_fract_z
 _atom_site_occupancy
  Sr  Sr0  1  0.125000  0.125000  0.625000  1
  Sr  Sr1  1  0.625000  0.125000  0.125000  1
  Sr  Sr2  1  0.125000  0.125000  0.125000  1
  Ce  Ce3  1  0.125000  0.625000  0.125000  1
  Pt  Pt4  1  0.625000  0.625000  0.125000  1
  Pt  Pt5  1  0.625000  0.125000  0.625000  1
  Pt  Pt6  1  0.125000  0.625000  0.625000  1
  Pt  Pt7  1  0.625000  0.625000  0.625000  1
  O  O8  1  0.236457  0.290629  0.236457  1
  O  O9  1  0.013543  0.959371  0.013543  1
  O  O10  1  0.548779  0.950029  0.548779  1
  O  O11  1  0.295524  0.696536  0.295524  1
  O  O12  1  0.537584  0.553464  0.954476  1
  O  O13  1  0.954476  0.553464  0.537584  1
  O  O14  1  0.548779  0.950029  0.952413  1
  O  O15  1  0.952413  0.950029  0.548779  1
  O  O16  1  0.954476  0.553464  0.954476  1
  O  O17  1  0.701221  0.299971  0.297587  1
  O  O18  1  0.295524  0.696536  0.712416  1
  O  O19  1  0.701221  0.299971  0.701221  1
  O  O20  1  0.297587  0.299971  0.701221  1
  O  O21  1  0.712416  0.696536  0.295524  1
