# generated using pymatgen
data_Ca7Eu(Sc3Sn4)4
_symmetry_space_group_name_H-M   'P 1'
_cell_length_a   7.67483633
_cell_length_b   8.09227998
_cell_length_c   15.15057400
_cell_angle_alpha   89.93282209
_cell_angle_beta   89.90597315
_cell_angle_gamma   90.18758154
_symmetry_Int_Tables_number   1
_chemical_formula_structural   Ca7Eu(Sc3Sn4)4
_chemical_formula_sum   'Ca7 Eu1 Sc12 Sn16'
_cell_volume   940.94859199
_cell_formula_units_Z   1
loop_
 _symmetry_equiv_pos_site_id
 _symmetry_equiv_pos_as_xyz
  1  'x, y, z'
loop_
 _atom_site_type_symbol
 _atom_site_label
 _atom_site_symmetry_multiplicity
 _atom_site_fract_x
 _atom_site_fract_y
 _atom_site_fract_z
 _atom_site_occupancy
  Ca  Ca0  1  0.994594  0.177753  0.091623  1
  Ca  Ca1  1  0.005402  0.822731  0.908024  1
  Ca  Ca2  1  0.506152  0.677287  0.907978  1
  Ca  Ca3  1  0.006219  0.822981  0.591586  1
  Ca  Ca4  1  0.494336  0.322296  0.091569  1
  Ca  Ca5  1  0.994438  0.178640  0.408710  1
  Ca  Ca6  1  0.494579  0.321434  0.408189  1
  Eu  Eu7  1  0.504830  0.676141  0.592106  1
  Sc  Sc8  1  0.164133  0.499409  0.750609  1
  Sc  Sc9  1  0.835348  0.499570  0.250252  1
  Sc  Sc10  1  0.335910  0.999956  0.249996  1
  Sc  Sc11  1  0.664896  0.000989  0.750132  1
  Sc  Sc12  1  0.330489  0.158939  0.626042  1
  Sc  Sc13  1  0.669065  0.841790  0.373494  1
  Sc  Sc14  1  0.168556  0.657846  0.374006  1
  Sc  Sc15  1  0.669340  0.841451  0.125925  1
  Sc  Sc16  1  0.831612  0.340788  0.625997  1
  Sc  Sc17  1  0.330160  0.158985  0.873637  1
  Sc  Sc18  1  0.830677  0.341112  0.873722  1
  Sc  Sc19  1  0.169050  0.658463  0.125928  1
  Sn  Sn20  1  0.026188  0.130602  0.749747  1
  Sn  Sn21  1  0.974135  0.868888  0.250011  1
  Sn  Sn22  1  0.473228  0.630126  0.249852  1
  Sn  Sn23  1  0.526148  0.370494  0.749486  1
  Sn  Sn24  1  0.302535  0.857242  0.751051  1
  Sn  Sn25  1  0.697563  0.143522  0.250045  1
  Sn  Sn26  1  0.196965  0.356844  0.250147  1
  Sn  Sn27  1  0.804294  0.643293  0.749890  1
  Sn  Sn28  1  0.169992  0.456441  0.544335  1
  Sn  Sn29  1  0.828957  0.544064  0.456000  1
  Sn  Sn30  1  0.329193  0.957144  0.456133  1
  Sn  Sn31  1  0.829515  0.543050  0.044141  1
  Sn  Sn32  1  0.671285  0.042649  0.544441  1
  Sn  Sn33  1  0.170746  0.457206  0.955605  1
  Sn  Sn34  1  0.670177  0.042548  0.955481  1
  Sn  Sn35  1  0.329294  0.957326  0.044108  1
