# generated using pymatgen
data_Tb13Dy3In2(AgRh2)2
_symmetry_space_group_name_H-M   'P 1'
_cell_length_a   9.62577202
_cell_length_b   9.62452457
_cell_length_c   9.63323080
_cell_angle_alpha   59.90799357
_cell_angle_beta   59.89568970
_cell_angle_gamma   60.04426193
_symmetry_Int_Tables_number   1
_chemical_formula_structural   Tb13Dy3In2(AgRh2)2
_chemical_formula_sum   'Tb13 Dy3 In2 Ag2 Rh4'
_cell_volume   630.33366722
_cell_formula_units_Z   1
loop_
 _symmetry_equiv_pos_site_id
 _symmetry_equiv_pos_as_xyz
  1  'x, y, z'
loop_
 _atom_site_type_symbol
 _atom_site_label
 _atom_site_symmetry_multiplicity
 _atom_site_fract_x
 _atom_site_fract_y
 _atom_site_fract_z
 _atom_site_occupancy
  Tb  Tb0  1  0.648139  0.052415  0.647908  1
  Tb  Tb1  1  0.063200  0.063549  0.437469  1
  Tb  Tb2  1  0.439566  0.439187  0.060723  1
  Tb  Tb3  1  0.650187  0.649773  0.649592  1
  Tb  Tb4  1  0.811269  0.189103  0.190465  1
  Tb  Tb5  1  0.190040  0.811189  0.809486  1
  Tb  Tb6  1  0.052161  0.648178  0.647866  1
  Tb  Tb7  1  0.438655  0.067055  0.058604  1
  Tb  Tb8  1  0.436912  0.066651  0.435611  1
  Tb  Tb9  1  0.067040  0.438347  0.058880  1
  Tb  Tb10  1  0.649592  0.649506  0.052147  1
  Tb  Tb11  1  0.189139  0.811275  0.190774  1
  Tb  Tb12  1  0.066663  0.436664  0.435746  1
  Dy  Dy13  1  0.807935  0.808323  0.192057  1
  Dy  Dy14  1  0.810999  0.190364  0.809387  1
  Dy  Dy15  1  0.188350  0.188450  0.813562  1
  In  In16  1  0.417061  0.742306  0.421212  1
  In  In17  1  0.742216  0.417030  0.421231  1
  Ag  Ag18  1  0.416363  0.416369  0.418287  1
  Ag  Ag19  1  0.416294  0.416087  0.749631  1
  Rh  Rh20  1  0.857297  0.426563  0.857073  1
  Rh  Rh21  1  0.857039  0.857484  0.858844  1
  Rh  Rh22  1  0.856939  0.856816  0.426266  1
  Rh  Rh23  1  0.426939  0.857311  0.857180  1
