# generated using pymatgen
data_Y3PaGa2Rh3
_symmetry_space_group_name_H-M   'P 1'
_cell_length_a   7.34983034
_cell_length_b   7.28232976
_cell_length_c   4.06667200
_cell_angle_alpha   90.00000000
_cell_angle_beta   90.00000000
_cell_angle_gamma   119.69666841
_symmetry_Int_Tables_number   1
_chemical_formula_structural   Y3PaGa2Rh3
_chemical_formula_sum   'Y3 Pa1 Ga2 Rh3'
_cell_volume   189.07616522
_cell_formula_units_Z   1
loop_
 _symmetry_equiv_pos_site_id
 _symmetry_equiv_pos_as_xyz
  1  'x, y, z'
loop_
 _atom_site_type_symbol
 _atom_site_label
 _atom_site_symmetry_multiplicity
 _atom_site_fract_x
 _atom_site_fract_y
 _atom_site_fract_z
 _atom_site_occupancy
  Y  Y0  1  0.000000  0.633223  0.500000  1
  Y  Y1  1  0.442946  0.410094  0.500000  1
  Y  Y2  1  0.557054  0.967147  0.500000  1
  Pa  Pa3  1  0.000000  0.262229  0.000000  1
  Ga  Ga4  1  0.257690  0.005451  0.000000  1
  Ga  Ga5  1  0.742310  0.747761  0.000000  1
  Rh  Rh6  1  0.313975  0.638261  0.000000  1
  Rh  Rh7  1  0.000000  0.011550  0.500000  1
  Rh  Rh8  1  0.686025  0.324285  0.000000  1
