# generated using pymatgen
data_Pr5DyTl4In2O18
_symmetry_space_group_name_H-M   'P 1'
_cell_length_a   6.67736102
_cell_length_b   6.67515952
_cell_length_c   12.56686436
_cell_angle_alpha   90.02022905
_cell_angle_beta   90.00527953
_cell_angle_gamma   120.01938628
_symmetry_Int_Tables_number   1
_chemical_formula_structural   Pr5DyTl4In2O18
_chemical_formula_sum   'Pr5 Dy1 Tl4 In2 O18'
_cell_volume   484.99710422
_cell_formula_units_Z   1
loop_
 _symmetry_equiv_pos_site_id
 _symmetry_equiv_pos_as_xyz
  1  'x, y, z'
loop_
 _atom_site_type_symbol
 _atom_site_label
 _atom_site_symmetry_multiplicity
 _atom_site_fract_x
 _atom_site_fract_y
 _atom_site_fract_z
 _atom_site_occupancy
  Pr  Pr0  1  0.335083  0.673608  0.231487  1
  Pr  Pr1  1  0.998361  0.000413  0.264817  1
  Pr  Pr2  1  0.001843  0.000019  0.768146  1
  Pr  Pr3  1  0.338148  0.672854  0.728239  1
  Pr  Pr4  1  0.665277  0.327048  0.729594  1
  Dy  Dy5  1  0.660850  0.325531  0.228547  1
  Tl  Tl6  1  0.997055  0.663839  0.493592  1
  Tl  Tl7  1  0.998904  0.334992  0.997449  1
  Tl  Tl8  1  0.335962  0.333762  0.493621  1
  Tl  Tl9  1  0.665623  0.663536  0.997501  1
  In  In10  1  0.335468  0.001592  0.997921  1
  In  In11  1  0.667353  0.002411  0.494091  1
  O  O12  1  0.000815  0.691999  0.666487  1
  O  O13  1  0.986810  0.629457  0.322978  1
  O  O14  1  0.000992  0.359252  0.826387  1
  O  O15  1  0.988639  0.310557  0.169970  1
  O  O16  1  0.333955  0.681883  0.028730  1
  O  O17  1  0.984834  0.000136  0.461816  1
  O  O18  1  0.347792  0.681704  0.521309  1
  O  O19  1  0.015131  0.000162  0.968175  1
  O  O20  1  0.307633  0.309294  0.666497  1
  O  O21  1  0.370115  0.357665  0.322999  1
  O  O22  1  0.316597  0.010599  0.169659  1
  O  O23  1  0.641433  0.641100  0.826446  1
  O  O24  1  0.689328  0.677547  0.170005  1
  O  O25  1  0.361751  0.999963  0.828193  1
  O  O26  1  0.666152  0.318531  0.527761  1
  O  O27  1  0.653018  0.318934  0.029328  1
  O  O28  1  0.639756  0.013053  0.324626  1
  O  O29  1  0.695323  0.998557  0.666199  1
