# generated using pymatgen
data_SmLu2Mg(Co4P3)2
_symmetry_space_group_name_H-M   'P 1'
_cell_length_a   3.72025000
_cell_length_b   10.60570400
_cell_length_c   12.24876400
_cell_angle_alpha   90.00000000
_cell_angle_beta   90.00000000
_cell_angle_gamma   90.00000000
_symmetry_Int_Tables_number   1
_chemical_formula_structural   SmLu2Mg(Co4P3)2
_chemical_formula_sum   'Sm2 Lu4 Mg2 Co16 P12'
_cell_volume   483.28564379
_cell_formula_units_Z   2
loop_
 _symmetry_equiv_pos_site_id
 _symmetry_equiv_pos_as_xyz
  1  'x, y, z'
loop_
 _atom_site_type_symbol
 _atom_site_label
 _atom_site_symmetry_multiplicity
 _atom_site_fract_x
 _atom_site_fract_y
 _atom_site_fract_z
 _atom_site_occupancy
  Sm  Sm0  1  0.000000  0.500000  0.526958  1
  Sm  Sm1  1  0.500000  0.000000  0.473042  1
  Lu  Lu2  1  0.500000  0.822835  0.205374  1
  Lu  Lu3  1  0.500000  0.177165  0.205374  1
  Lu  Lu4  1  0.000000  0.677165  0.794626  1
  Lu  Lu5  1  0.000000  0.322835  0.794626  1
  Mg  Mg6  1  0.500000  0.500000  0.155484  1
  Mg  Mg7  1  0.000000  0.000000  0.844516  1
  Co  Co8  1  0.500000  0.500000  0.708817  1
  Co  Co9  1  0.000000  0.000000  0.291183  1
  Co  Co10  1  0.000000  0.500000  0.988803  1
  Co  Co11  1  0.500000  0.000000  0.011197  1
  Co  Co12  1  0.500000  0.332372  0.996867  1
  Co  Co13  1  0.500000  0.667628  0.996867  1
  Co  Co14  1  0.000000  0.167628  0.003133  1
  Co  Co15  1  0.000000  0.832372  0.003133  1
  Co  Co16  1  0.500000  0.295953  0.430867  1
  Co  Co17  1  0.500000  0.704047  0.430867  1
  Co  Co18  1  0.000000  0.204047  0.569133  1
  Co  Co19  1  0.000000  0.795953  0.569133  1
  Co  Co20  1  0.500000  0.877025  0.708429  1
  Co  Co21  1  0.500000  0.122975  0.708429  1
  Co  Co22  1  0.000000  0.622975  0.291571  1
  Co  Co23  1  0.000000  0.377025  0.291571  1
  P  P24  1  0.500000  0.500000  0.885579  1
  P  P25  1  0.000000  0.000000  0.114421  1
  P  P26  1  0.500000  0.500000  0.353363  1
  P  P27  1  0.000000  0.000000  0.646637  1
  P  P28  1  0.500000  0.308352  0.617773  1
  P  P29  1  0.500000  0.691648  0.617773  1
  P  P30  1  0.000000  0.191648  0.382227  1
  P  P31  1  0.000000  0.808352  0.382227  1
  P  P32  1  0.500000  0.837473  0.892058  1
  P  P33  1  0.500000  0.162527  0.892058  1
  P  P34  1  0.000000  0.662527  0.107942  1
  P  P35  1  0.000000  0.337473  0.107942  1
