# generated using pymatgen
data_Ho19ErFeCo3Sb8
_symmetry_space_group_name_H-M   'P 1'
_cell_length_a   7.84167229
_cell_length_b   8.74537400
_cell_length_c   12.13098400
_cell_angle_alpha   90.00004982
_cell_angle_beta   90.12030804
_cell_angle_gamma   89.99993796
_symmetry_Int_Tables_number   1
_chemical_formula_structural   Ho19ErFeCo3Sb8
_chemical_formula_sum   'Ho19 Er1 Fe1 Co3 Sb8'
_cell_volume   831.92111704
_cell_formula_units_Z   1
loop_
 _symmetry_equiv_pos_site_id
 _symmetry_equiv_pos_as_xyz
  1  'x, y, z'
loop_
 _atom_site_type_symbol
 _atom_site_label
 _atom_site_symmetry_multiplicity
 _atom_site_fract_x
 _atom_site_fract_y
 _atom_site_fract_z
 _atom_site_occupancy
  Ho  Ho0  1  0.158298  0.750001  0.205686  1
  Ho  Ho1  1  0.655169  0.250000  0.296278  1
  Ho  Ho2  1  0.844688  0.250000  0.797741  1
  Ho  Ho3  1  0.344415  0.750000  0.702827  1
  Ho  Ho4  1  0.453644  0.750000  0.997526  1
  Ho  Ho5  1  0.949930  0.250000  0.502913  1
  Ho  Ho6  1  0.545527  0.250000  0.002079  1
  Ho  Ho7  1  0.046660  0.750000  0.496937  1
  Ho  Ho8  1  0.622287  0.750000  0.305884  1
  Ho  Ho9  1  0.123261  0.249999  0.191946  1
  Ho  Ho10  1  0.377678  0.250000  0.692875  1
  Ho  Ho11  1  0.877545  0.750001  0.807275  1
  Ho  Ho12  1  0.324775  0.032340  0.436648  1
  Ho  Ho13  1  0.177451  0.464389  0.934905  1
  Ho  Ho14  1  0.678613  0.539401  0.565027  1
  Ho  Ho15  1  0.177449  0.035611  0.934906  1
  Ho  Ho16  1  0.678613  0.960599  0.565027  1
  Ho  Ho17  1  0.821880  0.536218  0.065499  1
  Ho  Ho18  1  0.324775  0.467660  0.436648  1
  Er  Er19  1  0.821884  0.963782  0.065499  1
  Fe  Fe20  1  0.427132  0.750000  0.487357  1
  Co  Co21  1  0.934501  0.249999  0.009768  1
  Co  Co22  1  0.567813  0.250000  0.509585  1
  Co  Co23  1  0.066671  0.750001  0.991290  1
  Sb  Sb24  1  0.929549  0.992864  0.326714  1
  Sb  Sb25  1  0.429327  0.008569  0.172279  1
  Sb  Sb26  1  0.069953  0.491469  0.672811  1
  Sb  Sb27  1  0.570843  0.507969  0.827131  1
  Sb  Sb28  1  0.069953  0.008531  0.672811  1
  Sb  Sb29  1  0.570843  0.992031  0.827131  1
  Sb  Sb30  1  0.929550  0.507136  0.326715  1
  Sb  Sb31  1  0.429325  0.491431  0.172279  1
