# generated using pymatgen
data_Pr9Nd(CoAu2)2
_symmetry_space_group_name_H-M   'P 1'
_cell_length_a   8.78498231
_cell_length_b   8.30006700
_cell_length_c   12.24761245
_cell_angle_alpha   90.00000000
_cell_angle_beta   90.03078648
_cell_angle_gamma   90.00000000
_symmetry_Int_Tables_number   1
_chemical_formula_structural   Pr9Nd(CoAu2)2
_chemical_formula_sum   'Pr18 Nd2 Co4 Au8'
_cell_volume   893.04606741
_cell_formula_units_Z   2
loop_
 _symmetry_equiv_pos_site_id
 _symmetry_equiv_pos_as_xyz
  1  'x, y, z'
loop_
 _atom_site_type_symbol
 _atom_site_label
 _atom_site_symmetry_multiplicity
 _atom_site_fract_x
 _atom_site_fract_y
 _atom_site_fract_z
 _atom_site_occupancy
  Pr  Pr0  1  0.336874  0.250000  0.712277  1
  Pr  Pr1  1  0.663126  0.750000  0.287723  1
  Pr  Pr2  1  0.383453  0.750000  0.697863  1
  Pr  Pr3  1  0.616547  0.250000  0.302137  1
  Pr  Pr4  1  0.883193  0.250000  0.802176  1
  Pr  Pr5  1  0.116807  0.750000  0.197824  1
  Pr  Pr6  1  0.954582  0.750000  0.490899  1
  Pr  Pr7  1  0.045418  0.250000  0.509101  1
  Pr  Pr8  1  0.454423  0.250000  0.009124  1
  Pr  Pr9  1  0.545577  0.750000  0.990876  1
  Pr  Pr10  1  0.671416  0.037538  0.575296  1
  Pr  Pr11  1  0.328584  0.962462  0.424704  1
  Pr  Pr12  1  0.170897  0.962267  0.924850  1
  Pr  Pr13  1  0.328584  0.537538  0.424704  1
  Pr  Pr14  1  0.829103  0.037733  0.075150  1
  Pr  Pr15  1  0.671416  0.462462  0.575296  1
  Pr  Pr16  1  0.829103  0.462267  0.075150  1
  Pr  Pr17  1  0.170897  0.537733  0.924850  1
  Nd  Nd18  1  0.837435  0.750000  0.788097  1
  Nd  Nd19  1  0.162565  0.250000  0.211903  1
  Co  Co20  1  0.567835  0.750000  0.506265  1
  Co  Co21  1  0.432165  0.250000  0.493735  1
  Co  Co22  1  0.067728  0.250000  0.994274  1
  Co  Co23  1  0.932272  0.750000  0.005726  1
  Au  Au24  1  0.577804  0.471864  0.825381  1
  Au  Au25  1  0.422196  0.528136  0.174619  1
  Au  Au26  1  0.076092  0.529423  0.674901  1
  Au  Au27  1  0.422196  0.971864  0.174619  1
  Au  Au28  1  0.923908  0.470577  0.325099  1
  Au  Au29  1  0.577804  0.028136  0.825381  1
  Au  Au30  1  0.923908  0.029423  0.325099  1
  Au  Au31  1  0.076092  0.970577  0.674901  1
