# generated using pymatgen
data_Ho7Er3Si5P
_symmetry_space_group_name_H-M   'P 1'
_cell_length_a   8.35816100
_cell_length_b   8.36463486
_cell_length_c   6.25762302
_cell_angle_alpha   90.00892726
_cell_angle_beta   89.99642535
_cell_angle_gamma   119.97521183
_symmetry_Int_Tables_number   1
_chemical_formula_structural   Ho7Er3Si5P
_chemical_formula_sum   'Ho7 Er3 Si5 P1'
_cell_volume   378.97116552
_cell_formula_units_Z   1
loop_
 _symmetry_equiv_pos_site_id
 _symmetry_equiv_pos_as_xyz
  1  'x, y, z'
loop_
 _atom_site_type_symbol
 _atom_site_label
 _atom_site_symmetry_multiplicity
 _atom_site_fract_x
 _atom_site_fract_y
 _atom_site_fract_z
 _atom_site_occupancy
  Ho  Ho0  1  0.000966  0.757143  0.750084  1
  Ho  Ho1  1  0.000717  0.243914  0.249927  1
  Ho  Ho2  1  0.756866  0.756038  0.249911  1
  Ho  Ho3  1  0.755592  0.000046  0.750070  1
  Ho  Ho4  1  0.243844  0.242800  0.750041  1
  Ho  Ho5  1  0.243336  0.000070  0.249934  1
  Ho  Ho6  1  0.333688  0.667402  0.500448  1
  Er  Er7  1  0.666358  0.332735  0.999687  1
  Er  Er8  1  0.666377  0.332749  0.500262  1
  Er  Er9  1  0.333589  0.667151  0.999725  1
  Si  Si10  1  0.394756  0.393973  0.249780  1
  Si  Si11  1  0.000335  0.605784  0.249766  1
  Si  Si12  1  0.999848  0.393975  0.750205  1
  Si  Si13  1  0.606088  0.605775  0.750205  1
  Si  Si14  1  0.606629  0.000236  0.249774  1
  P  P15  1  0.391011  0.000209  0.750180  1
