# generated using pymatgen
data_La6Cd16Ag7S
_symmetry_space_group_name_H-M   'P 1'
_cell_length_a   9.90414373
_cell_length_b   9.90414392
_cell_length_c   9.90414500
_cell_angle_alpha   59.99999972
_cell_angle_beta   59.99999911
_cell_angle_gamma   60.00000580
_symmetry_Int_Tables_number   1
_chemical_formula_structural   La6Cd16Ag7S
_chemical_formula_sum   'La6 Cd16 Ag7 S1'
_cell_volume   686.96701410
_cell_formula_units_Z   1
loop_
 _symmetry_equiv_pos_site_id
 _symmetry_equiv_pos_as_xyz
  1  'x, y, z'
loop_
 _atom_site_type_symbol
 _atom_site_label
 _atom_site_symmetry_multiplicity
 _atom_site_fract_x
 _atom_site_fract_y
 _atom_site_fract_z
 _atom_site_occupancy
  La  La0  1  0.792253  0.792250  0.206919  1
  La  La1  1  0.207774  0.793064  0.207753  1
  La  La2  1  0.793061  0.207766  0.207759  1
  La  La3  1  0.207747  0.207750  0.793081  1
  La  La4  1  0.792226  0.206936  0.792247  1
  La  La5  1  0.206939  0.792234  0.792241  1
  Cd  Cd6  1  0.831375  0.831360  0.507110  1
  Cd  Cd7  1  0.831373  0.507097  0.831365  1
  Cd  Cd8  1  0.507093  0.831374  0.831371  1
  Cd  Cd9  1  0.830749  0.830738  0.830737  1
  Cd  Cd10  1  0.168625  0.168640  0.492890  1
  Cd  Cd11  1  0.168627  0.492903  0.168635  1
  Cd  Cd12  1  0.492907  0.168626  0.168629  1
  Cd  Cd13  1  0.169251  0.169262  0.169263  1
  Cd  Cd14  1  0.619886  0.619902  0.139486  1
  Cd  Cd15  1  0.619895  0.139484  0.619902  1
  Cd  Cd16  1  0.139489  0.619896  0.619901  1
  Cd  Cd17  1  0.619990  0.620000  0.619996  1
  Cd  Cd18  1  0.380114  0.380098  0.860514  1
  Cd  Cd19  1  0.380105  0.860516  0.380098  1
  Cd  Cd20  1  0.860511  0.380104  0.380099  1
  Cd  Cd21  1  0.380010  0.380000  0.380004  1
  Ag  Ag22  1  0.000000  0.000000  0.500000  1
  Ag  Ag23  1  0.500000  0.000000  0.500000  1
  Ag  Ag24  1  0.000000  0.500000  0.500000  1
  Ag  Ag25  1  0.500000  0.500000  0.000000  1
  Ag  Ag26  1  0.000000  0.500000  0.000000  1
  Ag  Ag27  1  0.500000  0.000000  0.000000  1
  Ag  Ag28  1  0.500000  0.500000  0.500000  1
  S  S29  1  0.000000  0.000000  0.000000  1
