# generated using pymatgen
data_SrAg3(NO3)8
_symmetry_space_group_name_H-M   'P 1'
_cell_length_a   8.04030564
_cell_length_b   8.04030604
_cell_length_c   8.04030600
_cell_angle_alpha   89.82469129
_cell_angle_beta   89.82469128
_cell_angle_gamma   89.82469017
_symmetry_Int_Tables_number   1
_chemical_formula_structural   SrAg3(NO3)8
_chemical_formula_sum   'Sr1 Ag3 N8 O24'
_cell_volume   519.77050221
_cell_formula_units_Z   1
loop_
 _symmetry_equiv_pos_site_id
 _symmetry_equiv_pos_as_xyz
  1  'x, y, z'
loop_
 _atom_site_type_symbol
 _atom_site_label
 _atom_site_symmetry_multiplicity
 _atom_site_fract_x
 _atom_site_fract_y
 _atom_site_fract_z
 _atom_site_occupancy
  Sr  Sr0  1  0.000000  0.000000  0.000000  1
  Ag  Ag1  1  0.000000  0.500000  0.500000  1
  Ag  Ag2  1  0.500000  0.500000  0.000000  1
  Ag  Ag3  1  0.500000  0.000000  0.500000  1
  N  N4  1  0.339083  0.339083  0.339083  1
  N  N5  1  0.332242  0.192840  0.860483  1
  N  N6  1  0.192840  0.860483  0.332242  1
  N  N7  1  0.860483  0.332242  0.192840  1
  N  N8  1  0.660917  0.660917  0.660917  1
  N  N9  1  0.139517  0.667758  0.807160  1
  N  N10  1  0.807160  0.139517  0.667758  1
  N  N11  1  0.667758  0.807160  0.139517  1
  O  O12  1  0.775546  0.314384  0.063514  1
  O  O13  1  0.236623  0.966134  0.225517  1
  O  O14  1  0.281188  0.838177  0.463544  1
  O  O15  1  0.225517  0.236623  0.966134  1
  O  O16  1  0.237064  0.321964  0.458047  1
  O  O17  1  0.458047  0.237064  0.321964  1
  O  O18  1  0.321964  0.458047  0.237064  1
  O  O19  1  0.161823  0.536456  0.718812  1
  O  O20  1  0.936486  0.224454  0.685616  1
  O  O21  1  0.685616  0.936486  0.224454  1
  O  O22  1  0.033866  0.774483  0.763377  1
  O  O23  1  0.536456  0.718812  0.161823  1
  O  O24  1  0.763377  0.033866  0.774483  1
  O  O25  1  0.718812  0.161823  0.536456  1
  O  O26  1  0.774483  0.763377  0.033866  1
  O  O27  1  0.224454  0.685616  0.936486  1
  O  O28  1  0.762936  0.678036  0.541953  1
  O  O29  1  0.541953  0.762936  0.678036  1
  O  O30  1  0.678036  0.541953  0.762936  1
  O  O31  1  0.838177  0.463544  0.281188  1
  O  O32  1  0.063514  0.775546  0.314384  1
  O  O33  1  0.314384  0.063514  0.775546  1
  O  O34  1  0.966134  0.225517  0.236623  1
  O  O35  1  0.463544  0.281188  0.838177  1
