# generated using pymatgen
data_EuB2IrOs
_symmetry_space_group_name_H-M   'P 1'
_cell_length_a   6.98727618
_cell_length_b   6.09580387
_cell_length_c   5.62220447
_cell_angle_alpha   73.08238218
_cell_angle_beta   56.58048249
_cell_angle_gamma   50.33713786
_symmetry_Int_Tables_number   1
_chemical_formula_structural   EuB2IrOs
_chemical_formula_sum   'Eu2 B4 Ir2 Os2'
_cell_volume   153.18083322
_cell_formula_units_Z   2
loop_
 _symmetry_equiv_pos_site_id
 _symmetry_equiv_pos_as_xyz
  1  'x, y, z'
loop_
 _atom_site_type_symbol
 _atom_site_label
 _atom_site_symmetry_multiplicity
 _atom_site_fract_x
 _atom_site_fract_y
 _atom_site_fract_z
 _atom_site_occupancy
  Eu  Eu0  1  0.748964  0.748964  0.751036  1
  Eu  Eu1  1  0.498964  0.498964  0.501036  1
  B  B2  1  0.074948  0.427114  0.066709  1
  B  B3  1  0.818771  0.183291  0.822886  1
  B  B4  1  0.427114  0.074948  0.431229  1
  B  B5  1  0.183291  0.818771  0.175052  1
  Ir  Ir6  1  0.866081  0.866081  0.133919  1
  Ir  Ir7  1  0.116081  0.116081  0.383919  1
  Os  Os8  1  0.382893  0.382893  0.117107  1
  Os  Os9  1  0.132893  0.132893  0.867107  1
