# generated using pymatgen
data_Ho2ErCo7(P3Ir)2
_symmetry_space_group_name_H-M   'P 1'
_cell_length_a   3.72215300
_cell_length_b   10.63334900
_cell_length_c   12.36324200
_cell_angle_alpha   90.00000000
_cell_angle_beta   90.00000000
_cell_angle_gamma   90.00000000
_symmetry_Int_Tables_number   1
_chemical_formula_structural   Ho2ErCo7(P3Ir)2
_chemical_formula_sum   'Ho4 Er2 Co14 P12 Ir4'
_cell_volume   489.32416020
_cell_formula_units_Z   2
loop_
 _symmetry_equiv_pos_site_id
 _symmetry_equiv_pos_as_xyz
  1  'x, y, z'
loop_
 _atom_site_type_symbol
 _atom_site_label
 _atom_site_symmetry_multiplicity
 _atom_site_fract_x
 _atom_site_fract_y
 _atom_site_fract_z
 _atom_site_occupancy
  Ho  Ho0  1  0.750000  0.250000  0.480141  1
  Ho  Ho1  1  0.250000  0.750000  0.519850  1
  Ho  Ho2  1  0.250000  0.936765  0.794041  1
  Ho  Ho3  1  0.250000  0.563235  0.794041  1
  Er  Er4  1  0.750000  0.063263  0.206030  1
  Er  Er5  1  0.750000  0.436737  0.206030  1
  Co  Co6  1  0.750000  0.250000  0.012029  1
  Co  Co7  1  0.250000  0.750000  0.988094  1
  Co  Co8  1  0.250000  0.417575  0.006925  1
  Co  Co9  1  0.250000  0.082425  0.006925  1
  Co  Co10  1  0.750000  0.582363  0.993260  1
  Co  Co11  1  0.750000  0.917637  0.993260  1
  Co  Co12  1  0.250000  0.449876  0.571071  1
  Co  Co13  1  0.250000  0.050124  0.571071  1
  Co  Co14  1  0.750000  0.550076  0.428832  1
  Co  Co15  1  0.750000  0.949924  0.428832  1
  Co  Co16  1  0.250000  0.869618  0.288870  1
  Co  Co17  1  0.250000  0.630382  0.288870  1
  Co  Co18  1  0.750000  0.130566  0.711044  1
  Co  Co19  1  0.750000  0.369434  0.711044  1
  P  P20  1  0.250000  0.250000  0.111083  1
  P  P21  1  0.750000  0.750000  0.889081  1
  P  P22  1  0.250000  0.250000  0.648857  1
  P  P23  1  0.750000  0.750000  0.351136  1
  P  P24  1  0.250000  0.447479  0.386673  1
  P  P25  1  0.250000  0.052521  0.386673  1
  P  P26  1  0.750000  0.552473  0.613163  1
  P  P27  1  0.750000  0.947527  0.613163  1
  P  P28  1  0.250000  0.905504  0.105635  1
  P  P29  1  0.250000  0.594496  0.105635  1
  P  P30  1  0.750000  0.094680  0.894495  1
  P  P31  1  0.750000  0.405320  0.894495  1
  Ir  Ir32  1  0.250000  0.250000  0.839128  1
  Ir  Ir33  1  0.750000  0.750000  0.160860  1
  Ir  Ir34  1  0.250000  0.250000  0.296926  1
  Ir  Ir35  1  0.750000  0.750000  0.702734  1
