# generated using pymatgen
data_TbPr4GdTa2O14
_symmetry_space_group_name_H-M   'P 1'
_cell_length_a   6.65425987
_cell_length_b   6.66964821
_cell_length_c   7.71633403
_cell_angle_alpha   90.10336660
_cell_angle_beta   90.10079658
_cell_angle_gamma   109.16917638
_symmetry_Int_Tables_number   1
_chemical_formula_structural   TbPr4GdTa2O14
_chemical_formula_sum   'Tb1 Pr4 Gd1 Ta2 O14'
_cell_volume   323.47301392
_cell_formula_units_Z   1
loop_
 _symmetry_equiv_pos_site_id
 _symmetry_equiv_pos_as_xyz
  1  'x, y, z'
loop_
 _atom_site_type_symbol
 _atom_site_label
 _atom_site_symmetry_multiplicity
 _atom_site_fract_x
 _atom_site_fract_y
 _atom_site_fract_z
 _atom_site_occupancy
  Tb  Tb0  1  0.533919  0.000049  0.755008  1
  Pr  Pr1  1  0.465555  0.001108  0.254708  1
  Pr  Pr2  1  0.998852  0.535127  0.245201  1
  Pr  Pr3  1  0.476144  0.477818  0.996877  1
  Pr  Pr4  1  0.522390  0.524939  0.503062  1
  Gd  Gd5  1  0.000026  0.466752  0.745004  1
  Ta  Ta6  1  0.002703  0.002545  0.503851  1
  Ta  Ta7  1  0.997816  0.997737  0.996223  1
  O  O8  1  0.938200  0.059777  0.750019  1
  O  O9  1  0.643829  0.354106  0.749803  1
  O  O10  1  0.305933  0.052108  0.543097  1
  O  O11  1  0.945827  0.693642  0.959483  1
  O  O12  1  0.629072  0.370288  0.249950  1
  O  O13  1  0.926062  0.681637  0.530453  1
  O  O14  1  0.318110  0.071932  0.967005  1
  O  O15  1  0.077351  0.319476  0.020314  1
  O  O16  1  0.679292  0.923911  0.481884  1
  O  O17  1  0.366622  0.637945  0.750313  1
  O  O18  1  0.690098  0.941059  0.027337  1
  O  O19  1  0.060137  0.308613  0.470360  1
  O  O20  1  0.366784  0.634003  0.250032  1
  O  O21  1  0.055278  0.945427  0.250017  1
