# generated using pymatgen
data_Ca3La13Cd4(CoTc)2
_symmetry_space_group_name_H-M   'P 1'
_cell_length_a   10.05032862
_cell_length_b   9.91916960
_cell_length_c   10.05032828
_cell_angle_alpha   60.15243931
_cell_angle_beta   61.03826957
_cell_angle_gamma   60.15243971
_symmetry_Int_Tables_number   1
_chemical_formula_structural   Ca3La13Cd4(CoTc)2
_chemical_formula_sum   'Ca3 La13 Cd4 Co2 Tc2'
_cell_volume   715.52674889
_cell_formula_units_Z   1
loop_
 _symmetry_equiv_pos_site_id
 _symmetry_equiv_pos_as_xyz
  1  'x, y, z'
loop_
 _atom_site_type_symbol
 _atom_site_label
 _atom_site_symmetry_multiplicity
 _atom_site_fract_x
 _atom_site_fract_y
 _atom_site_fract_z
 _atom_site_occupancy
  Ca  Ca0  1  0.936935  0.935812  0.564744  1
  Ca  Ca1  1  0.565123  0.932344  0.565123  1
  Ca  Ca2  1  0.564744  0.935812  0.936935  1
  La  La3  1  0.687625  0.690831  0.309736  1
  La  La4  1  0.161236  0.147771  0.537375  1
  La  La5  1  0.309736  0.690831  0.687625  1
  La  La6  1  0.159341  0.146722  0.159341  1
  La  La7  1  0.537375  0.147771  0.161236  1
  La  La8  1  0.309669  0.692611  0.309669  1
  La  La9  1  0.309366  0.311481  0.688450  1
  La  La10  1  0.688676  0.312720  0.688676  1
  La  La11  1  0.940160  0.559330  0.554925  1
  La  La12  1  0.554925  0.559330  0.940160  1
  La  La13  1  0.160117  0.532881  0.160117  1
  La  La14  1  0.688450  0.311481  0.309366  1
  La  La15  1  0.945516  0.553236  0.945516  1
  Cd  Cd16  1  0.232562  0.923125  0.922949  1
  Cd  Cd17  1  0.920223  0.922420  0.920223  1
  Cd  Cd18  1  0.922949  0.923125  0.232562  1
  Cd  Cd19  1  0.921456  0.236968  0.921456  1
  Co  Co20  1  0.361566  0.916303  0.361566  1
  Co  Co21  1  0.363924  0.363970  0.363924  1
  Tc  Tc22  1  0.897300  0.376562  0.361023  1
  Tc  Tc23  1  0.361023  0.376562  0.897300  1
