# generated using pymatgen
data_Hf3Si2Mo(PRh2)2
_symmetry_space_group_name_H-M   'P 1'
_cell_length_a   3.80983300
_cell_length_b   6.44188617
_cell_length_c   7.39540742
_cell_angle_alpha   90.50353469
_cell_angle_beta   90.00000000
_cell_angle_gamma   90.00000000
_symmetry_Int_Tables_number   1
_chemical_formula_structural   Hf3Si2Mo(PRh2)2
_chemical_formula_sum   'Hf3 Si2 Mo1 P2 Rh4'
_cell_volume   181.49485522
_cell_formula_units_Z   1
loop_
 _symmetry_equiv_pos_site_id
 _symmetry_equiv_pos_as_xyz
  1  'x, y, z'
loop_
 _atom_site_type_symbol
 _atom_site_label
 _atom_site_symmetry_multiplicity
 _atom_site_fract_x
 _atom_site_fract_y
 _atom_site_fract_z
 _atom_site_occupancy
  Hf  Hf0  1  0.750000  0.477425  0.824283  1
  Hf  Hf1  1  0.250000  0.026592  0.318656  1
  Hf  Hf2  1  0.750000  0.970319  0.678257  1
  Si  Si3  1  0.750000  0.245738  0.126079  1
  Si  Si4  1  0.750000  0.718694  0.365757  1
  Mo  Mo5  1  0.250000  0.530625  0.171794  1
  P  P6  1  0.250000  0.762303  0.888897  1
  P  P7  1  0.250000  0.263904  0.621721  1
  Rh  Rh8  1  0.750000  0.859480  0.060015  1
  Rh  Rh9  1  0.250000  0.148361  0.933710  1
  Rh  Rh10  1  0.750000  0.348049  0.442192  1
  Rh  Rh11  1  0.250000  0.648510  0.568638  1
