# generated using pymatgen
data_LiY12Cd5In6
_symmetry_space_group_name_H-M   'P 1'
_cell_length_a   5.36108802
_cell_length_b   7.35219700
_cell_length_c   16.15357306
_cell_angle_alpha   90.00000000
_cell_angle_beta   89.99054103
_cell_angle_gamma   90.00000000
_symmetry_Int_Tables_number   1
_chemical_formula_structural   LiY12Cd5In6
_chemical_formula_sum   'Li1 Y12 Cd5 In6'
_cell_volume   636.70559626
_cell_formula_units_Z   1
loop_
 _symmetry_equiv_pos_site_id
 _symmetry_equiv_pos_as_xyz
  1  'x, y, z'
loop_
 _atom_site_type_symbol
 _atom_site_label
 _atom_site_symmetry_multiplicity
 _atom_site_fract_x
 _atom_site_fract_y
 _atom_site_fract_z
 _atom_site_occupancy
  Li  Li0  1  0.500357  0.499999  0.833288  1
  Y  Y1  1  0.500001  0.249778  0.999997  1
  Y  Y2  1  0.500001  0.750222  0.999997  1
  Y  Y3  1  0.999739  0.250505  0.166657  1
  Y  Y4  1  0.999739  0.749495  0.166657  1
  Y  Y5  1  0.499702  0.249365  0.333354  1
  Y  Y6  1  0.499702  0.750636  0.333354  1
  Y  Y7  1  0.999995  0.250511  0.500072  1
  Y  Y8  1  0.999995  0.749490  0.500072  1
  Y  Y9  1  0.500309  0.249811  0.666640  1
  Y  Y10  1  0.500309  0.750190  0.666640  1
  Y  Y11  1  0.000223  0.249714  0.833294  1
  Y  Y12  1  0.000223  0.750286  0.833294  1
  Cd  Cd13  1  0.000033  0.000000  0.000013  1
  Cd  Cd14  1  0.499646  0.499999  0.167716  1
  Cd  Cd15  1  0.999621  0.000000  0.333399  1
  Cd  Cd16  1  0.499995  0.499999  0.498968  1
  Cd  Cd17  1  0.000370  0.000000  0.666625  1
  In  In18  1  0.000007  0.499999  0.995737  1
  In  In19  1  0.499892  0.000000  0.166668  1
  In  In20  1  0.999756  0.499999  0.333366  1
  In  In21  1  0.500003  0.000000  0.499999  1
  In  In22  1  0.000249  0.499999  0.670888  1
  In  In23  1  0.500146  0.000000  0.833309  1
