# generated using pymatgen
data_Dy2Lu4Si24OsRu7
_symmetry_space_group_name_H-M   'P 1'
_cell_length_a   10.09274338
_cell_length_b   10.09274423
_cell_length_c   8.11055612
_cell_angle_alpha   89.98894403
_cell_angle_beta   89.98894946
_cell_angle_gamma   132.65175888
_symmetry_Int_Tables_number   1
_chemical_formula_structural   Dy2Lu4Si24OsRu7
_chemical_formula_sum   'Dy2 Lu4 Si24 Os1 Ru7'
_cell_volume   607.63543498
_cell_formula_units_Z   1
loop_
 _symmetry_equiv_pos_site_id
 _symmetry_equiv_pos_as_xyz
  1  'x, y, z'
loop_
 _atom_site_type_symbol
 _atom_site_label
 _atom_site_symmetry_multiplicity
 _atom_site_fract_x
 _atom_site_fract_y
 _atom_site_fract_z
 _atom_site_occupancy
  Dy  Dy0  1  0.497834  0.997485  0.249610  1
  Dy  Dy1  1  0.002515  0.502166  0.750390  1
  Lu  Lu2  1  0.500036  0.499964  0.500000  1
  Lu  Lu3  1  0.000023  0.999977  0.000000  1
  Lu  Lu4  1  0.502283  0.002494  0.750258  1
  Lu  Lu5  1  0.997506  0.497717  0.249742  1
  Si  Si6  1  0.795770  0.204230  0.500000  1
  Si  Si7  1  0.294952  0.705048  0.000000  1
  Si  Si8  1  0.204918  0.795082  0.500000  1
  Si  Si9  1  0.705084  0.294916  0.000000  1
  Si  Si10  1  0.331650  0.331835  0.833425  1
  Si  Si11  1  0.668165  0.668350  0.166575  1
  Si  Si12  1  0.167551  0.167271  0.332279  1
  Si  Si13  1  0.832729  0.832449  0.667721  1
  Si  Si14  1  0.122521  0.888474  0.729327  1
  Si  Si15  1  0.111526  0.877479  0.270673  1
  Si  Si16  1  0.613187  0.379276  0.227132  1
  Si  Si17  1  0.620724  0.386813  0.772868  1
  Si  Si18  1  0.878114  0.111718  0.270310  1
  Si  Si19  1  0.888282  0.121886  0.729690  1
  Si  Si20  1  0.387949  0.622596  0.771575  1
  Si  Si21  1  0.377404  0.612051  0.228425  1
  Si  Si22  1  0.344169  0.111041  0.505695  1
  Si  Si23  1  0.888959  0.655831  0.494305  1
  Si  Si24  1  0.387444  0.154315  0.003634  1
  Si  Si25  1  0.845685  0.612556  0.996366  1
  Si  Si26  1  0.654268  0.887503  0.494513  1
  Si  Si27  1  0.112497  0.345732  0.505487  1
  Si  Si28  1  0.612300  0.845682  0.994911  1
  Si  Si29  1  0.154318  0.387700  0.005089  1
  Os  Os30  1  0.669430  0.330570  0.500000  1
  Ru  Ru31  1  0.169360  0.830640  0.000000  1
  Ru  Ru32  1  0.330517  0.669483  0.500000  1
  Ru  Ru33  1  0.830580  0.169420  0.000000  1
  Ru  Ru34  1  0.127512  0.127674  0.627213  1
  Ru  Ru35  1  0.872326  0.872488  0.372787  1
  Ru  Ru36  1  0.373958  0.374048  0.128157  1
  Ru  Ru37  1  0.625952  0.626042  0.871843  1
