# generated using pymatgen
data_Hf2FeP2Pd
_symmetry_space_group_name_H-M   'P 1'
_cell_length_a   3.73498100
_cell_length_b   6.43229637
_cell_length_c   7.33785915
_cell_angle_alpha   87.72882327
_cell_angle_beta   90.00000000
_cell_angle_gamma   90.00000000
_symmetry_Int_Tables_number   1
_chemical_formula_structural   Hf2FeP2Pd
_chemical_formula_sum   'Hf4 Fe2 P4 Pd2'
_cell_volume   176.14994981
_cell_formula_units_Z   2
loop_
 _symmetry_equiv_pos_site_id
 _symmetry_equiv_pos_as_xyz
  1  'x, y, z'
loop_
 _atom_site_type_symbol
 _atom_site_label
 _atom_site_symmetry_multiplicity
 _atom_site_fract_x
 _atom_site_fract_y
 _atom_site_fract_z
 _atom_site_occupancy
  Hf  Hf0  1  0.250000  0.526735  0.691355  1
  Hf  Hf1  1  0.750000  0.473265  0.308645  1
  Hf  Hf2  1  0.250000  0.022944  0.828928  1
  Hf  Hf3  1  0.750000  0.977056  0.171072  1
  Fe  Fe4  1  0.750000  0.364982  0.943859  1
  Fe  Fe5  1  0.250000  0.635018  0.056141  1
  P  P6  1  0.250000  0.279407  0.097703  1
  P  P7  1  0.750000  0.720593  0.902297  1
  P  P8  1  0.250000  0.747298  0.354051  1
  P  P9  1  0.750000  0.252702  0.645949  1
  Pd  Pd10  1  0.750000  0.849794  0.566803  1
  Pd  Pd11  1  0.250000  0.150206  0.433197  1
