# generated using pymatgen
data_La4In2CoCu3
_symmetry_space_group_name_H-M   'P 1'
_cell_length_a   7.92018190
_cell_length_b   7.92018221
_cell_length_c   3.82919800
_cell_angle_alpha   90.00000000
_cell_angle_beta   90.00000000
_cell_angle_gamma   89.86820684
_symmetry_Int_Tables_number   1
_chemical_formula_structural   La4In2CoCu3
_chemical_formula_sum   'La4 In2 Co1 Cu3'
_cell_volume   240.20221253
_cell_formula_units_Z   1
loop_
 _symmetry_equiv_pos_site_id
 _symmetry_equiv_pos_as_xyz
  1  'x, y, z'
loop_
 _atom_site_type_symbol
 _atom_site_label
 _atom_site_symmetry_multiplicity
 _atom_site_fract_x
 _atom_site_fract_y
 _atom_site_fract_z
 _atom_site_occupancy
  La  La0  1  0.659504  0.181285  0.500000  1
  La  La1  1  0.318715  0.840496  0.500000  1
  La  La2  1  0.193205  0.306795  0.500000  1
  La  La3  1  0.824757  0.675243  0.500000  1
  In  In4  1  0.499114  0.506638  0.000000  1
  In  In5  1  0.993362  0.000886  0.000000  1
  Co  Co6  1  0.383141  0.116859  0.000000  1
  Cu  Cu7  1  0.121512  0.611935  0.000000  1
  Cu  Cu8  1  0.888065  0.378488  0.000000  1
  Cu  Cu9  1  0.618624  0.881376  0.000000  1
