# generated using pymatgen
data_PuPaB8
_symmetry_space_group_name_H-M   'P 1'
_cell_length_a   7.10336000
_cell_length_b   7.08403700
_cell_length_c   4.00278000
_cell_angle_alpha   90.00000000
_cell_angle_beta   90.00000000
_cell_angle_gamma   90.00000000
_symmetry_Int_Tables_number   1
_chemical_formula_structural   PuPaB8
_chemical_formula_sum   'Pu2 Pa2 B16'
_cell_volume   201.42175115
_cell_formula_units_Z   2
loop_
 _symmetry_equiv_pos_site_id
 _symmetry_equiv_pos_as_xyz
  1  'x, y, z'
loop_
 _atom_site_type_symbol
 _atom_site_label
 _atom_site_symmetry_multiplicity
 _atom_site_fract_x
 _atom_site_fract_y
 _atom_site_fract_z
 _atom_site_occupancy
  Pu  Pu0  1  0.811938  0.688041  0.000000  1
  Pu  Pu1  1  0.311938  0.811959  0.000000  1
  Pa  Pa2  1  0.688272  0.187900  0.000000  1
  Pa  Pa3  1  0.188272  0.312100  0.000000  1
  B  B4  1  0.000136  0.997530  0.200491  1
  B  B5  1  0.500136  0.502470  0.200491  1
  B  B6  1  0.177212  0.038696  0.500000  1
  B  B7  1  0.412257  0.088544  0.500000  1
  B  B8  1  0.960985  0.176453  0.500000  1
  B  B9  1  0.460986  0.323547  0.500000  1
  B  B10  1  0.912257  0.411456  0.500000  1
  B  B11  1  0.677212  0.461304  0.500000  1
  B  B12  1  0.321984  0.539048  0.500000  1
  B  B13  1  0.087535  0.586162  0.500000  1
  B  B14  1  0.539544  0.678898  0.500000  1
  B  B15  1  0.039544  0.821102  0.500000  1
  B  B16  1  0.587535  0.913838  0.500000  1
  B  B17  1  0.821984  0.960951  0.500000  1
  B  B18  1  0.000136  0.997530  0.799508  1
  B  B19  1  0.500136  0.502470  0.799508  1
