# generated using pymatgen
data_Dy2Nb3Ni9P7
_symmetry_space_group_name_H-M   'P 1'
_cell_length_a   9.33304700
_cell_length_b   9.33304793
_cell_length_c   3.72540400
_cell_angle_alpha   90.00000000
_cell_angle_beta   90.00000000
_cell_angle_gamma   120.00000735
_symmetry_Int_Tables_number   1
_chemical_formula_structural   Dy2Nb3Ni9P7
_chemical_formula_sum   'Dy2 Nb3 Ni9 P7'
_cell_volume   281.02886211
_cell_formula_units_Z   1
loop_
 _symmetry_equiv_pos_site_id
 _symmetry_equiv_pos_as_xyz
  1  'x, y, z'
loop_
 _atom_site_type_symbol
 _atom_site_label
 _atom_site_symmetry_multiplicity
 _atom_site_fract_x
 _atom_site_fract_y
 _atom_site_fract_z
 _atom_site_occupancy
  Dy  Dy0  1  0.333333  0.666667  0.000000  1
  Dy  Dy1  1  0.666667  0.333333  0.500000  1
  Nb  Nb2  1  0.224901  0.120089  0.500000  1
  Nb  Nb3  1  0.879911  0.104811  0.500000  1
  Nb  Nb4  1  0.895189  0.775099  0.500000  1
  Ni  Ni5  1  0.128307  0.286458  0.000000  1
  Ni  Ni6  1  0.713542  0.841850  0.000000  1
  Ni  Ni7  1  0.158150  0.871693  0.000000  1
  Ni  Ni8  1  0.432988  0.370756  0.000000  1
  Ni  Ni9  1  0.629244  0.062232  0.000000  1
  Ni  Ni10  1  0.937768  0.567012  0.000000  1
  Ni  Ni11  1  0.057118  0.444077  0.500000  1
  Ni  Ni12  1  0.555923  0.613042  0.500000  1
  Ni  Ni13  1  0.386958  0.942882  0.500000  1
  P  P14  1  0.289965  0.410500  0.500000  1
  P  P15  1  0.589500  0.879465  0.500000  1
  P  P16  1  0.120535  0.710035  0.500000  1
  P  P17  1  0.415663  0.111929  0.000000  1
  P  P18  1  0.888071  0.303732  0.000000  1
  P  P19  1  0.696268  0.584337  0.000000  1
  P  P20  1  0.000000  0.000000  0.000000  1
