# generated using pymatgen
data_GaH5F8
_symmetry_space_group_name_H-M   'P 1'
_cell_length_a   5.52053038
_cell_length_b   5.67560330
_cell_length_c   6.29585014
_cell_angle_alpha   108.60966820
_cell_angle_beta   80.08474590
_cell_angle_gamma   119.24642160
_symmetry_Int_Tables_number   1
_chemical_formula_structural   GaH5F8
_chemical_formula_sum   'Ga1 H5 F8'
_cell_volume   163.08695593
_cell_formula_units_Z   1
loop_
 _symmetry_equiv_pos_site_id
 _symmetry_equiv_pos_as_xyz
  1  'x, y, z'
loop_
 _atom_site_type_symbol
 _atom_site_label
 _atom_site_symmetry_multiplicity
 _atom_site_fract_x
 _atom_site_fract_y
 _atom_site_fract_z
 _atom_site_occupancy
  Ga  Ga0  1  0.373380  0.272682  0.934526  1
  H  H1  1  0.868866  0.779527  0.936400  1
  H  H2  1  0.111989  0.507237  0.266935  1
  H  H3  1  0.016133  0.159868  0.636573  1
  H  H4  1  0.620341  0.975431  0.619977  1
  H  H5  1  0.719639  0.333049  0.253792  1
  F  F6  1  0.207483  0.337662  0.722623  1
  F  F7  1  0.522227  0.196106  0.143324  1
  F  F8  1  0.734150  0.540645  0.860512  1
  F  F9  1  0.810289  0.965093  0.546349  1
  F  F10  1  0.405376  0.980167  0.699779  1
  F  F11  1  0.322087  0.561494  0.167219  1
  F  F12  1  0.907498  0.457383  0.364666  1
  F  F13  1  0.000860  0.013036  0.011579  1
