# generated using pymatgen
data_Ho8ErSc(SiB4)4
_symmetry_space_group_name_H-M   'P 1'
_cell_length_a   7.16989300
_cell_length_b   7.16989300
_cell_length_c   7.96811200
_cell_angle_alpha   90.00000000
_cell_angle_beta   90.00000000
_cell_angle_gamma   90.00000000
_symmetry_Int_Tables_number   1
_chemical_formula_structural   Ho8ErSc(SiB4)4
_chemical_formula_sum   'Ho8 Er1 Sc1 Si4 B16'
_cell_volume   409.61964698
_cell_formula_units_Z   1
loop_
 _symmetry_equiv_pos_site_id
 _symmetry_equiv_pos_as_xyz
  1  'x, y, z'
loop_
 _atom_site_type_symbol
 _atom_site_label
 _atom_site_symmetry_multiplicity
 _atom_site_fract_x
 _atom_site_fract_y
 _atom_site_fract_z
 _atom_site_occupancy
  Ho  Ho0  1  0.680917  0.179598  0.225948  1
  Ho  Ho1  1  0.319083  0.820402  0.774052  1
  Ho  Ho2  1  0.319083  0.820402  0.225948  1
  Ho  Ho3  1  0.820402  0.680917  0.225948  1
  Ho  Ho4  1  0.820402  0.680917  0.774052  1
  Ho  Ho5  1  0.680917  0.179598  0.774052  1
  Ho  Ho6  1  0.179598  0.319083  0.774052  1
  Ho  Ho7  1  0.179598  0.319083  0.225948  1
  Er  Er8  1  0.500000  0.500000  0.500000  1
  Sc  Sc9  1  0.000000  0.000000  0.500000  1
  Si  Si10  1  0.111567  0.621901  0.500000  1
  Si  Si11  1  0.888433  0.378099  0.500000  1
  Si  Si12  1  0.378099  0.111567  0.500000  1
  Si  Si13  1  0.621901  0.888433  0.500000  1
  B  B14  1  0.172934  0.039080  0.000000  1
  B  B15  1  0.827066  0.960920  0.000000  1
  B  B16  1  0.960920  0.172934  0.000000  1
  B  B17  1  0.327323  0.539301  0.000000  1
  B  B18  1  0.039080  0.827066  0.000000  1
  B  B19  1  0.672677  0.460699  0.000000  1
  B  B20  1  0.539301  0.672677  0.000000  1
  B  B21  1  0.460699  0.327323  0.000000  1
  B  B22  1  0.089304  0.589277  0.000000  1
  B  B23  1  0.910696  0.410723  0.000000  1
  B  B24  1  0.410723  0.089304  0.000000  1
  B  B25  1  0.589277  0.910696  0.000000  1
  B  B26  1  0.000000  0.000000  0.165579  1
  B  B27  1  0.000000  0.000000  0.834421  1
  B  B28  1  0.500000  0.500000  0.834989  1
  B  B29  1  0.500000  0.500000  0.165011  1
