# generated using pymatgen
data_Ba8Si15P
_symmetry_space_group_name_H-M   'P 1'
_cell_length_a   9.05608971
_cell_length_b   6.72911659
_cell_length_c   11.53405306
_cell_angle_alpha   89.81741509
_cell_angle_beta   89.78060815
_cell_angle_gamma   90.41243567
_symmetry_Int_Tables_number   1
_chemical_formula_structural   Ba8Si15P
_chemical_formula_sum   'Ba8 Si15 P1'
_cell_volume   702.85224258
_cell_formula_units_Z   1
loop_
 _symmetry_equiv_pos_site_id
 _symmetry_equiv_pos_as_xyz
  1  'x, y, z'
loop_
 _atom_site_type_symbol
 _atom_site_label
 _atom_site_symmetry_multiplicity
 _atom_site_fract_x
 _atom_site_fract_y
 _atom_site_fract_z
 _atom_site_occupancy
  Ba  Ba0  1  0.843043  0.250088  0.095716  1
  Ba  Ba1  1  0.486475  0.751671  0.197275  1
  Ba  Ba2  1  0.987906  0.755297  0.304936  1
  Ba  Ba3  1  0.345764  0.251695  0.408297  1
  Ba  Ba4  1  0.656662  0.748808  0.593134  1
  Ba  Ba5  1  0.012018  0.247810  0.691838  1
  Ba  Ba6  1  0.516100  0.248367  0.803833  1
  Ba  Ba7  1  0.154792  0.752416  0.904497  1
  Si  Si8  1  0.803363  0.748907  0.036774  1
  Si  Si9  1  0.412639  0.248885  0.089601  1
  Si  Si10  1  0.192911  0.424049  0.147346  1
  Si  Si11  1  0.692909  0.071737  0.352849  1
  Si  Si12  1  0.692925  0.431654  0.352250  1
  Si  Si13  1  0.914522  0.253768  0.405375  1
  Si  Si14  1  0.302777  0.749045  0.466183  1
  Si  Si15  1  0.698460  0.250591  0.532844  1
  Si  Si16  1  0.084873  0.747382  0.591541  1
  Si  Si17  1  0.305911  0.569702  0.648444  1
  Si  Si18  1  0.306669  0.927945  0.646226  1
  Si  Si19  1  0.806183  0.572108  0.854782  1
  Si  Si20  1  0.804765  0.930045  0.855385  1
  Si  Si21  1  0.584793  0.747036  0.912802  1
  Si  Si22  1  0.195999  0.247750  0.964832  1
  P  P23  1  0.197540  0.073246  0.143240  1
