# generated using pymatgen
data_Eu2NbCrO7
_symmetry_space_group_name_H-M   'P 1'
_cell_length_a   7.36867598
_cell_length_b   7.27778350
_cell_length_c   7.49259577
_cell_angle_alpha   90.01903971
_cell_angle_beta   59.46916072
_cell_angle_gamma   119.16851110
_symmetry_Int_Tables_number   1
_chemical_formula_structural   Eu2NbCrO7
_chemical_formula_sum   'Eu4 Nb2 Cr2 O14'
_cell_volume   285.41511994
_cell_formula_units_Z   2
loop_
 _symmetry_equiv_pos_site_id
 _symmetry_equiv_pos_as_xyz
  1  'x, y, z'
loop_
 _atom_site_type_symbol
 _atom_site_label
 _atom_site_symmetry_multiplicity
 _atom_site_fract_x
 _atom_site_fract_y
 _atom_site_fract_z
 _atom_site_occupancy
  Eu  Eu0  1  0.499984  0.499997  0.000025  1
  Eu  Eu1  1  0.500015  0.000010  0.999979  1
  Eu  Eu2  1  0.000009  0.000018  0.500004  1
  Eu  Eu3  1  0.999992  0.999992  0.000014  1
  Nb  Nb4  1  0.999995  0.499993  0.999987  1
  Nb  Nb5  1  0.000005  0.500022  0.499985  1
  Cr  Cr6  1  0.500006  0.999997  0.500019  1
  Cr  Cr7  1  0.499986  0.499994  0.499989  1
  O  O8  1  0.248464  0.124472  0.124586  1
  O  O9  1  0.751541  0.875522  0.875420  1
  O  O10  1  0.644385  0.830190  0.426859  1
  O  O11  1  0.846578  0.422115  0.826394  1
  O  O12  1  0.252269  0.825140  0.821358  1
  O  O13  1  0.246481  0.418300  0.425928  1
  O  O14  1  0.247024  0.419408  0.826770  1
  O  O15  1  0.251886  0.825846  0.426281  1
  O  O16  1  0.355625  0.169804  0.573128  1
  O  O17  1  0.153412  0.577895  0.173606  1
  O  O18  1  0.747751  0.174872  0.178654  1
  O  O19  1  0.753507  0.581686  0.574044  1
  O  O20  1  0.752963  0.580588  0.173217  1
  O  O21  1  0.748122  0.174135  0.573755  1
