# generated using pymatgen
data_Er9UPt18
_symmetry_space_group_name_H-M   'P 1'
_cell_length_a   9.75297093
_cell_length_b   9.75297093
_cell_length_c   5.73773600
_cell_angle_alpha   90.00000000
_cell_angle_beta   90.00000000
_cell_angle_gamma   90.33199152
_symmetry_Int_Tables_number   1
_chemical_formula_structural   Er9UPt18
_chemical_formula_sum   'Er9 U1 Pt18'
_cell_volume   545.76682229
_cell_formula_units_Z   1
loop_
 _symmetry_equiv_pos_site_id
 _symmetry_equiv_pos_as_xyz
  1  'x, y, z'
loop_
 _atom_site_type_symbol
 _atom_site_label
 _atom_site_symmetry_multiplicity
 _atom_site_fract_x
 _atom_site_fract_y
 _atom_site_fract_z
 _atom_site_occupancy
  Er  Er0  1  0.453601  0.809853  0.000000  1
  Er  Er1  1  0.546399  0.190147  0.000000  1
  Er  Er2  1  0.190147  0.546399  0.000000  1
  Er  Er3  1  0.809853  0.453601  0.000000  1
  Er  Er4  1  0.306159  0.045789  0.500000  1
  Er  Er5  1  0.693841  0.954211  0.500000  1
  Er  Er6  1  0.954211  0.693841  0.500000  1
  Er  Er7  1  0.045789  0.306159  0.500000  1
  Er  Er8  1  0.000000  0.000000  0.000000  1
  U  U9  1  0.500000  0.500000  0.500000  1
  Pt  Pt10  1  0.193161  0.806839  0.249480  1
  Pt  Pt11  1  0.806839  0.193161  0.750520  1
  Pt  Pt12  1  0.806839  0.193161  0.249480  1
  Pt  Pt13  1  0.193161  0.806839  0.750520  1
  Pt  Pt14  1  0.441170  0.775199  0.500000  1
  Pt  Pt15  1  0.558830  0.224801  0.500000  1
  Pt  Pt16  1  0.224801  0.558830  0.500000  1
  Pt  Pt17  1  0.775199  0.441170  0.500000  1
  Pt  Pt18  1  0.307443  0.307443  0.250450  1
  Pt  Pt19  1  0.692557  0.692557  0.749550  1
  Pt  Pt20  1  0.692557  0.692557  0.250450  1
  Pt  Pt21  1  0.307443  0.307443  0.749550  1
  Pt  Pt22  1  0.281267  0.057710  0.000000  1
  Pt  Pt23  1  0.718733  0.942290  0.000000  1
  Pt  Pt24  1  0.942290  0.718733  0.000000  1
  Pt  Pt25  1  0.057710  0.281267  0.000000  1
  Pt  Pt26  1  0.000000  0.000000  0.500000  1
  Pt  Pt27  1  0.500000  0.500000  0.000000  1
