# generated using pymatgen
data_Zr2Co3Si5
_symmetry_space_group_name_H-M   'P 1'
_cell_length_a   7.66296003
_cell_length_b   7.66296027
_cell_length_c   7.66295924
_cell_angle_alpha   137.72094840
_cell_angle_beta   104.57259991
_cell_angle_gamma   90.48795375
_symmetry_Int_Tables_number   1
_chemical_formula_structural   Zr2Co3Si5
_chemical_formula_sum   'Zr4 Co6 Si10'
_cell_volume   279.57717396
_cell_formula_units_Z   2
loop_
 _symmetry_equiv_pos_site_id
 _symmetry_equiv_pos_as_xyz
  1  'x, y, z'
loop_
 _atom_site_type_symbol
 _atom_site_label
 _atom_site_symmetry_multiplicity
 _atom_site_fract_x
 _atom_site_fract_y
 _atom_site_fract_z
 _atom_site_occupancy
  Zr  Zr0  1  0.867198  0.636421  0.230777  1
  Zr  Zr1  1  0.132802  0.363579  0.769223  1
  Zr  Zr2  1  0.405643  0.136421  0.269223  1
  Zr  Zr3  1  0.594357  0.863579  0.730777  1
  Co  Co4  1  0.000000  0.750000  0.750000  1
  Co  Co5  1  0.000000  0.250000  0.250000  1
  Co  Co6  1  0.252789  0.861908  0.390882  1
  Co  Co7  1  0.747211  0.138092  0.609118  1
  Co  Co8  1  0.471025  0.361908  0.109118  1
  Co  Co9  1  0.528975  0.638092  0.890882  1
  Si  Si10  1  0.500000  0.750000  0.250000  1
  Si  Si11  1  0.500000  0.250000  0.750000  1
  Si  Si12  1  0.227174  0.977174  0.750000  1
  Si  Si13  1  0.772826  0.522826  0.750000  1
  Si  Si14  1  0.772826  0.022826  0.250000  1
  Si  Si15  1  0.227174  0.477174  0.250000  1
  Si  Si16  1  0.062687  0.900525  0.162162  1
  Si  Si17  1  0.937313  0.099475  0.837838  1
  Si  Si18  1  0.738364  0.400525  0.337838  1
  Si  Si19  1  0.261636  0.599475  0.662162  1
