# generated using pymatgen
data_Tb7Lu17(CoTc)4
_symmetry_space_group_name_H-M   'P 1'
_cell_length_a   6.28669014
_cell_length_b   9.16082200
_cell_length_c   14.05070800
_cell_angle_alpha   90.00000000
_cell_angle_beta   89.76003235
_cell_angle_gamma   90.00000000
_symmetry_Int_Tables_number   1
_chemical_formula_structural   Tb7Lu17(CoTc)4
_chemical_formula_sum   'Tb7 Lu17 Co4 Tc4'
_cell_volume   809.19073045
_cell_formula_units_Z   1
loop_
 _symmetry_equiv_pos_site_id
 _symmetry_equiv_pos_as_xyz
  1  'x, y, z'
loop_
 _atom_site_type_symbol
 _atom_site_label
 _atom_site_symmetry_multiplicity
 _atom_site_fract_x
 _atom_site_fract_y
 _atom_site_fract_z
 _atom_site_occupancy
  Tb  Tb0  1  0.034023  0.250000  0.148323  1
  Tb  Tb1  1  0.465121  0.250000  0.648101  1
  Tb  Tb2  1  0.964164  0.750000  0.851416  1
  Tb  Tb3  1  0.776736  0.750000  0.109138  1
  Tb  Tb4  1  0.277905  0.250000  0.391800  1
  Tb  Tb5  1  0.221116  0.250000  0.891848  1
  Tb  Tb6  1  0.722633  0.750000  0.607956  1
  Lu  Lu7  1  0.536970  0.750000  0.351581  1
  Lu  Lu8  1  0.411437  0.931555  0.785229  1
  Lu  Lu9  1  0.912044  0.068524  0.714563  1
  Lu  Lu10  1  0.588107  0.432413  0.215354  1
  Lu  Lu11  1  0.090719  0.568924  0.285417  1
  Lu  Lu12  1  0.588107  0.067587  0.215354  1
  Lu  Lu13  1  0.090719  0.931076  0.285417  1
  Lu  Lu14  1  0.411437  0.568445  0.785229  1
  Lu  Lu15  1  0.912044  0.431476  0.714563  1
  Lu  Lu16  1  0.236533  0.934478  0.537858  1
  Lu  Lu17  1  0.734436  0.065073  0.961566  1
  Lu  Lu18  1  0.764642  0.436063  0.460898  1
  Lu  Lu19  1  0.264058  0.564676  0.038829  1
  Lu  Lu20  1  0.764642  0.063937  0.460898  1
  Lu  Lu21  1  0.264058  0.935324  0.038829  1
  Lu  Lu22  1  0.236533  0.565522  0.537858  1
  Lu  Lu23  1  0.734436  0.434927  0.961566  1
  Co  Co24  1  0.372117  0.750000  0.183512  1
  Co  Co25  1  0.872034  0.250000  0.316976  1
  Co  Co26  1  0.627064  0.250000  0.816930  1
  Co  Co27  1  0.129223  0.750000  0.682866  1
  Tc  Tc28  1  0.934685  0.750000  0.434209  1
  Tc  Tc29  1  0.435195  0.250000  0.065323  1
  Tc  Tc30  1  0.064334  0.250000  0.565191  1
  Tc  Tc31  1  0.562724  0.750000  0.935400  1
