# generated using pymatgen
data_Lu4Ga4NiRu3
_symmetry_space_group_name_H-M   'P 1'
_cell_length_a   4.42774000
_cell_length_b   6.95688701
_cell_length_c   7.11626629
_cell_angle_alpha   88.98495592
_cell_angle_beta   90.00000000
_cell_angle_gamma   90.00000000
_symmetry_Int_Tables_number   1
_chemical_formula_structural   Lu4Ga4NiRu3
_chemical_formula_sum   'Lu4 Ga4 Ni1 Ru3'
_cell_volume   219.16999428
_cell_formula_units_Z   1
loop_
 _symmetry_equiv_pos_site_id
 _symmetry_equiv_pos_as_xyz
  1  'x, y, z'
loop_
 _atom_site_type_symbol
 _atom_site_label
 _atom_site_symmetry_multiplicity
 _atom_site_fract_x
 _atom_site_fract_y
 _atom_site_fract_z
 _atom_site_occupancy
  Lu  Lu0  1  0.250000  0.018158  0.802616  1
  Lu  Lu1  1  0.250000  0.517978  0.693497  1
  Lu  Lu2  1  0.750000  0.985363  0.200244  1
  Lu  Lu3  1  0.750000  0.485071  0.303093  1
  Ga  Ga4  1  0.250000  0.201782  0.400664  1
  Ga  Ga5  1  0.250000  0.695354  0.101528  1
  Ga  Ga6  1  0.750000  0.792398  0.605026  1
  Ga  Ga7  1  0.750000  0.309007  0.893157  1
  Ni  Ni8  1  0.750000  0.665827  0.934412  1
  Ru  Ru9  1  0.250000  0.837134  0.433446  1
  Ru  Ru10  1  0.250000  0.332247  0.064239  1
  Ru  Ru11  1  0.750000  0.159680  0.568080  1
