# generated using pymatgen
data_Dy2LuGa5Co
_symmetry_space_group_name_H-M   'P 1'
_cell_length_a   6.87141421
_cell_length_b   6.87141519
_cell_length_c   4.20779000
_cell_angle_alpha   90.00000000
_cell_angle_beta   90.00000000
_cell_angle_gamma   119.56631668
_symmetry_Int_Tables_number   1
_chemical_formula_structural   Dy2LuGa5Co
_chemical_formula_sum   'Dy2 Lu1 Ga5 Co1'
_cell_volume   172.80582205
_cell_formula_units_Z   1
loop_
 _symmetry_equiv_pos_site_id
 _symmetry_equiv_pos_as_xyz
  1  'x, y, z'
loop_
 _atom_site_type_symbol
 _atom_site_label
 _atom_site_symmetry_multiplicity
 _atom_site_fract_x
 _atom_site_fract_y
 _atom_site_fract_z
 _atom_site_occupancy
  Dy  Dy0  1  0.597911  0.999179  0.000000  1
  Dy  Dy1  1  0.999179  0.597911  0.000000  1
  Lu  Lu2  1  0.396921  0.396921  0.000000  1
  Ga  Ga3  1  0.231129  0.000377  0.500000  1
  Ga  Ga4  1  0.000377  0.231129  0.500000  1
  Ga  Ga5  1  0.769872  0.769872  0.500000  1
  Ga  Ga6  1  0.335127  0.664453  0.500000  1
  Ga  Ga7  1  0.664453  0.335127  0.500000  1
  Co  Co8  1  0.005032  0.005032  0.000000  1
