# generated using pymatgen
data_Sm2LuZn3(GaNi)6
_symmetry_space_group_name_H-M   'P 1'
_cell_length_a   8.90181500
_cell_length_b   8.90181531
_cell_length_c   4.16285300
_cell_angle_alpha   90.00000000
_cell_angle_beta   90.00000000
_cell_angle_gamma   120.00000256
_symmetry_Int_Tables_number   1
_chemical_formula_structural   Sm2LuZn3(GaNi)6
_chemical_formula_sum   'Sm2 Lu1 Zn3 Ga6 Ni6'
_cell_volume   285.67934384
_cell_formula_units_Z   1
loop_
 _symmetry_equiv_pos_site_id
 _symmetry_equiv_pos_as_xyz
  1  'x, y, z'
loop_
 _atom_site_type_symbol
 _atom_site_label
 _atom_site_symmetry_multiplicity
 _atom_site_fract_x
 _atom_site_fract_y
 _atom_site_fract_z
 _atom_site_occupancy
  Sm  Sm0  1  0.666667  0.333333  0.500000  1
  Sm  Sm1  1  0.333333  0.666667  0.500000  1
  Lu  Lu2  1  0.000000  0.000000  0.000000  1
  Zn  Zn3  1  0.709937  0.709937  0.500000  1
  Zn  Zn4  1  0.290063  0.000000  0.500000  1
  Zn  Zn5  1  0.000000  0.290063  0.500000  1
  Ga  Ga6  1  0.286836  0.286836  0.500000  1
  Ga  Ga7  1  0.713164  0.000000  0.500000  1
  Ga  Ga8  1  0.000000  0.713164  0.500000  1
  Ga  Ga9  1  0.510744  0.510744  0.000000  1
  Ga  Ga10  1  0.489256  0.000000  0.000000  1
  Ga  Ga11  1  0.000000  0.489256  0.000000  1
  Ni  Ni12  1  0.810692  0.172856  0.000000  1
  Ni  Ni13  1  0.827144  0.637836  0.000000  1
  Ni  Ni14  1  0.362164  0.189308  0.000000  1
  Ni  Ni15  1  0.172856  0.810692  0.000000  1
  Ni  Ni16  1  0.637836  0.827144  0.000000  1
  Ni  Ni17  1  0.189308  0.362164  0.000000  1
