# generated using pymatgen
data_Nd6IrOs
_symmetry_space_group_name_H-M   'P 1'
_cell_length_a   6.51373500
_cell_length_b   7.45579200
_cell_length_c   9.78837300
_cell_angle_alpha   90.00000000
_cell_angle_beta   90.00000000
_cell_angle_gamma   90.00000000
_symmetry_Int_Tables_number   1
_chemical_formula_structural   Nd6IrOs
_chemical_formula_sum   'Nd12 Ir2 Os2'
_cell_volume   475.37285650
_cell_formula_units_Z   2
loop_
 _symmetry_equiv_pos_site_id
 _symmetry_equiv_pos_as_xyz
  1  'x, y, z'
loop_
 _atom_site_type_symbol
 _atom_site_label
 _atom_site_symmetry_multiplicity
 _atom_site_fract_x
 _atom_site_fract_y
 _atom_site_fract_z
 _atom_site_occupancy
  Nd  Nd0  1  0.326930  0.675379  0.067847  1
  Nd  Nd1  1  0.173070  0.175379  0.432153  1
  Nd  Nd2  1  0.668770  0.324287  0.564204  1
  Nd  Nd3  1  0.831230  0.824287  0.935796  1
  Nd  Nd4  1  0.668770  0.324287  0.935796  1
  Nd  Nd5  1  0.831230  0.824287  0.564204  1
  Nd  Nd6  1  0.326930  0.675379  0.432153  1
  Nd  Nd7  1  0.173070  0.175379  0.067847  1
  Nd  Nd8  1  0.859722  0.534723  0.250000  1
  Nd  Nd9  1  0.640278  0.034723  0.250000  1
  Nd  Nd10  1  0.139983  0.464091  0.750000  1
  Nd  Nd11  1  0.360017  0.964091  0.750000  1
  Ir  Ir12  1  0.940711  0.117806  0.750000  1
  Ir  Ir13  1  0.559289  0.617806  0.750000  1
  Os  Os14  1  0.055684  0.884049  0.250000  1
  Os  Os15  1  0.444316  0.384049  0.250000  1
