# generated using pymatgen
data_BaVNi2Se3S
_symmetry_space_group_name_H-M   'P 1'
_cell_length_a   9.52034721
_cell_length_b   9.52034702
_cell_length_c   7.18855800
_cell_angle_alpha   90.00000000
_cell_angle_beta   90.00000000
_cell_angle_gamma   146.55927942
_symmetry_Int_Tables_number   1
_chemical_formula_structural   BaVNi2Se3S
_chemical_formula_sum   'Ba2 V2 Ni4 Se6 S2'
_cell_volume   359.05188989
_cell_formula_units_Z   2
loop_
 _symmetry_equiv_pos_site_id
 _symmetry_equiv_pos_as_xyz
  1  'x, y, z'
loop_
 _atom_site_type_symbol
 _atom_site_label
 _atom_site_symmetry_multiplicity
 _atom_site_fract_x
 _atom_site_fract_y
 _atom_site_fract_z
 _atom_site_occupancy
  Ba  Ba0  1  0.906138  0.558325  0.250000  1
  Ba  Ba1  1  0.558325  0.906138  0.750000  1
  V  V2  1  0.869121  0.089220  0.250000  1
  V  V3  1  0.089220  0.869121  0.750000  1
  Ni  Ni4  1  0.970014  0.970014  0.500000  1
  Ni  Ni5  1  0.970014  0.970014  0.000000  1
  Ni  Ni6  1  0.380097  0.595531  0.250000  1
  Ni  Ni7  1  0.595531  0.380097  0.750000  1
  Se  Se8  1  0.333442  0.124283  0.488612  1
  Se  Se9  1  0.124283  0.333442  0.511388  1
  Se  Se10  1  0.514733  0.947027  0.250000  1
  Se  Se11  1  0.947027  0.514733  0.750000  1
  Se  Se12  1  0.333442  0.124283  0.011388  1
  Se  Se13  1  0.124283  0.333442  0.988612  1
  S  S14  1  0.725280  0.750489  0.250000  1
  S  S15  1  0.750489  0.725280  0.750000  1
