# generated using pymatgen
data_Cs16Zr3SnS16
_symmetry_space_group_name_H-M   'P 1'
_cell_length_a   8.95541210
_cell_length_b   10.61815200
_cell_length_c   15.59715100
_cell_angle_alpha   90.00000000
_cell_angle_beta   90.03923189
_cell_angle_gamma   90.00000000
_symmetry_Int_Tables_number   1
_chemical_formula_structural   Cs16Zr3SnS16
_chemical_formula_sum   'Cs16 Zr3 Sn1 S16'
_cell_volume   1483.13160066
_cell_formula_units_Z   1
loop_
 _symmetry_equiv_pos_site_id
 _symmetry_equiv_pos_as_xyz
  1  'x, y, z'
loop_
 _atom_site_type_symbol
 _atom_site_label
 _atom_site_symmetry_multiplicity
 _atom_site_fract_x
 _atom_site_fract_y
 _atom_site_fract_z
 _atom_site_occupancy
  Cs  Cs0  1  0.999926  0.003052  0.998775  1
  Cs  Cs1  1  0.499812  0.997831  0.499443  1
  Cs  Cs2  1  0.999926  0.496948  0.998775  1
  Cs  Cs3  1  0.499812  0.502169  0.499443  1
  Cs  Cs4  1  0.990567  0.750000  0.425321  1
  Cs  Cs5  1  0.488367  0.250000  0.073964  1
  Cs  Cs6  1  0.009035  0.250000  0.574854  1
  Cs  Cs7  1  0.511941  0.750000  0.923793  1
  Cs  Cs8  1  0.833837  0.058408  0.281385  1
  Cs  Cs9  1  0.333138  0.941386  0.218577  1
  Cs  Cs10  1  0.166214  0.553670  0.720317  1
  Cs  Cs11  1  0.664189  0.439766  0.780344  1
  Cs  Cs12  1  0.166214  0.946330  0.720317  1
  Cs  Cs13  1  0.664189  0.060234  0.780344  1
  Cs  Cs14  1  0.833837  0.441592  0.281385  1
  Cs  Cs15  1  0.333138  0.558614  0.218577  1
  Zr  Zr16  1  0.758974  0.750000  0.665297  1
  Zr  Zr17  1  0.241826  0.250000  0.334608  1
  Zr  Zr18  1  0.740983  0.750000  0.165257  1
  Sn  Sn19  1  0.261046  0.250000  0.836391  1
  S  S20  1  0.988875  0.250000  0.826495  1
  S  S21  1  0.513556  0.250000  0.326300  1
  S  S22  1  0.487188  0.750000  0.674113  1
  S  S23  1  0.012621  0.750000  0.174130  1
  S  S24  1  0.656507  0.562278  0.091984  1
  S  S25  1  0.157854  0.437919  0.407632  1
  S  S26  1  0.345375  0.061512  0.908821  1
  S  S27  1  0.842187  0.938325  0.592237  1
  S  S28  1  0.345375  0.438488  0.908821  1
  S  S29  1  0.842187  0.561675  0.592237  1
  S  S30  1  0.656507  0.937722  0.091984  1
  S  S31  1  0.157854  0.062081  0.407632  1
  S  S32  1  0.633325  0.750000  0.309107  1
  S  S33  1  0.133383  0.250000  0.190933  1
  S  S34  1  0.364623  0.250000  0.691167  1
  S  S35  1  0.865608  0.750000  0.809239  1
