# generated using pymatgen
data_AcNdZn5Si
_symmetry_space_group_name_H-M   'P 1'
_cell_length_a   8.48154678
_cell_length_b   8.48154644
_cell_length_c   8.95464100
_cell_angle_alpha   90.00000000
_cell_angle_beta   90.00000000
_cell_angle_gamma   149.00744570
_symmetry_Int_Tables_number   1
_chemical_formula_structural   AcNdZn5Si
_chemical_formula_sum   'Ac2 Nd2 Zn10 Si2'
_cell_volume   331.69863163
_cell_formula_units_Z   2
loop_
 _symmetry_equiv_pos_site_id
 _symmetry_equiv_pos_as_xyz
  1  'x, y, z'
loop_
 _atom_site_type_symbol
 _atom_site_label
 _atom_site_symmetry_multiplicity
 _atom_site_fract_x
 _atom_site_fract_y
 _atom_site_fract_z
 _atom_site_occupancy
  Ac  Ac0  1  0.000000  0.000000  0.500000  1
  Ac  Ac1  1  0.000000  0.000000  0.000000  1
  Nd  Nd2  1  0.205521  0.794479  0.250000  1
  Nd  Nd3  1  0.794479  0.205521  0.750000  1
  Zn  Zn4  1  0.812267  0.187733  0.391241  1
  Zn  Zn5  1  0.187733  0.812267  0.608759  1
  Zn  Zn6  1  0.812267  0.187733  0.108759  1
  Zn  Zn7  1  0.187733  0.812267  0.891241  1
  Zn  Zn8  1  0.654207  0.345793  0.477548  1
  Zn  Zn9  1  0.345793  0.654207  0.522452  1
  Zn  Zn10  1  0.654207  0.345793  0.022452  1
  Zn  Zn11  1  0.345793  0.654207  0.977548  1
  Zn  Zn12  1  0.405935  0.594065  0.250000  1
  Zn  Zn13  1  0.594065  0.405935  0.750000  1
  Si  Si14  1  0.563455  0.436545  0.250000  1
  Si  Si15  1  0.436545  0.563455  0.750000  1
