# generated using pymatgen
data_Lu2Co2OsRu
_symmetry_space_group_name_H-M   'P 1'
_cell_length_a   5.05568400
_cell_length_b   5.09550207
_cell_length_c   8.63692200
_cell_angle_alpha   90.00000000
_cell_angle_beta   90.00000000
_cell_angle_gamma   119.74183807
_symmetry_Int_Tables_number   1
_chemical_formula_structural   Lu2Co2OsRu
_chemical_formula_sum   'Lu4 Co4 Os2 Ru2'
_cell_volume   193.18813200
_cell_formula_units_Z   2
loop_
 _symmetry_equiv_pos_site_id
 _symmetry_equiv_pos_as_xyz
  1  'x, y, z'
loop_
 _atom_site_type_symbol
 _atom_site_label
 _atom_site_symmetry_multiplicity
 _atom_site_fract_x
 _atom_site_fract_y
 _atom_site_fract_z
 _atom_site_occupancy
  Lu  Lu0  1  0.330502  0.666681  0.433428  1
  Lu  Lu1  1  0.663823  0.333319  0.566572  1
  Lu  Lu2  1  0.663823  0.333319  0.933428  1
  Lu  Lu3  1  0.330502  0.666681  0.066572  1
  Co  Co4  1  0.175799  0.342417  0.750000  1
  Co  Co5  1  0.178079  0.832489  0.750000  1
  Co  Co6  1  0.345592  0.167511  0.250000  1
  Co  Co7  1  0.833384  0.657583  0.250000  1
  Os  Os8  1  0.661327  0.830323  0.750000  1
  Os  Os9  1  0.831006  0.169677  0.250000  1
  Ru  Ru10  1  0.993081  0.000000  0.000000  1
  Ru  Ru11  1  0.993081  0.000000  0.500000  1
