# generated using pymatgen
data_Nd9Tm11Pt16
_symmetry_space_group_name_H-M   'P 1'
_cell_length_a   7.56080358
_cell_length_b   7.65663694
_cell_length_c   14.67007600
_cell_angle_alpha   89.78005465
_cell_angle_beta   89.90416097
_cell_angle_gamma   90.28281778
_symmetry_Int_Tables_number   1
_chemical_formula_structural   Nd9Tm11Pt16
_chemical_formula_sum   'Nd9 Tm11 Pt16'
_cell_volume   849.23769189
_cell_formula_units_Z   1
loop_
 _symmetry_equiv_pos_site_id
 _symmetry_equiv_pos_as_xyz
  1  'x, y, z'
loop_
 _atom_site_type_symbol
 _atom_site_label
 _atom_site_symmetry_multiplicity
 _atom_site_fract_x
 _atom_site_fract_y
 _atom_site_fract_z
 _atom_site_occupancy
  Nd  Nd0  1  0.658927  0.832558  0.879647  1
  Nd  Nd1  1  0.998890  0.823930  0.404036  1
  Nd  Nd2  1  0.498556  0.675125  0.098279  1
  Nd  Nd3  1  0.501583  0.325338  0.593856  1
  Nd  Nd4  1  0.003617  0.177884  0.906296  1
  Nd  Nd5  1  0.000950  0.175172  0.593381  1
  Nd  Nd6  1  0.500808  0.324698  0.904275  1
  Nd  Nd7  1  0.497054  0.675760  0.403804  1
  Nd  Nd8  1  0.999730  0.823287  0.097239  1
  Tm  Tm9  1  0.677844  0.993569  0.250266  1
  Tm  Tm10  1  0.178439  0.506590  0.250299  1
  Tm  Tm11  1  0.823659  0.490570  0.747924  1
  Tm  Tm12  1  0.320238  0.009216  0.748111  1
  Tm  Tm13  1  0.657934  0.832588  0.622007  1
  Tm  Tm14  1  0.157756  0.667452  0.876669  1
  Tm  Tm15  1  0.841479  0.332812  0.376571  1
  Tm  Tm16  1  0.340604  0.168679  0.123613  1
  Tm  Tm17  1  0.341340  0.167165  0.376710  1
  Tm  Tm18  1  0.843217  0.333875  0.124611  1
  Tm  Tm19  1  0.159176  0.667039  0.621494  1
  Pt  Pt20  1  0.812679  0.637209  0.250232  1
  Pt  Pt21  1  0.309216  0.863401  0.250091  1
  Pt  Pt22  1  0.688875  0.139564  0.746992  1
  Pt  Pt23  1  0.185677  0.361420  0.748778  1
  Pt  Pt24  1  0.545630  0.373801  0.250590  1
  Pt  Pt25  1  0.045051  0.125588  0.250364  1
  Pt  Pt26  1  0.958857  0.875473  0.746810  1
  Pt  Pt27  1  0.452258  0.622162  0.747252  1
  Pt  Pt28  1  0.823288  0.537209  0.542641  1
  Pt  Pt29  1  0.315083  0.964418  0.960379  1
  Pt  Pt30  1  0.675946  0.036047  0.455476  1
  Pt  Pt31  1  0.178499  0.466897  0.045559  1
  Pt  Pt32  1  0.175662  0.463184  0.455148  1
  Pt  Pt33  1  0.677840  0.038176  0.049839  1
  Pt  Pt34  1  0.324311  0.963783  0.543023  1
  Pt  Pt35  1  0.829325  0.528360  0.957736  1
