# generated using pymatgen
data_Na2Nb6Se5S7
_symmetry_space_group_name_H-M   'P 1'
_cell_length_a   5.94082268
_cell_length_b   5.94245542
_cell_length_c   15.28662419
_cell_angle_alpha   91.70159155
_cell_angle_beta   88.60662069
_cell_angle_gamma   119.98681786
_symmetry_Int_Tables_number   1
_chemical_formula_structural   Na2Nb6Se5S7
_chemical_formula_sum   'Na2 Nb6 Se5 S7'
_cell_volume   467.19141262
_cell_formula_units_Z   1
loop_
 _symmetry_equiv_pos_site_id
 _symmetry_equiv_pos_as_xyz
  1  'x, y, z'
loop_
 _atom_site_type_symbol
 _atom_site_label
 _atom_site_symmetry_multiplicity
 _atom_site_fract_x
 _atom_site_fract_y
 _atom_site_fract_z
 _atom_site_occupancy
  Na  Na0  1  0.294359  0.648403  0.251150  1
  Na  Na1  1  0.646870  0.312528  0.746097  1
  Nb  Nb2  1  0.334036  0.661154  0.001803  1
  Nb  Nb3  1  0.012772  0.006095  0.002206  1
  Nb  Nb4  1  0.667701  0.339734  0.002527  1
  Nb  Nb5  1  0.326581  0.668048  0.499958  1
  Nb  Nb6  1  0.009722  0.010257  0.499544  1
  Nb  Nb7  1  0.667863  0.327604  0.499291  1
  Se  Se8  1  0.672890  0.662552  0.390255  1
  Se  Se9  1  0.665200  0.677259  0.608798  1
  Se  Se10  1  0.009710  0.663951  0.889484  1
  Se  Se11  1  0.675355  0.994386  0.892735  1
  Se  Se12  1  0.669637  0.010212  0.112063  1
  S  S13  1  0.337917  0.996598  0.398264  1
  S  S14  1  0.998776  0.340791  0.601044  1
  S  S15  1  0.330599  0.006705  0.600890  1
  S  S16  1  0.001026  0.674877  0.100938  1
  S  S17  1  0.340755  0.329435  0.900544  1
  S  S18  1  0.003549  0.328458  0.398262  1
  S  S19  1  0.334681  0.340951  0.104147  1
