# generated using pymatgen
data_Lu3Zr(Rh5Pb)2
_symmetry_space_group_name_H-M   'P 1'
_cell_length_a   5.71533484
_cell_length_b   5.71516508
_cell_length_c   8.46218701
_cell_angle_alpha   89.99566844
_cell_angle_beta   90.00050503
_cell_angle_gamma   96.60289709
_symmetry_Int_Tables_number   1
_chemical_formula_structural   Lu3Zr(Rh5Pb)2
_chemical_formula_sum   'Lu3 Zr1 Rh10 Pb2'
_cell_volume   274.57613242
_cell_formula_units_Z   1
loop_
 _symmetry_equiv_pos_site_id
 _symmetry_equiv_pos_as_xyz
  1  'x, y, z'
loop_
 _atom_site_type_symbol
 _atom_site_label
 _atom_site_symmetry_multiplicity
 _atom_site_fract_x
 _atom_site_fract_y
 _atom_site_fract_z
 _atom_site_occupancy
  Lu  Lu0  1  0.778771  0.221216  0.499980  1
  Lu  Lu1  1  0.221261  0.778758  0.000019  1
  Lu  Lu2  1  0.221524  0.778477  0.499952  1
  Zr  Zr3  1  0.784062  0.215932  0.999985  1
  Rh  Rh4  1  0.735731  0.737910  0.000529  1
  Rh  Rh5  1  0.737298  0.737403  0.499400  1
  Rh  Rh6  1  0.262079  0.264287  0.999467  1
  Rh  Rh7  1  0.262569  0.262713  0.500644  1
  Rh  Rh8  1  0.501899  0.002773  0.753795  1
  Rh  Rh9  1  0.502282  0.001801  0.246282  1
  Rh  Rh10  1  0.998446  0.002234  0.246586  1
  Rh  Rh11  1  0.997775  0.001546  0.753420  1
  Rh  Rh12  1  0.998218  0.497729  0.753709  1
  Rh  Rh13  1  0.997249  0.498091  0.246212  1
  Pb  Pb14  1  0.501734  0.500897  0.750375  1
  Pb  Pb15  1  0.499103  0.498232  0.249645  1
