# generated using pymatgen
data_YHo2Al3SiPd2
_symmetry_space_group_name_H-M   'P 1'
_cell_length_a   7.03742602
_cell_length_b   7.03025536
_cell_length_c   4.16124300
_cell_angle_alpha   90.00000000
_cell_angle_beta   90.00000000
_cell_angle_gamma   120.02502360
_symmetry_Int_Tables_number   1
_chemical_formula_structural   YHo2Al3SiPd2
_chemical_formula_sum   'Y1 Ho2 Al3 Si1 Pd2'
_cell_volume   178.24981493
_cell_formula_units_Z   1
loop_
 _symmetry_equiv_pos_site_id
 _symmetry_equiv_pos_as_xyz
  1  'x, y, z'
loop_
 _atom_site_type_symbol
 _atom_site_label
 _atom_site_symmetry_multiplicity
 _atom_site_fract_x
 _atom_site_fract_y
 _atom_site_fract_z
 _atom_site_occupancy
  Y  Y0  1  0.001615  0.582443  0.500000  1
  Ho  Ho1  1  0.416855  0.419085  0.500000  1
  Ho  Ho2  1  0.580914  0.997684  0.500000  1
  Al  Al3  1  0.008123  0.243561  0.000000  1
  Al  Al4  1  0.756124  0.764355  0.000000  1
  Al  Al5  1  0.235814  0.992092  0.000000  1
  Si  Si6  1  0.666089  0.332946  0.000000  1
  Pd  Pd7  1  0.999996  0.000865  0.500000  1
  Pd  Pd8  1  0.334472  0.666969  0.000000  1
