# generated using pymatgen
data_Ho2Er6Ti3Si16Mo9
_symmetry_space_group_name_H-M   'P 1'
_cell_length_a   6.89350210
_cell_length_b   6.89345898
_cell_length_c   12.76283306
_cell_angle_alpha   89.99472437
_cell_angle_beta   89.99268262
_cell_angle_gamma   89.78509426
_symmetry_Int_Tables_number   1
_chemical_formula_structural   Ho2Er6Ti3Si16Mo9
_chemical_formula_sum   'Ho2 Er6 Ti3 Si16 Mo9'
_cell_volume   606.48649669
_cell_formula_units_Z   1
loop_
 _symmetry_equiv_pos_site_id
 _symmetry_equiv_pos_as_xyz
  1  'x, y, z'
loop_
 _atom_site_type_symbol
 _atom_site_label
 _atom_site_symmetry_multiplicity
 _atom_site_fract_x
 _atom_site_fract_y
 _atom_site_fract_z
 _atom_site_occupancy
  Ho  Ho0  1  0.339544  0.001792  0.468594  1
  Ho  Ho1  1  0.497223  0.839076  0.719353  1
  Er  Er2  1  0.499148  0.161628  0.217523  1
  Er  Er3  1  0.839200  0.497316  0.280652  1
  Er  Er4  1  0.161601  0.499127  0.782471  1
  Er  Er5  1  0.659386  0.000120  0.968954  1
  Er  Er6  1  0.001617  0.339697  0.531359  1
  Er  Er7  1  0.000088  0.659406  0.031109  1
  Ti  Ti8  1  0.169871  0.831526  0.248592  1
  Ti  Ti9  1  0.831592  0.169911  0.751369  1
  Ti  Ti10  1  0.668953  0.668826  0.499963  1
  Si  Si11  1  0.200814  0.129676  0.683301  1
  Si  Si12  1  0.373294  0.697288  0.933828  1
  Si  Si13  1  0.629312  0.299123  0.433237  1
  Si  Si14  1  0.697325  0.373330  0.066237  1
  Si  Si15  1  0.298906  0.628899  0.566703  1
  Si  Si16  1  0.796759  0.871398  0.183794  1
  Si  Si17  1  0.129448  0.201041  0.316669  1
  Si  Si18  1  0.871618  0.796731  0.816242  1
  Si  Si19  1  0.288154  0.963694  0.061687  1
  Si  Si20  1  0.539344  0.791539  0.313486  1
  Si  Si21  1  0.458326  0.210712  0.815196  1
  Si  Si22  1  0.791728  0.539184  0.686424  1
  Si  Si23  1  0.210507  0.458379  0.184864  1
  Si  Si24  1  0.709701  0.041127  0.563866  1
  Si  Si25  1  0.963715  0.288153  0.938327  1
  Si  Si26  1  0.040922  0.709299  0.436088  1
  Mo  Mo27  1  0.331423  0.331429  0.999991  1
  Mo  Mo28  1  0.155634  0.001282  0.873070  1
  Mo  Mo29  1  0.496747  0.666621  0.124389  1
  Mo  Mo30  1  0.505504  0.340527  0.624573  1
  Mo  Mo31  1  0.666673  0.496694  0.875654  1
  Mo  Mo32  1  0.340430  0.505458  0.375435  1
  Mo  Mo33  1  0.840597  0.993731  0.374237  1
  Mo  Mo34  1  0.001237  0.155695  0.126996  1
  Mo  Mo35  1  0.993657  0.840566  0.625768  1
