# generated using pymatgen
data_Th4Mn(Al3Pd)8
_symmetry_space_group_name_H-M   'P 1'
_cell_length_a   7.60355709
_cell_length_b   7.61216649
_cell_length_c   13.33485117
_cell_angle_alpha   84.67173761
_cell_angle_beta   100.83460274
_cell_angle_gamma   119.64521115
_symmetry_Int_Tables_number   1
_chemical_formula_structural   Th4Mn(Al3Pd)8
_chemical_formula_sum   'Th4 Mn1 Al24 Pd8'
_cell_volume   658.83072951
_cell_formula_units_Z   1
loop_
 _symmetry_equiv_pos_site_id
 _symmetry_equiv_pos_as_xyz
  1  'x, y, z'
loop_
 _atom_site_type_symbol
 _atom_site_label
 _atom_site_symmetry_multiplicity
 _atom_site_fract_x
 _atom_site_fract_y
 _atom_site_fract_z
 _atom_site_occupancy
  Th  Th0  1  0.438099  0.829851  0.808605  1
  Th  Th1  1  0.561901  0.170149  0.191395  1
  Th  Th2  1  0.768024  0.503033  0.808316  1
  Th  Th3  1  0.231976  0.496967  0.191684  1
  Mn  Mn4  1  0.500000  0.500000  0.000000  1
  Al  Al5  1  0.480284  0.174515  0.948700  1
  Al  Al6  1  0.519716  0.825485  0.051300  1
  Al  Al7  1  0.021650  0.166358  0.559745  1
  Al  Al8  1  0.978350  0.833642  0.440255  1
  Al  Al9  1  0.353318  0.833884  0.558156  1
  Al  Al10  1  0.646682  0.166116  0.441844  1
  Al  Al11  1  0.622111  0.834724  0.333368  1
  Al  Al12  1  0.377889  0.165276  0.666632  1
  Al  Al13  1  0.055249  0.489136  0.666284  1
  Al  Al14  1  0.944751  0.510864  0.333716  1
  Al  Al15  1  0.733802  0.844052  0.663884  1
  Al  Al16  1  0.266198  0.155948  0.336116  1
  Al  Al17  1  0.157548  0.497459  0.949496  1
  Al  Al18  1  0.842452  0.502541  0.050504  1
  Al  Al19  1  0.813252  0.826368  0.961431  1
  Al  Al20  1  0.186748  0.173632  0.038569  1
  Al  Al21  1  0.312394  0.499604  0.442357  1
  Al  Al22  1  0.687606  0.500396  0.557643  1
  Al  Al23  1  0.099115  0.836915  0.183379  1
  Al  Al24  1  0.900885  0.163085  0.816621  1
  Al  Al25  1  0.308076  0.368508  0.821404  1
  Al  Al26  1  0.691924  0.631492  0.178596  1
  Al  Al27  1  0.101753  0.963593  0.816112  1
  Al  Al28  1  0.898247  0.036407  0.183888  1
  Pd  Pd29  1  0.386629  0.506486  0.638265  1
  Pd  Pd30  1  0.613371  0.493514  0.361735  1
  Pd  Pd31  1  0.172146  0.828769  0.999532  1
  Pd  Pd32  1  0.827854  0.171231  0.000468  1
  Pd  Pd33  1  0.294456  0.833110  0.363515  1
  Pd  Pd34  1  0.705544  0.166890  0.636485  1
  Pd  Pd35  1  0.047615  0.826400  0.636565  1
  Pd  Pd36  1  0.952385  0.173600  0.363435  1
