# generated using pymatgen
data_Rb3Nb16O23
_symmetry_space_group_name_H-M   'P 1'
_cell_length_a   12.34588200
_cell_length_b   12.34588172
_cell_length_c   4.21703000
_cell_angle_alpha   90.00000000
_cell_angle_beta   90.00000000
_cell_angle_gamma   118.44531209
_symmetry_Int_Tables_number   1
_chemical_formula_structural   Rb3Nb16O23
_chemical_formula_sum   'Rb3 Nb16 O23'
_cell_volume   565.16367859
_cell_formula_units_Z   1
loop_
 _symmetry_equiv_pos_site_id
 _symmetry_equiv_pos_as_xyz
  1  'x, y, z'
loop_
 _atom_site_type_symbol
 _atom_site_label
 _atom_site_symmetry_multiplicity
 _atom_site_fract_x
 _atom_site_fract_y
 _atom_site_fract_z
 _atom_site_occupancy
  Rb  Rb0  1  0.201065  0.798935  0.000000  1
  Rb  Rb1  1  0.798935  0.201065  0.000000  1
  Rb  Rb2  1  0.000000  0.000000  0.000000  1
  Nb  Nb3  1  0.468061  0.862803  0.500000  1
  Nb  Nb4  1  0.531939  0.137197  0.500000  1
  Nb  Nb5  1  0.862803  0.468061  0.500000  1
  Nb  Nb6  1  0.137197  0.531939  0.500000  1
  Nb  Nb7  1  0.736622  0.939163  0.500000  1
  Nb  Nb8  1  0.263378  0.060837  0.500000  1
  Nb  Nb9  1  0.939163  0.736622  0.500000  1
  Nb  Nb10  1  0.060837  0.263378  0.500000  1
  Nb  Nb11  1  0.599947  0.400053  0.500000  1
  Nb  Nb12  1  0.400053  0.599947  0.500000  1
  Nb  Nb13  1  0.569241  0.772889  0.000000  1
  Nb  Nb14  1  0.430759  0.227111  0.000000  1
  Nb  Nb15  1  0.772889  0.569241  0.000000  1
  Nb  Nb16  1  0.227111  0.430759  0.000000  1
  Nb  Nb17  1  0.671563  0.671563  0.500000  1
  Nb  Nb18  1  0.328437  0.328437  0.500000  1
  O  O19  1  0.102069  0.897931  0.500000  1
  O  O20  1  0.897931  0.102069  0.500000  1
  O  O21  1  0.698151  0.301849  0.500000  1
  O  O22  1  0.301849  0.698151  0.500000  1
  O  O23  1  0.536801  0.139751  0.000000  1
  O  O24  1  0.463199  0.860249  0.000000  1
  O  O25  1  0.139751  0.536801  0.000000  1
  O  O26  1  0.860249  0.463199  0.000000  1
  O  O27  1  0.631647  0.029196  0.500000  1
  O  O28  1  0.368353  0.970804  0.500000  1
  O  O29  1  0.029196  0.631647  0.500000  1
  O  O30  1  0.970804  0.368353  0.500000  1
  O  O31  1  0.736296  0.934867  0.000000  1
  O  O32  1  0.263704  0.065133  0.000000  1
  O  O33  1  0.934867  0.736296  0.000000  1
  O  O34  1  0.065133  0.263704  0.000000  1
  O  O35  1  0.835058  0.835058  0.500000  1
  O  O36  1  0.164942  0.164942  0.500000  1
  O  O37  1  0.596748  0.403252  0.000000  1
  O  O38  1  0.500000  0.500000  0.500000  1
  O  O39  1  0.333260  0.333260  0.000000  1
  O  O40  1  0.666740  0.666740  0.000000  1
  O  O41  1  0.403252  0.596748  0.000000  1
