# generated using pymatgen
data_Ti4MnTc2Pd
_symmetry_space_group_name_H-M   'P 1'
_cell_length_a   6.14805600
_cell_length_b   6.14804100
_cell_length_c   6.21124000
_cell_angle_alpha   89.99983310
_cell_angle_beta   90.00027816
_cell_angle_gamma   90.00169612
_symmetry_Int_Tables_number   1
_chemical_formula_structural   Ti4MnTc2Pd
_chemical_formula_sum   'Ti8 Mn2 Tc4 Pd2'
_cell_volume   234.77555731
_cell_formula_units_Z   2
loop_
 _symmetry_equiv_pos_site_id
 _symmetry_equiv_pos_as_xyz
  1  'x, y, z'
loop_
 _atom_site_type_symbol
 _atom_site_label
 _atom_site_symmetry_multiplicity
 _atom_site_fract_x
 _atom_site_fract_y
 _atom_site_fract_z
 _atom_site_occupancy
  Ti  Ti0  1  0.999996  0.000007  0.238877  1
  Ti  Ti1  1  0.999997  0.499998  0.238872  1
  Ti  Ti2  1  0.499999  0.000001  0.238884  1
  Ti  Ti3  1  0.499998  0.499994  0.238884  1
  Ti  Ti4  1  0.500005  0.000004  0.761107  1
  Ti  Ti5  1  0.500006  0.500000  0.761107  1
  Ti  Ti6  1  0.000001  0.000000  0.761114  1
  Ti  Ti7  1  0.000002  0.499995  0.761123  1
  Mn  Mn8  1  0.249973  0.249964  0.000030  1
  Mn  Mn9  1  0.750019  0.750040  0.000033  1
  Tc  Tc10  1  0.749993  0.249999  0.999989  1
  Tc  Tc11  1  0.250005  0.750000  0.999989  1
  Tc  Tc12  1  0.250012  0.750002  0.499998  1
  Tc  Tc13  1  0.749990  0.249998  0.499998  1
  Pd  Pd14  1  0.249983  0.250004  0.500000  1
  Pd  Pd15  1  0.750018  0.749995  0.499996  1
