# generated using pymatgen
data_YbTm2(MgIr)3
_symmetry_space_group_name_H-M   'P 1'
_cell_length_a   7.05046400
_cell_length_b   7.18737592
_cell_length_c   4.14126800
_cell_angle_alpha   90.00000000
_cell_angle_beta   90.00000000
_cell_angle_gamma   119.37183228
_symmetry_Int_Tables_number   1
_chemical_formula_structural   YbTm2(MgIr)3
_chemical_formula_sum   'Yb1 Tm2 Mg3 Ir3'
_cell_volume   182.88007210
_cell_formula_units_Z   1
loop_
 _symmetry_equiv_pos_site_id
 _symmetry_equiv_pos_as_xyz
  1  'x, y, z'
loop_
 _atom_site_type_symbol
 _atom_site_label
 _atom_site_symmetry_multiplicity
 _atom_site_fract_x
 _atom_site_fract_y
 _atom_site_fract_z
 _atom_site_occupancy
  Yb  Yb0  1  0.414426  0.000000  0.500000  1
  Tm  Tm1  1  0.003388  0.411885  0.500000  1
  Tm  Tm2  1  0.591503  0.588115  0.500000  1
  Mg  Mg3  1  0.004662  0.760519  0.000000  1
  Mg  Mg4  1  0.244143  0.239481  0.000000  1
  Mg  Mg5  1  0.746778  0.000000  0.000000  1
  Ir  Ir6  1  0.329031  0.650338  0.000000  1
  Ir  Ir7  1  0.678695  0.349662  0.000000  1
  Ir  Ir8  1  0.987375  0.000000  0.500000  1
