# generated using pymatgen
data_SmY2Hf(NiP)4
_symmetry_space_group_name_H-M   'P 1'
_cell_length_a   3.88248800
_cell_length_b   3.88248966
_cell_length_c   15.18934100
_cell_angle_alpha   90.00000000
_cell_angle_beta   90.00000000
_cell_angle_gamma   120.00001994
_symmetry_Int_Tables_number   1
_chemical_formula_structural   SmY2Hf(NiP)4
_chemical_formula_sum   'Sm1 Y2 Hf1 Ni4 P4'
_cell_volume   198.28502044
_cell_formula_units_Z   1
loop_
 _symmetry_equiv_pos_site_id
 _symmetry_equiv_pos_as_xyz
  1  'x, y, z'
loop_
 _atom_site_type_symbol
 _atom_site_label
 _atom_site_symmetry_multiplicity
 _atom_site_fract_x
 _atom_site_fract_y
 _atom_site_fract_z
 _atom_site_occupancy
  Sm  Sm0  1  0.000000  0.000000  0.491771  1
  Y  Y1  1  0.000000  0.000000  0.008207  1
  Y  Y2  1  0.000000  0.000000  0.751424  1
  Hf  Hf3  1  0.000000  0.000000  0.248498  1
  Ni  Ni4  1  0.333333  0.666667  0.342151  1
  Ni  Ni5  1  0.666667  0.333333  0.625604  1
  Ni  Ni6  1  0.666667  0.333333  0.877431  1
  Ni  Ni7  1  0.333333  0.666667  0.154421  1
  P  P8  1  0.333333  0.666667  0.881561  1
  P  P9  1  0.666667  0.333333  0.127916  1
  P  P10  1  0.666667  0.333333  0.368572  1
  P  P11  1  0.333333  0.666667  0.622445  1
