# generated using pymatgen
data_Ce3(Al3Tc)4
_symmetry_space_group_name_H-M   'P 1'
_cell_length_a   8.96068600
_cell_length_b   8.96068488
_cell_length_c   9.69762300
_cell_angle_alpha   90.00000000
_cell_angle_beta   90.00000000
_cell_angle_gamma   119.99999674
_symmetry_Int_Tables_number   1
_chemical_formula_structural   Ce3(Al3Tc)4
_chemical_formula_sum   'Ce6 Al24 Tc8'
_cell_volume   674.33920050
_cell_formula_units_Z   2
loop_
 _symmetry_equiv_pos_site_id
 _symmetry_equiv_pos_as_xyz
  1  'x, y, z'
loop_
 _atom_site_type_symbol
 _atom_site_label
 _atom_site_symmetry_multiplicity
 _atom_site_fract_x
 _atom_site_fract_y
 _atom_site_fract_z
 _atom_site_occupancy
  Ce  Ce0  1  0.804423  0.608845  0.750000  1
  Ce  Ce1  1  0.195577  0.804423  0.250000  1
  Ce  Ce2  1  0.608845  0.804423  0.250000  1
  Ce  Ce3  1  0.391155  0.195577  0.750000  1
  Ce  Ce4  1  0.804423  0.195577  0.750000  1
  Ce  Ce5  1  0.195577  0.391155  0.250000  1
  Al  Al6  1  0.333333  0.666667  0.498741  1
  Al  Al7  1  0.666667  0.333333  0.998741  1
  Al  Al8  1  0.666667  0.333333  0.501259  1
  Al  Al9  1  0.333333  0.666667  0.001259  1
  Al  Al10  1  0.161284  0.322568  0.577800  1
  Al  Al11  1  0.677432  0.838716  0.577800  1
  Al  Al12  1  0.161284  0.838716  0.577800  1
  Al  Al13  1  0.838716  0.161284  0.077800  1
  Al  Al14  1  0.838716  0.161284  0.422200  1
  Al  Al15  1  0.838716  0.677432  0.077800  1
  Al  Al16  1  0.322568  0.161284  0.077800  1
  Al  Al17  1  0.677432  0.838716  0.922200  1
  Al  Al18  1  0.161284  0.322568  0.922200  1
  Al  Al19  1  0.838716  0.677432  0.422200  1
  Al  Al20  1  0.000000  0.000000  0.250000  1
  Al  Al21  1  0.000000  0.000000  0.750000  1
  Al  Al22  1  0.562266  0.124532  0.250000  1
  Al  Al23  1  0.437734  0.562266  0.750000  1
  Al  Al24  1  0.124532  0.562266  0.750000  1
  Al  Al25  1  0.875468  0.437734  0.250000  1
  Al  Al26  1  0.562266  0.437734  0.250000  1
  Al  Al27  1  0.437734  0.875468  0.750000  1
  Al  Al28  1  0.161284  0.838716  0.922200  1
  Al  Al29  1  0.322568  0.161284  0.422200  1
  Tc  Tc30  1  0.000000  0.000000  0.500000  1
  Tc  Tc31  1  0.000000  0.000000  0.000000  1
  Tc  Tc32  1  0.500000  0.000000  0.500000  1
  Tc  Tc33  1  0.500000  0.500000  0.000000  1
  Tc  Tc34  1  0.000000  0.500000  0.000000  1
  Tc  Tc35  1  0.000000  0.500000  0.500000  1
  Tc  Tc36  1  0.500000  0.500000  0.500000  1
  Tc  Tc37  1  0.500000  0.000000  0.000000  1
