# generated using pymatgen
data_RhSF34
_symmetry_space_group_name_H-M   'P 1'
_cell_length_a   8.66708704
_cell_length_b   8.49706024
_cell_length_c   10.06234320
_cell_angle_alpha   79.93243621
_cell_angle_beta   86.90035211
_cell_angle_gamma   66.31267742
_symmetry_Int_Tables_number   1
_chemical_formula_structural   RhSF34
_chemical_formula_sum   'Rh1 S1 F34'
_cell_volume   668.05118573
_cell_formula_units_Z   1
loop_
 _symmetry_equiv_pos_site_id
 _symmetry_equiv_pos_as_xyz
  1  'x, y, z'
loop_
 _atom_site_type_symbol
 _atom_site_label
 _atom_site_symmetry_multiplicity
 _atom_site_fract_x
 _atom_site_fract_y
 _atom_site_fract_z
 _atom_site_occupancy
  Rh  Rh0  1  0.133489  0.750025  0.242075  1
  S  S1  1  0.863061  0.248509  0.760732  1
  F  F2  1  0.618066  0.201232  0.479417  1
  F  F3  1  0.393170  0.785858  0.523676  1
  F  F4  1  0.828843  0.702072  0.713449  1
  F  F5  1  0.172112  0.304597  0.280346  1
  F  F6  1  0.092804  0.749175  0.865866  1
  F  F7  1  0.912994  0.236589  0.137400  1
  F  F8  1  0.557977  0.144076  0.375495  1
  F  F9  1  0.438365  0.861751  0.623213  1
  F  F10  1  0.673245  0.317411  0.706196  1
  F  F11  1  0.355141  0.669392  0.307529  1
  F  F12  1  0.918607  0.093376  0.675541  1
  F  F13  1  0.063423  0.927388  0.346729  1
  F  F14  1  0.903050  0.368563  0.635217  1
  F  F15  1  0.087251  0.605972  0.387216  1
  F  F16  1  0.859181  0.817911  0.605141  1
  F  F17  1  0.152015  0.183659  0.389984  1
  F  F18  1  0.807680  0.404132  0.845985  1
  F  F19  1  0.199652  0.569788  0.139737  1
  F  F20  1  0.214411  0.689203  0.765387  1
  F  F21  1  0.785370  0.313764  0.229295  1
  F  F22  1  0.913776  0.830729  0.173090  1
  F  F23  1  0.051923  0.179870  0.816282  1
  F  F24  1  0.822071  0.128248  0.886102  1
  F  F25  1  0.182089  0.895357  0.098595  1
  F  F26  1  0.494534  0.590766  0.984612  1
  F  F27  1  0.511437  0.414195  0.010537  1
  F  F28  1  0.450198  0.091943  0.866565  1
  F  F29  1  0.540493  0.914410  0.135382  1
  F  F30  1  0.285964  0.259984  0.604787  1
  F  F31  1  0.715623  0.738934  0.394240  1
  F  F32  1  0.257745  0.400145  0.676043  1
  F  F33  1  0.743991  0.597760  0.324172  1
  F  F34  1  0.559800  0.927189  0.833484  1
  F  F35  1  0.440449  0.086030  0.160484  1
