# generated using pymatgen
data_LuReF7
_symmetry_space_group_name_H-M   'P 1'
_cell_length_a   5.48630500
_cell_length_b   8.78792940
_cell_length_c   11.90837587
_cell_angle_alpha   62.67875850
_cell_angle_beta   90.00000000
_cell_angle_gamma   90.00000000
_symmetry_Int_Tables_number   1
_chemical_formula_structural   LuReF7
_chemical_formula_sum   'Lu4 Re4 F28'
_cell_volume   510.09448971
_cell_formula_units_Z   4
loop_
 _symmetry_equiv_pos_site_id
 _symmetry_equiv_pos_as_xyz
  1  'x, y, z'
loop_
 _atom_site_type_symbol
 _atom_site_label
 _atom_site_symmetry_multiplicity
 _atom_site_fract_x
 _atom_site_fract_y
 _atom_site_fract_z
 _atom_site_occupancy
  Lu  Lu0  1  0.258747  0.816570  0.263236  1
  Lu  Lu1  1  0.741253  0.183430  0.736764  1
  Lu  Lu2  1  0.758747  0.183430  0.236764  1
  Lu  Lu3  1  0.241253  0.816570  0.763236  1
  Re  Re4  1  0.758434  0.726276  0.042667  1
  Re  Re5  1  0.241566  0.273724  0.957333  1
  Re  Re6  1  0.258434  0.273724  0.457333  1
  Re  Re7  1  0.741566  0.726276  0.542667  1
  F  F8  1  0.944594  0.708889  0.412195  1
  F  F9  1  0.055406  0.291111  0.587805  1
  F  F10  1  0.444594  0.291111  0.087805  1
  F  F11  1  0.555406  0.708889  0.912195  1
  F  F12  1  0.465516  0.728985  0.139003  1
  F  F13  1  0.534484  0.271015  0.860997  1
  F  F14  1  0.965516  0.271015  0.360997  1
  F  F15  1  0.034484  0.728985  0.639003  1
  F  F16  1  0.956364  0.744180  0.175955  1
  F  F17  1  0.043636  0.255820  0.824045  1
  F  F18  1  0.456364  0.255820  0.324045  1
  F  F19  1  0.543636  0.744180  0.675955  1
  F  F20  1  0.771202  0.473809  0.142411  1
  F  F21  1  0.228798  0.526191  0.857589  1
  F  F22  1  0.271202  0.526191  0.357589  1
  F  F23  1  0.728798  0.473809  0.642411  1
  F  F24  1  0.938268  0.277080  0.048028  1
  F  F25  1  0.061732  0.722920  0.951972  1
  F  F26  1  0.438268  0.722920  0.451972  1
  F  F27  1  0.561732  0.277080  0.548028  1
  F  F28  1  0.739113  0.978373  0.444933  1
  F  F29  1  0.260887  0.021627  0.555067  1
  F  F30  1  0.239113  0.021627  0.055067  1
  F  F31  1  0.760887  0.978373  0.944933  1
  F  F32  1  0.584470  0.969595  0.232133  1
  F  F33  1  0.415530  0.030405  0.767867  1
  F  F34  1  0.084470  0.030405  0.267867  1
  F  F35  1  0.915530  0.969595  0.732133  1
