# generated using pymatgen
data_Tb2Dy6Cu3Si12Rh
_symmetry_space_group_name_H-M   'P 1'
_cell_length_a   8.04530201
_cell_length_b   8.04531107
_cell_length_c   8.13079400
_cell_angle_alpha   90.00041817
_cell_angle_beta   89.99942119
_cell_angle_gamma   119.99749696
_symmetry_Int_Tables_number   1
_chemical_formula_structural   Tb2Dy6Cu3Si12Rh
_chemical_formula_sum   'Tb2 Dy6 Cu3 Si12 Rh1'
_cell_volume   455.78469230
_cell_formula_units_Z   1
loop_
 _symmetry_equiv_pos_site_id
 _symmetry_equiv_pos_as_xyz
  1  'x, y, z'
loop_
 _atom_site_type_symbol
 _atom_site_label
 _atom_site_symmetry_multiplicity
 _atom_site_fract_x
 _atom_site_fract_y
 _atom_site_fract_z
 _atom_site_occupancy
  Tb  Tb0  1  0.000022  0.999969  0.250051  1
  Tb  Tb1  1  0.000023  0.999967  0.749948  1
  Dy  Dy2  1  0.999067  0.499497  0.251806  1
  Dy  Dy3  1  0.500502  0.499500  0.251788  1
  Dy  Dy4  1  0.500812  0.001547  0.748266  1
  Dy  Dy5  1  0.500502  0.000929  0.251777  1
  Dy  Dy6  1  0.500809  0.499195  0.748256  1
  Dy  Dy7  1  0.998453  0.499190  0.748236  1
  Cu  Cu8  1  0.333173  0.667030  0.999260  1
  Cu  Cu9  1  0.333316  0.666364  0.500091  1
  Cu  Cu10  1  0.666410  0.333736  0.000582  1
  Si  Si11  1  0.169176  0.338261  0.000082  1
  Si  Si12  1  0.661826  0.830848  0.000074  1
  Si  Si13  1  0.168070  0.336112  0.500121  1
  Si  Si14  1  0.337932  0.168910  0.999982  1
  Si  Si15  1  0.169124  0.830839  0.000082  1
  Si  Si16  1  0.663871  0.831910  0.500123  1
  Si  Si17  1  0.831090  0.662032  0.999982  1
  Si  Si18  1  0.335620  0.167764  0.499854  1
  Si  Si19  1  0.168077  0.831915  0.500124  1
  Si  Si20  1  0.832229  0.664365  0.499851  1
  Si  Si21  1  0.831047  0.168984  0.999984  1
  Si  Si22  1  0.832210  0.167783  0.499859  1
  Rh  Rh23  1  0.666642  0.333351  0.499815  1
