# generated using pymatgen
data_Li3Zn2(BRh2)4
_symmetry_space_group_name_H-M   'P 1'
_cell_length_a   9.46367052
_cell_length_b   9.46367222
_cell_length_c   2.86843200
_cell_angle_alpha   90.00000000
_cell_angle_beta   90.00000000
_cell_angle_gamma   126.93466300
_symmetry_Int_Tables_number   1
_chemical_formula_structural   Li3Zn2(BRh2)4
_chemical_formula_sum   'Li3 Zn2 B4 Rh8'
_cell_volume   205.34551857
_cell_formula_units_Z   1
loop_
 _symmetry_equiv_pos_site_id
 _symmetry_equiv_pos_as_xyz
  1  'x, y, z'
loop_
 _atom_site_type_symbol
 _atom_site_label
 _atom_site_symmetry_multiplicity
 _atom_site_fract_x
 _atom_site_fract_y
 _atom_site_fract_z
 _atom_site_occupancy
  Li  Li0  1  0.206441  0.794702  0.500000  1
  Li  Li1  1  0.794702  0.206441  0.500000  1
  Li  Li2  1  0.344858  0.344858  0.500000  1
  Zn  Zn3  1  0.004076  0.004076  0.500000  1
  Zn  Zn4  1  0.636782  0.636782  0.500000  1
  B  B5  1  0.462262  0.155162  0.500000  1
  B  B6  1  0.155162  0.462262  0.500000  1
  B  B7  1  0.539467  0.855598  0.500000  1
  B  B8  1  0.855598  0.539467  0.500000  1
  Rh  Rh9  1  0.634693  0.368508  0.000000  1
  Rh  Rh10  1  0.368508  0.634693  0.000000  1
  Rh  Rh11  1  0.918258  0.735052  0.000000  1
  Rh  Rh12  1  0.075554  0.264646  0.000000  1
  Rh  Rh13  1  0.501631  0.002310  0.000000  1
  Rh  Rh14  1  0.264646  0.075554  0.000000  1
  Rh  Rh15  1  0.735052  0.918258  0.000000  1
  Rh  Rh16  1  0.002310  0.501631  0.000000  1
