# generated using pymatgen
data_NdEuCo2Br
_symmetry_space_group_name_H-M   'P 1'
_cell_length_a   3.97808900
_cell_length_b   3.97808777
_cell_length_c   17.15716500
_cell_angle_alpha   90.00000000
_cell_angle_beta   90.00000000
_cell_angle_gamma   120.00000192
_symmetry_Int_Tables_number   1
_chemical_formula_structural   NdEuCo2Br
_chemical_formula_sum   'Nd2 Eu2 Co4 Br2'
_cell_volume   235.13918423
_cell_formula_units_Z   2
loop_
 _symmetry_equiv_pos_site_id
 _symmetry_equiv_pos_as_xyz
  1  'x, y, z'
loop_
 _atom_site_type_symbol
 _atom_site_label
 _atom_site_symmetry_multiplicity
 _atom_site_fract_x
 _atom_site_fract_y
 _atom_site_fract_z
 _atom_site_occupancy
  Nd  Nd0  1  0.000000  0.000000  0.608404  1
  Nd  Nd1  1  0.000000  0.000000  0.391596  1
  Eu  Eu2  1  0.000000  0.000000  0.115096  1
  Eu  Eu3  1  0.000000  0.000000  0.884904  1
  Co  Co4  1  0.333333  0.666667  0.501561  1
  Co  Co5  1  0.666667  0.333333  0.498439  1
  Co  Co6  1  0.666667  0.333333  0.002161  1
  Co  Co7  1  0.333333  0.666667  0.997839  1
  Br  Br8  1  0.333333  0.666667  0.252034  1
  Br  Br9  1  0.666667  0.333333  0.747966  1
