# generated using pymatgen
data_Nd3Zn6Au5
_symmetry_space_group_name_H-M   'P 1'
_cell_length_a   4.42998837
_cell_length_b   8.45930027
_cell_length_c   8.45929899
_cell_angle_alpha   69.97942315
_cell_angle_beta   74.82065436
_cell_angle_gamma   74.82065747
_symmetry_Int_Tables_number   1
_chemical_formula_structural   Nd3Zn6Au5
_chemical_formula_sum   'Nd3 Zn6 Au5'
_cell_volume   282.22945459
_cell_formula_units_Z   1
loop_
 _symmetry_equiv_pos_site_id
 _symmetry_equiv_pos_as_xyz
  1  'x, y, z'
loop_
 _atom_site_type_symbol
 _atom_site_label
 _atom_site_symmetry_multiplicity
 _atom_site_fract_x
 _atom_site_fract_y
 _atom_site_fract_z
 _atom_site_occupancy
  Nd  Nd0  1  0.705773  0.294227  0.294227  1
  Nd  Nd1  1  0.294227  0.705773  0.705773  1
  Nd  Nd2  1  0.000000  0.000000  0.000000  1
  Zn  Zn3  1  0.500000  0.680824  0.319176  1
  Zn  Zn4  1  0.500000  0.319176  0.680824  1
  Zn  Zn5  1  0.868525  0.420858  0.842093  1
  Zn  Zn6  1  0.131475  0.579142  0.157907  1
  Zn  Zn7  1  0.868525  0.842093  0.420858  1
  Zn  Zn8  1  0.131475  0.157907  0.579142  1
  Au  Au9  1  0.658453  0.695000  0.988095  1
  Au  Au10  1  0.341547  0.305000  0.011905  1
  Au  Au11  1  0.658453  0.988095  0.695000  1
  Au  Au12  1  0.341547  0.011905  0.305000  1
  Au  Au13  1  0.000000  0.500000  0.500000  1
