# generated using pymatgen
data_Nb2Sn2Pb4O13
_symmetry_space_group_name_H-M   'P 1'
_cell_length_a   7.61880589
_cell_length_b   7.61880655
_cell_length_c   7.61880574
_cell_angle_alpha   120.52195152
_cell_angle_beta   119.76271908
_cell_angle_gamma   89.75490176
_symmetry_Int_Tables_number   1
_chemical_formula_structural   Nb2Sn2Pb4O13
_chemical_formula_sum   'Nb2 Sn2 Pb4 O13'
_cell_volume   312.01981047
_cell_formula_units_Z   1
loop_
 _symmetry_equiv_pos_site_id
 _symmetry_equiv_pos_as_xyz
  1  'x, y, z'
loop_
 _atom_site_type_symbol
 _atom_site_label
 _atom_site_symmetry_multiplicity
 _atom_site_fract_x
 _atom_site_fract_y
 _atom_site_fract_z
 _atom_site_occupancy
  Nb  Nb0  1  0.250822  0.501469  0.749354  1
  Nb  Nb1  1  0.752114  0.501469  0.250646  1
  Sn  Sn2  1  0.250613  0.500481  0.249868  1
  Sn  Sn3  1  0.250613  0.000745  0.750132  1
  Pb  Pb4  1  0.751882  0.003428  0.251545  1
  Pb  Pb5  1  0.751882  0.500337  0.748455  1
  Pb  Pb6  1  0.749956  0.999929  0.750028  1
  Pb  Pb7  1  0.249902  0.999929  0.249972  1
  O  O8  1  0.169350  0.169350  0.000000  1
  O  O9  1  0.563540  0.563540  0.000000  1
  O  O10  1  0.172695  0.569975  0.991088  1
  O  O11  1  0.578887  0.181607  0.008912  1
  O  O12  1  0.172695  0.181607  0.602720  1
  O  O13  1  0.578887  0.569975  0.397280  1
  O  O14  1  0.328338  0.828338  0.500000  1
  O  O15  1  0.936926  0.436926  0.500000  1
  O  O16  1  0.322200  0.432919  0.508116  1
  O  O17  1  0.924804  0.814085  0.491884  1
  O  O18  1  0.322200  0.814085  0.889281  1
  O  O19  1  0.924804  0.432919  0.110719  1
  O  O20  1  0.871890  0.871890  0.000000  1
