# generated using pymatgen
data_Mg2U(Co3B2)3
_symmetry_space_group_name_H-M   'P 1'
_cell_length_a   5.69202986
_cell_length_b   5.69202964
_cell_length_c   5.69202968
_cell_angle_alpha   94.58982622
_cell_angle_beta   94.58982511
_cell_angle_gamma   94.58982091
_symmetry_Int_Tables_number   1
_chemical_formula_structural   Mg2U(Co3B2)3
_chemical_formula_sum   'Mg2 U1 Co9 B6'
_cell_volume   182.54181375
_cell_formula_units_Z   1
loop_
 _symmetry_equiv_pos_site_id
 _symmetry_equiv_pos_as_xyz
  1  'x, y, z'
loop_
 _atom_site_type_symbol
 _atom_site_label
 _atom_site_symmetry_multiplicity
 _atom_site_fract_x
 _atom_site_fract_y
 _atom_site_fract_z
 _atom_site_occupancy
  Mg  Mg0  1  0.660181  0.660181  0.660181  1
  Mg  Mg1  1  0.339819  0.339819  0.339819  1
  U  U2  1  0.000000  0.000000  0.000000  1
  Co  Co3  1  0.500000  0.000000  0.000000  1
  Co  Co4  1  0.000000  0.500000  0.000000  1
  Co  Co5  1  0.000000  0.000000  0.500000  1
  Co  Co6  1  0.698461  0.198436  0.698461  1
  Co  Co7  1  0.698461  0.698461  0.198436  1
  Co  Co8  1  0.198436  0.698461  0.698461  1
  Co  Co9  1  0.301539  0.801564  0.301539  1
  Co  Co10  1  0.301539  0.301539  0.801564  1
  Co  Co11  1  0.801564  0.301539  0.301539  1
  B  B12  1  0.382823  0.000000  0.617177  1
  B  B13  1  0.617177  0.382823  0.000000  1
  B  B14  1  0.000000  0.617177  0.382823  1
  B  B15  1  0.617177  0.000000  0.382823  1
  B  B16  1  0.382823  0.617177  0.000000  1
  B  B17  1  0.000000  0.382823  0.617177  1
