# generated using pymatgen
data_Tb5Dy7(TcIr)2
_symmetry_space_group_name_H-M   'P 1'
_cell_length_a   6.34881144
_cell_length_b   7.35829908
_cell_length_c   9.21906073
_cell_angle_alpha   89.98352659
_cell_angle_beta   90.04256080
_cell_angle_gamma   90.00251112
_symmetry_Int_Tables_number   1
_chemical_formula_structural   Tb5Dy7(TcIr)2
_chemical_formula_sum   'Tb5 Dy7 Tc2 Ir2'
_cell_volume   430.68168363
_cell_formula_units_Z   1
loop_
 _symmetry_equiv_pos_site_id
 _symmetry_equiv_pos_as_xyz
  1  'x, y, z'
loop_
 _atom_site_type_symbol
 _atom_site_label
 _atom_site_symmetry_multiplicity
 _atom_site_fract_x
 _atom_site_fract_y
 _atom_site_fract_z
 _atom_site_occupancy
  Tb  Tb0  1  0.328617  0.676557  0.066030  1
  Tb  Tb1  1  0.871708  0.538362  0.250109  1
  Tb  Tb2  1  0.628590  0.038268  0.250085  1
  Tb  Tb3  1  0.133507  0.460161  0.749929  1
  Tb  Tb4  1  0.366434  0.960282  0.749869  1
  Dy  Dy5  1  0.171138  0.176347  0.433915  1
  Dy  Dy6  1  0.668058  0.324008  0.561370  1
  Dy  Dy7  1  0.831960  0.824088  0.938610  1
  Dy  Dy8  1  0.668054  0.323959  0.938523  1
  Dy  Dy9  1  0.832098  0.824088  0.561335  1
  Dy  Dy10  1  0.328759  0.676479  0.434070  1
  Dy  Dy11  1  0.170939  0.176275  0.066130  1
  Tc  Tc12  1  0.036973  0.885799  0.250112  1
  Tc  Tc13  1  0.462990  0.385582  0.250046  1
  Ir  Ir14  1  0.953354  0.114901  0.750104  1
  Ir  Ir15  1  0.546822  0.614842  0.749763  1
