# generated using pymatgen
data_Lu3(Al3Os)4
_symmetry_space_group_name_H-M   'P 1'
_cell_length_a   8.76259100
_cell_length_b   8.76259090
_cell_length_c   9.55948300
_cell_angle_alpha   90.00000000
_cell_angle_beta   90.00000000
_cell_angle_gamma   120.00000417
_symmetry_Int_Tables_number   1
_chemical_formula_structural   Lu3(Al3Os)4
_chemical_formula_sum   'Lu6 Al24 Os8'
_cell_volume   635.66762906
_cell_formula_units_Z   2
loop_
 _symmetry_equiv_pos_site_id
 _symmetry_equiv_pos_as_xyz
  1  'x, y, z'
loop_
 _atom_site_type_symbol
 _atom_site_label
 _atom_site_symmetry_multiplicity
 _atom_site_fract_x
 _atom_site_fract_y
 _atom_site_fract_z
 _atom_site_occupancy
  Lu  Lu0  1  0.195657  0.391315  0.250000  1
  Lu  Lu1  1  0.804343  0.608685  0.750000  1
  Lu  Lu2  1  0.608685  0.804343  0.250000  1
  Lu  Lu3  1  0.391315  0.195657  0.750000  1
  Lu  Lu4  1  0.195657  0.804343  0.250000  1
  Lu  Lu5  1  0.804343  0.195657  0.750000  1
  Al  Al6  1  0.333333  0.666667  0.021071  1
  Al  Al7  1  0.666667  0.333333  0.978929  1
  Al  Al8  1  0.666667  0.333333  0.521071  1
  Al  Al9  1  0.333333  0.666667  0.478929  1
  Al  Al10  1  0.163362  0.326724  0.577120  1
  Al  Al11  1  0.836638  0.673276  0.422880  1
  Al  Al12  1  0.673276  0.836638  0.577120  1
  Al  Al13  1  0.836638  0.673276  0.077120  1
  Al  Al14  1  0.326724  0.163362  0.422880  1
  Al  Al15  1  0.163362  0.326724  0.922880  1
  Al  Al16  1  0.163362  0.836638  0.577120  1
  Al  Al17  1  0.326724  0.163362  0.077120  1
  Al  Al18  1  0.836638  0.163362  0.422880  1
  Al  Al19  1  0.673276  0.836638  0.922880  1
  Al  Al20  1  0.836638  0.163362  0.077120  1
  Al  Al21  1  0.163362  0.836638  0.922880  1
  Al  Al22  1  0.561468  0.122936  0.250000  1
  Al  Al23  1  0.438532  0.877064  0.750000  1
  Al  Al24  1  0.877064  0.438532  0.250000  1
  Al  Al25  1  0.122936  0.561468  0.750000  1
  Al  Al26  1  0.561468  0.438532  0.250000  1
  Al  Al27  1  0.438532  0.561468  0.750000  1
  Al  Al28  1  0.000000  0.000000  0.250000  1
  Al  Al29  1  0.000000  0.000000  0.750000  1
  Os  Os30  1  0.500000  0.000000  0.000000  1
  Os  Os31  1  0.000000  0.500000  0.000000  1
  Os  Os32  1  0.500000  0.000000  0.500000  1
  Os  Os33  1  0.500000  0.500000  0.000000  1
  Os  Os34  1  0.000000  0.500000  0.500000  1
  Os  Os35  1  0.500000  0.500000  0.500000  1
  Os  Os36  1  0.000000  0.000000  0.000000  1
  Os  Os37  1  0.000000  0.000000  0.500000  1
