# generated using pymatgen
data_MnIn3P6N13
_symmetry_space_group_name_H-M   'P 1'
_cell_length_a   7.28082588
_cell_length_b   7.28082649
_cell_length_c   7.21021900
_cell_angle_alpha   109.27489669
_cell_angle_beta   109.27489836
_cell_angle_gamma   109.66682568
_symmetry_Int_Tables_number   1
_chemical_formula_structural   MnIn3P6N13
_chemical_formula_sum   'Mn1 In3 P6 N13'
_cell_volume   294.94050624
_cell_formula_units_Z   1
loop_
 _symmetry_equiv_pos_site_id
 _symmetry_equiv_pos_as_xyz
  1  'x, y, z'
loop_
 _atom_site_type_symbol
 _atom_site_label
 _atom_site_symmetry_multiplicity
 _atom_site_fract_x
 _atom_site_fract_y
 _atom_site_fract_z
 _atom_site_occupancy
  Mn  Mn0  1  0.000000  0.000000  0.684103  1
  In  In1  1  0.292311  0.292311  0.289007  1
  In  In2  1  0.000000  0.707689  0.996696  1
  In  In3  1  0.707689  0.000000  0.996696  1
  P  P4  1  0.497642  0.249607  0.752737  1
  P  P5  1  0.502358  0.751964  0.255094  1
  P  P6  1  0.750393  0.248036  0.503129  1
  P  P7  1  0.249607  0.497642  0.752737  1
  P  P8  1  0.751964  0.502358  0.255094  1
  P  P9  1  0.248036  0.750393  0.503129  1
  N  N10  1  0.000000  0.000000  0.974514  1
  N  N11  1  0.000000  0.725673  0.440686  1
  N  N12  1  0.277571  0.713598  0.279500  1
  N  N13  1  0.286402  0.563973  0.565902  1
  N  N14  1  0.567036  0.567036  0.293364  1
  N  N15  1  0.563973  0.286402  0.565902  1
  N  N16  1  0.725673  0.000000  0.440686  1
  N  N17  1  0.432964  0.000000  0.726327  1
  N  N18  1  0.722429  0.436027  0.001929  1
  N  N19  1  0.274327  0.274327  0.715013  1
  N  N20  1  0.713598  0.277571  0.279500  1
  N  N21  1  0.000000  0.432964  0.726327  1
  N  N22  1  0.436027  0.722429  0.001929  1
