# generated using pymatgen
data_EuAg(MoO4)2
_symmetry_space_group_name_H-M   'P 1'
_cell_length_a   6.89584366
_cell_length_b   6.89584416
_cell_length_c   6.89584387
_cell_angle_alpha   134.34017446
_cell_angle_beta   134.34017339
_cell_angle_gamma   66.55716272
_symmetry_Int_Tables_number   1
_chemical_formula_structural   EuAg(MoO4)2
_chemical_formula_sum   'Eu1 Ag1 Mo2 O8'
_cell_volume   165.07883053
_cell_formula_units_Z   1
loop_
 _symmetry_equiv_pos_site_id
 _symmetry_equiv_pos_as_xyz
  1  'x, y, z'
loop_
 _atom_site_type_symbol
 _atom_site_label
 _atom_site_symmetry_multiplicity
 _atom_site_fract_x
 _atom_site_fract_y
 _atom_site_fract_z
 _atom_site_occupancy
  Eu  Eu0  1  0.000000  0.000000  0.000000  1
  Ag  Ag1  1  0.750000  0.250000  0.500000  1
  Mo  Mo2  1  0.250000  0.750000  0.500000  1
  Mo  Mo3  1  0.500000  0.500000  0.000000  1
  O  O4  1  0.307215  0.900600  0.884296  1
  O  O5  1  0.016304  0.422919  0.115704  1
  O  O6  1  0.176492  0.573059  0.916567  1
  O  O7  1  0.656492  0.259924  0.083433  1
  O  O8  1  0.426941  0.343508  0.603432  1
  O  O9  1  0.740076  0.823508  0.396568  1
  O  O10  1  0.577081  0.692785  0.593385  1
  O  O11  1  0.099400  0.983696  0.406615  1
