# generated using pymatgen
data_Pr3YNi14
_symmetry_space_group_name_H-M   'P 1'
_cell_length_a   12.64158397
_cell_length_b   12.64158362
_cell_length_c   12.64158372
_cell_angle_alpha   23.02217662
_cell_angle_beta   23.02217908
_cell_angle_gamma   23.02218350
_symmetry_Int_Tables_number   1
_chemical_formula_structural   Pr3YNi14
_chemical_formula_sum   'Pr3 Y1 Ni14'
_cell_volume   271.19659003
_cell_formula_units_Z   1
loop_
 _symmetry_equiv_pos_site_id
 _symmetry_equiv_pos_as_xyz
  1  'x, y, z'
loop_
 _atom_site_type_symbol
 _atom_site_label
 _atom_site_symmetry_multiplicity
 _atom_site_fract_x
 _atom_site_fract_y
 _atom_site_fract_z
 _atom_site_occupancy
  Pr  Pr0  1  0.050830  0.050830  0.050830  1
  Pr  Pr1  1  0.948609  0.948609  0.948609  1
  Pr  Pr2  1  0.147712  0.147712  0.147712  1
  Y  Y3  1  0.853130  0.853130  0.853130  1
  Ni  Ni4  1  0.608880  0.109134  0.608880  1
  Ni  Ni5  1  0.109134  0.608880  0.608880  1
  Ni  Ni6  1  0.608880  0.608880  0.109134  1
  Ni  Ni7  1  0.391306  0.890133  0.391306  1
  Ni  Ni8  1  0.890133  0.391306  0.391306  1
  Ni  Ni9  1  0.391306  0.391306  0.890133  1
  Ni  Ni10  1  0.388044  0.388043  0.388044  1
  Ni  Ni11  1  0.611919  0.611919  0.611919  1
  Ni  Ni12  1  0.278198  0.278198  0.278198  1
  Ni  Ni13  1  0.721575  0.721575  0.721575  1
  Ni  Ni14  1  0.500560  0.500560  0.500560  1
  Ni  Ni15  1  0.000088  0.499849  0.499849  1
  Ni  Ni16  1  0.499849  0.499849  0.000088  1
  Ni  Ni17  1  0.499849  0.000088  0.499849  1
