# generated using pymatgen
data_La2Nd4IrBr10
_symmetry_space_group_name_H-M   'P 1'
_cell_length_a   7.72451602
_cell_length_b   9.56176350
_cell_length_c   9.69007704
_cell_angle_alpha   109.20342953
_cell_angle_beta   96.78141732
_cell_angle_gamma   104.74760868
_symmetry_Int_Tables_number   1
_chemical_formula_structural   La2Nd4IrBr10
_chemical_formula_sum   'La2 Nd4 Ir1 Br10'
_cell_volume   637.45948052
_cell_formula_units_Z   1
loop_
 _symmetry_equiv_pos_site_id
 _symmetry_equiv_pos_as_xyz
  1  'x, y, z'
loop_
 _atom_site_type_symbol
 _atom_site_label
 _atom_site_symmetry_multiplicity
 _atom_site_fract_x
 _atom_site_fract_y
 _atom_site_fract_z
 _atom_site_occupancy
  La  La0  1  0.967781  0.294159  0.096489  1
  La  La1  1  0.032219  0.705841  0.903511  1
  Nd  Nd2  1  0.635613  0.866372  0.814613  1
  Nd  Nd3  1  0.364387  0.133628  0.185387  1
  Nd  Nd4  1  0.130891  0.049303  0.750296  1
  Nd  Nd5  1  0.869109  0.950697  0.249704  1
  Ir  Ir6  1  0.000000  0.000000  0.000000  1
  Br  Br7  1  0.543997  0.175947  0.920775  1
  Br  Br8  1  0.456003  0.824053  0.079225  1
  Br  Br9  1  0.755504  0.917984  0.547435  1
  Br  Br10  1  0.244496  0.082016  0.452565  1
  Br  Br11  1  0.088550  0.366753  0.829852  1
  Br  Br12  1  0.911450  0.633247  0.170148  1
  Br  Br13  1  0.217455  0.749314  0.648800  1
  Br  Br14  1  0.782545  0.250686  0.351200  1
  Br  Br15  1  0.645022  0.550963  0.728592  1
  Br  Br16  1  0.354978  0.449037  0.271408  1
