# generated using pymatgen
data_TbDy9HgBi5
_symmetry_space_group_name_H-M   'P 1'
_cell_length_a   9.12430388
_cell_length_b   9.11800793
_cell_length_c   6.47325200
_cell_angle_alpha   90.00000000
_cell_angle_beta   90.00000000
_cell_angle_gamma   119.78271017
_symmetry_Int_Tables_number   1
_chemical_formula_structural   TbDy9HgBi5
_chemical_formula_sum   'Tb1 Dy9 Hg1 Bi5'
_cell_volume   467.41172934
_cell_formula_units_Z   1
loop_
 _symmetry_equiv_pos_site_id
 _symmetry_equiv_pos_as_xyz
  1  'x, y, z'
loop_
 _atom_site_type_symbol
 _atom_site_label
 _atom_site_symmetry_multiplicity
 _atom_site_fract_x
 _atom_site_fract_y
 _atom_site_fract_z
 _atom_site_occupancy
  Tb  Tb0  1  0.998999  0.758205  0.250000  1
  Dy  Dy1  1  0.660291  0.335851  0.998523  1
  Dy  Dy2  1  0.335282  0.659959  0.998533  1
  Dy  Dy3  1  0.335282  0.659959  0.501467  1
  Dy  Dy4  1  0.660291  0.335851  0.501477  1
  Dy  Dy5  1  0.753403  0.753600  0.750000  1
  Dy  Dy6  1  0.244216  0.010918  0.750000  1
  Dy  Dy7  1  0.010604  0.243342  0.750000  1
  Dy  Dy8  1  0.242875  0.242772  0.250000  1
  Dy  Dy9  1  0.757825  0.998783  0.250000  1
  Hg  Hg10  1  0.391623  0.391629  0.750000  1
  Bi  Bi11  1  0.610903  0.002793  0.750000  1
  Bi  Bi12  1  0.002838  0.610963  0.750000  1
  Bi  Bi13  1  0.608811  0.609258  0.250000  1
  Bi  Bi14  1  0.391089  0.996148  0.250000  1
  Bi  Bi15  1  0.995667  0.389972  0.250000  1
