# generated using pymatgen
data_Ho12Th4MgHg3Ir4
_symmetry_space_group_name_H-M   'P 1'
_cell_length_a   9.72059457
_cell_length_b   9.71932734
_cell_length_c   9.71932700
_cell_angle_alpha   60.00000457
_cell_angle_beta   60.00431694
_cell_angle_gamma   60.00431511
_symmetry_Int_Tables_number   1
_chemical_formula_structural   Ho12Th4MgHg3Ir4
_chemical_formula_sum   'Ho12 Th4 Mg1 Hg3 Ir4'
_cell_volume   649.34960265
_cell_formula_units_Z   1
loop_
 _symmetry_equiv_pos_site_id
 _symmetry_equiv_pos_as_xyz
  1  'x, y, z'
loop_
 _atom_site_type_symbol
 _atom_site_label
 _atom_site_symmetry_multiplicity
 _atom_site_fract_x
 _atom_site_fract_y
 _atom_site_fract_z
 _atom_site_occupancy
  Ho  Ho0  1  0.810703  0.188738  0.188738  1
  Ho  Ho1  1  0.185410  0.813294  0.813294  1
  Ho  Ho2  1  0.185410  0.813294  0.188003  1
  Ho  Ho3  1  0.810703  0.188738  0.811820  1
  Ho  Ho4  1  0.185410  0.188003  0.813294  1
  Ho  Ho5  1  0.810703  0.811820  0.188738  1
  Ho  Ho6  1  0.931593  0.566612  0.566612  1
  Ho  Ho7  1  0.563443  0.935755  0.935755  1
  Ho  Ho8  1  0.563443  0.935755  0.565046  1
  Ho  Ho9  1  0.931593  0.566612  0.935184  1
  Ho  Ho10  1  0.563443  0.565046  0.935755  1
  Ho  Ho11  1  0.931593  0.935184  0.566612  1
  Th  Th12  1  0.350112  0.349806  0.349806  1
  Th  Th13  1  0.350112  0.349806  0.950275  1
  Th  Th14  1  0.350112  0.950275  0.349806  1
  Th  Th15  1  0.947973  0.350675  0.350675  1
  Mg  Mg16  1  0.271428  0.576190  0.576190  1
  Hg  Hg17  1  0.585557  0.588324  0.588324  1
  Hg  Hg18  1  0.585557  0.588324  0.237794  1
  Hg  Hg19  1  0.585557  0.237794  0.588324  1
  Ir  Ir20  1  0.143048  0.142497  0.142497  1
  Ir  Ir21  1  0.143048  0.142497  0.571960  1
  Ir  Ir22  1  0.143048  0.571960  0.142497  1
  Ir  Ir23  1  0.571002  0.143000  0.143000  1
