# generated using pymatgen
data_HoEr5(ReB7)2
_symmetry_space_group_name_H-M   'P 1'
_cell_length_a   8.02516257
_cell_length_b   8.02516301
_cell_length_c   9.31180500
_cell_angle_alpha   90.00000000
_cell_angle_beta   90.00000000
_cell_angle_gamma   154.69599569
_symmetry_Int_Tables_number   1
_chemical_formula_structural   HoEr5(ReB7)2
_chemical_formula_sum   'Ho1 Er5 Re2 B14'
_cell_volume   256.32884364
_cell_formula_units_Z   1
loop_
 _symmetry_equiv_pos_site_id
 _symmetry_equiv_pos_as_xyz
  1  'x, y, z'
loop_
 _atom_site_type_symbol
 _atom_site_label
 _atom_site_symmetry_multiplicity
 _atom_site_fract_x
 _atom_site_fract_y
 _atom_site_fract_z
 _atom_site_occupancy
  Ho  Ho0  1  0.242971  0.757029  0.250000  1
  Er  Er1  1  0.894693  0.105307  0.440183  1
  Er  Er2  1  0.105388  0.894612  0.560136  1
  Er  Er3  1  0.894693  0.105307  0.059817  1
  Er  Er4  1  0.105388  0.894612  0.939864  1
  Er  Er5  1  0.757453  0.242547  0.750000  1
  Re  Re6  1  0.052230  0.947770  0.250000  1
  Re  Re7  1  0.947635  0.052365  0.750000  1
  B  B8  1  0.727376  0.272624  0.467070  1
  B  B9  1  0.272571  0.727429  0.533917  1
  B  B10  1  0.727376  0.272624  0.032930  1
  B  B11  1  0.272571  0.727429  0.966083  1
  B  B12  1  0.632142  0.367858  0.150373  1
  B  B13  1  0.367760  0.632240  0.849453  1
  B  B14  1  0.632142  0.367858  0.349627  1
  B  B15  1  0.367760  0.632240  0.650547  1
  B  B16  1  0.520354  0.479646  0.094675  1
  B  B17  1  0.479616  0.520384  0.905297  1
  B  B18  1  0.520354  0.479646  0.405325  1
  B  B19  1  0.479616  0.520384  0.594703  1
  B  B20  1  0.455543  0.544457  0.250000  1
  B  B21  1  0.544369  0.455631  0.750000  1
