# generated using pymatgen
data_Sr8Yb3Ho9Sn16
_symmetry_space_group_name_H-M   'P 1'
_cell_length_a   8.04476905
_cell_length_b   8.54659747
_cell_length_c   16.24487600
_cell_angle_alpha   90.00000000
_cell_angle_beta   90.00000000
_cell_angle_gamma   89.88107775
_symmetry_Int_Tables_number   1
_chemical_formula_structural   Sr8Yb3Ho9Sn16
_chemical_formula_sum   'Sr8 Yb3 Ho9 Sn16'
_cell_volume   1116.92058773
_cell_formula_units_Z   1
loop_
 _symmetry_equiv_pos_site_id
 _symmetry_equiv_pos_as_xyz
  1  'x, y, z'
loop_
 _atom_site_type_symbol
 _atom_site_label
 _atom_site_symmetry_multiplicity
 _atom_site_fract_x
 _atom_site_fract_y
 _atom_site_fract_z
 _atom_site_occupancy
  Sr  Sr0  1  0.504582  0.680765  0.594444  1
  Sr  Sr1  1  0.005677  0.822121  0.907280  1
  Sr  Sr2  1  0.493467  0.319079  0.093126  1
  Sr  Sr3  1  0.993988  0.181121  0.407030  1
  Sr  Sr4  1  0.493467  0.319079  0.406874  1
  Sr  Sr5  1  0.993988  0.181121  0.092970  1
  Sr  Sr6  1  0.504582  0.680765  0.905556  1
  Sr  Sr7  1  0.005677  0.822121  0.592720  1
  Yb  Yb8  1  0.337762  0.991914  0.750000  1
  Yb  Yb9  1  0.162111  0.491515  0.250000  1
  Yb  Yb10  1  0.662163  0.007632  0.250000  1
  Ho  Ho11  1  0.674776  0.164414  0.623176  1
  Ho  Ho12  1  0.175378  0.332799  0.876481  1
  Ho  Ho13  1  0.325817  0.831787  0.122442  1
  Ho  Ho14  1  0.826235  0.666905  0.377737  1
  Ho  Ho15  1  0.325817  0.831787  0.377558  1
  Ho  Ho16  1  0.826235  0.666905  0.122263  1
  Ho  Ho17  1  0.674776  0.164414  0.876824  1
  Ho  Ho18  1  0.175378  0.332799  0.623519  1
  Ho  Ho19  1  0.839517  0.506401  0.750000  1
  Sn  Sn20  1  0.663410  0.958601  0.459061  1
  Sn  Sn21  1  0.162874  0.540442  0.040020  1
  Sn  Sn22  1  0.337519  0.041997  0.958513  1
  Sn  Sn23  1  0.836190  0.460590  0.544366  1
  Sn  Sn24  1  0.337519  0.041997  0.541487  1
  Sn  Sn25  1  0.836190  0.460590  0.955634  1
  Sn  Sn26  1  0.663410  0.958601  0.040939  1
  Sn  Sn27  1  0.162874  0.540442  0.459980  1
  Sn  Sn28  1  0.477063  0.373456  0.750000  1
  Sn  Sn29  1  0.970894  0.135947  0.750000  1
  Sn  Sn30  1  0.527896  0.629963  0.250000  1
  Sn  Sn31  1  0.027632  0.869486  0.250000  1
  Sn  Sn32  1  0.721074  0.872368  0.750000  1
  Sn  Sn33  1  0.210240  0.621079  0.750000  1
  Sn  Sn34  1  0.281908  0.116854  0.250000  1
  Sn  Sn35  1  0.781915  0.382141  0.250000  1
