# generated using pymatgen
data_Nd11Y(IrPd)2
_symmetry_space_group_name_H-M   'P 1'
_cell_length_a   6.57013782
_cell_length_b   7.35656797
_cell_length_c   9.94942631
_cell_angle_alpha   89.91199619
_cell_angle_beta   91.24439222
_cell_angle_gamma   90.30104880
_symmetry_Int_Tables_number   1
_chemical_formula_structural   Nd11Y(IrPd)2
_chemical_formula_sum   'Nd11 Y1 Ir2 Pd2'
_cell_volume   480.77170470
_cell_formula_units_Z   1
loop_
 _symmetry_equiv_pos_site_id
 _symmetry_equiv_pos_as_xyz
  1  'x, y, z'
loop_
 _atom_site_type_symbol
 _atom_site_label
 _atom_site_symmetry_multiplicity
 _atom_site_fract_x
 _atom_site_fract_y
 _atom_site_fract_z
 _atom_site_occupancy
  Nd  Nd0  1  0.631896  0.039459  0.249153  1
  Nd  Nd1  1  0.371032  0.961611  0.751065  1
  Nd  Nd2  1  0.145728  0.472597  0.750918  1
  Nd  Nd3  1  0.853441  0.523987  0.248666  1
  Nd  Nd4  1  0.171190  0.184664  0.065680  1
  Nd  Nd5  1  0.832218  0.815372  0.934221  1
  Nd  Nd6  1  0.663381  0.331258  0.931148  1
  Nd  Nd7  1  0.831265  0.818421  0.560759  1
  Nd  Nd8  1  0.337898  0.668098  0.067037  1
  Nd  Nd9  1  0.168868  0.182275  0.440135  1
  Nd  Nd10  1  0.330909  0.676993  0.441725  1
  Y  Y11  1  0.665088  0.324751  0.561760  1
  Ir  Ir12  1  0.435812  0.382243  0.265358  1
  Ir  Ir13  1  0.566895  0.616294  0.736441  1
  Pd  Pd14  1  0.930405  0.117341  0.749674  1
  Pd  Pd15  1  0.063976  0.884636  0.246260  1
