# generated using pymatgen
data_HfScNb4(B2Ru5)2
_symmetry_space_group_name_H-M   'P 1'
_cell_length_a   9.46722305
_cell_length_b   9.46722432
_cell_length_c   3.06906200
_cell_angle_alpha   90.00000000
_cell_angle_beta   90.00000000
_cell_angle_gamma   89.93325837
_symmetry_Int_Tables_number   1
_chemical_formula_structural   HfScNb4(B2Ru5)2
_chemical_formula_sum   'Hf1 Sc1 Nb4 B4 Ru10'
_cell_volume   275.07469760
_cell_formula_units_Z   1
loop_
 _symmetry_equiv_pos_site_id
 _symmetry_equiv_pos_as_xyz
  1  'x, y, z'
loop_
 _atom_site_type_symbol
 _atom_site_label
 _atom_site_symmetry_multiplicity
 _atom_site_fract_x
 _atom_site_fract_y
 _atom_site_fract_z
 _atom_site_occupancy
  Hf  Hf0  1  0.824818  0.675182  0.000000  1
  Sc  Sc1  1  0.175634  0.324366  0.000000  1
  Nb  Nb2  1  0.322759  0.823740  0.000000  1
  Nb  Nb3  1  0.676260  0.177241  0.000000  1
  Nb  Nb4  1  0.498535  0.499175  0.000000  1
  Nb  Nb5  1  0.000825  0.001465  0.000000  1
  B  B6  1  0.621431  0.878569  0.000000  1
  B  B7  1  0.377122  0.122878  0.000000  1
  B  B8  1  0.120960  0.619786  0.000000  1
  B  B9  1  0.880214  0.379040  0.000000  1
  Ru  Ru10  1  0.569314  0.719167  0.500000  1
  Ru  Ru11  1  0.434797  0.279190  0.500000  1
  Ru  Ru12  1  0.072946  0.783121  0.500000  1
  Ru  Ru13  1  0.923172  0.216943  0.500000  1
  Ru  Ru14  1  0.283057  0.576828  0.500000  1
  Ru  Ru15  1  0.716879  0.427054  0.500000  1
  Ru  Ru16  1  0.220810  0.065203  0.500000  1
  Ru  Ru17  1  0.780833  0.930686  0.500000  1
  Ru  Ru18  1  0.500828  0.999172  0.500000  1
  Ru  Ru19  1  0.998808  0.501192  0.500000  1
