# generated using pymatgen
data_Lu5P12Ru17Pt2
_symmetry_space_group_name_H-M   'P 1'
_cell_length_a   12.59160700
_cell_length_b   12.49495302
_cell_length_c   3.96105900
_cell_angle_alpha   90.00000000
_cell_angle_beta   90.00000000
_cell_angle_gamma   120.25622592
_symmetry_Int_Tables_number   1
_chemical_formula_structural   Lu5P12Ru17Pt2
_chemical_formula_sum   'Lu5 P12 Ru17 Pt2'
_cell_volume   538.30774061
_cell_formula_units_Z   1
loop_
 _symmetry_equiv_pos_site_id
 _symmetry_equiv_pos_as_xyz
  1  'x, y, z'
loop_
 _atom_site_type_symbol
 _atom_site_label
 _atom_site_symmetry_multiplicity
 _atom_site_fract_x
 _atom_site_fract_y
 _atom_site_fract_z
 _atom_site_occupancy
  Lu  Lu0  1  0.000982  0.182050  0.500000  1
  Lu  Lu1  1  0.818933  0.817950  0.500000  1
  Lu  Lu2  1  0.183077  0.000000  0.500000  1
  Lu  Lu3  1  0.664529  0.328027  0.000000  1
  Lu  Lu4  1  0.336501  0.671973  0.000000  1
  P  P5  1  0.998275  0.813908  0.000000  1
  P  P6  1  0.184366  0.186092  0.000000  1
  P  P7  1  0.818566  0.000000  0.000000  1
  P  P8  1  0.693068  0.170894  0.500000  1
  P  P9  1  0.816578  0.515980  0.500000  1
  P  P10  1  0.478590  0.299664  0.500000  1
  P  P11  1  0.178925  0.700336  0.500000  1
  P  P12  1  0.522174  0.829106  0.500000  1
  P  P13  1  0.300598  0.484020  0.500000  1
  P  P14  1  0.000345  0.364544  0.000000  1
  P  P15  1  0.635800  0.635456  0.000000  1
  P  P16  1  0.372655  0.000000  0.000000  1
  Ru  Ru17  1  0.555128  0.000000  0.000000  1
  Ru  Ru18  1  0.997891  0.710892  0.500000  1
  Ru  Ru19  1  0.286999  0.289108  0.500000  1
  Ru  Ru20  1  0.719045  0.000000  0.500000  1
  Ru  Ru21  1  0.809277  0.185253  0.000000  1
  Ru  Ru22  1  0.812959  0.619088  0.000000  1
  Ru  Ru23  1  0.375832  0.191695  0.000000  1
  Ru  Ru24  1  0.184138  0.808305  0.000000  1
  Ru  Ru25  1  0.624024  0.814747  0.000000  1
  Ru  Ru26  1  0.193872  0.380912  0.000000  1
  Ru  Ru27  1  0.869832  0.365673  0.500000  1
  Ru  Ru28  1  0.629228  0.505366  0.500000  1
  Ru  Ru29  1  0.492925  0.124825  0.500000  1
  Ru  Ru30  1  0.368100  0.875175  0.500000  1
  Ru  Ru31  1  0.504158  0.634327  0.500000  1
  Ru  Ru32  1  0.123862  0.494634  0.500000  1
  Ru  Ru33  1  0.001929  0.000000  0.000000  1
  Pt  Pt34  1  0.998613  0.550386  0.000000  1
  Pt  Pt35  1  0.448227  0.449614  0.000000  1
