# generated using pymatgen
data_CaPr6IrI12
_symmetry_space_group_name_H-M   'P 1'
_cell_length_a   10.12965895
_cell_length_b   10.12965843
_cell_length_c   10.12965874
_cell_angle_alpha   107.09725619
_cell_angle_beta   107.09724887
_cell_angle_gamma   107.09724585
_symmetry_Int_Tables_number   1
_chemical_formula_structural   CaPr6IrI12
_chemical_formula_sum   'Ca1 Pr6 Ir1 I12'
_cell_volume   863.31901737
_cell_formula_units_Z   1
loop_
 _symmetry_equiv_pos_site_id
 _symmetry_equiv_pos_as_xyz
  1  'x, y, z'
loop_
 _atom_site_type_symbol
 _atom_site_label
 _atom_site_symmetry_multiplicity
 _atom_site_fract_x
 _atom_site_fract_y
 _atom_site_fract_z
 _atom_site_occupancy
  Ca  Ca0  1  0.500000  0.500000  0.500000  1
  Pr  Pr1  1  0.974010  0.900225  0.694798  1
  Pr  Pr2  1  0.025990  0.099775  0.305202  1
  Pr  Pr3  1  0.099775  0.305202  0.025990  1
  Pr  Pr4  1  0.305202  0.025990  0.099775  1
  Pr  Pr5  1  0.900225  0.694798  0.974010  1
  Pr  Pr6  1  0.694798  0.974010  0.900225  1
  Ir  Ir7  1  0.000000  0.000000  0.000000  1
  I  I8  1  0.538153  0.616446  0.840188  1
  I  I9  1  0.461847  0.383554  0.159812  1
  I  I10  1  0.318384  0.926397  0.773558  1
  I  I11  1  0.383554  0.159812  0.461847  1
  I  I12  1  0.926397  0.773558  0.318384  1
  I  I13  1  0.681616  0.073603  0.226442  1
  I  I14  1  0.073603  0.226442  0.681616  1
  I  I15  1  0.773558  0.318384  0.926397  1
  I  I16  1  0.226442  0.681616  0.073603  1
  I  I17  1  0.840188  0.538153  0.616446  1
  I  I18  1  0.159812  0.461847  0.383554  1
  I  I19  1  0.616446  0.840188  0.538153  1
