# generated using pymatgen
data_Ho2Zr2(Al8Pt3)3
_symmetry_space_group_name_H-M   'P 1'
_cell_length_a   7.50775482
_cell_length_b   7.51375229
_cell_length_c   13.04331114
_cell_angle_alpha   84.53470255
_cell_angle_beta   78.96274782
_cell_angle_gamma   59.94139207
_symmetry_Int_Tables_number   1
_chemical_formula_structural   Ho2Zr2(Al8Pt3)3
_chemical_formula_sum   'Ho2 Zr2 Al24 Pt9'
_cell_volume   625.05771963
_cell_formula_units_Z   1
loop_
 _symmetry_equiv_pos_site_id
 _symmetry_equiv_pos_as_xyz
  1  'x, y, z'
loop_
 _atom_site_type_symbol
 _atom_site_label
 _atom_site_symmetry_multiplicity
 _atom_site_fract_x
 _atom_site_fract_y
 _atom_site_fract_z
 _atom_site_occupancy
  Ho  Ho0  1  0.733818  0.498683  0.807412  1
  Ho  Ho1  1  0.266182  0.501317  0.192588  1
  Zr  Zr2  1  0.393894  0.167677  0.809930  1
  Zr  Zr3  1  0.606106  0.832323  0.190070  1
  Al  Al4  1  0.681327  0.835893  0.943362  1
  Al  Al5  1  0.318673  0.164107  0.056638  1
  Al  Al6  1  0.146021  0.832941  0.563079  1
  Al  Al7  1  0.853979  0.167059  0.436921  1
  Al  Al8  1  0.479680  0.166875  0.561168  1
  Al  Al9  1  0.520320  0.833125  0.438832  1
  Al  Al10  1  0.220570  0.163372  0.326974  1
  Al  Al11  1  0.779430  0.836628  0.673026  1
  Al  Al12  1  0.436347  0.504361  0.673057  1
  Al  Al13  1  0.563653  0.495639  0.326943  1
  Al  Al14  1  0.110974  0.160081  0.671838  1
  Al  Al15  1  0.889026  0.839919  0.328162  1
  Al  Al16  1  0.353552  0.496751  0.942323  1
  Al  Al17  1  0.646448  0.503249  0.057677  1
  Al  Al18  1  0.018408  0.168016  0.950659  1
  Al  Al19  1  0.981592  0.831984  0.049341  1
  Al  Al20  1  0.186617  0.499677  0.440432  1
  Al  Al21  1  0.813383  0.500323  0.559568  1
  Al  Al22  1  0.733278  0.159344  0.183576  1
  Al  Al23  1  0.266722  0.840656  0.816424  1
  Al  Al24  1  0.065702  0.626683  0.815268  1
  Al  Al25  1  0.934298  0.373317  0.184732  1
  Al  Al26  1  0.850725  0.041341  0.815817  1
  Al  Al27  1  0.149275  0.958659  0.184183  1
  Pt  Pt28  1  0.119812  0.490928  0.639249  1
  Pt  Pt29  1  0.880188  0.509072  0.360751  1
  Pt  Pt30  1  0.656746  0.172802  0.999645  1
  Pt  Pt31  1  0.343254  0.827198  0.000355  1
  Pt  Pt32  1  0.536903  0.166955  0.361377  1
  Pt  Pt33  1  0.463097  0.833045  0.638623  1
  Pt  Pt34  1  0.778305  0.176217  0.637699  1
  Pt  Pt35  1  0.221695  0.823783  0.362301  1
  Pt  Pt36  1  0.000000  0.500000  0.000000  1
