# generated using pymatgen
data_Sc6Ti2(Al2Os)7
_symmetry_space_group_name_H-M   'P 1'
_cell_length_a   8.81618766
_cell_length_b   8.80524401
_cell_length_c   8.80531192
_cell_angle_alpha   59.68729667
_cell_angle_beta   59.95925154
_cell_angle_gamma   59.95876131
_symmetry_Int_Tables_number   1
_chemical_formula_structural   Sc6Ti2(Al2Os)7
_chemical_formula_sum   'Sc6 Ti2 Al14 Os7'
_cell_volume   481.88897571
_cell_formula_units_Z   1
loop_
 _symmetry_equiv_pos_site_id
 _symmetry_equiv_pos_as_xyz
  1  'x, y, z'
loop_
 _atom_site_type_symbol
 _atom_site_label
 _atom_site_symmetry_multiplicity
 _atom_site_fract_x
 _atom_site_fract_y
 _atom_site_fract_z
 _atom_site_occupancy
  Sc  Sc0  1  0.710764  0.713608  0.284278  1
  Sc  Sc1  1  0.291349  0.713607  0.284279  1
  Sc  Sc2  1  0.710443  0.289525  0.289590  1
  Sc  Sc3  1  0.291427  0.284276  0.713562  1
  Sc  Sc4  1  0.710735  0.284276  0.713561  1
  Sc  Sc5  1  0.284891  0.715112  0.715107  1
  Ti  Ti6  1  0.879001  0.881319  0.360678  1
  Ti  Ti7  1  0.879005  0.360673  0.881317  1
  Al  Al8  1  0.362365  0.879452  0.879447  1
  Al  Al9  1  0.878736  0.879451  0.879447  1
  Al  Al10  1  0.120078  0.124299  0.635546  1
  Al  Al11  1  0.120074  0.635553  0.124299  1
  Al  Al12  1  0.638578  0.121030  0.121034  1
  Al  Al13  1  0.119358  0.121030  0.121033  1
  Al  Al14  1  0.664128  0.663646  0.008098  1
  Al  Al15  1  0.664130  0.008100  0.663640  1
  Al  Al16  1  0.009069  0.663470  0.663459  1
  Al  Al17  1  0.664002  0.663471  0.663459  1
  Al  Al18  1  0.336501  0.336126  0.990871  1
  Al  Al19  1  0.336499  0.990872  0.336129  1
  Al  Al20  1  0.989997  0.337095  0.337100  1
  Al  Al21  1  0.335807  0.337095  0.337100  1
  Os  Os22  1  0.000127  0.999820  0.999925  1
  Os  Os23  1  0.000901  0.998636  0.499700  1
  Os  Os24  1  0.500765  0.998636  0.499699  1
  Os  Os25  1  0.999166  0.500868  0.500798  1
  Os  Os26  1  0.500716  0.499706  0.998652  1
  Os  Os27  1  0.000925  0.499706  0.998652  1
  Os  Os28  1  0.500461  0.999542  0.999538  1
