# generated using pymatgen
data_Ho8Er2Cd3Fe
_symmetry_space_group_name_H-M   'P 1'
_cell_length_a   9.53895601
_cell_length_b   9.53895549
_cell_length_c   9.76631400
_cell_angle_alpha   90.00194611
_cell_angle_beta   89.99805389
_cell_angle_gamma   119.98239361
_symmetry_Int_Tables_number   1
_chemical_formula_structural   Ho8Er2Cd3Fe
_chemical_formula_sum   'Ho16 Er4 Cd6 Fe2'
_cell_volume   769.73282146
_cell_formula_units_Z   2
loop_
 _symmetry_equiv_pos_site_id
 _symmetry_equiv_pos_as_xyz
  1  'x, y, z'
loop_
 _atom_site_type_symbol
 _atom_site_label
 _atom_site_symmetry_multiplicity
 _atom_site_fract_x
 _atom_site_fract_y
 _atom_site_fract_z
 _atom_site_occupancy
  Ho  Ho0  1  0.541436  0.083239  0.250124  1
  Ho  Ho1  1  0.916761  0.458564  0.250124  1
  Ho  Ho2  1  0.458388  0.541612  0.749965  1
  Ho  Ho3  1  0.458237  0.916750  0.749815  1
  Ho  Ho4  1  0.083250  0.541763  0.749815  1
  Ho  Ho5  1  0.212072  0.424094  0.436257  1
  Ho  Ho6  1  0.575906  0.787928  0.436257  1
  Ho  Ho7  1  0.788074  0.211926  0.563598  1
  Ho  Ho8  1  0.788001  0.576083  0.563477  1
  Ho  Ho9  1  0.423917  0.211999  0.563477  1
  Ho  Ho10  1  0.788032  0.211968  0.936381  1
  Ho  Ho11  1  0.787954  0.576076  0.936408  1
  Ho  Ho12  1  0.423924  0.212046  0.936408  1
  Ho  Ho13  1  0.211985  0.788015  0.063991  1
  Ho  Ho14  1  0.212075  0.423696  0.063672  1
  Ho  Ho15  1  0.576304  0.787925  0.063672  1
  Er  Er16  1  0.000097  0.999903  0.499869  1
  Er  Er17  1  0.000058  0.999942  0.999958  1
  Er  Er18  1  0.541554  0.458446  0.250038  1
  Er  Er19  1  0.211849  0.788151  0.436516  1
  Cd  Cd20  1  0.885739  0.114261  0.249973  1
  Cd  Cd21  1  0.885391  0.771134  0.250034  1
  Cd  Cd22  1  0.228866  0.114609  0.250034  1
  Cd  Cd23  1  0.114226  0.885774  0.749693  1
  Cd  Cd24  1  0.114307  0.228422  0.749987  1
  Cd  Cd25  1  0.771578  0.885693  0.749987  1
  Fe  Fe26  1  0.333303  0.666697  0.250478  1
  Fe  Fe27  1  0.666710  0.333290  0.749990  1
