# generated using pymatgen
data_TbY15MgAg3Rh4
_symmetry_space_group_name_H-M   'P 1'
_cell_length_a   9.59498177
_cell_length_b   9.62002208
_cell_length_c   9.62013208
_cell_angle_alpha   60.17583216
_cell_angle_beta   60.19618992
_cell_angle_gamma   60.19551688
_symmetry_Int_Tables_number   1
_chemical_formula_structural   TbY15MgAg3Rh4
_chemical_formula_sum   'Tb1 Y15 Mg1 Ag3 Rh4'
_cell_volume   630.58375935
_cell_formula_units_Z   1
loop_
 _symmetry_equiv_pos_site_id
 _symmetry_equiv_pos_as_xyz
  1  'x, y, z'
loop_
 _atom_site_type_symbol
 _atom_site_label
 _atom_site_symmetry_multiplicity
 _atom_site_fract_x
 _atom_site_fract_y
 _atom_site_fract_z
 _atom_site_occupancy
  Tb  Tb0  1  0.601459  0.598741  0.598712  1
  Y  Y1  1  0.599772  0.598469  0.203279  1
  Y  Y2  1  0.599746  0.203299  0.598486  1
  Y  Y3  1  0.185868  0.604621  0.604643  1
  Y  Y4  1  0.059699  0.438447  0.438461  1
  Y  Y5  1  0.435895  0.062728  0.062709  1
  Y  Y6  1  0.436555  0.062539  0.436827  1
  Y  Y7  1  0.058902  0.439211  0.060305  1
  Y  Y8  1  0.436569  0.436832  0.062554  1
  Y  Y9  1  0.058891  0.060294  0.439219  1
  Y  Y10  1  0.184861  0.813746  0.813769  1
  Y  Y11  1  0.815804  0.184692  0.184709  1
  Y  Y12  1  0.814025  0.185964  0.815245  1
  Y  Y13  1  0.184595  0.813797  0.186308  1
  Y  Y14  1  0.814027  0.815244  0.185965  1
  Y  Y15  1  0.184585  0.186284  0.813804  1
  Mg  Mg16  1  0.539986  0.820438  0.820377  1
  Ag  Ag17  1  0.832006  0.835034  0.835040  1
  Ag  Ag18  1  0.833251  0.835778  0.498926  1
  Ag  Ag19  1  0.833268  0.498913  0.835783  1
  Rh  Rh20  1  0.387835  0.394699  0.394704  1
  Rh  Rh21  1  0.390424  0.396447  0.820534  1
  Rh  Rh22  1  0.390416  0.820557  0.396415  1
  Rh  Rh23  1  0.821563  0.393230  0.393226  1
