# generated using pymatgen
data_Dy2Al20Fe2IrRu
_symmetry_space_group_name_H-M   'P 1'
_cell_length_a   6.80210791
_cell_length_b   6.80067363
_cell_length_c   9.06264699
_cell_angle_alpha   89.98386630
_cell_angle_beta   89.99365710
_cell_angle_gamma   96.82316646
_symmetry_Int_Tables_number   1
_chemical_formula_structural   Dy2Al20Fe2IrRu
_chemical_formula_sum   'Dy2 Al20 Fe2 Ir1 Ru1'
_cell_volume   416.25904185
_cell_formula_units_Z   1
loop_
 _symmetry_equiv_pos_site_id
 _symmetry_equiv_pos_as_xyz
  1  'x, y, z'
loop_
 _atom_site_type_symbol
 _atom_site_label
 _atom_site_symmetry_multiplicity
 _atom_site_fract_x
 _atom_site_fract_y
 _atom_site_fract_z
 _atom_site_occupancy
  Dy  Dy0  1  0.873157  0.128448  0.749828  1
  Dy  Dy1  1  0.126843  0.871552  0.250172  1
  Al  Al2  1  0.622109  0.374067  0.549685  1
  Al  Al3  1  0.377891  0.625933  0.450315  1
  Al  Al4  1  0.372776  0.619507  0.050051  1
  Al  Al5  1  0.627224  0.380493  0.949949  1
  Al  Al6  1  0.228416  0.222987  0.496241  1
  Al  Al7  1  0.771584  0.777013  0.503759  1
  Al  Al8  1  0.779024  0.769933  0.004290  1
  Al  Al9  1  0.220976  0.230067  0.995710  1
  Al  Al10  1  0.847449  0.161810  0.100276  1
  Al  Al11  1  0.152551  0.838190  0.899724  1
  Al  Al12  1  0.160879  0.845988  0.599030  1
  Al  Al13  1  0.839121  0.154012  0.400970  1
  Al  Al14  1  0.861160  0.585558  0.753137  1
  Al  Al15  1  0.138840  0.414442  0.246863  1
  Al  Al16  1  0.413349  0.139461  0.745021  1
  Al  Al17  1  0.586651  0.860539  0.254979  1
  Al  Al18  1  0.220585  0.480315  0.752567  1
  Al  Al19  1  0.779415  0.519685  0.247433  1
  Al  Al20  1  0.519649  0.778730  0.745752  1
  Al  Al21  1  0.480351  0.221270  0.254248  1
  Fe  Fe22  1  0.000000  0.500000  0.000000  1
  Fe  Fe23  1  0.500000  0.000000  0.500000  1
  Ir  Ir24  1  0.500000  0.000000  0.000000  1
  Ru  Ru25  1  0.000000  0.500000  0.500000  1
