# generated using pymatgen
data_Cs4Ca(PS4)2
_symmetry_space_group_name_H-M   'P 1'
_cell_length_a   9.62549891
_cell_length_b   9.67302189
_cell_length_c   11.71089157
_cell_angle_alpha   105.03966695
_cell_angle_beta   103.84633459
_cell_angle_gamma   93.00660369
_symmetry_Int_Tables_number   1
_chemical_formula_structural   Cs4Ca(PS4)2
_chemical_formula_sum   'Cs8 Ca2 P4 S16'
_cell_volume   1014.76667367
_cell_formula_units_Z   2
loop_
 _symmetry_equiv_pos_site_id
 _symmetry_equiv_pos_as_xyz
  1  'x, y, z'
loop_
 _atom_site_type_symbol
 _atom_site_label
 _atom_site_symmetry_multiplicity
 _atom_site_fract_x
 _atom_site_fract_y
 _atom_site_fract_z
 _atom_site_occupancy
  Cs  Cs0  1  0.934205  0.523235  0.250315  1
  Cs  Cs1  1  0.065795  0.476765  0.749685  1
  Cs  Cs2  1  0.762016  0.988129  0.461298  1
  Cs  Cs3  1  0.237984  0.011871  0.538702  1
  Cs  Cs4  1  0.595008  0.740964  0.018527  1
  Cs  Cs5  1  0.404992  0.259036  0.981473  1
  Cs  Cs6  1  0.618022  0.680398  0.617920  1
  Cs  Cs7  1  0.381978  0.319602  0.382080  1
  Ca  Ca8  1  0.851600  0.134198  0.923558  1
  Ca  Ca9  1  0.148400  0.865802  0.076442  1
  P  P10  1  0.950386  0.111030  0.227860  1
  P  P11  1  0.049614  0.888970  0.772140  1
  P  P12  1  0.369201  0.686717  0.255173  1
  P  P13  1  0.630799  0.313283  0.744827  1
  S  S14  1  0.960335  0.898778  0.229958  1
  S  S15  1  0.039665  0.101222  0.770042  1
  S  S16  1  0.591473  0.097194  0.740503  1
  S  S17  1  0.408527  0.902806  0.259497  1
  S  S18  1  0.292066  0.670073  0.399395  1
  S  S19  1  0.707934  0.329927  0.600605  1
  S  S20  1  0.783605  0.412134  0.908788  1
  S  S21  1  0.216395  0.587866  0.091212  1
  S  S22  1  0.006832  0.245051  0.400326  1
  S  S23  1  0.993168  0.754949  0.599674  1
  S  S24  1  0.092166  0.163175  0.130411  1
  S  S25  1  0.907834  0.836825  0.869589  1
  S  S26  1  0.747006  0.133389  0.132178  1
  S  S27  1  0.252994  0.866611  0.867822  1
  S  S28  1  0.555715  0.591543  0.261753  1
  S  S29  1  0.444285  0.408457  0.738247  1
