# generated using pymatgen
data_Ho2Zn3Pt4
_symmetry_space_group_name_H-M   'P 1'
_cell_length_a   8.02930969
_cell_length_b   8.02931101
_cell_length_c   7.64772200
_cell_angle_alpha   90.00000000
_cell_angle_beta   90.00000000
_cell_angle_gamma   139.33551071
_symmetry_Int_Tables_number   1
_chemical_formula_structural   Ho2Zn3Pt4
_chemical_formula_sum   'Ho4 Zn6 Pt8'
_cell_volume   321.28362229
_cell_formula_units_Z   2
loop_
 _symmetry_equiv_pos_site_id
 _symmetry_equiv_pos_as_xyz
  1  'x, y, z'
loop_
 _atom_site_type_symbol
 _atom_site_label
 _atom_site_symmetry_multiplicity
 _atom_site_fract_x
 _atom_site_fract_y
 _atom_site_fract_z
 _atom_site_occupancy
  Ho  Ho0  1  0.110984  0.889016  0.413488  1
  Ho  Ho1  1  0.889016  0.110984  0.586512  1
  Ho  Ho2  1  0.389016  0.610984  0.913488  1
  Ho  Ho3  1  0.610984  0.389016  0.086512  1
  Zn  Zn4  1  0.000000  0.000000  0.000000  1
  Zn  Zn5  1  0.500000  0.500000  0.500000  1
  Zn  Zn6  1  0.021957  0.478043  0.250000  1
  Zn  Zn7  1  0.478043  0.021957  0.750000  1
  Zn  Zn8  1  0.978043  0.521957  0.750000  1
  Zn  Zn9  1  0.521957  0.978043  0.250000  1
  Pt  Pt10  1  0.193529  0.306471  0.250000  1
  Pt  Pt11  1  0.306471  0.193529  0.750000  1
  Pt  Pt12  1  0.806471  0.693529  0.750000  1
  Pt  Pt13  1  0.693529  0.806471  0.250000  1
  Pt  Pt14  1  0.177705  0.822295  0.027602  1
  Pt  Pt15  1  0.822295  0.177705  0.972398  1
  Pt  Pt16  1  0.322295  0.677705  0.527602  1
  Pt  Pt17  1  0.677705  0.322295  0.472398  1
