# generated using pymatgen
data_LiSc2As2PIr3
_symmetry_space_group_name_H-M   'P 1'
_cell_length_a   6.57183396
_cell_length_b   6.59766750
_cell_length_c   3.78577300
_cell_angle_alpha   90.00000000
_cell_angle_beta   90.00000000
_cell_angle_gamma   120.13012875
_symmetry_Int_Tables_number   1
_chemical_formula_structural   LiSc2As2PIr3
_chemical_formula_sum   'Li1 Sc2 As2 P1 Ir3'
_cell_volume   141.96825334
_cell_formula_units_Z   1
loop_
 _symmetry_equiv_pos_site_id
 _symmetry_equiv_pos_as_xyz
  1  'x, y, z'
loop_
 _atom_site_type_symbol
 _atom_site_label
 _atom_site_symmetry_multiplicity
 _atom_site_fract_x
 _atom_site_fract_y
 _atom_site_fract_z
 _atom_site_occupancy
  Li  Li0  1  0.000000  0.415360  0.500000  1
  Sc  Sc1  1  0.588591  0.587948  0.500000  1
  Sc  Sc2  1  0.411409  0.999357  0.500000  1
  As  As3  1  0.678367  0.335049  0.000000  1
  As  As4  1  0.321633  0.656684  0.000000  1
  P  P5  1  0.000000  0.011343  0.500000  1
  Ir  Ir6  1  0.000000  0.763414  0.000000  1
  Ir  Ir7  1  0.245829  0.238337  0.000000  1
  Ir  Ir8  1  0.754171  0.992507  0.000000  1
