# generated using pymatgen
data_Sm3SiCl3
_symmetry_space_group_name_H-M   'P 1'
_cell_length_a   10.02505453
_cell_length_b   10.02505478
_cell_length_c   10.02505500
_cell_angle_alpha   109.47122109
_cell_angle_beta   109.47122158
_cell_angle_gamma   109.47121920
_symmetry_Int_Tables_number   1
_chemical_formula_structural   Sm3SiCl3
_chemical_formula_sum   'Sm12 Si4 Cl12'
_cell_volume   775.60101961
_cell_formula_units_Z   4
loop_
 _symmetry_equiv_pos_site_id
 _symmetry_equiv_pos_as_xyz
  1  'x, y, z'
loop_
 _atom_site_type_symbol
 _atom_site_label
 _atom_site_symmetry_multiplicity
 _atom_site_fract_x
 _atom_site_fract_y
 _atom_site_fract_z
 _atom_site_occupancy
  Sm  Sm0  1  0.491665  0.750000  0.008335  1
  Sm  Sm1  1  0.750000  0.241665  0.258335  1
  Sm  Sm2  1  0.241665  0.258335  0.750000  1
  Sm  Sm3  1  0.483331  0.491665  0.241665  1
  Sm  Sm4  1  0.258335  0.008335  0.016669  1
  Sm  Sm5  1  0.241665  0.483331  0.491665  1
  Sm  Sm6  1  0.008335  0.016669  0.258335  1
  Sm  Sm7  1  0.008335  0.491665  0.750000  1
  Sm  Sm8  1  0.491665  0.241665  0.483331  1
  Sm  Sm9  1  0.750000  0.008335  0.491665  1
  Sm  Sm10  1  0.016669  0.258335  0.008335  1
  Sm  Sm11  1  0.258335  0.750000  0.241665  1
  Si  Si12  1  0.250000  0.250000  0.250000  1
  Si  Si13  1  0.000000  0.250000  0.500000  1
  Si  Si14  1  0.250000  0.500000  0.000000  1
  Si  Si15  1  0.500000  0.000000  0.250000  1
  Cl  Cl16  1  0.999077  0.998154  0.749077  1
  Cl  Cl17  1  0.750923  0.749077  0.250000  1
  Cl  Cl18  1  0.998154  0.749077  0.999077  1
  Cl  Cl19  1  0.250000  0.999077  0.500923  1
  Cl  Cl20  1  0.749077  0.999077  0.998154  1
  Cl  Cl21  1  0.500923  0.250000  0.999077  1
  Cl  Cl22  1  0.749077  0.250000  0.750923  1
  Cl  Cl23  1  0.500923  0.750923  0.501846  1
  Cl  Cl24  1  0.750923  0.501846  0.500923  1
  Cl  Cl25  1  0.250000  0.750923  0.749077  1
  Cl  Cl26  1  0.501846  0.500923  0.750923  1
  Cl  Cl27  1  0.999077  0.500923  0.250000  1
