# generated using pymatgen
data_LaNd3(MoO6)2
_symmetry_space_group_name_H-M   'P 1'
_cell_length_a   5.60923773
_cell_length_b   10.27177080
_cell_length_c   10.27177078
_cell_angle_alpha   68.74974288
_cell_angle_beta   75.27267537
_cell_angle_gamma   75.27268567
_symmetry_Int_Tables_number   1
_chemical_formula_structural   LaNd3(MoO6)2
_chemical_formula_sum   'La2 Nd6 Mo4 O24'
_cell_volume   524.76977912
_cell_formula_units_Z   2
loop_
 _symmetry_equiv_pos_site_id
 _symmetry_equiv_pos_as_xyz
  1  'x, y, z'
loop_
 _atom_site_type_symbol
 _atom_site_label
 _atom_site_symmetry_multiplicity
 _atom_site_fract_x
 _atom_site_fract_y
 _atom_site_fract_z
 _atom_site_occupancy
  La  La0  1  0.250000  0.364798  0.635202  1
  La  La1  1  0.750000  0.635202  0.364798  1
  Nd  Nd2  1  0.250000  0.891878  0.108122  1
  Nd  Nd3  1  0.750000  0.108122  0.891878  1
  Nd  Nd4  1  0.380406  0.943038  0.712859  1
  Nd  Nd5  1  0.619594  0.056962  0.287141  1
  Nd  Nd6  1  0.119594  0.287141  0.056962  1
  Nd  Nd7  1  0.880406  0.712859  0.943038  1
  Mo  Mo8  1  0.058643  0.800597  0.507262  1
  Mo  Mo9  1  0.941357  0.199403  0.492738  1
  Mo  Mo10  1  0.441357  0.492738  0.199403  1
  Mo  Mo11  1  0.558643  0.507262  0.800597  1
  O  O12  1  0.082656  0.161026  0.687786  1
  O  O13  1  0.917344  0.838974  0.312214  1
  O  O14  1  0.417344  0.312214  0.838974  1
  O  O15  1  0.582656  0.687786  0.161026  1
  O  O16  1  0.358781  0.830537  0.384794  1
  O  O17  1  0.641219  0.169463  0.615206  1
  O  O18  1  0.141219  0.615206  0.169463  1
  O  O19  1  0.858781  0.384794  0.830537  1
  O  O20  1  0.133529  0.789668  0.675281  1
  O  O21  1  0.866471  0.210332  0.324719  1
  O  O22  1  0.366471  0.324719  0.210332  1
  O  O23  1  0.633529  0.675281  0.789668  1
  O  O24  1  0.236891  0.070067  0.474626  1
  O  O25  1  0.763109  0.929933  0.525374  1
  O  O26  1  0.263109  0.525374  0.929933  1
  O  O27  1  0.736891  0.474626  0.070067  1
  O  O28  1  0.019011  0.619941  0.544116  1
  O  O29  1  0.980989  0.380059  0.455884  1
  O  O30  1  0.480989  0.455884  0.380059  1
  O  O31  1  0.519011  0.544116  0.619941  1
  O  O32  1  0.576862  0.923860  0.891306  1
  O  O33  1  0.423138  0.076140  0.108694  1
  O  O34  1  0.923138  0.108694  0.076140  1
  O  O35  1  0.076862  0.891306  0.923860  1
