# generated using pymatgen
data_Tb7Pr2ErIn8IrPd3
_symmetry_space_group_name_H-M   'P 1'
_cell_length_a   3.68132300
_cell_length_b   8.18980768
_cell_length_c   18.43865304
_cell_angle_alpha   90.05645592
_cell_angle_beta   90.00000000
_cell_angle_gamma   90.00000000
_symmetry_Int_Tables_number   1
_chemical_formula_structural   Tb7Pr2ErIn8IrPd3
_chemical_formula_sum   'Tb7 Pr2 Er1 In8 Ir1 Pd3'
_cell_volume   555.91271687
_cell_formula_units_Z   1
loop_
 _symmetry_equiv_pos_site_id
 _symmetry_equiv_pos_as_xyz
  1  'x, y, z'
loop_
 _atom_site_type_symbol
 _atom_site_label
 _atom_site_symmetry_multiplicity
 _atom_site_fract_x
 _atom_site_fract_y
 _atom_site_fract_z
 _atom_site_occupancy
  Tb  Tb0  1  0.000000  0.729306  0.279314  1
  Tb  Tb1  1  0.000000  0.259632  0.717090  1
  Tb  Tb2  1  0.000000  0.759685  0.782242  1
  Tb  Tb3  1  0.000000  0.255506  0.218343  1
  Tb  Tb4  1  0.000000  0.619988  0.088235  1
  Tb  Tb5  1  0.000000  0.377831  0.915594  1
  Tb  Tb6  1  0.000000  0.876775  0.583655  1
  Pr  Pr7  1  0.000000  0.499744  0.500312  1
  Pr  Pr8  1  0.000000  0.000405  0.000576  1
  Er  Er9  1  0.000000  0.120883  0.413324  1
  In  In10  1  0.500000  0.698950  0.931978  1
  In  In11  1  0.500000  0.301431  0.068269  1
  In  In12  1  0.500000  0.802041  0.431619  1
  In  In13  1  0.500000  0.196346  0.566859  1
  In  In14  1  0.500000  0.581450  0.653643  1
  In  In15  1  0.500000  0.420758  0.348542  1
  In  In16  1  0.500000  0.924969  0.153838  1
  In  In17  1  0.500000  0.080831  0.846179  1
  Ir  Ir18  1  0.500000  0.521852  0.195940  1
  Pd  Pd19  1  0.500000  0.473712  0.803884  1
  Pd  Pd20  1  0.500000  0.974164  0.695551  1
  Pd  Pd21  1  0.500000  0.023740  0.305012  1
