# generated using pymatgen
data_Pr5NdB2(WO9)2
_symmetry_space_group_name_H-M   'P 1'
_cell_length_a   8.84564241
_cell_length_b   8.84514081
_cell_length_c   5.63114261
_cell_angle_alpha   90.01594975
_cell_angle_beta   89.94758172
_cell_angle_gamma   120.03948802
_symmetry_Int_Tables_number   1
_chemical_formula_structural   Pr5NdB2(WO9)2
_chemical_formula_sum   'Pr5 Nd1 B2 W2 O18'
_cell_volume   381.40655278
_cell_formula_units_Z   1
loop_
 _symmetry_equiv_pos_site_id
 _symmetry_equiv_pos_as_xyz
  1  'x, y, z'
loop_
 _atom_site_type_symbol
 _atom_site_label
 _atom_site_symmetry_multiplicity
 _atom_site_fract_x
 _atom_site_fract_y
 _atom_site_fract_z
 _atom_site_occupancy
  Pr  Pr0  1  0.918803  0.275753  0.200219  1
  Pr  Pr1  1  0.723927  0.642433  0.200582  1
  Pr  Pr2  1  0.275781  0.356219  0.700075  1
  Pr  Pr3  1  0.081077  0.724245  0.701091  1
  Pr  Pr4  1  0.643131  0.918756  0.700362  1
  Nd  Nd5  1  0.355545  0.079950  0.199579  1
  B  B6  1  0.000885  0.000180  0.365341  1
  B  B7  1  0.000145  0.999795  0.866393  1
  W  W8  1  0.333328  0.667411  0.243315  1
  W  W9  1  0.665760  0.332620  0.744272  1
  O  O10  1  0.206085  0.468278  0.040400  1
  O  O11  1  0.261423  0.795200  0.041838  1
  O  O12  1  0.533309  0.739745  0.042492  1
  O  O13  1  0.127865  0.175071  0.356314  1
  O  O14  1  0.049300  0.873679  0.357625  1
  O  O15  1  0.826045  0.952054  0.357707  1
  O  O16  1  0.136178  0.520959  0.465127  1
  O  O17  1  0.478907  0.615850  0.466212  1
  O  O18  1  0.384879  0.865176  0.464486  1
  O  O19  1  0.792340  0.533259  0.543835  1
  O  O20  1  0.742276  0.207808  0.545318  1
  O  O21  1  0.466799  0.258048  0.540462  1
  O  O22  1  0.175013  0.047581  0.859097  1
  O  O23  1  0.952503  0.126774  0.857590  1
  O  O24  1  0.873155  0.825050  0.858006  1
  O  O25  1  0.613879  0.135545  0.967516  1
  O  O26  1  0.518964  0.383192  0.965765  1
  O  O27  1  0.862700  0.479373  0.967385  1
