# generated using pymatgen
data_Tm16Tl3InPdRuRh2
_symmetry_space_group_name_H-M   'P 1'
_cell_length_a   9.54279638
_cell_length_b   9.54280067
_cell_length_c   9.55092600
_cell_angle_alpha   60.02820836
_cell_angle_beta   60.02788163
_cell_angle_gamma   59.99991714
_symmetry_Int_Tables_number   1
_chemical_formula_structural   Tm16Tl3InPdRuRh2
_chemical_formula_sum   'Tm16 Tl3 In1 Pd1 Ru1 Rh2'
_cell_volume   615.26992547
_cell_formula_units_Z   1
loop_
 _symmetry_equiv_pos_site_id
 _symmetry_equiv_pos_as_xyz
  1  'x, y, z'
loop_
 _atom_site_type_symbol
 _atom_site_label
 _atom_site_symmetry_multiplicity
 _atom_site_fract_x
 _atom_site_fract_y
 _atom_site_fract_z
 _atom_site_occupancy
  Tm  Tm0  1  0.060504  0.060513  0.435611  1
  Tm  Tm1  1  0.442233  0.059813  0.437454  1
  Tm  Tm2  1  0.063624  0.436323  0.060928  1
  Tm  Tm3  1  0.052990  0.647201  0.647060  1
  Tm  Tm4  1  0.437758  0.437761  0.060582  1
  Tm  Tm5  1  0.647191  0.052991  0.647063  1
  Tm  Tm6  1  0.184616  0.813413  0.189169  1
  Tm  Tm7  1  0.187200  0.187195  0.813662  1
  Tm  Tm8  1  0.813177  0.813180  0.193603  1
  Tm  Tm9  1  0.436315  0.063631  0.060931  1
  Tm  Tm10  1  0.813417  0.184615  0.189168  1
  Tm  Tm11  1  0.059806  0.442237  0.437458  1
  Tm  Tm12  1  0.811835  0.192189  0.813058  1
  Tm  Tm13  1  0.192186  0.811841  0.813052  1
  Tm  Tm14  1  0.646496  0.646498  0.054354  1
  Tm  Tm15  1  0.649877  0.649881  0.649847  1
  Tl  Tl16  1  0.413514  0.413522  0.413954  1
  Tl  Tl17  1  0.759141  0.413289  0.413799  1
  Tl  Tl18  1  0.413284  0.759143  0.413798  1
  In  In19  1  0.415785  0.415780  0.752259  1
  Pd  Pd20  1  0.856505  0.856512  0.857284  1
  Ru  Ru21  1  0.856022  0.856017  0.431900  1
  Rh  Rh22  1  0.429813  0.856677  0.856998  1
  Rh  Rh23  1  0.856711  0.429778  0.857011  1
