# generated using pymatgen
data_Ac8Tl2SnPbAu8
_symmetry_space_group_name_H-M   'P 1'
_cell_length_a   8.40651700
_cell_length_b   8.40651700
_cell_length_c   8.43894400
_cell_angle_alpha   90.00000000
_cell_angle_beta   90.00000000
_cell_angle_gamma   90.00000000
_symmetry_Int_Tables_number   1
_chemical_formula_structural   Ac8Tl2SnPbAu8
_chemical_formula_sum   'Ac8 Tl2 Sn1 Pb1 Au8'
_cell_volume   596.37618990
_cell_formula_units_Z   1
loop_
 _symmetry_equiv_pos_site_id
 _symmetry_equiv_pos_as_xyz
  1  'x, y, z'
loop_
 _atom_site_type_symbol
 _atom_site_label
 _atom_site_symmetry_multiplicity
 _atom_site_fract_x
 _atom_site_fract_y
 _atom_site_fract_z
 _atom_site_occupancy
  Ac  Ac0  1  0.680169  0.322601  0.499041  1
  Ac  Ac1  1  0.319831  0.677399  0.499041  1
  Ac  Ac2  1  0.177399  0.180169  0.000959  1
  Ac  Ac3  1  0.822601  0.819831  0.000959  1
  Ac  Ac4  1  0.827232  0.823968  0.499150  1
  Ac  Ac5  1  0.172768  0.176032  0.499150  1
  Ac  Ac6  1  0.323968  0.672768  0.000850  1
  Ac  Ac7  1  0.676032  0.327232  0.000850  1
  Tl  Tl8  1  0.500000  0.000000  0.250000  1
  Tl  Tl9  1  0.000000  0.500000  0.750000  1
  Sn  Sn10  1  0.000000  0.500000  0.250000  1
  Pb  Pb11  1  0.500000  0.000000  0.750000  1
  Au  Au12  1  0.875319  0.122233  0.244933  1
  Au  Au13  1  0.124681  0.877767  0.244933  1
  Au  Au14  1  0.374832  0.378540  0.744926  1
  Au  Au15  1  0.625168  0.621460  0.744926  1
  Au  Au16  1  0.121460  0.874832  0.755074  1
  Au  Au17  1  0.878540  0.125168  0.755074  1
  Au  Au18  1  0.622233  0.624681  0.255067  1
  Au  Au19  1  0.377767  0.375319  0.255067  1
