# generated using pymatgen
data_Zr2TiIr5
_symmetry_space_group_name_H-M   'P 1'
_cell_length_a   4.17090400
_cell_length_b   5.62660100
_cell_length_c   11.11012400
_cell_angle_alpha   90.00000000
_cell_angle_beta   90.00000000
_cell_angle_gamma   90.00000000
_symmetry_Int_Tables_number   1
_chemical_formula_structural   Zr2TiIr5
_chemical_formula_sum   'Zr4 Ti2 Ir10'
_cell_volume   260.73253021
_cell_formula_units_Z   2
loop_
 _symmetry_equiv_pos_site_id
 _symmetry_equiv_pos_as_xyz
  1  'x, y, z'
loop_
 _atom_site_type_symbol
 _atom_site_label
 _atom_site_symmetry_multiplicity
 _atom_site_fract_x
 _atom_site_fract_y
 _atom_site_fract_z
 _atom_site_occupancy
  Zr  Zr0  1  0.500000  0.316563  0.142047  1
  Zr  Zr1  1  0.500000  0.683437  0.857953  1
  Zr  Zr2  1  0.500000  0.816563  0.357953  1
  Zr  Zr3  1  0.500000  0.183437  0.642047  1
  Ti  Ti4  1  0.000000  0.000000  0.000000  1
  Ti  Ti5  1  0.000000  0.500000  0.500000  1
  Ir  Ir6  1  0.000000  0.000000  0.500000  1
  Ir  Ir7  1  0.000000  0.500000  0.000000  1
  Ir  Ir8  1  0.000000  0.058693  0.243838  1
  Ir  Ir9  1  0.000000  0.941307  0.756162  1
  Ir  Ir10  1  0.000000  0.558693  0.256162  1
  Ir  Ir11  1  0.000000  0.441307  0.743838  1
  Ir  Ir12  1  0.500000  0.305600  0.393542  1
  Ir  Ir13  1  0.500000  0.694400  0.606458  1
  Ir  Ir14  1  0.500000  0.805600  0.106458  1
  Ir  Ir15  1  0.500000  0.194400  0.893542  1
