# generated using pymatgen
data_Tm3Lu3Co16(ReP6)2
_symmetry_space_group_name_H-M   'P 1'
_cell_length_a   3.69359100
_cell_length_b   10.46224110
_cell_length_c   12.12731709
_cell_angle_alpha   90.01480899
_cell_angle_beta   90.00000000
_cell_angle_gamma   90.00000000
_symmetry_Int_Tables_number   1
_chemical_formula_structural   Tm3Lu3Co16(ReP6)2
_chemical_formula_sum   'Tm3 Lu3 Co16 Re2 P12'
_cell_volume   468.63880386
_cell_formula_units_Z   1
loop_
 _symmetry_equiv_pos_site_id
 _symmetry_equiv_pos_as_xyz
  1  'x, y, z'
loop_
 _atom_site_type_symbol
 _atom_site_label
 _atom_site_symmetry_multiplicity
 _atom_site_fract_x
 _atom_site_fract_y
 _atom_site_fract_z
 _atom_site_occupancy
  Tm  Tm0  1  0.000000  0.499999  0.526217  1
  Tm  Tm1  1  0.500000  0.000153  0.473610  1
  Tm  Tm2  1  0.000000  0.318790  0.794171  1
  Lu  Lu3  1  0.500000  0.819109  0.206109  1
  Lu  Lu4  1  0.500000  0.180934  0.205772  1
  Lu  Lu5  1  0.000000  0.681019  0.794089  1
  Co  Co6  1  0.500000  0.500323  0.701771  1
  Co  Co7  1  0.000000  0.000028  0.298043  1
  Co  Co8  1  0.000000  0.500390  0.988111  1
  Co  Co9  1  0.500000  0.999580  0.012335  1
  Co  Co10  1  0.500000  0.332543  0.989583  1
  Co  Co11  1  0.500000  0.667814  0.988951  1
  Co  Co12  1  0.000000  0.167190  0.011258  1
  Co  Co13  1  0.000000  0.832324  0.011325  1
  Co  Co14  1  0.500000  0.296907  0.431004  1
  Co  Co15  1  0.500000  0.703306  0.431354  1
  Co  Co16  1  0.000000  0.203186  0.568122  1
  Co  Co17  1  0.000000  0.796932  0.568646  1
  Co  Co18  1  0.500000  0.877761  0.707820  1
  Co  Co19  1  0.500000  0.121439  0.707630  1
  Co  Co20  1  0.000000  0.622132  0.292303  1
  Co  Co21  1  0.000000  0.378009  0.291797  1
  Re  Re22  1  0.500000  0.500350  0.157024  1
  Re  Re23  1  0.000000  0.999711  0.843059  1
  P  P24  1  0.500000  0.500507  0.878875  1
  P  P25  1  0.000000  0.999708  0.121547  1
  P  P26  1  0.500000  0.500078  0.351096  1
  P  P27  1  0.000000  0.000101  0.648804  1
  P  P28  1  0.500000  0.313019  0.616478  1
  P  P29  1  0.500000  0.687178  0.616915  1
  P  P30  1  0.000000  0.186901  0.382608  1
  P  P31  1  0.000000  0.813013  0.383057  1
  P  P32  1  0.500000  0.844789  0.891044  1
  P  P33  1  0.500000  0.154663  0.891548  1
  P  P34  1  0.000000  0.655322  0.109163  1
  P  P35  1  0.000000  0.344790  0.108757  1
