# generated using pymatgen
data_DyPa(WC2)2
_symmetry_space_group_name_H-M   'P 1'
_cell_length_a   3.35392800
_cell_length_b   5.73616300
_cell_length_c   10.91775100
_cell_angle_alpha   90.00000000
_cell_angle_beta   90.00000000
_cell_angle_gamma   90.00000000
_symmetry_Int_Tables_number   1
_chemical_formula_structural   DyPa(WC2)2
_chemical_formula_sum   'Dy2 Pa2 W4 C8'
_cell_volume   210.04309268
_cell_formula_units_Z   2
loop_
 _symmetry_equiv_pos_site_id
 _symmetry_equiv_pos_as_xyz
  1  'x, y, z'
loop_
 _atom_site_type_symbol
 _atom_site_label
 _atom_site_symmetry_multiplicity
 _atom_site_fract_x
 _atom_site_fract_y
 _atom_site_fract_z
 _atom_site_occupancy
  Dy  Dy0  1  0.750000  0.412907  0.639268  1
  Dy  Dy1  1  0.750000  0.912907  0.860732  1
  Pa  Pa2  1  0.250000  0.585580  0.361714  1
  Pa  Pa3  1  0.250000  0.085580  0.138286  1
  W  W4  1  0.250000  0.906790  0.612618  1
  W  W5  1  0.250000  0.406790  0.887382  1
  W  W6  1  0.750000  0.088361  0.396750  1
  W  W7  1  0.750000  0.588361  0.103250  1
  C  C8  1  0.250000  0.662448  0.747938  1
  C  C9  1  0.250000  0.162448  0.752062  1
  C  C10  1  0.750000  0.340987  0.255030  1
  C  C11  1  0.750000  0.840987  0.244970  1
  C  C12  1  0.250000  0.233380  0.485861  1
  C  C13  1  0.250000  0.733380  0.014139  1
  C  C14  1  0.750000  0.769547  0.511711  1
  C  C15  1  0.750000  0.269547  0.988289  1
