# generated using pymatgen
data_TaNb12Co8Os3C4
_symmetry_space_group_name_H-M   'P 1'
_cell_length_a   8.19605142
_cell_length_b   8.14418935
_cell_length_c   8.19605100
_cell_angle_alpha   59.78911374
_cell_angle_beta   59.99998960
_cell_angle_gamma   59.78911723
_symmetry_Int_Tables_number   1
_chemical_formula_structural   TaNb12Co8Os3C4
_chemical_formula_sum   'Ta1 Nb12 Co8 Os3 C4'
_cell_volume   385.61192517
_cell_formula_units_Z   1
loop_
 _symmetry_equiv_pos_site_id
 _symmetry_equiv_pos_as_xyz
  1  'x, y, z'
loop_
 _atom_site_type_symbol
 _atom_site_label
 _atom_site_symmetry_multiplicity
 _atom_site_fract_x
 _atom_site_fract_y
 _atom_site_fract_z
 _atom_site_occupancy
  Ta  Ta0  1  0.625000  0.125000  0.625000  1
  Nb  Nb1  1  0.804595  0.803233  0.196086  1
  Nb  Nb2  1  0.186456  0.194314  0.809615  1
  Nb  Nb3  1  0.809615  0.194314  0.809615  1
  Nb  Nb4  1  0.196086  0.803233  0.196086  1
  Nb  Nb5  1  0.196086  0.803233  0.804595  1
  Nb  Nb6  1  0.809615  0.194314  0.186456  1
  Nb  Nb7  1  0.445405  0.446767  0.053914  1
  Nb  Nb8  1  0.063544  0.055686  0.440385  1
  Nb  Nb9  1  0.440385  0.055686  0.440385  1
  Nb  Nb10  1  0.053914  0.446767  0.053914  1
  Nb  Nb11  1  0.053914  0.446767  0.445405  1
  Nb  Nb12  1  0.440385  0.055686  0.063544  1
  Co  Co13  1  0.730945  0.425969  0.421543  1
  Co  Co14  1  0.424953  0.725141  0.424953  1
  Co  Co15  1  0.421543  0.425969  0.730945  1
  Co  Co16  1  0.421543  0.425969  0.421543  1
  Co  Co17  1  0.519055  0.824031  0.828457  1
  Co  Co18  1  0.825047  0.524859  0.825047  1
  Co  Co19  1  0.828457  0.824031  0.519055  1
  Co  Co20  1  0.828457  0.824031  0.828457  1
  Os  Os21  1  0.125000  0.625000  0.625000  1
  Os  Os22  1  0.625000  0.625000  0.125000  1
  Os  Os23  1  0.625000  0.625000  0.625000  1
  C  C24  1  0.625000  0.125000  0.125000  1
  C  C25  1  0.125000  0.625000  0.125000  1
  C  C26  1  0.125000  0.125000  0.625000  1
  C  C27  1  0.125000  0.125000  0.125000  1
