# generated using pymatgen
data_Er8MnReI8
_symmetry_space_group_name_H-M   'P 1'
_cell_length_a   11.20268766
_cell_length_b   11.20268979
_cell_length_c   6.07056900
_cell_angle_alpha   89.77333649
_cell_angle_beta   89.77334156
_cell_angle_gamma   89.14726416
_symmetry_Int_Tables_number   1
_chemical_formula_structural   Er8MnReI8
_chemical_formula_sum   'Er8 Mn1 Re1 I8'
_cell_volume   761.76171073
_cell_formula_units_Z   1
loop_
 _symmetry_equiv_pos_site_id
 _symmetry_equiv_pos_as_xyz
  1  'x, y, z'
loop_
 _atom_site_type_symbol
 _atom_site_label
 _atom_site_symmetry_multiplicity
 _atom_site_fract_x
 _atom_site_fract_y
 _atom_site_fract_z
 _atom_site_occupancy
  Er  Er0  1  0.196938  0.917625  0.003676  1
  Er  Er1  1  0.803197  0.082382  0.005197  1
  Er  Er2  1  0.082375  0.803062  0.496324  1
  Er  Er3  1  0.917618  0.196803  0.494803  1
  Er  Er4  1  0.805216  0.921306  0.497504  1
  Er  Er5  1  0.194753  0.078602  0.493086  1
  Er  Er6  1  0.078694  0.194784  0.002496  1
  Er  Er7  1  0.921398  0.805247  0.006914  1
  Mn  Mn8  1  0.999952  0.000048  0.250000  1
  Re  Re9  1  0.000066  0.999934  0.750000  1
  I  I10  1  0.357761  0.847186  0.493531  1
  I  I11  1  0.642178  0.152519  0.495143  1
  I  I12  1  0.152814  0.642239  0.006469  1
  I  I13  1  0.847481  0.357822  0.004857  1
  I  I14  1  0.354844  0.147203  0.007125  1
  I  I15  1  0.645089  0.853171  0.003792  1
  I  I16  1  0.852797  0.645156  0.492875  1
  I  I17  1  0.146829  0.354911  0.496208  1
