# generated using pymatgen
data_MgSi2Pb2O7
_symmetry_space_group_name_H-M   'P 1'
_cell_length_a   8.15861100
_cell_length_b   8.15861100
_cell_length_c   5.35274700
_cell_angle_alpha   90.00000000
_cell_angle_beta   90.00000000
_cell_angle_gamma   90.00000000
_symmetry_Int_Tables_number   1
_chemical_formula_structural   MgSi2Pb2O7
_chemical_formula_sum   'Mg2 Si4 Pb4 O14'
_cell_volume   356.29454233
_cell_formula_units_Z   2
loop_
 _symmetry_equiv_pos_site_id
 _symmetry_equiv_pos_as_xyz
  1  'x, y, z'
loop_
 _atom_site_type_symbol
 _atom_site_label
 _atom_site_symmetry_multiplicity
 _atom_site_fract_x
 _atom_site_fract_y
 _atom_site_fract_z
 _atom_site_occupancy
  Mg  Mg0  1  0.000000  0.000000  0.000000  1
  Mg  Mg1  1  0.500000  0.500000  0.000000  1
  Si  Si2  1  0.859724  0.359724  0.949652  1
  Si  Si3  1  0.140276  0.640276  0.949652  1
  Si  Si4  1  0.640276  0.859724  0.050348  1
  Si  Si5  1  0.359724  0.140276  0.050348  1
  Pb  Pb6  1  0.677433  0.177433  0.506679  1
  Pb  Pb7  1  0.822567  0.677433  0.493321  1
  Pb  Pb8  1  0.177433  0.322567  0.493321  1
  Pb  Pb9  1  0.322567  0.822567  0.506679  1
  O  O10  1  0.689946  0.418364  0.807078  1
  O  O11  1  0.310054  0.581636  0.807078  1
  O  O12  1  0.418364  0.310054  0.192922  1
  O  O13  1  0.581636  0.689946  0.192922  1
  O  O14  1  0.918364  0.189946  0.807078  1
  O  O15  1  0.810054  0.918364  0.192922  1
  O  O16  1  0.189946  0.081636  0.192922  1
  O  O17  1  0.081636  0.810054  0.807078  1
  O  O18  1  0.845392  0.345392  0.251439  1
  O  O19  1  0.654608  0.845392  0.748561  1
  O  O20  1  0.500000  0.000000  0.124446  1
  O  O21  1  0.000000  0.500000  0.875554  1
  O  O22  1  0.154608  0.654608  0.251439  1
  O  O23  1  0.345392  0.154608  0.748561  1
