# generated using pymatgen
data_Sr2Pa(As2Pd3)3
_symmetry_space_group_name_H-M   'P 1'
_cell_length_a   4.09963000
_cell_length_b   8.70245871
_cell_length_c   10.25177186
_cell_angle_alpha   106.49526183
_cell_angle_beta   90.00000000
_cell_angle_gamma   103.62371941
_symmetry_Int_Tables_number   1
_chemical_formula_structural   Sr2Pa(As2Pd3)3
_chemical_formula_sum   'Sr2 Pa1 As6 Pd9'
_cell_volume   339.95159514
_cell_formula_units_Z   1
loop_
 _symmetry_equiv_pos_site_id
 _symmetry_equiv_pos_as_xyz
  1  'x, y, z'
loop_
 _atom_site_type_symbol
 _atom_site_label
 _atom_site_symmetry_multiplicity
 _atom_site_fract_x
 _atom_site_fract_y
 _atom_site_fract_z
 _atom_site_occupancy
  Sr  Sr0  1  0.848419  0.696836  0.293687  1
  Sr  Sr1  1  0.151581  0.303164  0.706313  1
  Pa  Pa2  1  0.000000  0.000000  0.000000  1
  As  As3  1  0.804780  0.609558  0.868243  1
  As  As4  1  0.195220  0.390442  0.131757  1
  As  As5  1  0.536142  0.072285  0.816046  1
  As  As6  1  0.463858  0.927715  0.183954  1
  As  As7  1  0.634568  0.269135  0.453195  1
  As  As8  1  0.365432  0.730865  0.546805  1
  Pd  Pd9  1  0.955562  0.911124  0.674347  1
  Pd  Pd10  1  0.044438  0.088876  0.325653  1
  Pd  Pd11  1  0.777325  0.554651  0.605353  1
  Pd  Pd12  1  0.222675  0.445349  0.394647  1
  Pd  Pd13  1  0.373646  0.747291  0.792600  1
  Pd  Pd14  1  0.626354  0.252709  0.207400  1
  Pd  Pd15  1  0.500000  0.000000  0.500000  1
  Pd  Pd16  1  0.683871  0.367743  0.975486  1
  Pd  Pd17  1  0.316129  0.632257  0.024514  1
