# generated using pymatgen
data_Cs4P2S9
_symmetry_space_group_name_H-M   'P 1'
_cell_length_a   7.30354770
_cell_length_b   7.30354757
_cell_length_c   19.13772850
_cell_angle_alpha   86.07447542
_cell_angle_beta   86.07447687
_cell_angle_gamma   93.83989784
_symmetry_Int_Tables_number   1
_chemical_formula_structural   Cs4P2S9
_chemical_formula_sum   'Cs8 P4 S18'
_cell_volume   1013.42011339
_cell_formula_units_Z   2
loop_
 _symmetry_equiv_pos_site_id
 _symmetry_equiv_pos_as_xyz
  1  'x, y, z'
loop_
 _atom_site_type_symbol
 _atom_site_label
 _atom_site_symmetry_multiplicity
 _atom_site_fract_x
 _atom_site_fract_y
 _atom_site_fract_z
 _atom_site_occupancy
  Cs  Cs0  1  0.722227  0.215270  0.474577  1
  Cs  Cs1  1  0.277773  0.784730  0.525423  1
  Cs  Cs2  1  0.784730  0.277773  0.025423  1
  Cs  Cs3  1  0.567652  0.762007  0.173048  1
  Cs  Cs4  1  0.237993  0.432348  0.326952  1
  Cs  Cs5  1  0.762007  0.567652  0.673048  1
  Cs  Cs6  1  0.215270  0.722227  0.974577  1
  Cs  Cs7  1  0.432348  0.237993  0.826952  1
  P  P8  1  0.735339  0.749094  0.374623  1
  P  P9  1  0.250906  0.264661  0.125377  1
  P  P10  1  0.749094  0.735339  0.874623  1
  P  P11  1  0.264661  0.250906  0.625377  1
  S  S12  1  0.118576  0.491019  0.144205  1
  S  S13  1  0.881424  0.508981  0.855795  1
  S  S14  1  0.522153  0.753061  0.821485  1
  S  S15  1  0.491019  0.118576  0.644205  1
  S  S16  1  0.753061  0.522153  0.321485  1
  S  S17  1  0.508981  0.881424  0.355795  1
  S  S18  1  0.246939  0.477847  0.678515  1
  S  S19  1  0.020833  0.054935  0.658891  1
  S  S20  1  0.280637  0.208419  0.022679  1
  S  S21  1  0.979167  0.945065  0.341109  1
  S  S22  1  0.791581  0.719363  0.477321  1
  S  S23  1  0.945065  0.979167  0.841109  1
  S  S24  1  0.477847  0.246939  0.178515  1
  S  S25  1  0.719363  0.791581  0.977321  1
  S  S26  1  0.054935  0.020833  0.158891  1
  S  S27  1  0.912269  0.087731  0.250000  1
  S  S28  1  0.208419  0.280637  0.522679  1
  S  S29  1  0.087731  0.912269  0.750000  1
