# generated using pymatgen
data_Ho8HfSi16W11
_symmetry_space_group_name_H-M   'P 1'
_cell_length_a   6.88970275
_cell_length_b   6.88970299
_cell_length_c   12.81834884
_cell_angle_alpha   89.99850769
_cell_angle_beta   90.00149278
_cell_angle_gamma   90.16980892
_symmetry_Int_Tables_number   1
_chemical_formula_structural   Ho8HfSi16W11
_chemical_formula_sum   'Ho8 Hf1 Si16 W11'
_cell_volume   608.45878305
_cell_formula_units_Z   1
loop_
 _symmetry_equiv_pos_site_id
 _symmetry_equiv_pos_as_xyz
  1  'x, y, z'
loop_
 _atom_site_type_symbol
 _atom_site_label
 _atom_site_symmetry_multiplicity
 _atom_site_fract_x
 _atom_site_fract_y
 _atom_site_fract_z
 _atom_site_occupancy
  Ho  Ho0  1  0.334843  0.000757  0.468880  1
  Ho  Ho1  1  0.499407  0.838927  0.720314  1
  Ho  Ho2  1  0.496574  0.163014  0.218132  1
  Ho  Ho3  1  0.838927  0.499407  0.279686  1
  Ho  Ho4  1  0.163014  0.496574  0.781868  1
  Ho  Ho5  1  0.663016  0.002131  0.969158  1
  Ho  Ho6  1  0.000757  0.334843  0.531120  1
  Ho  Ho7  1  0.002131  0.663016  0.030842  1
  Hf  Hf8  1  0.668140  0.668140  0.500000  1
  Si  Si9  1  0.200001  0.125626  0.683607  1
  Si  Si10  1  0.374570  0.700666  0.933580  1
  Si  Si11  1  0.628050  0.292678  0.432648  1
  Si  Si12  1  0.700666  0.374570  0.066420  1
  Si  Si13  1  0.292678  0.628050  0.567352  1
  Si  Si14  1  0.798315  0.874327  0.183843  1
  Si  Si15  1  0.125626  0.200001  0.316393  1
  Si  Si16  1  0.874327  0.798315  0.816157  1
  Si  Si17  1  0.287523  0.965666  0.062850  1
  Si  Si18  1  0.531948  0.791225  0.310097  1
  Si  Si19  1  0.464461  0.211452  0.813468  1
  Si  Si20  1  0.791225  0.531948  0.689903  1
  Si  Si21  1  0.211452  0.464461  0.186532  1
  Si  Si22  1  0.708781  0.043215  0.566907  1
  Si  Si23  1  0.965666  0.287523  0.937150  1
  Si  Si24  1  0.043215  0.708781  0.433093  1
  W  W25  1  0.332498  0.332498  0.000000  1
  W  W26  1  0.166195  0.835283  0.247265  1
  W  W27  1  0.835283  0.166195  0.752735  1
  W  W28  1  0.165842  0.997750  0.872891  1
  W  W29  1  0.499295  0.666434  0.122711  1
  W  W30  1  0.499042  0.339987  0.623697  1
  W  W31  1  0.666434  0.499295  0.877289  1
  W  W32  1  0.339987  0.499042  0.376303  1
  W  W33  1  0.834647  0.997711  0.374829  1
  W  W34  1  0.997750  0.165842  0.127109  1
  W  W35  1  0.997711  0.834647  0.625171  1
