# generated using pymatgen
data_Tb3Ce2CoBi2
_symmetry_space_group_name_H-M   'P 1'
_cell_length_a   7.96991800
_cell_length_b   9.08482300
_cell_length_c   12.31075700
_cell_angle_alpha   90.00000000
_cell_angle_beta   90.00000000
_cell_angle_gamma   90.00000000
_symmetry_Int_Tables_number   1
_chemical_formula_structural   Tb3Ce2CoBi2
_chemical_formula_sum   'Tb12 Ce8 Co4 Bi8'
_cell_volume   891.36398431
_cell_formula_units_Z   4
loop_
 _symmetry_equiv_pos_site_id
 _symmetry_equiv_pos_as_xyz
  1  'x, y, z'
loop_
 _atom_site_type_symbol
 _atom_site_label
 _atom_site_symmetry_multiplicity
 _atom_site_fract_x
 _atom_site_fract_y
 _atom_site_fract_z
 _atom_site_occupancy
  Tb  Tb0  1  0.836756  0.750000  0.790220  1
  Tb  Tb1  1  0.163244  0.250000  0.209780  1
  Tb  Tb2  1  0.336756  0.250000  0.709780  1
  Tb  Tb3  1  0.663244  0.750000  0.290220  1
  Tb  Tb4  1  0.366606  0.750000  0.701287  1
  Tb  Tb5  1  0.633394  0.250000  0.298713  1
  Tb  Tb6  1  0.866606  0.250000  0.798713  1
  Tb  Tb7  1  0.133394  0.750000  0.201287  1
  Tb  Tb8  1  0.978751  0.750000  0.500031  1
  Tb  Tb9  1  0.021249  0.250000  0.499969  1
  Tb  Tb10  1  0.478751  0.250000  0.999969  1
  Tb  Tb11  1  0.521249  0.750000  0.000031  1
  Ce  Ce12  1  0.655811  0.012295  0.550831  1
  Ce  Ce13  1  0.344189  0.987705  0.449169  1
  Ce  Ce14  1  0.155811  0.987705  0.949169  1
  Ce  Ce15  1  0.344189  0.512295  0.449169  1
  Ce  Ce16  1  0.844189  0.012295  0.050831  1
  Ce  Ce17  1  0.655811  0.487705  0.550831  1
  Ce  Ce18  1  0.844189  0.487705  0.050831  1
  Ce  Ce19  1  0.155811  0.512295  0.949169  1
  Co  Co20  1  0.630265  0.750000  0.539149  1
  Co  Co21  1  0.369735  0.250000  0.460851  1
  Co  Co22  1  0.130265  0.250000  0.960851  1
  Co  Co23  1  0.869735  0.750000  0.039149  1
  Bi  Bi24  1  0.565810  0.494532  0.825384  1
  Bi  Bi25  1  0.434190  0.505468  0.174616  1
  Bi  Bi26  1  0.065810  0.505468  0.674616  1
  Bi  Bi27  1  0.434190  0.994532  0.174616  1
  Bi  Bi28  1  0.934190  0.494532  0.325384  1
  Bi  Bi29  1  0.565810  0.005468  0.825384  1
  Bi  Bi30  1  0.934190  0.005468  0.325384  1
  Bi  Bi31  1  0.065810  0.994532  0.674616  1
