# generated using pymatgen
data_Tm3Lu7(InSb2)2
_symmetry_space_group_name_H-M   'P 1'
_cell_length_a   8.80251842
_cell_length_b   8.83087707
_cell_length_c   6.31422600
_cell_angle_alpha   90.00000000
_cell_angle_beta   90.00000000
_cell_angle_gamma   119.99474791
_symmetry_Int_Tables_number   1
_chemical_formula_structural   Tm3Lu7(InSb2)2
_chemical_formula_sum   'Tm3 Lu7 In2 Sb4'
_cell_volume   425.09355190
_cell_formula_units_Z   1
loop_
 _symmetry_equiv_pos_site_id
 _symmetry_equiv_pos_as_xyz
  1  'x, y, z'
loop_
 _atom_site_type_symbol
 _atom_site_label
 _atom_site_symmetry_multiplicity
 _atom_site_fract_x
 _atom_site_fract_y
 _atom_site_fract_z
 _atom_site_occupancy
  Tm  Tm0  1  0.756168  0.763057  0.250000  1
  Tm  Tm1  1  0.243709  0.237057  0.750000  1
  Tm  Tm2  1  0.006898  0.762668  0.750000  1
  Lu  Lu3  1  0.335031  0.670073  0.000151  1
  Lu  Lu4  1  0.664956  0.329935  0.500194  1
  Lu  Lu5  1  0.664956  0.329935  0.999806  1
  Lu  Lu6  1  0.335031  0.670073  0.499849  1
  Lu  Lu7  1  0.236631  0.999890  0.250000  1
  Lu  Lu8  1  0.763360  0.000202  0.750000  1
  Lu  Lu9  1  0.992886  0.236847  0.250000  1
  In  In10  1  0.600099  0.000424  0.250000  1
  In  In11  1  0.400814  0.000098  0.750000  1
  Sb  Sb12  1  0.997489  0.607199  0.250000  1
  Sb  Sb13  1  0.389682  0.392727  0.250000  1
  Sb  Sb14  1  0.609772  0.607144  0.750000  1
  Sb  Sb15  1  0.002519  0.392672  0.750000  1
