# generated using pymatgen
data_Yb3SmNbOs7
_symmetry_space_group_name_H-M   'P 1'
_cell_length_a   5.42966100
_cell_length_b   5.42966044
_cell_length_c   8.62493000
_cell_angle_alpha   90.00000000
_cell_angle_beta   90.00000000
_cell_angle_gamma   119.99999733
_symmetry_Int_Tables_number   1
_chemical_formula_structural   Yb3SmNbOs7
_chemical_formula_sum   'Yb3 Sm1 Nb1 Os7'
_cell_volume   220.20724734
_cell_formula_units_Z   1
loop_
 _symmetry_equiv_pos_site_id
 _symmetry_equiv_pos_as_xyz
  1  'x, y, z'
loop_
 _atom_site_type_symbol
 _atom_site_label
 _atom_site_symmetry_multiplicity
 _atom_site_fract_x
 _atom_site_fract_y
 _atom_site_fract_z
 _atom_site_occupancy
  Yb  Yb0  1  0.666667  0.333333  0.576688  1
  Yb  Yb1  1  0.666667  0.333333  0.934596  1
  Yb  Yb2  1  0.333333  0.666667  0.059882  1
  Sm  Sm3  1  0.333333  0.666667  0.425220  1
  Nb  Nb4  1  0.000000  0.000000  0.500353  1
  Os  Os5  1  0.000000  0.000000  0.001803  1
  Os  Os6  1  0.826817  0.173183  0.247278  1
  Os  Os7  1  0.826817  0.653633  0.247278  1
  Os  Os8  1  0.346367  0.173183  0.247278  1
  Os  Os9  1  0.172691  0.827309  0.753207  1
  Os  Os10  1  0.172691  0.345382  0.753207  1
  Os  Os11  1  0.654618  0.827309  0.753207  1
