# generated using pymatgen
data_ErTmLu3In4PtAu
_symmetry_space_group_name_H-M   'P 1'
_cell_length_a   3.59784700
_cell_length_b   8.09936901
_cell_length_c   18.11146066
_cell_angle_alpha   89.94080187
_cell_angle_beta   90.00000000
_cell_angle_gamma   90.00000000
_symmetry_Int_Tables_number   1
_chemical_formula_structural   ErTmLu3In4PtAu
_chemical_formula_sum   'Er2 Tm2 Lu6 In8 Pt2 Au2'
_cell_volume   527.77294336
_cell_formula_units_Z   2
loop_
 _symmetry_equiv_pos_site_id
 _symmetry_equiv_pos_as_xyz
  1  'x, y, z'
loop_
 _atom_site_type_symbol
 _atom_site_label
 _atom_site_symmetry_multiplicity
 _atom_site_fract_x
 _atom_site_fract_y
 _atom_site_fract_z
 _atom_site_occupancy
  Er  Er0  1  0.000000  0.000000  0.000000  1
  Er  Er1  1  0.000000  0.500000  0.500000  1
  Tm  Tm2  1  0.000000  0.267650  0.721454  1
  Tm  Tm3  1  0.000000  0.732350  0.278546  1
  Lu  Lu4  1  0.000000  0.120063  0.418580  1
  Lu  Lu5  1  0.000000  0.879937  0.581420  1
  Lu  Lu6  1  0.000000  0.384981  0.915922  1
  Lu  Lu7  1  0.000000  0.615019  0.084078  1
  Lu  Lu8  1  0.000000  0.252902  0.217560  1
  Lu  Lu9  1  0.000000  0.747098  0.782440  1
  In  In10  1  0.500000  0.422322  0.352655  1
  In  In11  1  0.500000  0.577678  0.647345  1
  In  In12  1  0.500000  0.077884  0.853157  1
  In  In13  1  0.500000  0.922116  0.146843  1
  In  In14  1  0.500000  0.292351  0.064935  1
  In  In15  1  0.500000  0.707649  0.935065  1
  In  In16  1  0.500000  0.208441  0.566190  1
  In  In17  1  0.500000  0.791559  0.433810  1
  Pt  Pt18  1  0.500000  0.473707  0.804237  1
  Pt  Pt19  1  0.500000  0.526293  0.195763  1
  Au  Au20  1  0.500000  0.029297  0.302399  1
  Au  Au21  1  0.500000  0.970703  0.697601  1
