# generated using pymatgen
data_CeHo2Er(InPd2)2
_symmetry_space_group_name_H-M   'P 1'
_cell_length_a   7.75953241
_cell_length_b   7.75953110
_cell_length_c   3.70288400
_cell_angle_alpha   90.00000000
_cell_angle_beta   90.00000000
_cell_angle_gamma   90.56137755
_symmetry_Int_Tables_number   1
_chemical_formula_structural   CeHo2Er(InPd2)2
_chemical_formula_sum   'Ce1 Ho2 Er1 In2 Pd4'
_cell_volume   222.94117730
_cell_formula_units_Z   1
loop_
 _symmetry_equiv_pos_site_id
 _symmetry_equiv_pos_as_xyz
  1  'x, y, z'
loop_
 _atom_site_type_symbol
 _atom_site_label
 _atom_site_symmetry_multiplicity
 _atom_site_fract_x
 _atom_site_fract_y
 _atom_site_fract_z
 _atom_site_occupancy
  Ce  Ce0  1  0.327530  0.827530  0.500000  1
  Ho  Ho1  1  0.826581  0.670190  0.500000  1
  Ho  Ho2  1  0.170190  0.326581  0.500000  1
  Er  Er3  1  0.673378  0.173378  0.500000  1
  In  In4  1  0.997026  0.001740  0.000000  1
  In  In5  1  0.501740  0.497026  0.000000  1
  Pd  Pd6  1  0.372298  0.128503  0.000000  1
  Pd  Pd7  1  0.872928  0.372928  0.000000  1
  Pd  Pd8  1  0.129826  0.629826  0.000000  1
  Pd  Pd9  1  0.628503  0.872298  0.000000  1
