# generated using pymatgen
data_LiMn11As4
_symmetry_space_group_name_H-M   'P 1'
_cell_length_a   3.69639400
_cell_length_b   3.70083900
_cell_length_c   15.57365200
_cell_angle_alpha   90.00000000
_cell_angle_beta   90.00000000
_cell_angle_gamma   90.00000000
_symmetry_Int_Tables_number   1
_chemical_formula_structural   LiMn11As4
_chemical_formula_sum   'Li1 Mn11 As4'
_cell_volume   213.04380727
_cell_formula_units_Z   1
loop_
 _symmetry_equiv_pos_site_id
 _symmetry_equiv_pos_as_xyz
  1  'x, y, z'
loop_
 _atom_site_type_symbol
 _atom_site_label
 _atom_site_symmetry_multiplicity
 _atom_site_fract_x
 _atom_site_fract_y
 _atom_site_fract_z
 _atom_site_occupancy
  Li  Li0  1  0.500000  0.000000  0.067479  1
  Mn  Mn1  1  0.000000  0.000000  0.199190  1
  Mn  Mn2  1  0.500000  0.499998  0.200415  1
  Mn  Mn3  1  0.500000  0.000000  0.300177  1
  Mn  Mn4  1  0.000000  0.499998  0.305629  1
  Mn  Mn5  1  0.500000  0.499998  0.429927  1
  Mn  Mn6  1  0.000000  0.000000  0.570177  1
  Mn  Mn7  1  0.500000  0.000000  0.698056  1
  Mn  Mn8  1  0.000000  0.499998  0.700669  1
  Mn  Mn9  1  0.000000  0.000000  0.800434  1
  Mn  Mn10  1  0.500000  0.499998  0.802444  1
  Mn  Mn11  1  0.000000  0.499998  0.926458  1
  As  As12  1  0.000000  0.499998  0.094184  1
  As  As13  1  0.000000  0.000000  0.409143  1
  As  As14  1  0.500000  0.499998  0.591022  1
  As  As15  1  0.500000  0.000000  0.904597  1
