# generated using pymatgen
data_Zr12Mn(Si4Ru)3
_symmetry_space_group_name_H-M   'P 1'
_cell_length_a   3.88536100
_cell_length_b   10.44945040
_cell_length_c   11.81542866
_cell_angle_alpha   89.89998145
_cell_angle_beta   90.00000000
_cell_angle_gamma   90.00000000
_symmetry_Int_Tables_number   1
_chemical_formula_structural   Zr12Mn(Si4Ru)3
_chemical_formula_sum   'Zr12 Mn1 Si12 Ru3'
_cell_volume   479.70433845
_cell_formula_units_Z   1
loop_
 _symmetry_equiv_pos_site_id
 _symmetry_equiv_pos_as_xyz
  1  'x, y, z'
loop_
 _atom_site_type_symbol
 _atom_site_label
 _atom_site_symmetry_multiplicity
 _atom_site_fract_x
 _atom_site_fract_y
 _atom_site_fract_z
 _atom_site_occupancy
  Zr  Zr0  1  0.250000  0.876725  0.020466  1
  Zr  Zr1  1  0.250000  0.622000  0.521753  1
  Zr  Zr2  1  0.750000  0.123369  0.979136  1
  Zr  Zr3  1  0.750000  0.375970  0.480779  1
  Zr  Zr4  1  0.250000  0.926851  0.598188  1
  Zr  Zr5  1  0.250000  0.573088  0.098223  1
  Zr  Zr6  1  0.750000  0.072086  0.401928  1
  Zr  Zr7  1  0.750000  0.427668  0.900477  1
  Zr  Zr8  1  0.250000  0.658455  0.800626  1
  Zr  Zr9  1  0.250000  0.841972  0.301328  1
  Zr  Zr10  1  0.750000  0.342551  0.199242  1
  Zr  Zr11  1  0.750000  0.160894  0.699322  1
  Mn  Mn12  1  0.250000  0.383879  0.678338  1
  Si  Si13  1  0.250000  0.016485  0.825012  1
  Si  Si14  1  0.250000  0.483662  0.325988  1
  Si  Si15  1  0.750000  0.984326  0.174381  1
  Si  Si16  1  0.750000  0.515575  0.675050  1
  Si  Si17  1  0.250000  0.252291  0.841314  1
  Si  Si18  1  0.250000  0.249368  0.342526  1
  Si  Si19  1  0.750000  0.749480  0.158268  1
  Si  Si20  1  0.750000  0.750759  0.657539  1
  Si  Si21  1  0.250000  0.194021  0.542549  1
  Si  Si22  1  0.250000  0.305417  0.042536  1
  Si  Si23  1  0.750000  0.804451  0.457429  1
  Si  Si24  1  0.750000  0.695366  0.957509  1
  Ru  Ru25  1  0.250000  0.114224  0.179457  1
  Ru  Ru26  1  0.750000  0.613623  0.320643  1
  Ru  Ru27  1  0.750000  0.885443  0.819992  1
