# generated using pymatgen
data_YbTcI18
_symmetry_space_group_name_H-M   'P 1'
_cell_length_a   10.27763996
_cell_length_b   10.27764098
_cell_length_c   10.27764190
_cell_angle_alpha   93.66258441
_cell_angle_beta   93.66257641
_cell_angle_gamma   93.66258838
_symmetry_Int_Tables_number   1
_chemical_formula_structural   YbTcI18
_chemical_formula_sum   'Yb1 Tc1 I18'
_cell_volume   1078.67574611
_cell_formula_units_Z   1
loop_
 _symmetry_equiv_pos_site_id
 _symmetry_equiv_pos_as_xyz
  1  'x, y, z'
loop_
 _atom_site_type_symbol
 _atom_site_label
 _atom_site_symmetry_multiplicity
 _atom_site_fract_x
 _atom_site_fract_y
 _atom_site_fract_z
 _atom_site_occupancy
  Yb  Yb0  1  0.000000  0.000000  0.000000  1
  Tc  Tc1  1  0.500000  0.500000  0.500000  1
  I  I2  1  0.741282  0.135339  0.601112  1
  I  I3  1  0.982597  0.040776  0.702028  1
  I  I4  1  0.601112  0.741282  0.135339  1
  I  I5  1  0.959224  0.297972  0.017403  1
  I  I6  1  0.702028  0.982597  0.040776  1
  I  I7  1  0.040776  0.702028  0.982597  1
  I  I8  1  0.017403  0.959224  0.297972  1
  I  I9  1  0.864661  0.398888  0.258718  1
  I  I10  1  0.297972  0.017403  0.959224  1
  I  I11  1  0.258718  0.864661  0.398888  1
  I  I12  1  0.135339  0.601112  0.741282  1
  I  I13  1  0.398888  0.258718  0.864661  1
  I  I14  1  0.766922  0.521941  0.505046  1
  I  I15  1  0.521941  0.505046  0.766922  1
  I  I16  1  0.233078  0.478059  0.494954  1
  I  I17  1  0.478059  0.494954  0.233078  1
  I  I18  1  0.505046  0.766922  0.521941  1
  I  I19  1  0.494954  0.233078  0.478059  1
