# generated using pymatgen
data_Sr21LiGa11Sb3
_symmetry_space_group_name_H-M   'P 1'
_cell_length_a   11.97906786
_cell_length_b   11.98151280
_cell_length_c   11.97839900
_cell_angle_alpha   59.99509874
_cell_angle_beta   60.01534663
_cell_angle_gamma   59.98955636
_symmetry_Int_Tables_number   1
_chemical_formula_structural   Sr21LiGa11Sb3
_chemical_formula_sum   'Sr21 Li1 Ga11 Sb3'
_cell_volume   1215.67760307
_cell_formula_units_Z   1
loop_
 _symmetry_equiv_pos_site_id
 _symmetry_equiv_pos_as_xyz
  1  'x, y, z'
loop_
 _atom_site_type_symbol
 _atom_site_label
 _atom_site_symmetry_multiplicity
 _atom_site_fract_x
 _atom_site_fract_y
 _atom_site_fract_z
 _atom_site_occupancy
  Sr  Sr0  1  0.997248  0.002752  0.997248  1
  Sr  Sr1  1  0.133377  0.134040  0.124064  1
  Sr  Sr2  1  0.391479  0.875936  0.865960  1
  Sr  Sr3  1  0.872973  0.390299  0.864865  1
  Sr  Sr4  1  0.865960  0.866623  0.391479  1
  Sr  Sr5  1  0.124064  0.608521  0.133377  1
  Sr  Sr6  1  0.128138  0.135135  0.609701  1
  Sr  Sr7  1  0.609701  0.127027  0.128138  1
  Sr  Sr8  1  0.864865  0.871862  0.872973  1
  Sr  Sr9  1  0.504733  0.827888  0.494804  1
  Sr  Sr10  1  0.828488  0.499310  0.500690  1
  Sr  Sr11  1  0.506141  0.828058  0.171942  1
  Sr  Sr12  1  0.172112  0.495267  0.827425  1
  Sr  Sr13  1  0.827425  0.505196  0.172112  1
  Sr  Sr14  1  0.506171  0.493829  0.827420  1
  Sr  Sr15  1  0.171631  0.828369  0.502007  1
  Sr  Sr16  1  0.500690  0.171512  0.828488  1
  Sr  Sr17  1  0.502007  0.497993  0.171631  1
  Sr  Sr18  1  0.827420  0.172580  0.506171  1
  Sr  Sr19  1  0.171942  0.493859  0.506141  1
  Sr  Sr20  1  0.494804  0.172575  0.504733  1
  Li  Li21  1  0.501261  0.498739  0.501261  1
  Ga  Ga22  1  0.785991  0.785319  0.214681  1
  Ga  Ga23  1  0.214681  0.214009  0.785991  1
  Ga  Ga24  1  0.784408  0.215592  0.784408  1
  Ga  Ga25  1  0.307370  0.307742  0.305320  1
  Ga  Ga26  1  0.920432  0.694680  0.692258  1
  Ga  Ga27  1  0.693501  0.921767  0.691079  1
  Ga  Ga28  1  0.692258  0.692631  0.920432  1
  Ga  Ga29  1  0.305320  0.079568  0.307369  1
  Ga  Ga30  1  0.306347  0.308921  0.078233  1
  Ga  Ga31  1  0.078233  0.306499  0.306347  1
  Ga  Ga32  1  0.691079  0.693653  0.693500  1
  Sb  Sb33  1  0.213870  0.786130  0.213870  1
  Sb  Sb34  1  0.214941  0.785059  0.788940  1
  Sb  Sb35  1  0.788940  0.211060  0.214941  1
