# generated using pymatgen
data_LiDy2Ga7Ni2
_symmetry_space_group_name_H-M   'P 1'
_cell_length_a   4.15080212
_cell_length_b   6.41689040
_cell_length_c   8.02022260
_cell_angle_alpha   90.98937458
_cell_angle_beta   104.99713855
_cell_angle_gamma   89.99999592
_symmetry_Int_Tables_number   1
_chemical_formula_structural   LiDy2Ga7Ni2
_chemical_formula_sum   'Li1 Dy2 Ga7 Ni2'
_cell_volume   206.31141736
_cell_formula_units_Z   1
loop_
 _symmetry_equiv_pos_site_id
 _symmetry_equiv_pos_as_xyz
  1  'x, y, z'
loop_
 _atom_site_type_symbol
 _atom_site_label
 _atom_site_symmetry_multiplicity
 _atom_site_fract_x
 _atom_site_fract_y
 _atom_site_fract_z
 _atom_site_occupancy
  Li  Li0  1  0.000000  0.500000  0.000000  1
  Dy  Dy1  1  0.376573  0.757367  0.753146  1
  Dy  Dy2  1  0.623427  0.242633  0.246854  1
  Ga  Ga3  1  0.000000  0.000000  0.000000  1
  Ga  Ga4  1  0.568507  0.739599  0.137016  1
  Ga  Ga5  1  0.431493  0.260401  0.862984  1
  Ga  Ga6  1  0.183455  0.543043  0.366909  1
  Ga  Ga7  1  0.816545  0.456957  0.633091  1
  Ga  Ga8  1  0.184424  0.946835  0.368848  1
  Ga  Ga9  1  0.815576  0.053165  0.631152  1
  Ni  Ni10  1  0.720896  0.752348  0.441792  1
  Ni  Ni11  1  0.279104  0.247652  0.558208  1
