# generated using pymatgen
data_Ba4Li3Cu3P8
_symmetry_space_group_name_H-M   'P 1'
_cell_length_a   8.51511657
_cell_length_b   8.51511668
_cell_length_c   8.52887851
_cell_angle_alpha   136.99091248
_cell_angle_beta   111.99515056
_cell_angle_gamma   83.82527322
_symmetry_Int_Tables_number   1
_chemical_formula_structural   Ba4Li3Cu3P8
_chemical_formula_sum   'Ba4 Li3 Cu3 P8'
_cell_volume   377.35647577
_cell_formula_units_Z   1
loop_
 _symmetry_equiv_pos_site_id
 _symmetry_equiv_pos_as_xyz
  1  'x, y, z'
loop_
 _atom_site_type_symbol
 _atom_site_label
 _atom_site_symmetry_multiplicity
 _atom_site_fract_x
 _atom_site_fract_y
 _atom_site_fract_z
 _atom_site_occupancy
  Ba  Ba0  1  0.092045  0.891604  0.201988  1
  Ba  Ba1  1  0.908516  0.105695  0.793952  1
  Ba  Ba2  1  0.311745  0.614564  0.706048  1
  Ba  Ba3  1  0.689616  0.390058  0.298012  1
  Li  Li4  1  0.501098  0.751098  0.250000  1
  Li  Li5  1  0.502193  0.252193  0.750000  1
  Li  Li6  1  0.275185  0.025185  0.750000  1
  Cu  Cu7  1  0.722545  0.472545  0.750000  1
  Cu  Cu8  1  0.278319  0.528319  0.250000  1
  Cu  Cu9  1  0.720834  0.970834  0.250000  1
  P  P10  1  0.490730  0.131967  0.365911  1
  P  P11  1  0.519303  0.863296  0.632501  1
  P  P12  1  0.230794  0.386801  0.867499  1
  P  P13  1  0.766056  0.624819  0.134089  1
  P  P14  1  0.964890  0.338647  0.628572  1
  P  P15  1  0.024583  0.649427  0.357954  1
  P  P16  1  0.710075  0.836318  0.871428  1
  P  P17  1  0.291473  0.166629  0.142046  1
