# generated using pymatgen
data_Ce2Mn3Al20Ir
_symmetry_space_group_name_H-M   'P 1'
_cell_length_a   6.82125133
_cell_length_b   6.82052706
_cell_length_c   9.04783200
_cell_angle_alpha   89.92545402
_cell_angle_beta   90.17639187
_cell_angle_gamma   97.41402232
_symmetry_Int_Tables_number   1
_chemical_formula_structural   Ce2Mn3Al20Ir
_chemical_formula_sum   'Ce2 Mn3 Al20 Ir1'
_cell_volume   417.42470017
_cell_formula_units_Z   1
loop_
 _symmetry_equiv_pos_site_id
 _symmetry_equiv_pos_as_xyz
  1  'x, y, z'
loop_
 _atom_site_type_symbol
 _atom_site_label
 _atom_site_symmetry_multiplicity
 _atom_site_fract_x
 _atom_site_fract_y
 _atom_site_fract_z
 _atom_site_occupancy
  Ce  Ce0  1  0.878466  0.128810  0.753538  1
  Ce  Ce1  1  0.121534  0.871190  0.246462  1
  Mn  Mn2  1  0.500000  0.000000  0.000000  1
  Mn  Mn3  1  0.000000  0.500000  0.000000  1
  Mn  Mn4  1  0.000000  0.500000  0.500000  1
  Al  Al5  1  0.591590  0.864701  0.245088  1
  Al  Al6  1  0.779747  0.520982  0.249587  1
  Al  Al7  1  0.160999  0.839393  0.901619  1
  Al  Al8  1  0.408410  0.135299  0.754912  1
  Al  Al9  1  0.624664  0.376047  0.951547  1
  Al  Al10  1  0.846217  0.162638  0.400487  1
  Al  Al11  1  0.772428  0.771076  0.998040  1
  Al  Al12  1  0.866982  0.587859  0.750318  1
  Al  Al13  1  0.839001  0.160607  0.098381  1
  Al  Al14  1  0.220253  0.479018  0.750413  1
  Al  Al15  1  0.153783  0.837362  0.599513  1
  Al  Al16  1  0.777442  0.768912  0.497321  1
  Al  Al17  1  0.476944  0.220552  0.245588  1
  Al  Al18  1  0.627313  0.380875  0.549058  1
  Al  Al19  1  0.222558  0.231088  0.502679  1
  Al  Al20  1  0.372687  0.619125  0.450942  1
  Al  Al21  1  0.133018  0.412141  0.249682  1
  Al  Al22  1  0.523056  0.779448  0.754412  1
  Al  Al23  1  0.375336  0.623953  0.048453  1
  Al  Al24  1  0.227572  0.228924  0.001960  1
  Ir  Ir25  1  0.500000  0.000000  0.500000  1
