# generated using pymatgen
data_Tb16Zn2InHgRh4
_symmetry_space_group_name_H-M   'P 1'
_cell_length_a   9.59736019
_cell_length_b   9.61582449
_cell_length_c   9.62332800
_cell_angle_alpha   59.97417666
_cell_angle_beta   59.91044803
_cell_angle_gamma   59.88947409
_symmetry_Int_Tables_number   1
_chemical_formula_structural   Tb16Zn2InHgRh4
_chemical_formula_sum   'Tb16 Zn2 In1 Hg1 Rh4'
_cell_volume   626.91067207
_cell_formula_units_Z   1
loop_
 _symmetry_equiv_pos_site_id
 _symmetry_equiv_pos_as_xyz
  1  'x, y, z'
loop_
 _atom_site_type_symbol
 _atom_site_label
 _atom_site_symmetry_multiplicity
 _atom_site_fract_x
 _atom_site_fract_y
 _atom_site_fract_z
 _atom_site_occupancy
  Tb  Tb0  1  0.809646  0.807568  0.191393  1
  Tb  Tb1  1  0.809357  0.191961  0.807160  1
  Tb  Tb2  1  0.190927  0.191139  0.808966  1
  Tb  Tb3  1  0.646151  0.056506  0.648672  1
  Tb  Tb4  1  0.065294  0.060166  0.437270  1
  Tb  Tb5  1  0.437006  0.435491  0.063752  1
  Tb  Tb6  1  0.648193  0.647944  0.650577  1
  Tb  Tb7  1  0.809357  0.191961  0.191522  1
  Tb  Tb8  1  0.190709  0.809536  0.809040  1
  Tb  Tb9  1  0.057858  0.645372  0.648385  1
  Tb  Tb10  1  0.438477  0.064993  0.060645  1
  Tb  Tb11  1  0.438477  0.064993  0.435885  1
  Tb  Tb12  1  0.068263  0.436331  0.059706  1
  Tb  Tb13  1  0.648193  0.647944  0.053287  1
  Tb  Tb14  1  0.190709  0.809536  0.190714  1
  Tb  Tb15  1  0.068263  0.436331  0.435702  1
  Zn  Zn16  1  0.416939  0.416821  0.418312  1
  Zn  Zn17  1  0.416939  0.416821  0.747927  1
  In  In18  1  0.736994  0.419640  0.421682  1
  Hg  Hg19  1  0.413922  0.750472  0.417802  1
  Rh  Rh20  1  0.857041  0.426975  0.857993  1
  Rh  Rh21  1  0.856706  0.857170  0.857274  1
  Rh  Rh22  1  0.856706  0.857170  0.428851  1
  Rh  Rh23  1  0.427875  0.857159  0.857484  1
