# generated using pymatgen
data_Yb7Np(Si3Pt)4
_symmetry_space_group_name_H-M   'P 1'
_cell_length_a   8.20420300
_cell_length_b   8.20420343
_cell_length_c   8.24628100
_cell_angle_alpha   90.00000000
_cell_angle_beta   90.00000000
_cell_angle_gamma   119.99999424
_symmetry_Int_Tables_number   1
_chemical_formula_structural   Yb7Np(Si3Pt)4
_chemical_formula_sum   'Yb7 Np1 Si12 Pt4'
_cell_volume   480.68614544
_cell_formula_units_Z   1
loop_
 _symmetry_equiv_pos_site_id
 _symmetry_equiv_pos_as_xyz
  1  'x, y, z'
loop_
 _atom_site_type_symbol
 _atom_site_label
 _atom_site_symmetry_multiplicity
 _atom_site_fract_x
 _atom_site_fract_y
 _atom_site_fract_z
 _atom_site_occupancy
  Yb  Yb0  1  0.500785  0.001573  0.250000  1
  Yb  Yb1  1  0.499129  0.998257  0.750000  1
  Yb  Yb2  1  0.998427  0.499215  0.250000  1
  Yb  Yb3  1  0.001743  0.500871  0.750000  1
  Yb  Yb4  1  0.500785  0.499215  0.250000  1
  Yb  Yb5  1  0.499129  0.500871  0.750000  1
  Yb  Yb6  1  0.000000  0.000000  0.250000  1
  Np  Np7  1  0.000000  0.000000  0.750000  1
  Si  Si8  1  0.164692  0.329384  0.996297  1
  Si  Si9  1  0.835317  0.670636  0.993275  1
  Si  Si10  1  0.670616  0.835308  0.996297  1
  Si  Si11  1  0.835317  0.670636  0.506725  1
  Si  Si12  1  0.329364  0.164683  0.993275  1
  Si  Si13  1  0.164692  0.329384  0.503703  1
  Si  Si14  1  0.164692  0.835308  0.996297  1
  Si  Si15  1  0.329364  0.164683  0.506725  1
  Si  Si16  1  0.835317  0.164683  0.993275  1
  Si  Si17  1  0.670616  0.835308  0.503703  1
  Si  Si18  1  0.835317  0.164683  0.506725  1
  Si  Si19  1  0.164692  0.835308  0.503703  1
  Pt  Pt20  1  0.333333  0.666667  0.000162  1
  Pt  Pt21  1  0.666667  0.333333  0.999113  1
  Pt  Pt22  1  0.666667  0.333333  0.500887  1
  Pt  Pt23  1  0.333333  0.666667  0.499838  1
