# generated using pymatgen
data_Y6Al21Si3Os8
_symmetry_space_group_name_H-M   'P 1'
_cell_length_a   8.72695700
_cell_length_b   8.72695722
_cell_length_c   9.65419800
_cell_angle_alpha   90.00000000
_cell_angle_beta   90.00000000
_cell_angle_gamma   119.99999538
_symmetry_Int_Tables_number   1
_chemical_formula_structural   Y6Al21Si3Os8
_chemical_formula_sum   'Y6 Al21 Si3 Os8'
_cell_volume   636.75525316
_cell_formula_units_Z   1
loop_
 _symmetry_equiv_pos_site_id
 _symmetry_equiv_pos_as_xyz
  1  'x, y, z'
loop_
 _atom_site_type_symbol
 _atom_site_label
 _atom_site_symmetry_multiplicity
 _atom_site_fract_x
 _atom_site_fract_y
 _atom_site_fract_z
 _atom_site_occupancy
  Y  Y0  1  0.194874  0.389748  0.247504  1
  Y  Y1  1  0.804488  0.608976  0.752762  1
  Y  Y2  1  0.610252  0.805126  0.247504  1
  Y  Y3  1  0.391024  0.195512  0.752762  1
  Y  Y4  1  0.194874  0.805126  0.247504  1
  Y  Y5  1  0.804488  0.195512  0.752762  1
  Al  Al6  1  0.333333  0.666667  0.477666  1
  Al  Al7  1  0.164230  0.328459  0.574223  1
  Al  Al8  1  0.835107  0.670214  0.423736  1
  Al  Al9  1  0.671541  0.835770  0.574223  1
  Al  Al10  1  0.834914  0.669828  0.076667  1
  Al  Al11  1  0.329786  0.164893  0.423736  1
  Al  Al12  1  0.165348  0.330696  0.922975  1
  Al  Al13  1  0.164230  0.835770  0.574223  1
  Al  Al14  1  0.330172  0.165086  0.076667  1
  Al  Al15  1  0.835107  0.164893  0.423736  1
  Al  Al16  1  0.669304  0.834652  0.922975  1
  Al  Al17  1  0.834914  0.165086  0.076667  1
  Al  Al18  1  0.165348  0.834652  0.922975  1
  Al  Al19  1  0.563502  0.127005  0.248817  1
  Al  Al20  1  0.436866  0.873731  0.748773  1
  Al  Al21  1  0.872995  0.436498  0.248817  1
  Al  Al22  1  0.126269  0.563134  0.748773  1
  Al  Al23  1  0.563502  0.436498  0.248817  1
  Al  Al24  1  0.436866  0.563134  0.748773  1
  Al  Al25  1  0.000000  0.000000  0.249091  1
  Al  Al26  1  0.000000  0.000000  0.749672  1
  Si  Si27  1  0.333333  0.666667  0.037086  1
  Si  Si28  1  0.666667  0.333333  0.963745  1
  Si  Si29  1  0.666667  0.333333  0.537330  1
  Os  Os30  1  0.499899  0.999798  0.998878  1
  Os  Os31  1  0.000202  0.500101  0.998878  1
  Os  Os32  1  0.504283  0.008565  0.501287  1
  Os  Os33  1  0.499899  0.500101  0.998878  1
  Os  Os34  1  0.991435  0.495717  0.501287  1
  Os  Os35  1  0.504283  0.495717  0.501287  1
  Os  Os36  1  0.000000  0.000000  0.999118  1
  Os  Os37  1  0.000000  0.000000  0.499425  1
