# generated using pymatgen
data_Y7Lu(AlPd)2
_symmetry_space_group_name_H-M   'P 1'
_cell_length_a   9.64238357
_cell_length_b   9.64238406
_cell_length_c   9.65574900
_cell_angle_alpha   59.95413541
_cell_angle_beta   59.95413372
_cell_angle_gamma   59.92477122
_symmetry_Int_Tables_number   1
_chemical_formula_structural   Y7Lu(AlPd)2
_chemical_formula_sum   'Y14 Lu2 Al4 Pd4'
_cell_volume   634.00282570
_cell_formula_units_Z   2
loop_
 _symmetry_equiv_pos_site_id
 _symmetry_equiv_pos_as_xyz
  1  'x, y, z'
loop_
 _atom_site_type_symbol
 _atom_site_label
 _atom_site_symmetry_multiplicity
 _atom_site_fract_x
 _atom_site_fract_y
 _atom_site_fract_z
 _atom_site_occupancy
  Y  Y0  1  0.355892  0.930931  0.356588  1
  Y  Y1  1  0.930931  0.355892  0.356588  1
  Y  Y2  1  0.806305  0.193900  0.193136  1
  Y  Y3  1  0.193900  0.806305  0.806660  1
  Y  Y4  1  0.193900  0.806305  0.193136  1
  Y  Y5  1  0.806305  0.193900  0.806660  1
  Y  Y6  1  0.193935  0.193935  0.806065  1
  Y  Y7  1  0.807039  0.807039  0.192961  1
  Y  Y8  1  0.935213  0.564803  0.565278  1
  Y  Y9  1  0.564803  0.935213  0.934704  1
  Y  Y10  1  0.564803  0.935213  0.565278  1
  Y  Y11  1  0.935213  0.564803  0.934704  1
  Y  Y12  1  0.564543  0.564543  0.935457  1
  Y  Y13  1  0.934425  0.934425  0.565575  1
  Lu  Lu14  1  0.354759  0.354759  0.355209  1
  Lu  Lu15  1  0.354759  0.354759  0.935273  1
  Al  Al16  1  0.577738  0.577738  0.579258  1
  Al  Al17  1  0.577738  0.577738  0.265268  1
  Al  Al18  1  0.576754  0.267106  0.578070  1
  Al  Al19  1  0.267106  0.576754  0.578070  1
  Pd  Pd20  1  0.146605  0.146605  0.142990  1
  Pd  Pd21  1  0.146605  0.146605  0.563800  1
  Pd  Pd22  1  0.148300  0.562430  0.144636  1
  Pd  Pd23  1  0.562430  0.148300  0.144636  1
