# generated using pymatgen
data_KV9Se16
_symmetry_space_group_name_H-M   'P 1'
_cell_length_a   6.74068300
_cell_length_b   6.74068350
_cell_length_c   15.08514100
_cell_angle_alpha   90.00000000
_cell_angle_beta   90.00000000
_cell_angle_gamma   120.00000248
_symmetry_Int_Tables_number   1
_chemical_formula_structural   KV9Se16
_chemical_formula_sum   'K1 V9 Se16'
_cell_volume   593.59171947
_cell_formula_units_Z   1
loop_
 _symmetry_equiv_pos_site_id
 _symmetry_equiv_pos_as_xyz
  1  'x, y, z'
loop_
 _atom_site_type_symbol
 _atom_site_label
 _atom_site_symmetry_multiplicity
 _atom_site_fract_x
 _atom_site_fract_y
 _atom_site_fract_z
 _atom_site_occupancy
  K  K0  1  0.000000  0.000000  0.000000  1
  V  V1  1  0.000000  0.000000  0.292325  1
  V  V2  1  0.000000  0.000000  0.707675  1
  V  V3  1  0.507418  0.014835  0.291774  1
  V  V4  1  0.492582  0.985165  0.708226  1
  V  V5  1  0.985165  0.492582  0.291774  1
  V  V6  1  0.014835  0.507418  0.708226  1
  V  V7  1  0.507418  0.492582  0.291774  1
  V  V8  1  0.492582  0.507418  0.708226  1
  V  V9  1  0.000000  0.000000  0.500000  1
  Se  Se10  1  0.333333  0.666667  0.600937  1
  Se  Se11  1  0.666667  0.333333  0.399063  1
  Se  Se12  1  0.666667  0.333333  0.183298  1
  Se  Se13  1  0.333333  0.666667  0.816702  1
  Se  Se14  1  0.167018  0.334037  0.187949  1
  Se  Se15  1  0.832982  0.665963  0.812051  1
  Se  Se16  1  0.665963  0.832982  0.187949  1
  Se  Se17  1  0.832306  0.664610  0.605843  1
  Se  Se18  1  0.334037  0.167018  0.812051  1
  Se  Se19  1  0.167694  0.335390  0.394157  1
  Se  Se20  1  0.167018  0.832982  0.187949  1
  Se  Se21  1  0.335390  0.167694  0.605843  1
  Se  Se22  1  0.832982  0.167018  0.812051  1
  Se  Se23  1  0.664610  0.832306  0.394157  1
  Se  Se24  1  0.832306  0.167694  0.605843  1
  Se  Se25  1  0.167694  0.832306  0.394157  1
