# generated using pymatgen
data_ErThTc3Ge4
_symmetry_space_group_name_H-M   'P 1'
_cell_length_a   8.33817600
_cell_length_b   5.80479911
_cell_length_c   7.04009962
_cell_angle_alpha   76.26549097
_cell_angle_beta   90.00000000
_cell_angle_gamma   90.00000000
_symmetry_Int_Tables_number   1
_chemical_formula_structural   ErThTc3Ge4
_chemical_formula_sum   'Er2 Th2 Tc6 Ge8'
_cell_volume   331.00760440
_cell_formula_units_Z   2
loop_
 _symmetry_equiv_pos_site_id
 _symmetry_equiv_pos_as_xyz
  1  'x, y, z'
loop_
 _atom_site_type_symbol
 _atom_site_label
 _atom_site_symmetry_multiplicity
 _atom_site_fract_x
 _atom_site_fract_y
 _atom_site_fract_z
 _atom_site_occupancy
  Er  Er0  1  0.436773  0.925680  0.755102  1
  Er  Er1  1  0.936773  0.574320  0.244898  1
  Th  Th2  1  0.554744  0.076809  0.247226  1
  Th  Th3  1  0.054744  0.423191  0.752774  1
  Tc  Tc4  1  0.214804  0.120018  0.109148  1
  Tc  Tc5  1  0.714804  0.379982  0.890852  1
  Tc  Tc6  1  0.797178  0.892548  0.888413  1
  Tc  Tc7  1  0.297178  0.607452  0.111587  1
  Tc  Tc8  1  0.999754  0.996075  0.499205  1
  Tc  Tc9  1  0.499754  0.503925  0.500795  1
  Ge  Ge10  1  0.907763  0.111901  0.135537  1
  Ge  Ge11  1  0.407763  0.388099  0.864463  1
  Ge  Ge12  1  0.098830  0.873313  0.883722  1
  Ge  Ge13  1  0.598830  0.626687  0.116278  1
  Ge  Ge14  1  0.743031  0.218107  0.583818  1
  Ge  Ge15  1  0.243031  0.281893  0.416182  1
  Ge  Ge16  1  0.247122  0.773717  0.413398  1
  Ge  Ge17  1  0.747122  0.726283  0.586602  1
