# generated using pymatgen
data_Ti2Ga2PdRh3
_symmetry_space_group_name_H-M   'P 1'
_cell_length_a   4.07110400
_cell_length_b   7.09596706
_cell_length_c   12.14447925
_cell_angle_alpha   89.98070780
_cell_angle_beta   89.99992003
_cell_angle_gamma   89.99994762
_symmetry_Int_Tables_number   1
_chemical_formula_structural   Ti2Ga2PdRh3
_chemical_formula_sum   'Ti6 Ga6 Pd3 Rh9'
_cell_volume   350.83479613
_cell_formula_units_Z   3
loop_
 _symmetry_equiv_pos_site_id
 _symmetry_equiv_pos_as_xyz
  1  'x, y, z'
loop_
 _atom_site_type_symbol
 _atom_site_label
 _atom_site_symmetry_multiplicity
 _atom_site_fract_x
 _atom_site_fract_y
 _atom_site_fract_z
 _atom_site_occupancy
  Ti  Ti0  1  0.000000  0.503113  0.997215  1
  Ti  Ti1  1  0.500002  0.991510  0.172760  1
  Ti  Ti2  1  0.000003  0.504620  0.336601  1
  Ti  Ti3  1  0.500000  0.001170  0.500511  1
  Ti  Ti4  1  0.999997  0.499134  0.665600  1
  Ti  Ti5  1  0.499995  0.000505  0.827337  1
  Ga  Ga6  1  0.999999  0.998662  0.999594  1
  Ga  Ga7  1  0.500005  0.504111  0.167899  1
  Ga  Ga8  1  0.000003  0.998174  0.335677  1
  Ga  Ga9  1  0.500000  0.499563  0.501093  1
  Ga  Ga10  1  0.999996  0.000347  0.664753  1
  Ga  Ga11  1  0.499996  0.499219  0.830916  1
  Pd  Pd12  1  0.500000  0.247437  0.001216  1
  Pd  Pd13  1  0.500000  0.751582  0.999117  1
  Pd  Pd14  1  0.000004  0.251173  0.166670  1
  Rh  Rh15  1  0.000002  0.750868  0.165201  1
  Rh  Rh16  1  0.500005  0.251662  0.331708  1
  Rh  Rh17  1  0.500004  0.748563  0.333503  1
  Rh  Rh18  1  0.999999  0.249778  0.499010  1
  Rh  Rh19  1  0.999996  0.749469  0.500560  1
  Rh  Rh20  1  0.499999  0.251047  0.667091  1
  Rh  Rh21  1  0.499996  0.749412  0.667497  1
  Rh  Rh22  1  0.999999  0.248721  0.834661  1
  Rh  Rh23  1  0.999996  0.750163  0.833807  1
