# generated using pymatgen
data_Sm2Y4TaRuO14
_symmetry_space_group_name_H-M   'P 1'
_cell_length_a   6.48233046
_cell_length_b   6.48233101
_cell_length_c   7.56294711
_cell_angle_alpha   90.01622669
_cell_angle_beta   89.98377027
_cell_angle_gamma   109.50321148
_symmetry_Int_Tables_number   1
_chemical_formula_structural   Sm2Y4TaRuO14
_chemical_formula_sum   'Sm2 Y4 Ta1 Ru1 O14'
_cell_volume   299.56518522
_cell_formula_units_Z   1
loop_
 _symmetry_equiv_pos_site_id
 _symmetry_equiv_pos_as_xyz
  1  'x, y, z'
loop_
 _atom_site_type_symbol
 _atom_site_label
 _atom_site_symmetry_multiplicity
 _atom_site_fract_x
 _atom_site_fract_y
 _atom_site_fract_z
 _atom_site_occupancy
  Sm  Sm0  1  0.500000  0.500000  0.500000  1
  Sm  Sm1  1  0.500000  0.500000  0.000000  1
  Y  Y2  1  0.534682  0.999770  0.750172  1
  Y  Y3  1  0.999770  0.534682  0.249828  1
  Y  Y4  1  0.465318  0.000230  0.249828  1
  Y  Y5  1  0.000230  0.465318  0.750172  1
  Ta  Ta6  1  0.000000  0.000000  0.000000  1
  Ru  Ru7  1  0.000000  0.000000  0.500000  1
  O  O8  1  0.681259  0.928822  0.469659  1
  O  O9  1  0.928822  0.681259  0.530341  1
  O  O10  1  0.678501  0.928976  0.030907  1
  O  O11  1  0.928976  0.678501  0.969093  1
  O  O12  1  0.318741  0.071178  0.530341  1
  O  O13  1  0.071178  0.318741  0.469659  1
  O  O14  1  0.321499  0.071024  0.969093  1
  O  O15  1  0.071024  0.321499  0.030907  1
  O  O16  1  0.935485  0.064515  0.748429  1
  O  O17  1  0.064515  0.935485  0.251571  1
  O  O18  1  0.366654  0.633345  0.750084  1
  O  O19  1  0.633345  0.366654  0.249916  1
  O  O20  1  0.639620  0.360380  0.749228  1
  O  O21  1  0.360380  0.639620  0.250772  1
