# generated using pymatgen
data_AcIO4
_symmetry_space_group_name_H-M   'P 1'
_cell_length_a   5.23471186
_cell_length_b   5.23471072
_cell_length_c   8.00257500
_cell_angle_alpha   90.00000000
_cell_angle_beta   90.00000000
_cell_angle_gamma   96.09158312
_symmetry_Int_Tables_number   1
_chemical_formula_structural   AcIO4
_chemical_formula_sum   'Ac2 I2 O8'
_cell_volume   218.04997802
_cell_formula_units_Z   2
loop_
 _symmetry_equiv_pos_site_id
 _symmetry_equiv_pos_as_xyz
  1  'x, y, z'
loop_
 _atom_site_type_symbol
 _atom_site_label
 _atom_site_symmetry_multiplicity
 _atom_site_fract_x
 _atom_site_fract_y
 _atom_site_fract_z
 _atom_site_occupancy
  Ac  Ac0  1  0.000000  0.000000  0.000000  1
  Ac  Ac1  1  0.000000  0.000000  0.500000  1
  I  I2  1  0.467836  0.532165  0.250001  1
  I  I3  1  0.532165  0.467836  0.750000  1
  O  O4  1  0.178811  0.246878  0.250001  1
  O  O5  1  0.753122  0.821189  0.250001  1
  O  O6  1  0.246878  0.178811  0.750000  1
  O  O7  1  0.821189  0.753122  0.750000  1
  O  O8  1  0.320183  0.679817  0.067673  1
  O  O9  1  0.320183  0.679817  0.432326  1
  O  O10  1  0.679817  0.320183  0.567673  1
  O  O11  1  0.679817  0.320183  0.932326  1
