# generated using pymatgen
data_TbY9(Ga2Pb)2
_symmetry_space_group_name_H-M   'P 1'
_cell_length_a   7.90616619
_cell_length_b   7.90616619
_cell_length_c   13.97123202
_cell_angle_alpha   90.00405870
_cell_angle_beta   90.00405870
_cell_angle_gamma   90.02488604
_symmetry_Int_Tables_number   1
_chemical_formula_structural   TbY9(Ga2Pb)2
_chemical_formula_sum   'Tb2 Y18 Ga8 Pb4'
_cell_volume   873.30619346
_cell_formula_units_Z   2
loop_
 _symmetry_equiv_pos_site_id
 _symmetry_equiv_pos_as_xyz
  1  'x, y, z'
loop_
 _atom_site_type_symbol
 _atom_site_label
 _atom_site_symmetry_multiplicity
 _atom_site_fract_x
 _atom_site_fract_y
 _atom_site_fract_z
 _atom_site_occupancy
  Tb  Tb0  1  0.838673  0.837022  0.891844  1
  Tb  Tb1  1  0.162978  0.161327  0.608156  1
  Y  Y2  1  0.838670  0.162992  0.391807  1
  Y  Y3  1  0.161331  0.837010  0.391809  1
  Y  Y4  1  0.336984  0.338648  0.391822  1
  Y  Y5  1  0.837008  0.161330  0.108193  1
  Y  Y6  1  0.337082  0.661242  0.891856  1
  Y  Y7  1  0.162990  0.838669  0.108191  1
  Y  Y8  1  0.499999  0.000000  0.751995  1
  Y  Y9  1  0.999999  0.499998  0.248009  1
  Y  Y10  1  0.338758  0.662918  0.608144  1
  Y  Y11  1  0.661352  0.663016  0.108178  1
  Y  Y12  1  0.661260  0.337098  0.608145  1
  Y  Y13  1  0.000000  0.500001  0.748005  1
  Y  Y14  1  0.837109  0.838773  0.608133  1
  Y  Y15  1  0.662902  0.338740  0.891855  1
  Y  Y16  1  0.161227  0.162891  0.891867  1
  Y  Y17  1  0.500002  0.000001  0.251991  1
  Y  Y18  1  0.662990  0.661323  0.391787  1
  Y  Y19  1  0.338677  0.337010  0.108213  1
  Ga  Ga20  1  0.632193  0.367807  0.250000  1
  Ga  Ga21  1  0.367804  0.632196  0.250000  1
  Ga  Ga22  1  0.132148  0.132147  0.250011  1
  Ga  Ga23  1  0.367874  0.367869  0.749948  1
  Ga  Ga24  1  0.132158  0.867842  0.750000  1
  Ga  Ga25  1  0.867853  0.867852  0.249989  1
  Ga  Ga26  1  0.632131  0.632126  0.750052  1
  Ga  Ga27  1  0.867843  0.132157  0.750000  1
  Pb  Pb28  1  0.000089  0.499943  0.999815  1
  Pb  Pb29  1  0.499941  0.000083  0.000218  1
  Pb  Pb30  1  0.500057  0.999911  0.500185  1
  Pb  Pb31  1  0.999917  0.500059  0.499782  1
