# generated using pymatgen
data_TbSm2Cr(Co4P3)2
_symmetry_space_group_name_H-M   'P 1'
_cell_length_a   3.72219500
_cell_length_b   10.59877400
_cell_length_c   12.29057300
_cell_angle_alpha   90.00000000
_cell_angle_beta   90.00000000
_cell_angle_gamma   90.00000000
_symmetry_Int_Tables_number   1
_chemical_formula_structural   TbSm2Cr(Co4P3)2
_chemical_formula_sum   'Tb2 Sm4 Cr2 Co16 P12'
_cell_volume   484.87175236
_cell_formula_units_Z   2
loop_
 _symmetry_equiv_pos_site_id
 _symmetry_equiv_pos_as_xyz
  1  'x, y, z'
loop_
 _atom_site_type_symbol
 _atom_site_label
 _atom_site_symmetry_multiplicity
 _atom_site_fract_x
 _atom_site_fract_y
 _atom_site_fract_z
 _atom_site_occupancy
  Tb  Tb0  1  0.500000  0.817945  0.204583  1
  Tb  Tb1  1  0.500000  0.182055  0.204583  1
  Sm  Sm2  1  0.000000  0.500000  0.521620  1
  Sm  Sm3  1  0.500000  0.000000  0.477452  1
  Sm  Sm4  1  0.000000  0.682472  0.795275  1
  Sm  Sm5  1  0.000000  0.317528  0.795275  1
  Cr  Cr6  1  0.500000  0.500000  0.154487  1
  Cr  Cr7  1  0.000000  0.000000  0.846138  1
  Co  Co8  1  0.500000  0.500000  0.702893  1
  Co  Co9  1  0.000000  0.000000  0.296303  1
  Co  Co10  1  0.000000  0.500000  0.988491  1
  Co  Co11  1  0.500000  0.000000  0.014179  1
  Co  Co12  1  0.500000  0.332084  0.994364  1
  Co  Co13  1  0.500000  0.667916  0.994364  1
  Co  Co14  1  0.000000  0.166786  0.008112  1
  Co  Co15  1  0.000000  0.833214  0.008112  1
  Co  Co16  1  0.500000  0.295645  0.428909  1
  Co  Co17  1  0.500000  0.704355  0.428909  1
  Co  Co18  1  0.000000  0.203926  0.568647  1
  Co  Co19  1  0.000000  0.796074  0.568647  1
  Co  Co20  1  0.500000  0.880717  0.709845  1
  Co  Co21  1  0.500000  0.119283  0.709845  1
  Co  Co22  1  0.000000  0.620140  0.289381  1
  Co  Co23  1  0.000000  0.379860  0.289381  1
  P  P24  1  0.500000  0.500000  0.885001  1
  P  P25  1  0.000000  0.000000  0.117548  1
  P  P26  1  0.500000  0.500000  0.341757  1
  P  P27  1  0.000000  0.000000  0.658490  1
  P  P28  1  0.500000  0.308707  0.614357  1
  P  P29  1  0.500000  0.691293  0.614357  1
  P  P30  1  0.000000  0.190580  0.382974  1
  P  P31  1  0.000000  0.809420  0.382974  1
  P  P32  1  0.500000  0.848973  0.894325  1
  P  P33  1  0.500000  0.151027  0.894325  1
  P  P34  1  0.000000  0.653007  0.107048  1
  P  P35  1  0.000000  0.346993  0.107048  1
