# generated using pymatgen
data_Ho4Tm4B24Ru3W
_symmetry_space_group_name_H-M   'P 1'
_cell_length_a   3.62331100
_cell_length_b   9.13014496
_cell_length_c   11.52553000
_cell_angle_alpha   89.85661658
_cell_angle_beta   90.00000000
_cell_angle_gamma   90.00000000
_symmetry_Int_Tables_number   1
_chemical_formula_structural   Ho4Tm4B24Ru3W
_chemical_formula_sum   'Ho4 Tm4 B24 Ru3 W1'
_cell_volume   381.27895200
_cell_formula_units_Z   1
loop_
 _symmetry_equiv_pos_site_id
 _symmetry_equiv_pos_as_xyz
  1  'x, y, z'
loop_
 _atom_site_type_symbol
 _atom_site_label
 _atom_site_symmetry_multiplicity
 _atom_site_fract_x
 _atom_site_fract_y
 _atom_site_fract_z
 _atom_site_occupancy
  Ho  Ho0  1  0.000000  0.320948  0.413809  1
  Ho  Ho1  1  0.000000  0.678294  0.585302  1
  Ho  Ho2  1  0.000000  0.820060  0.086678  1
  Ho  Ho3  1  0.000000  0.177084  0.914805  1
  Tm  Tm4  1  0.000000  0.946183  0.373112  1
  Tm  Tm5  1  0.000000  0.057904  0.629022  1
  Tm  Tm6  1  0.000000  0.442265  0.125894  1
  Tm  Tm7  1  0.000000  0.556803  0.870779  1
  B  B8  1  0.500000  0.550080  0.436623  1
  B  B9  1  0.500000  0.445713  0.568739  1
  B  B10  1  0.500000  0.053975  0.066788  1
  B  B11  1  0.500000  0.945931  0.933113  1
  B  B12  1  0.500000  0.752785  0.422294  1
  B  B13  1  0.500000  0.251345  0.581686  1
  B  B14  1  0.500000  0.248540  0.079973  1
  B  B15  1  0.500000  0.750901  0.918749  1
  B  B16  1  0.500000  0.795923  0.263673  1
  B  B17  1  0.500000  0.208672  0.734878  1
  B  B18  1  0.500000  0.290326  0.232612  1
  B  B19  1  0.500000  0.709466  0.765456  1
  B  B20  1  0.500000  0.631331  0.181441  1
  B  B21  1  0.500000  0.368555  0.815464  1
  B  B22  1  0.500000  0.131317  0.314521  1
  B  B23  1  0.500000  0.870084  0.685159  1
  B  B24  1  0.500000  0.983715  0.212671  1
  B  B25  1  0.500000  0.017398  0.788166  1
  B  B26  1  0.500000  0.476421  0.286112  1
  B  B27  1  0.500000  0.516745  0.713255  1
  B  B28  1  0.500000  0.604490  0.026898  1
  B  B29  1  0.500000  0.394098  0.969882  1
  B  B30  1  0.500000  0.106342  0.471767  1
  B  B31  1  0.500000  0.897984  0.530306  1
  Ru  Ru32  1  0.000000  0.361118  0.680733  1
  Ru  Ru33  1  0.000000  0.137677  0.178320  1
  Ru  Ru34  1  0.000000  0.861966  0.820295  1
  W  W35  1  0.000000  0.637565  0.321022  1
