# generated using pymatgen
data_Yb9LuIr4
_symmetry_space_group_name_H-M   'P 1'
_cell_length_a   8.41157073
_cell_length_b   8.41157093
_cell_length_c   7.39846758
_cell_angle_alpha   82.98965337
_cell_angle_beta   82.98965168
_cell_angle_gamma   44.80340125
_symmetry_Int_Tables_number   1
_chemical_formula_structural   Yb9LuIr4
_chemical_formula_sum   'Yb9 Lu1 Ir4'
_cell_volume   365.65213714
_cell_formula_units_Z   1
loop_
 _symmetry_equiv_pos_site_id
 _symmetry_equiv_pos_as_xyz
  1  'x, y, z'
loop_
 _atom_site_type_symbol
 _atom_site_label
 _atom_site_symmetry_multiplicity
 _atom_site_fract_x
 _atom_site_fract_y
 _atom_site_fract_z
 _atom_site_occupancy
  Yb  Yb0  1  0.429275  0.570725  0.750000  1
  Yb  Yb1  1  0.356427  0.204622  0.320889  1
  Yb  Yb2  1  0.203514  0.967816  0.079064  1
  Yb  Yb3  1  0.793441  0.036465  0.922228  1
  Yb  Yb4  1  0.963535  0.206559  0.577772  1
  Yb  Yb5  1  0.642034  0.794596  0.678208  1
  Yb  Yb6  1  0.205404  0.357966  0.821792  1
  Yb  Yb7  1  0.795378  0.643573  0.179111  1
  Yb  Yb8  1  0.032184  0.796486  0.420936  1
  Lu  Lu9  1  0.564753  0.435247  0.250000  1
  Ir  Ir10  1  0.401352  0.812303  0.418696  1
  Ir  Ir11  1  0.187697  0.598648  0.081304  1
  Ir  Ir12  1  0.818540  0.393534  0.932682  1
  Ir  Ir13  1  0.606466  0.181460  0.567318  1
