# generated using pymatgen
data_ThAl6Cu7
_symmetry_space_group_name_H-M   'P 1'
_cell_length_a   8.37213685
_cell_length_b   8.37213498
_cell_length_c   8.37213540
_cell_angle_alpha   122.08717386
_cell_angle_beta   118.44814777
_cell_angle_gamma   89.56614140
_symmetry_Int_Tables_number   1
_chemical_formula_structural   ThAl6Cu7
_chemical_formula_sum   'Th2 Al12 Cu14'
_cell_volume   412.73052927
_cell_formula_units_Z   2
loop_
 _symmetry_equiv_pos_site_id
 _symmetry_equiv_pos_as_xyz
  1  'x, y, z'
loop_
 _atom_site_type_symbol
 _atom_site_label
 _atom_site_symmetry_multiplicity
 _atom_site_fract_x
 _atom_site_fract_y
 _atom_site_fract_z
 _atom_site_occupancy
  Th  Th0  1  0.250000  0.750000  0.500000  1
  Th  Th1  1  0.750000  0.250000  0.500000  1
  Al  Al2  1  0.554637  0.546019  0.357212  1
  Al  Al3  1  0.445363  0.453981  0.642788  1
  Al  Al4  1  0.188807  0.197425  0.642788  1
  Al  Al5  1  0.311193  0.953981  0.008617  1
  Al  Al6  1  0.811193  0.802575  0.357212  1
  Al  Al7  1  0.688807  0.046019  0.991383  1
  Al  Al8  1  0.945363  0.302575  0.991383  1
  Al  Al9  1  0.054637  0.697425  0.008617  1
  Al  Al10  1  0.052690  0.309713  0.362403  1
  Al  Al11  1  0.947310  0.690287  0.637597  1
  Al  Al12  1  0.552690  0.190287  0.742976  1
  Al  Al13  1  0.447310  0.809713  0.257024  1
  Cu  Cu14  1  0.285468  0.299213  0.233386  1
  Cu  Cu15  1  0.714532  0.700787  0.766614  1
  Cu  Cu16  1  0.065827  0.052082  0.766614  1
  Cu  Cu17  1  0.434173  0.200787  0.986255  1
  Cu  Cu18  1  0.934173  0.947918  0.233386  1
  Cu  Cu19  1  0.565827  0.799213  0.013745  1
  Cu  Cu20  1  0.214532  0.447918  0.013745  1
  Cu  Cu21  1  0.785468  0.552082  0.986255  1
  Cu  Cu22  1  0.000000  0.000000  0.000000  1
  Cu  Cu23  1  0.500000  0.500000  0.000000  1
  Cu  Cu24  1  0.287136  0.066069  0.353206  1
  Cu  Cu25  1  0.712864  0.933931  0.646794  1
  Cu  Cu26  1  0.787136  0.433931  0.221066  1
  Cu  Cu27  1  0.212864  0.566069  0.778934  1
