# generated using pymatgen
data_Hf6Ti4Al12FePt6
_symmetry_space_group_name_H-M   'P 1'
_cell_length_a   8.78541127
_cell_length_b   8.76769330
_cell_length_c   8.76769468
_cell_angle_alpha   60.02932762
_cell_angle_beta   59.93313010
_cell_angle_gamma   59.93313379
_symmetry_Int_Tables_number   1
_chemical_formula_structural   Hf6Ti4Al12FePt6
_chemical_formula_sum   'Hf6 Ti4 Al12 Fe1 Pt6'
_cell_volume   477.17112068
_cell_formula_units_Z   1
loop_
 _symmetry_equiv_pos_site_id
 _symmetry_equiv_pos_as_xyz
  1  'x, y, z'
loop_
 _atom_site_type_symbol
 _atom_site_label
 _atom_site_symmetry_multiplicity
 _atom_site_fract_x
 _atom_site_fract_y
 _atom_site_fract_z
 _atom_site_occupancy
  Hf  Hf0  1  0.684641  0.680933  0.318573  1
  Hf  Hf1  1  0.315852  0.680933  0.318573  1
  Hf  Hf2  1  0.685151  0.314849  0.314849  1
  Hf  Hf3  1  0.315852  0.318573  0.680933  1
  Hf  Hf4  1  0.684641  0.318573  0.680933  1
  Hf  Hf5  1  0.314284  0.685716  0.685716  1
  Ti  Ti6  1  0.886334  0.866403  0.360928  1
  Ti  Ti7  1  0.886334  0.360928  0.866403  1
  Ti  Ti8  1  0.359330  0.879337  0.879337  1
  Ti  Ti9  1  0.881994  0.879337  0.879337  1
  Al  Al10  1  0.116179  0.131597  0.636047  1
  Al  Al11  1  0.116179  0.636047  0.131597  1
  Al  Al12  1  0.638670  0.121849  0.121849  1
  Al  Al13  1  0.117633  0.121849  0.121849  1
  Al  Al14  1  0.664221  0.662476  0.009082  1
  Al  Al15  1  0.664221  0.009082  0.662476  1
  Al  Al16  1  0.008406  0.660123  0.660123  1
  Al  Al17  1  0.671347  0.660123  0.660123  1
  Al  Al18  1  0.335762  0.336850  0.991627  1
  Al  Al19  1  0.335762  0.991627  0.336850  1
  Al  Al20  1  0.992678  0.340457  0.340457  1
  Al  Al21  1  0.326409  0.340457  0.340457  1
  Fe  Fe22  1  0.994826  0.505174  0.505174  1
  Pt  Pt23  1  0.001759  0.998241  0.998241  1
  Pt  Pt24  1  0.999408  0.998632  0.501012  1
  Pt  Pt25  1  0.500948  0.998632  0.501012  1
  Pt  Pt26  1  0.500948  0.501012  0.998632  1
  Pt  Pt27  1  0.999408  0.501012  0.998632  1
  Pt  Pt28  1  0.500823  0.999177  0.999177  1
