# generated using pymatgen
data_LaHoErTaO7
_symmetry_space_group_name_H-M   'P 1'
_cell_length_a   6.51117621
_cell_length_b   6.51010139
_cell_length_c   7.61174100
_cell_angle_alpha   89.99992608
_cell_angle_beta   89.99962705
_cell_angle_gamma   108.92297696
_symmetry_Int_Tables_number   1
_chemical_formula_structural   LaHoErTaO7
_chemical_formula_sum   'La2 Ho2 Er2 Ta2 O14'
_cell_volume   305.21217728
_cell_formula_units_Z   2
loop_
 _symmetry_equiv_pos_site_id
 _symmetry_equiv_pos_as_xyz
  1  'x, y, z'
loop_
 _atom_site_type_symbol
 _atom_site_label
 _atom_site_symmetry_multiplicity
 _atom_site_fract_x
 _atom_site_fract_y
 _atom_site_fract_z
 _atom_site_occupancy
  La  La0  1  0.506338  0.506320  0.500010  1
  La  La1  1  0.493633  0.493676  0.000010  1
  Ho  Ho2  1  0.532961  0.001282  0.753100  1
  Ho  Ho3  1  0.467042  0.998717  0.253104  1
  Er  Er4  1  0.001520  0.532406  0.246923  1
  Er  Er5  1  0.998508  0.467592  0.746923  1
  Ta  Ta6  1  0.000197  0.000262  0.499985  1
  Ta  Ta7  1  0.999801  0.999735  0.999996  1
  O  O8  1  0.935761  0.064749  0.750010  1
  O  O9  1  0.064241  0.935257  0.250011  1
  O  O10  1  0.353615  0.645145  0.249996  1
  O  O11  1  0.646385  0.354859  0.749995  1
  O  O12  1  0.360422  0.637835  0.749972  1
  O  O13  1  0.639579  0.362162  0.249973  1
  O  O14  1  0.321890  0.069165  0.970356  1
  O  O15  1  0.678115  0.930831  0.470362  1
  O  O16  1  0.316068  0.062444  0.537373  1
  O  O17  1  0.683936  0.937561  0.037368  1
  O  O18  1  0.061855  0.316136  0.462483  1
  O  O19  1  0.938137  0.683865  0.962486  1
  O  O20  1  0.931468  0.677996  0.529782  1
  O  O21  1  0.068527  0.322005  0.029781  1
