# generated using pymatgen
data_Ho2Ta3As7Rh9
_symmetry_space_group_name_H-M   'P 1'
_cell_length_a   4.00142600
_cell_length_b   9.96087807
_cell_length_c   9.96111001
_cell_angle_alpha   119.99940124
_cell_angle_beta   89.99983585
_cell_angle_gamma   89.99784022
_symmetry_Int_Tables_number   1
_chemical_formula_structural   Ho2Ta3As7Rh9
_chemical_formula_sum   'Ho2 Ta3 As7 Rh9'
_cell_volume   343.83762768
_cell_formula_units_Z   1
loop_
 _symmetry_equiv_pos_site_id
 _symmetry_equiv_pos_as_xyz
  1  'x, y, z'
loop_
 _atom_site_type_symbol
 _atom_site_label
 _atom_site_symmetry_multiplicity
 _atom_site_fract_x
 _atom_site_fract_y
 _atom_site_fract_z
 _atom_site_occupancy
  Ho  Ho0  1  0.261211  0.666672  0.333342  1
  Ho  Ho1  1  0.762116  0.333347  0.666664  1
  Ta  Ta2  1  0.762008  0.096115  0.875235  1
  Ta  Ta3  1  0.762002  0.124785  0.220890  1
  Ta  Ta4  1  0.762014  0.779091  0.903888  1
  As  As5  1  0.262270  0.999986  0.000002  1
  As  As6  1  0.761855  0.876550  0.586963  1
  As  As7  1  0.761822  0.413029  0.289561  1
  As  As8  1  0.761852  0.710424  0.123468  1
  As  As9  1  0.261909  0.118154  0.417204  1
  As  As10  1  0.261904  0.582811  0.700950  1
  As  As11  1  0.261887  0.299050  0.881859  1
  Rh  Rh12  1  0.261839  0.883281  0.160182  1
  Rh  Rh13  1  0.261831  0.839816  0.723098  1
  Rh  Rh14  1  0.261801  0.276882  0.116696  1
  Rh  Rh15  1  0.761897  0.613450  0.560901  1
  Rh  Rh16  1  0.761884  0.439086  0.052534  1
  Rh  Rh17  1  0.761919  0.947484  0.386566  1
  Rh  Rh18  1  0.261975  0.367349  0.436243  1
  Rh  Rh19  1  0.261995  0.563741  0.931107  1
  Rh  Rh20  1  0.262006  0.068897  0.632647  1
