# generated using pymatgen
data_SmY4Pd13Au2
_symmetry_space_group_name_H-M   'P 1'
_cell_length_a   4.18765700
_cell_length_b   4.15799900
_cell_length_c   20.74171400
_cell_angle_alpha   90.00000000
_cell_angle_beta   90.00000000
_cell_angle_gamma   90.00000000
_symmetry_Int_Tables_number   1
_chemical_formula_structural   SmY4Pd13Au2
_chemical_formula_sum   'Sm1 Y4 Pd13 Au2'
_cell_volume   361.16039948
_cell_formula_units_Z   1
loop_
 _symmetry_equiv_pos_site_id
 _symmetry_equiv_pos_as_xyz
  1  'x, y, z'
loop_
 _atom_site_type_symbol
 _atom_site_label
 _atom_site_symmetry_multiplicity
 _atom_site_fract_x
 _atom_site_fract_y
 _atom_site_fract_z
 _atom_site_occupancy
  Sm  Sm0  1  0.000000  0.000000  0.998631  1
  Y  Y1  1  0.000000  0.000000  0.199014  1
  Y  Y2  1  0.000000  0.000000  0.396970  1
  Y  Y3  1  0.000000  0.000000  0.604945  1
  Y  Y4  1  0.000000  0.000000  0.800483  1
  Pd  Pd5  1  0.500000  0.500000  0.000957  1
  Pd  Pd6  1  0.500000  0.500000  0.398057  1
  Pd  Pd7  1  0.500000  0.500000  0.600900  1
  Pd  Pd8  1  0.500000  0.500000  0.800082  1
  Pd  Pd9  1  0.500000  0.000000  0.101218  1
  Pd  Pd10  1  0.500000  0.000000  0.298694  1
  Pd  Pd11  1  0.500000  0.000000  0.700647  1
  Pd  Pd12  1  0.500000  0.000000  0.899492  1
  Pd  Pd13  1  0.000000  0.500000  0.101055  1
  Pd  Pd14  1  0.000000  0.500000  0.298716  1
  Pd  Pd15  1  0.000000  0.500000  0.499667  1
  Pd  Pd16  1  0.000000  0.500000  0.701281  1
  Pd  Pd17  1  0.000000  0.500000  0.899130  1
  Au  Au18  1  0.500000  0.500000  0.199753  1
  Au  Au19  1  0.500000  0.000000  0.500305  1
