# generated using pymatgen
data_YbGd9(Si2Sn)2
_symmetry_space_group_name_H-M   'P 1'
_cell_length_a   9.18749887
_cell_length_b   9.18749811
_cell_length_c   9.18749800
_cell_angle_alpha   131.48014867
_cell_angle_beta   131.48013620
_cell_angle_gamma   71.05132531
_symmetry_Int_Tables_number   1
_chemical_formula_structural   YbGd9(Si2Sn)2
_chemical_formula_sum   'Yb1 Gd9 Si4 Sn2'
_cell_volume   426.20875250
_cell_formula_units_Z   1
loop_
 _symmetry_equiv_pos_site_id
 _symmetry_equiv_pos_as_xyz
  1  'x, y, z'
loop_
 _atom_site_type_symbol
 _atom_site_label
 _atom_site_symmetry_multiplicity
 _atom_site_fract_x
 _atom_site_fract_y
 _atom_site_fract_z
 _atom_site_occupancy
  Yb  Yb0  1  0.500000  0.500000  0.000000  1
  Gd  Gd1  1  0.533897  0.036081  0.845636  1
  Gd  Gd2  1  0.190642  0.688100  0.154414  1
  Gd  Gd3  1  0.036044  0.190698  0.502369  1
  Gd  Gd4  1  0.688035  0.533868  0.497636  1
  Gd  Gd5  1  0.466103  0.963919  0.154364  1
  Gd  Gd6  1  0.809358  0.311900  0.845586  1
  Gd  Gd7  1  0.963956  0.809302  0.497631  1
  Gd  Gd8  1  0.311965  0.466132  0.502364  1
  Gd  Gd9  1  0.000000  0.000000  0.000000  1
  Si  Si10  1  0.885044  0.378279  0.263318  1
  Si  Si11  1  0.114956  0.621721  0.736682  1
  Si  Si12  1  0.378288  0.114977  0.493232  1
  Si  Si13  1  0.621712  0.885023  0.506768  1
  Sn  Sn14  1  0.248144  0.248063  0.000382  1
  Sn  Sn15  1  0.751856  0.751937  0.999618  1
