# generated using pymatgen
data_TbHo9Cd3In5Pd3Pt
_symmetry_space_group_name_H-M   'P 1'
_cell_length_a   3.59813300
_cell_length_b   8.10458801
_cell_length_c   18.32945100
_cell_angle_alpha   89.99678336
_cell_angle_beta   90.00000000
_cell_angle_gamma   90.00000000
_symmetry_Int_Tables_number   1
_chemical_formula_structural   TbHo9Cd3In5Pd3Pt
_chemical_formula_sum   'Tb1 Ho9 Cd3 In5 Pd3 Pt1'
_cell_volume   534.51218724
_cell_formula_units_Z   1
loop_
 _symmetry_equiv_pos_site_id
 _symmetry_equiv_pos_as_xyz
  1  'x, y, z'
loop_
 _atom_site_type_symbol
 _atom_site_label
 _atom_site_symmetry_multiplicity
 _atom_site_fract_x
 _atom_site_fract_y
 _atom_site_fract_z
 _atom_site_occupancy
  Tb  Tb0  1  0.000000  0.499994  0.499335  1
  Ho  Ho1  1  0.000000  0.999532  0.000015  1
  Ho  Ho2  1  0.000000  0.739686  0.280127  1
  Ho  Ho3  1  0.000000  0.259787  0.720216  1
  Ho  Ho4  1  0.000000  0.756816  0.781419  1
  Ho  Ho5  1  0.000000  0.245885  0.218727  1
  Ho  Ho6  1  0.000000  0.612137  0.085033  1
  Ho  Ho7  1  0.000000  0.387827  0.916726  1
  Ho  Ho8  1  0.000000  0.883982  0.584086  1
  Ho  Ho9  1  0.000000  0.113317  0.415315  1
  Cd  Cd10  1  0.500000  0.711449  0.931770  1
  Cd  Cd11  1  0.500000  0.287963  0.067352  1
  Cd  Cd12  1  0.500000  0.789174  0.431539  1
  In  In13  1  0.500000  0.208509  0.568374  1
  In  In14  1  0.500000  0.578716  0.648992  1
  In  In15  1  0.500000  0.423479  0.351776  1
  In  In16  1  0.500000  0.925267  0.147205  1
  In  In17  1  0.500000  0.076618  0.852262  1
  Pd  Pd18  1  0.500000  0.475542  0.803287  1
  Pd  Pd19  1  0.500000  0.976253  0.696627  1
  Pd  Pd20  1  0.500000  0.024522  0.303030  1
  Pt  Pt21  1  0.500000  0.523546  0.196787  1
