# generated using pymatgen
data_CsTb2DyCBr6
_symmetry_space_group_name_H-M   'P 1'
_cell_length_a   8.85597211
_cell_length_b   8.89190436
_cell_length_c   9.48104194
_cell_angle_alpha   71.01894366
_cell_angle_beta   84.91026416
_cell_angle_gamma   89.17912042
_symmetry_Int_Tables_number   1
_chemical_formula_structural   CsTb2DyCBr6
_chemical_formula_sum   'Cs2 Tb4 Dy2 C2 Br12'
_cell_volume   703.13558915
_cell_formula_units_Z   2
loop_
 _symmetry_equiv_pos_site_id
 _symmetry_equiv_pos_as_xyz
  1  'x, y, z'
loop_
 _atom_site_type_symbol
 _atom_site_label
 _atom_site_symmetry_multiplicity
 _atom_site_fract_x
 _atom_site_fract_y
 _atom_site_fract_z
 _atom_site_occupancy
  Cs  Cs0  1  0.467041  0.365909  0.330471  1
  Cs  Cs1  1  0.532960  0.634091  0.669529  1
  Tb  Tb2  1  0.915791  0.744581  0.004556  1
  Tb  Tb3  1  0.084209  0.255419  0.995443  1
  Tb  Tb4  1  0.743199  0.086315  0.001106  1
  Tb  Tb5  1  0.256800  0.913685  0.998895  1
  Dy  Dy6  1  0.973337  0.887192  0.323525  1
  Dy  Dy7  1  0.026662  0.112808  0.676476  1
  C  C8  1  0.006368  0.026725  0.920704  1
  C  C9  1  0.993631  0.973275  0.079296  1
  Br  Br10  1  0.074303  0.195405  0.328067  1
  Br  Br11  1  0.925697  0.804595  0.671933  1
  Br  Br12  1  0.203321  0.593295  0.001005  1
  Br  Br13  1  0.796680  0.406705  0.998995  1
  Br  Br14  1  0.402559  0.199651  0.001612  1
  Br  Br15  1  0.597440  0.800350  0.998387  1
  Br  Br16  1  0.668525  0.000746  0.325388  1
  Br  Br17  1  0.331475  0.999254  0.674612  1
  Br  Br18  1  0.278808  0.777370  0.321776  1
  Br  Br19  1  0.721192  0.222630  0.678224  1
  Br  Br20  1  0.853244  0.591647  0.326222  1
  Br  Br21  1  0.146755  0.408353  0.673778  1
