# generated using pymatgen
data_La2Pr2HoSi4
_symmetry_space_group_name_H-M   'P 1'
_cell_length_a   7.88122800
_cell_length_b   7.88122800
_cell_length_c   15.28974000
_cell_angle_alpha   90.00000000
_cell_angle_beta   90.00000000
_cell_angle_gamma   90.00000000
_symmetry_Int_Tables_number   1
_chemical_formula_structural   La2Pr2HoSi4
_chemical_formula_sum   'La8 Pr8 Ho4 Si16'
_cell_volume   949.70316113
_cell_formula_units_Z   4
loop_
 _symmetry_equiv_pos_site_id
 _symmetry_equiv_pos_as_xyz
  1  'x, y, z'
loop_
 _atom_site_type_symbol
 _atom_site_label
 _atom_site_symmetry_multiplicity
 _atom_site_fract_x
 _atom_site_fract_y
 _atom_site_fract_z
 _atom_site_occupancy
  La  La0  1  0.374975  0.012163  0.448366  1
  La  La1  1  0.487837  0.874975  0.698366  1
  La  La2  1  0.512163  0.125025  0.198366  1
  La  La3  1  0.874975  0.487837  0.301634  1
  La  La4  1  0.125025  0.512163  0.801634  1
  La  La5  1  0.625025  0.987837  0.948366  1
  La  La6  1  0.012163  0.374975  0.551634  1
  La  La7  1  0.987837  0.625025  0.051634  1
  Pr  Pr8  1  0.127681  0.979877  0.877510  1
  Pr  Pr9  1  0.520123  0.627681  0.127510  1
  Pr  Pr10  1  0.479877  0.372319  0.627510  1
  Pr  Pr11  1  0.627681  0.520123  0.872490  1
  Pr  Pr12  1  0.372319  0.479877  0.372490  1
  Pr  Pr13  1  0.872319  0.020123  0.377510  1
  Pr  Pr14  1  0.979877  0.127681  0.122490  1
  Pr  Pr15  1  0.020123  0.872319  0.622490  1
  Ho  Ho16  1  0.310928  0.310928  0.000000  1
  Ho  Ho17  1  0.189072  0.810928  0.250000  1
  Ho  Ho18  1  0.810928  0.189072  0.750000  1
  Ho  Ho19  1  0.689072  0.689072  0.500000  1
  Si  Si20  1  0.190859  0.169835  0.705657  1
  Si  Si21  1  0.330165  0.690859  0.955657  1
  Si  Si22  1  0.669835  0.309141  0.455657  1
  Si  Si23  1  0.690859  0.330165  0.044343  1
  Si  Si24  1  0.309141  0.669835  0.544343  1
  Si  Si25  1  0.809141  0.830165  0.205657  1
  Si  Si26  1  0.169835  0.190859  0.294343  1
  Si  Si27  1  0.830165  0.809141  0.794343  1
  Si  Si28  1  0.287110  0.922761  0.063292  1
  Si  Si29  1  0.577239  0.787110  0.313292  1
  Si  Si30  1  0.422761  0.212890  0.813292  1
  Si  Si31  1  0.787110  0.577239  0.686708  1
  Si  Si32  1  0.212890  0.422761  0.186708  1
  Si  Si33  1  0.712890  0.077239  0.563292  1
  Si  Si34  1  0.922761  0.287110  0.936708  1
  Si  Si35  1  0.077239  0.712890  0.436708  1
