# generated using pymatgen
data_Ti3Mo8
_symmetry_space_group_name_H-M   'P 1'
_cell_length_a   4.45297341
_cell_length_b   5.30653241
_cell_length_c   7.73271940
_cell_angle_alpha   90.48224834
_cell_angle_beta   73.29727011
_cell_angle_gamma   90.00250917
_symmetry_Int_Tables_number   1
_chemical_formula_structural   Ti3Mo8
_chemical_formula_sum   'Ti3 Mo8'
_cell_volume   175.00694302
_cell_formula_units_Z   1
loop_
 _symmetry_equiv_pos_site_id
 _symmetry_equiv_pos_as_xyz
  1  'x, y, z'
loop_
 _atom_site_type_symbol
 _atom_site_label
 _atom_site_symmetry_multiplicity
 _atom_site_fract_x
 _atom_site_fract_y
 _atom_site_fract_z
 _atom_site_occupancy
  Ti  Ti0  1  0.595437  0.160131  0.736194  1
  Ti  Ti1  1  0.863464  0.518939  0.196034  1
  Ti  Ti2  1  0.229452  0.339325  0.466072  1
  Mo  Mo3  1  0.957630  0.985049  0.009570  1
  Mo  Mo4  1  0.501214  0.694231  0.922633  1
  Mo  Mo5  1  0.411485  0.244387  0.100739  1
  Mo  Mo6  1  0.320089  0.803384  0.283811  1
  Mo  Mo7  1  0.682629  0.624199  0.559913  1
  Mo  Mo8  1  0.138759  0.875471  0.648368  1
  Mo  Mo9  1  0.047379  0.434850  0.831472  1
  Mo  Mo10  1  0.776217  0.054539  0.372287  1
