# generated using pymatgen
data_Li4CdSn2Se7
_symmetry_space_group_name_H-M   'P 1'
_cell_length_a   10.01674654
_cell_length_b   10.01674648
_cell_length_c   11.01093578
_cell_angle_alpha   86.75690470
_cell_angle_beta   86.75690438
_cell_angle_gamma   43.06818718
_symmetry_Int_Tables_number   1
_chemical_formula_structural   Li4CdSn2Se7
_chemical_formula_sum   'Li8 Cd2 Sn4 Se14'
_cell_volume   753.02579161
_cell_formula_units_Z   2
loop_
 _symmetry_equiv_pos_site_id
 _symmetry_equiv_pos_as_xyz
  1  'x, y, z'
loop_
 _atom_site_type_symbol
 _atom_site_label
 _atom_site_symmetry_multiplicity
 _atom_site_fract_x
 _atom_site_fract_y
 _atom_site_fract_z
 _atom_site_occupancy
  Li  Li0  1  0.529690  0.181110  0.412397  1
  Li  Li1  1  0.181110  0.529690  0.912397  1
  Li  Li2  1  0.914139  0.219179  0.335017  1
  Li  Li3  1  0.219179  0.914139  0.835017  1
  Li  Li4  1  0.682671  0.310342  0.697444  1
  Li  Li5  1  0.310342  0.682671  0.197444  1
  Li  Li6  1  0.038440  0.384354  0.615448  1
  Li  Li7  1  0.384354  0.038440  0.115448  1
  Cd  Cd8  1  0.928947  0.635714  0.259199  1
  Cd  Cd9  1  0.635714  0.928947  0.759199  1
  Sn  Sn10  1  0.468468  0.810154  0.469955  1
  Sn  Sn11  1  0.810154  0.468468  0.969955  1
  Sn  Sn12  1  0.082500  0.767029  0.538457  1
  Sn  Sn13  1  0.767029  0.082500  0.038457  1
  Se  Se14  1  0.367703  0.692458  0.635482  1
  Se  Se15  1  0.692458  0.367703  0.135482  1
  Se  Se16  1  0.231851  0.546992  0.353465  1
  Se  Se17  1  0.546992  0.231851  0.853465  1
  Se  Se18  1  0.016741  0.629256  0.705855  1
  Se  Se19  1  0.629256  0.016741  0.205855  1
  Se  Se20  1  0.273948  0.939895  0.279099  1
  Se  Se21  1  0.939895  0.273948  0.779099  1
  Se  Se22  1  0.407412  0.080516  0.563368  1
  Se  Se23  1  0.080516  0.407412  0.063368  1
  Se  Se24  1  0.832414  0.507266  0.424967  1
  Se  Se25  1  0.507266  0.832414  0.924967  1
  Se  Se26  1  0.795920  0.129390  0.498178  1
  Se  Se27  1  0.129390  0.795920  0.998178  1
