# generated using pymatgen
data_Hf2Al9Ir2Os
_symmetry_space_group_name_H-M   'P 1'
_cell_length_a   7.46288240
_cell_length_b   7.46288181
_cell_length_c   9.23468100
_cell_angle_alpha   90.00000000
_cell_angle_beta   90.00000000
_cell_angle_gamma   119.50868053
_symmetry_Int_Tables_number   1
_chemical_formula_structural   Hf2Al9Ir2Os
_chemical_formula_sum   'Hf4 Al18 Ir4 Os2'
_cell_volume   447.60466350
_cell_formula_units_Z   2
loop_
 _symmetry_equiv_pos_site_id
 _symmetry_equiv_pos_as_xyz
  1  'x, y, z'
loop_
 _atom_site_type_symbol
 _atom_site_label
 _atom_site_symmetry_multiplicity
 _atom_site_fract_x
 _atom_site_fract_y
 _atom_site_fract_z
 _atom_site_occupancy
  Hf  Hf0  1  0.991401  0.678750  0.250000  1
  Hf  Hf1  1  0.008599  0.321250  0.750000  1
  Hf  Hf2  1  0.678750  0.991401  0.250000  1
  Hf  Hf3  1  0.321250  0.008599  0.750000  1
  Al  Al4  1  0.128821  0.128821  0.250000  1
  Al  Al5  1  0.871179  0.871179  0.750000  1
  Al  Al6  1  0.998073  0.335554  0.078748  1
  Al  Al7  1  0.001927  0.664446  0.921252  1
  Al  Al8  1  0.001927  0.664446  0.578748  1
  Al  Al9  1  0.335554  0.998073  0.421252  1
  Al  Al10  1  0.998073  0.335554  0.421252  1
  Al  Al11  1  0.664446  0.001927  0.578748  1
  Al  Al12  1  0.664446  0.001927  0.921252  1
  Al  Al13  1  0.335554  0.998073  0.078748  1
  Al  Al14  1  0.330643  0.330643  0.556065  1
  Al  Al15  1  0.669357  0.669357  0.443935  1
  Al  Al16  1  0.669357  0.669357  0.056065  1
  Al  Al17  1  0.330643  0.330643  0.943935  1
  Al  Al18  1  0.342918  0.557404  0.250000  1
  Al  Al19  1  0.657082  0.442596  0.750000  1
  Al  Al20  1  0.557404  0.342918  0.250000  1
  Al  Al21  1  0.442596  0.657082  0.750000  1
  Ir  Ir22  1  0.672852  0.327148  0.000000  1
  Ir  Ir23  1  0.327148  0.672852  0.000000  1
  Ir  Ir24  1  0.327148  0.672852  0.500000  1
  Ir  Ir25  1  0.672852  0.327148  0.500000  1
  Os  Os26  1  0.000000  0.000000  0.000000  1
  Os  Os27  1  0.000000  0.000000  0.500000  1
