# generated using pymatgen
data_Dy6Tm10Cd3AgIr4
_symmetry_space_group_name_H-M   'P 1'
_cell_length_a   9.56229848
_cell_length_b   9.56229902
_cell_length_c   9.56229812
_cell_angle_alpha   59.76588213
_cell_angle_beta   59.76588022
_cell_angle_gamma   59.76588087
_symmetry_Int_Tables_number   1
_chemical_formula_structural   Dy6Tm10Cd3AgIr4
_chemical_formula_sum   'Dy6 Tm10 Cd3 Ag1 Ir4'
_cell_volume   614.97449728
_cell_formula_units_Z   1
loop_
 _symmetry_equiv_pos_site_id
 _symmetry_equiv_pos_as_xyz
  1  'x, y, z'
loop_
 _atom_site_type_symbol
 _atom_site_label
 _atom_site_symmetry_multiplicity
 _atom_site_fract_x
 _atom_site_fract_y
 _atom_site_fract_z
 _atom_site_occupancy
  Dy  Dy0  1  0.187184  0.810758  0.810758  1
  Dy  Dy1  1  0.811117  0.187848  0.187848  1
  Dy  Dy2  1  0.810758  0.187184  0.810758  1
  Dy  Dy3  1  0.187848  0.811117  0.187848  1
  Dy  Dy4  1  0.810758  0.810758  0.187184  1
  Dy  Dy5  1  0.187848  0.187848  0.811117  1
  Tm  Tm6  1  0.598539  0.598539  0.598539  1
  Tm  Tm7  1  0.600001  0.600001  0.202883  1
  Tm  Tm8  1  0.600001  0.202883  0.600001  1
  Tm  Tm9  1  0.202883  0.600001  0.600001  1
  Tm  Tm10  1  0.060257  0.438823  0.438823  1
  Tm  Tm11  1  0.437172  0.060749  0.060749  1
  Tm  Tm12  1  0.438823  0.060257  0.438823  1
  Tm  Tm13  1  0.060749  0.437172  0.060749  1
  Tm  Tm14  1  0.438823  0.438823  0.060257  1
  Tm  Tm15  1  0.060749  0.060749  0.437172  1
  Cd  Cd16  1  0.831346  0.831346  0.508368  1
  Cd  Cd17  1  0.831346  0.508368  0.831346  1
  Cd  Cd18  1  0.508368  0.831346  0.831346  1
  Ag  Ag19  1  0.832754  0.832754  0.832754  1
  Ir  Ir20  1  0.391785  0.391785  0.391785  1
  Ir  Ir21  1  0.392531  0.392531  0.825829  1
  Ir  Ir22  1  0.392531  0.825829  0.392531  1
  Ir  Ir23  1  0.825829  0.392531  0.392531  1
