# generated using pymatgen
data_Ac2Er3Pb4
_symmetry_space_group_name_H-M   'P 1'
_cell_length_a   8.49292900
_cell_length_b   8.61250800
_cell_length_c   16.19894100
_cell_angle_alpha   90.00000000
_cell_angle_beta   90.00000000
_cell_angle_gamma   90.00000000
_symmetry_Int_Tables_number   1
_chemical_formula_structural   Ac2Er3Pb4
_chemical_formula_sum   'Ac8 Er12 Pb16'
_cell_volume   1184.87832609
_cell_formula_units_Z   4
loop_
 _symmetry_equiv_pos_site_id
 _symmetry_equiv_pos_as_xyz
  1  'x, y, z'
loop_
 _atom_site_type_symbol
 _atom_site_label
 _atom_site_symmetry_multiplicity
 _atom_site_fract_x
 _atom_site_fract_y
 _atom_site_fract_z
 _atom_site_occupancy
  Ac  Ac0  1  0.472263  0.677334  0.597562  1
  Ac  Ac1  1  0.972263  0.822666  0.902438  1
  Ac  Ac2  1  0.527737  0.322666  0.097562  1
  Ac  Ac3  1  0.027737  0.177334  0.402438  1
  Ac  Ac4  1  0.527737  0.322666  0.402438  1
  Ac  Ac5  1  0.027737  0.177334  0.097562  1
  Ac  Ac6  1  0.472263  0.677334  0.902438  1
  Ac  Ac7  1  0.972263  0.822666  0.597562  1
  Er  Er8  1  0.630704  0.158453  0.622626  1
  Er  Er9  1  0.130704  0.341547  0.877374  1
  Er  Er10  1  0.369296  0.841547  0.122626  1
  Er  Er11  1  0.869296  0.658453  0.377374  1
  Er  Er12  1  0.369296  0.841547  0.377374  1
  Er  Er13  1  0.869296  0.658453  0.122626  1
  Er  Er14  1  0.630704  0.158453  0.877374  1
  Er  Er15  1  0.130704  0.341547  0.622626  1
  Er  Er16  1  0.796793  0.492453  0.750000  1
  Er  Er17  1  0.296793  0.007547  0.750000  1
  Er  Er18  1  0.203207  0.507547  0.250000  1
  Er  Er19  1  0.703207  0.992453  0.250000  1
  Pb  Pb20  1  0.700911  0.955885  0.453984  1
  Pb  Pb21  1  0.200911  0.544115  0.046016  1
  Pb  Pb22  1  0.299089  0.044115  0.953984  1
  Pb  Pb23  1  0.799089  0.455885  0.546016  1
  Pb  Pb24  1  0.299089  0.044115  0.546016  1
  Pb  Pb25  1  0.799089  0.455885  0.953984  1
  Pb  Pb26  1  0.700911  0.955885  0.046016  1
  Pb  Pb27  1  0.200911  0.544115  0.453984  1
  Pb  Pb28  1  0.435555  0.362759  0.750000  1
  Pb  Pb29  1  0.935555  0.137241  0.750000  1
  Pb  Pb30  1  0.564445  0.637241  0.250000  1
  Pb  Pb31  1  0.064445  0.862759  0.250000  1
  Pb  Pb32  1  0.661370  0.858890  0.750000  1
  Pb  Pb33  1  0.161370  0.641110  0.750000  1
  Pb  Pb34  1  0.338630  0.141110  0.250000  1
  Pb  Pb35  1  0.838630  0.358890  0.250000  1
