# generated using pymatgen
data_Zr12Al4ReRh7N4
_symmetry_space_group_name_H-M   'P 1'
_cell_length_a   8.60281713
_cell_length_b   8.57583680
_cell_length_c   8.57583700
_cell_angle_alpha   59.99999536
_cell_angle_beta   60.10368662
_cell_angle_gamma   60.10368599
_symmetry_Int_Tables_number   1
_chemical_formula_structural   Zr12Al4ReRh7N4
_chemical_formula_sum   'Zr12 Al4 Re1 Rh7 N4'
_cell_volume   448.08206692
_cell_formula_units_Z   1
loop_
 _symmetry_equiv_pos_site_id
 _symmetry_equiv_pos_as_xyz
  1  'x, y, z'
loop_
 _atom_site_type_symbol
 _atom_site_label
 _atom_site_symmetry_multiplicity
 _atom_site_fract_x
 _atom_site_fract_y
 _atom_site_fract_z
 _atom_site_occupancy
  Zr  Zr0  1  0.811433  0.807680  0.190444  1
  Zr  Zr1  1  0.192251  0.191973  0.807888  1
  Zr  Zr2  1  0.811433  0.190444  0.807680  1
  Zr  Zr3  1  0.192251  0.807888  0.191973  1
  Zr  Zr4  1  0.192251  0.807888  0.807888  1
  Zr  Zr5  1  0.811433  0.190444  0.190444  1
  Zr  Zr6  1  0.438695  0.439281  0.061012  1
  Zr  Zr7  1  0.051961  0.066433  0.440803  1
  Zr  Zr8  1  0.438695  0.061012  0.439281  1
  Zr  Zr9  1  0.051961  0.440803  0.066433  1
  Zr  Zr10  1  0.051961  0.440803  0.440803  1
  Zr  Zr11  1  0.438695  0.061012  0.061012  1
  Al  Al12  1  0.127989  0.624004  0.624004  1
  Al  Al13  1  0.626298  0.118307  0.627698  1
  Al  Al14  1  0.626298  0.627698  0.118307  1
  Al  Al15  1  0.626298  0.627698  0.627698  1
  Re  Re16  1  0.742060  0.419313  0.419313  1
  Rh  Rh17  1  0.418271  0.752047  0.414840  1
  Rh  Rh18  1  0.418271  0.414840  0.752047  1
  Rh  Rh19  1  0.418271  0.414840  0.414840  1
  Rh  Rh20  1  0.496413  0.834530  0.834530  1
  Rh  Rh21  1  0.837040  0.496752  0.833105  1
  Rh  Rh22  1  0.837040  0.833105  0.496752  1
  Rh  Rh23  1  0.837040  0.833105  0.833105  1
  N  N24  1  0.624380  0.125207  0.125207  1
  N  N25  1  0.127104  0.625269  0.123813  1
  N  N26  1  0.127104  0.123813  0.625269  1
  N  N27  1  0.127104  0.123813  0.123813  1
