# generated using pymatgen
data_Ho2Co3B8Os5
_symmetry_space_group_name_H-M   'P 1'
_cell_length_a   3.97642307
_cell_length_b   7.31619343
_cell_length_c   7.25764072
_cell_angle_alpha   89.00606437
_cell_angle_beta   90.00347613
_cell_angle_gamma   89.78895587
_symmetry_Int_Tables_number   1
_chemical_formula_structural   Ho2Co3B8Os5
_chemical_formula_sum   'Ho2 Co3 B8 Os5'
_cell_volume   211.10811605
_cell_formula_units_Z   1
loop_
 _symmetry_equiv_pos_site_id
 _symmetry_equiv_pos_as_xyz
  1  'x, y, z'
loop_
 _atom_site_type_symbol
 _atom_site_label
 _atom_site_symmetry_multiplicity
 _atom_site_fract_x
 _atom_site_fract_y
 _atom_site_fract_z
 _atom_site_occupancy
  Ho  Ho0  1  0.337277  0.248272  0.251488  1
  Ho  Ho1  1  0.866601  0.756917  0.749908  1
  Co  Co2  1  0.126083  0.362343  0.621592  1
  Co  Co3  1  0.121926  0.119912  0.864052  1
  Co  Co4  1  0.622823  0.125604  0.624311  1
  B  B5  1  0.346944  0.924539  0.020711  1
  B  B6  1  0.346881  0.571679  0.475941  1
  B  B7  1  0.849898  0.528563  0.081354  1
  B  B8  1  0.846864  0.979039  0.424409  1
  B  B9  1  0.626853  0.089025  0.933867  1
  B  B10  1  0.628296  0.404576  0.564116  1
  B  B11  1  0.125057  0.444826  0.914448  1
  B  B12  1  0.128154  0.066602  0.589350  1
  Os  Os13  1  0.621710  0.369792  0.867986  1
  Os  Os14  1  0.850966  0.593755  0.364712  1
  Os  Os15  1  0.851609  0.909761  0.142623  1
  Os  Os16  1  0.351363  0.858955  0.411019  1
  Os  Os17  1  0.350696  0.645840  0.098116  1
