# generated using pymatgen
data_Dy3TmAl24IrPt8
_symmetry_space_group_name_H-M   'P 1'
_cell_length_a   7.51776762
_cell_length_b   7.54182061
_cell_length_c   13.16254125
_cell_angle_alpha   84.63689936
_cell_angle_beta   79.11930073
_cell_angle_gamma   59.91377997
_symmetry_Int_Tables_number   1
_chemical_formula_structural   Dy3TmAl24IrPt8
_chemical_formula_sum   'Dy3 Tm1 Al24 Ir1 Pt8'
_cell_volume   634.13024315
_cell_formula_units_Z   1
loop_
 _symmetry_equiv_pos_site_id
 _symmetry_equiv_pos_as_xyz
  1  'x, y, z'
loop_
 _atom_site_type_symbol
 _atom_site_label
 _atom_site_symmetry_multiplicity
 _atom_site_fract_x
 _atom_site_fract_y
 _atom_site_fract_z
 _atom_site_occupancy
  Dy  Dy0  1  0.393692  0.168498  0.808872  1
  Dy  Dy1  1  0.606409  0.831518  0.191149  1
  Dy  Dy2  1  0.733654  0.498432  0.808886  1
  Tm  Tm3  1  0.265871  0.501559  0.191625  1
  Al  Al4  1  0.686783  0.830819  0.945505  1
  Al  Al5  1  0.313179  0.169671  0.054882  1
  Al  Al6  1  0.146622  0.832024  0.561651  1
  Al  Al7  1  0.853440  0.167946  0.438239  1
  Al  Al8  1  0.480106  0.166707  0.558968  1
  Al  Al9  1  0.519895  0.833311  0.440922  1
  Al  Al10  1  0.217486  0.165371  0.327634  1
  Al  Al11  1  0.782663  0.834806  0.672000  1
  Al  Al12  1  0.436386  0.507075  0.671916  1
  Al  Al13  1  0.563454  0.492881  0.327701  1
  Al  Al14  1  0.109403  0.160028  0.669810  1
  Al  Al15  1  0.890994  0.839718  0.329815  1
  Al  Al16  1  0.349668  0.499199  0.945928  1
  Al  Al17  1  0.649625  0.500817  0.054781  1
  Al  Al18  1  0.015175  0.171296  0.954566  1
  Al  Al19  1  0.985165  0.828362  0.045870  1
  Al  Al20  1  0.186593  0.499324  0.441062  1
  Al  Al21  1  0.813519  0.500648  0.558769  1
  Al  Al22  1  0.733990  0.164188  0.183007  1
  Al  Al23  1  0.265498  0.836344  0.816970  1
  Al  Al24  1  0.061051  0.629582  0.817543  1
  Al  Al25  1  0.939534  0.370336  0.182474  1
  Al  Al26  1  0.855686  0.041774  0.816574  1
  Al  Al27  1  0.144279  0.957606  0.183379  1
  Ir  Ir28  1  0.000001  0.500134  0.000198  1
  Pt  Pt29  1  0.119986  0.492111  0.638840  1
  Pt  Pt30  1  0.880431  0.507960  0.360855  1
  Pt  Pt31  1  0.657068  0.171495  0.999990  1
  Pt  Pt32  1  0.342765  0.828536  0.000223  1
  Pt  Pt33  1  0.537079  0.167179  0.361346  1
  Pt  Pt34  1  0.462626  0.833162  0.638362  1
  Pt  Pt35  1  0.778779  0.175121  0.637085  1
  Pt  Pt36  1  0.221446  0.824463  0.362600  1
