# generated using pymatgen
data_Li4Ac3Si3Sn
_symmetry_space_group_name_H-M   'P 1'
_cell_length_a   4.69555359
_cell_length_b   7.12421877
_cell_length_c   8.91934081
_cell_angle_alpha   113.53873826
_cell_angle_beta   105.26140358
_cell_angle_gamma   90.00001052
_symmetry_Int_Tables_number   1
_chemical_formula_structural   Li4Ac3Si3Sn
_chemical_formula_sum   'Li4 Ac3 Si3 Sn1'
_cell_volume   262.02658305
_cell_formula_units_Z   1
loop_
 _symmetry_equiv_pos_site_id
 _symmetry_equiv_pos_as_xyz
  1  'x, y, z'
loop_
 _atom_site_type_symbol
 _atom_site_label
 _atom_site_symmetry_multiplicity
 _atom_site_fract_x
 _atom_site_fract_y
 _atom_site_fract_z
 _atom_site_occupancy
  Li  Li0  1  0.668547  0.972521  0.337091  1
  Li  Li1  1  0.331697  0.015804  0.663395  1
  Li  Li2  1  0.331697  0.647590  0.663395  1
  Li  Li3  1  0.668547  0.364569  0.337091  1
  Ac  Ac4  1  0.994338  0.994338  0.988677  1
  Ac  Ac5  1  0.132896  0.632896  0.265792  1
  Ac  Ac6  1  0.872577  0.372577  0.745154  1
  Si  Si7  1  0.500485  0.671740  0.000970  1
  Si  Si8  1  0.500485  0.329231  0.000970  1
  Si  Si9  1  0.786909  0.786909  0.573815  1
  Sn  Sn10  1  0.211824  0.211824  0.423648  1
