# generated using pymatgen
data_La11Pr5(NdIr3)4
_symmetry_space_group_name_H-M   'P 1'
_cell_length_a   11.37601824
_cell_length_b   11.38573266
_cell_length_c   6.63599807
_cell_angle_alpha   90.14049000
_cell_angle_beta   90.01508974
_cell_angle_gamma   90.11898865
_symmetry_Int_Tables_number   1
_chemical_formula_structural   La11Pr5(NdIr3)4
_chemical_formula_sum   'La11 Pr5 Nd4 Ir12'
_cell_volume   859.51855168
_cell_formula_units_Z   1
loop_
 _symmetry_equiv_pos_site_id
 _symmetry_equiv_pos_as_xyz
  1  'x, y, z'
loop_
 _atom_site_type_symbol
 _atom_site_label
 _atom_site_symmetry_multiplicity
 _atom_site_fract_x
 _atom_site_fract_y
 _atom_site_fract_z
 _atom_site_occupancy
  La  La0  1  0.090647  0.291295  0.115000  1
  La  La1  1  0.791272  0.409713  0.115084  1
  La  La2  1  0.208700  0.590516  0.114587  1
  La  La3  1  0.909098  0.708827  0.114494  1
  La  La4  1  0.409921  0.790978  0.385605  1
  La  La5  1  0.590644  0.209218  0.385457  1
  La  La6  1  0.290876  0.090820  0.385617  1
  La  La7  1  0.708680  0.908747  0.385716  1
  La  La8  1  0.409446  0.209283  0.884923  1
  La  La9  1  0.708915  0.089867  0.885062  1
  La  La10  1  0.291338  0.909358  0.885078  1
  Pr  Pr11  1  0.590288  0.790334  0.883793  1
  Pr  Pr12  1  0.089448  0.708229  0.615471  1
  Pr  Pr13  1  0.910494  0.291874  0.615566  1
  Pr  Pr14  1  0.208325  0.410570  0.615325  1
  Pr  Pr15  1  0.791419  0.589813  0.615714  1
  Nd  Nd16  1  0.000033  0.999832  0.999523  1
  Nd  Nd17  1  0.500327  0.500419  0.999481  1
  Nd  Nd18  1  0.499908  0.500093  0.500781  1
  Nd  Nd19  1  0.000055  0.000006  0.500163  1
  Ir  Ir20  1  0.153523  0.847367  0.249011  1
  Ir  Ir21  1  0.347273  0.346614  0.248962  1
  Ir  Ir22  1  0.652848  0.652843  0.250087  1
  Ir  Ir23  1  0.846347  0.152574  0.249070  1
  Ir  Ir24  1  0.347071  0.653227  0.749998  1
  Ir  Ir25  1  0.153097  0.153037  0.750009  1
  Ir  Ir26  1  0.847036  0.847158  0.749514  1
  Ir  Ir27  1  0.653067  0.346809  0.749916  1
  Ir  Ir28  1  0.000199  0.499894  0.377863  1
  Ir  Ir29  1  0.500099  0.000076  0.121149  1
  Ir  Ir30  1  0.499739  0.000579  0.619653  1
  Ir  Ir31  1  0.999867  0.500033  0.882329  1
