# generated using pymatgen
data_Ta9Nb7(AlTe4)4
_symmetry_space_group_name_H-M   'P 1'
_cell_length_a   4.87978800
_cell_length_b   11.28287932
_cell_length_c   19.49696935
_cell_angle_alpha   89.90010564
_cell_angle_beta   90.00000000
_cell_angle_gamma   90.00000000
_symmetry_Int_Tables_number   1
_chemical_formula_structural   Ta9Nb7(AlTe4)4
_chemical_formula_sum   'Ta9 Nb7 Al4 Te16'
_cell_volume   1073.46365952
_cell_formula_units_Z   1
loop_
 _symmetry_equiv_pos_site_id
 _symmetry_equiv_pos_as_xyz
  1  'x, y, z'
loop_
 _atom_site_type_symbol
 _atom_site_label
 _atom_site_symmetry_multiplicity
 _atom_site_fract_x
 _atom_site_fract_y
 _atom_site_fract_z
 _atom_site_occupancy
  Ta  Ta0  1  0.500000  0.297357  0.464611  1
  Ta  Ta1  1  0.500000  0.203480  0.965331  1
  Ta  Ta2  1  0.500000  0.796387  0.034694  1
  Ta  Ta3  1  0.000000  0.188240  0.056995  1
  Ta  Ta4  1  0.000000  0.811582  0.943059  1
  Ta  Ta5  1  0.000000  0.401719  0.391951  1
  Ta  Ta6  1  0.000000  0.599200  0.608668  1
  Ta  Ta7  1  0.000000  0.900901  0.107791  1
  Ta  Ta8  1  0.000000  0.099108  0.892220  1
  Nb  Nb9  1  0.500000  0.563437  0.382580  1
  Nb  Nb10  1  0.500000  0.436621  0.617149  1
  Nb  Nb11  1  0.500000  0.064776  0.116548  1
  Nb  Nb12  1  0.500000  0.935168  0.883398  1
  Nb  Nb13  1  0.500000  0.703742  0.536185  1
  Nb  Nb14  1  0.000000  0.688768  0.441977  1
  Nb  Nb15  1  0.000000  0.312036  0.557116  1
  Al  Al16  1  0.249957  0.500922  0.500159  1
  Al  Al17  1  0.749796  0.999948  0.999904  1
  Al  Al18  1  0.750043  0.500922  0.500159  1
  Al  Al19  1  0.250204  0.999948  0.999904  1
  Te  Te20  1  0.000000  0.838284  0.561306  1
  Te  Te21  1  0.000000  0.161169  0.438304  1
  Te  Te22  1  0.000000  0.339858  0.938628  1
  Te  Te23  1  0.000000  0.660051  0.061481  1
  Te  Te24  1  0.500000  0.333540  0.319718  1
  Te  Te25  1  0.500000  0.664583  0.681567  1
  Te  Te26  1  0.500000  0.834045  0.179688  1
  Te  Te27  1  0.500000  0.165866  0.820302  1
  Te  Te28  1  0.500000  0.814335  0.403675  1
  Te  Te29  1  0.500000  0.184704  0.595440  1
  Te  Te30  1  0.500000  0.317415  0.096042  1
  Te  Te31  1  0.500000  0.682528  0.904017  1
  Te  Te32  1  0.000000  0.602813  0.303473  1
  Te  Te33  1  0.000000  0.396551  0.695909  1
  Te  Te34  1  0.000000  0.103503  0.195577  1
  Te  Te35  1  0.000000  0.896493  0.804473  1
