# generated using pymatgen
data_Tb4Y3Co6CuSn22
_symmetry_space_group_name_H-M   'P 1'
_cell_length_a   9.68536752
_cell_length_b   9.68466426
_cell_length_c   9.91400946
_cell_angle_alpha   89.98263908
_cell_angle_beta   90.03508059
_cell_angle_gamma   119.98879237
_symmetry_Int_Tables_number   1
_chemical_formula_structural   Tb4Y3Co6CuSn22
_chemical_formula_sum   'Tb4 Y3 Co6 Cu1 Sn22'
_cell_volume   805.43331680
_cell_formula_units_Z   1
loop_
 _symmetry_equiv_pos_site_id
 _symmetry_equiv_pos_as_xyz
  1  'x, y, z'
loop_
 _atom_site_type_symbol
 _atom_site_label
 _atom_site_symmetry_multiplicity
 _atom_site_fract_x
 _atom_site_fract_y
 _atom_site_fract_z
 _atom_site_occupancy
  Tb  Tb0  1  0.999998  0.999995  0.000015  1
  Tb  Tb1  1  0.521048  0.042132  0.693888  1
  Tb  Tb2  1  0.042149  0.521058  0.306056  1
  Tb  Tb3  1  0.957865  0.478948  0.693942  1
  Y  Y4  1  0.478899  0.521114  0.306240  1
  Y  Y5  1  0.521097  0.478898  0.693760  1
  Y  Y6  1  0.478920  0.957792  0.306165  1
  Co  Co7  1  0.832178  0.167979  0.196779  1
  Co  Co8  1  0.167901  0.832058  0.803217  1
  Co  Co9  1  0.832210  0.664200  0.196769  1
  Co  Co10  1  0.167809  0.335832  0.803235  1
  Co  Co11  1  0.335782  0.167860  0.196753  1
  Co  Co12  1  0.664174  0.832174  0.803240  1
  Cu  Cu13  1  0.999998  0.999997  0.500001  1
  Sn  Sn14  1  0.346137  0.000087  0.999996  1
  Sn  Sn15  1  0.653896  0.999977  0.000022  1
  Sn  Sn16  1  0.000010  0.346123  0.000015  1
  Sn  Sn17  1  0.999970  0.653857  0.999994  1
  Sn  Sn18  1  0.653942  0.653970  0.000006  1
  Sn  Sn19  1  0.346058  0.346016  0.999997  1
  Sn  Sn20  1  0.333311  0.666675  0.816649  1
  Sn  Sn21  1  0.666694  0.333328  0.183377  1
  Sn  Sn22  1  0.784086  0.215679  0.453205  1
  Sn  Sn23  1  0.215825  0.784260  0.546722  1
  Sn  Sn24  1  0.784063  0.568451  0.453262  1
  Sn  Sn25  1  0.215925  0.431532  0.546742  1
  Sn  Sn26  1  0.431520  0.215805  0.453225  1
  Sn  Sn27  1  0.568509  0.784131  0.546715  1
  Sn  Sn28  1  0.333434  0.666706  0.117360  1
  Sn  Sn29  1  0.666599  0.333361  0.882693  1
  Sn  Sn30  1  0.111010  0.889083  0.283079  1
  Sn  Sn31  1  0.889021  0.110921  0.716900  1
  Sn  Sn32  1  0.111029  0.221920  0.283113  1
  Sn  Sn33  1  0.888959  0.778069  0.716890  1
  Sn  Sn34  1  0.778048  0.889002  0.283111  1
  Sn  Sn35  1  0.221927  0.111010  0.716868  1
