# generated using pymatgen
data_CeHf3(PN3)4
_symmetry_space_group_name_H-M   'P 1'
_cell_length_a   6.65979827
_cell_length_b   6.65979832
_cell_length_c   5.32569800
_cell_angle_alpha   78.57429303
_cell_angle_beta   78.57429294
_cell_angle_gamma   84.55236161
_symmetry_Int_Tables_number   1
_chemical_formula_structural   CeHf3(PN3)4
_chemical_formula_sum   'Ce1 Hf3 P4 N12'
_cell_volume   226.55912828
_cell_formula_units_Z   1
loop_
 _symmetry_equiv_pos_site_id
 _symmetry_equiv_pos_as_xyz
  1  'x, y, z'
loop_
 _atom_site_type_symbol
 _atom_site_label
 _atom_site_symmetry_multiplicity
 _atom_site_fract_x
 _atom_site_fract_y
 _atom_site_fract_z
 _atom_site_occupancy
  Ce  Ce0  1  0.679350  0.320650  0.750000  1
  Hf  Hf1  1  0.904928  0.095072  0.250000  1
  Hf  Hf2  1  0.324078  0.675922  0.250000  1
  Hf  Hf3  1  0.105724  0.894276  0.750000  1
  P  P4  1  0.197632  0.382438  0.756834  1
  P  P5  1  0.378397  0.199543  0.259330  1
  P  P6  1  0.800457  0.621603  0.240670  1
  P  P7  1  0.617562  0.802368  0.743166  1
  N  N8  1  0.316914  0.387177  0.010605  1
  N  N9  1  0.027732  0.211642  0.848712  1
  N  N10  1  0.986842  0.776462  0.152757  1
  N  N11  1  0.375070  0.337230  0.492652  1
  N  N12  1  0.612700  0.127922  0.157186  1
  N  N13  1  0.387459  0.874409  0.860503  1
  N  N14  1  0.872078  0.387300  0.342814  1
  N  N15  1  0.662770  0.624930  0.007348  1
  N  N16  1  0.788358  0.972268  0.651288  1
  N  N17  1  0.125591  0.612541  0.639497  1
  N  N18  1  0.223538  0.013158  0.347243  1
  N  N19  1  0.612823  0.683086  0.489395  1
