# generated using pymatgen
data_Ho8Er12Sn15Bi
_symmetry_space_group_name_H-M   'P 1'
_cell_length_a   8.03498165
_cell_length_b   8.13718035
_cell_length_c   15.37885400
_cell_angle_alpha   90.07018702
_cell_angle_beta   90.51584843
_cell_angle_gamma   89.98532845
_symmetry_Int_Tables_number   1
_chemical_formula_structural   Ho8Er12Sn15Bi
_chemical_formula_sum   'Ho8 Er12 Sn15 Bi1'
_cell_volume   1005.46015343
_cell_formula_units_Z   1
loop_
 _symmetry_equiv_pos_site_id
 _symmetry_equiv_pos_as_xyz
  1  'x, y, z'
loop_
 _atom_site_type_symbol
 _atom_site_label
 _atom_site_symmetry_multiplicity
 _atom_site_fract_x
 _atom_site_fract_y
 _atom_site_fract_z
 _atom_site_occupancy
  Ho  Ho0  1  0.528666  0.326165  0.900184  1
  Ho  Ho1  1  0.022287  0.178172  0.597238  1
  Ho  Ho2  1  0.478214  0.677680  0.403021  1
  Ho  Ho3  1  0.966186  0.819217  0.100912  1
  Ho  Ho4  1  0.475499  0.672093  0.099049  1
  Ho  Ho5  1  0.977964  0.821992  0.402760  1
  Ho  Ho6  1  0.521598  0.320967  0.596665  1
  Ho  Ho7  1  0.021343  0.181301  0.899330  1
  Er  Er8  1  0.373394  0.835088  0.876615  1
  Er  Er9  1  0.868891  0.663478  0.622298  1
  Er  Er10  1  0.632461  0.162576  0.376601  1
  Er  Er11  1  0.127601  0.342703  0.123208  1
  Er  Er12  1  0.633479  0.161946  0.122455  1
  Er  Er13  1  0.132571  0.337960  0.376849  1
  Er  Er14  1  0.367894  0.837792  0.622907  1
  Er  Er15  1  0.870308  0.662244  0.877929  1
  Er  Er16  1  0.199815  0.503033  0.749648  1
  Er  Er17  1  0.699862  0.996768  0.750127  1
  Er  Er18  1  0.800007  0.496774  0.250951  1
  Er  Er19  1  0.300529  0.002831  0.253310  1
  Sn  Sn20  1  0.792991  0.462286  0.458545  1
  Sn  Sn21  1  0.706957  0.963440  0.541553  1
  Sn  Sn22  1  0.211468  0.534754  0.957830  1
  Sn  Sn23  1  0.713832  0.965970  0.957545  1
  Sn  Sn24  1  0.207633  0.537150  0.541418  1
  Sn  Sn25  1  0.293512  0.037750  0.458990  1
  Sn  Sn26  1  0.789300  0.464130  0.042118  1
  Sn  Sn27  1  0.567206  0.619933  0.749130  1
  Sn  Sn28  1  0.067065  0.880267  0.751217  1
  Sn  Sn29  1  0.434042  0.378289  0.248739  1
  Sn  Sn30  1  0.934844  0.119831  0.249074  1
  Sn  Sn31  1  0.333870  0.148782  0.749634  1
  Sn  Sn32  1  0.833123  0.352777  0.748147  1
  Sn  Sn33  1  0.664002  0.850601  0.250724  1
  Sn  Sn34  1  0.165992  0.649398  0.250952  1
  Bi  Bi35  1  0.285595  0.033860  0.042327  1
