# generated using pymatgen
data_DyB2IrRu
_symmetry_space_group_name_H-M   'P 1'
_cell_length_a   6.78687848
_cell_length_b   5.97784905
_cell_length_c   5.54238501
_cell_angle_alpha   72.07763581
_cell_angle_beta   56.93519286
_cell_angle_gamma   50.98717486
_symmetry_Int_Tables_number   1
_chemical_formula_structural   DyB2IrRu
_chemical_formula_sum   'Dy2 B4 Ir2 Ru2'
_cell_volume   146.20199943
_cell_formula_units_Z   2
loop_
 _symmetry_equiv_pos_site_id
 _symmetry_equiv_pos_as_xyz
  1  'x, y, z'
loop_
 _atom_site_type_symbol
 _atom_site_label
 _atom_site_symmetry_multiplicity
 _atom_site_fract_x
 _atom_site_fract_y
 _atom_site_fract_z
 _atom_site_occupancy
  Dy  Dy0  1  0.744521  0.744521  0.755479  1
  Dy  Dy1  1  0.494521  0.494521  0.505479  1
  B  B2  1  0.066529  0.436478  0.062849  1
  B  B3  1  0.815856  0.187151  0.813522  1
  B  B4  1  0.436478  0.066529  0.434144  1
  B  B5  1  0.187151  0.815856  0.183471  1
  Ir  Ir6  1  0.865931  0.865931  0.134069  1
  Ir  Ir7  1  0.115931  0.115931  0.384069  1
  Ru  Ru8  1  0.386542  0.386542  0.113458  1
  Ru  Ru9  1  0.136542  0.136542  0.863458  1
