# generated using pymatgen
data_Nd8GaGeI12
_symmetry_space_group_name_H-M   'P 1'
_cell_length_a   4.38027900
_cell_length_b   14.44256953
_cell_length_c   15.20778800
_cell_angle_alpha   90.27348417
_cell_angle_beta   90.00000000
_cell_angle_gamma   90.00000000
_symmetry_Int_Tables_number   1
_chemical_formula_structural   Nd8GaGeI12
_chemical_formula_sum   'Nd8 Ga1 Ge1 I12'
_cell_volume   962.07148524
_cell_formula_units_Z   1
loop_
 _symmetry_equiv_pos_site_id
 _symmetry_equiv_pos_as_xyz
  1  'x, y, z'
loop_
 _atom_site_type_symbol
 _atom_site_label
 _atom_site_symmetry_multiplicity
 _atom_site_fract_x
 _atom_site_fract_y
 _atom_site_fract_z
 _atom_site_occupancy
  Nd  Nd0  1  0.500000  0.116250  0.344935  1
  Nd  Nd1  1  0.500000  0.883750  0.655065  1
  Nd  Nd2  1  0.500000  0.616423  0.155803  1
  Nd  Nd3  1  0.500000  0.383577  0.844197  1
  Nd  Nd4  1  0.000000  0.113841  0.577131  1
  Nd  Nd5  1  0.000000  0.886159  0.422869  1
  Nd  Nd6  1  0.000000  0.613269  0.923732  1
  Nd  Nd7  1  0.000000  0.386731  0.076268  1
  Ga  Ga8  1  0.500000  0.000000  0.500000  1
  Ge  Ge9  1  0.500000  0.500000  0.000000  1
  I  I10  1  0.500000  0.249073  0.164085  1
  I  I11  1  0.500000  0.750927  0.835915  1
  I  I12  1  0.500000  0.747544  0.333729  1
  I  I13  1  0.500000  0.252456  0.666271  1
  I  I14  1  0.000000  0.259821  0.415922  1
  I  I15  1  0.000000  0.740179  0.584078  1
  I  I16  1  0.000000  0.758154  0.084887  1
  I  I17  1  0.000000  0.241846  0.915113  1
  I  I18  1  0.000000  0.999334  0.238844  1
  I  I19  1  0.000000  0.000666  0.761156  1
  I  I20  1  0.000000  0.499533  0.259518  1
  I  I21  1  0.000000  0.500467  0.740482  1
