# generated using pymatgen
data_Dy2Ho10GaCo4Bi
_symmetry_space_group_name_H-M   'P 1'
_cell_length_a   8.33602328
_cell_length_b   8.34315279
_cell_length_c   8.34315206
_cell_angle_alpha   111.92601418
_cell_angle_beta   109.23810465
_cell_angle_gamma   107.31543480
_symmetry_Int_Tables_number   1
_chemical_formula_structural   Dy2Ho10GaCo4Bi
_chemical_formula_sum   'Dy2 Ho10 Ga1 Co4 Bi1'
_cell_volume   445.76883925
_cell_formula_units_Z   1
loop_
 _symmetry_equiv_pos_site_id
 _symmetry_equiv_pos_as_xyz
  1  'x, y, z'
loop_
 _atom_site_type_symbol
 _atom_site_label
 _atom_site_symmetry_multiplicity
 _atom_site_fract_x
 _atom_site_fract_y
 _atom_site_fract_z
 _atom_site_occupancy
  Dy  Dy0  1  0.972766  0.269560  0.703205  1
  Dy  Dy1  1  0.027234  0.730440  0.296795  1
  Ho  Ho2  1  0.676428  0.860592  0.183430  1
  Ho  Ho3  1  0.323572  0.507002  0.184164  1
  Ho  Ho4  1  0.323572  0.139408  0.816570  1
  Ho  Ho5  1  0.676428  0.492998  0.815836  1
  Ho  Ho6  1  0.566329  0.269535  0.296794  1
  Ho  Ho7  1  0.433671  0.730465  0.703206  1
  Ho  Ho8  1  0.178851  0.779539  0.957878  1
  Ho  Ho9  1  0.821149  0.779026  0.600688  1
  Ho  Ho10  1  0.178851  0.220974  0.399312  1
  Ho  Ho11  1  0.821149  0.220461  0.042122  1
  Ga  Ga12  1  0.000000  0.500000  0.500000  1
  Co  Co13  1  0.114071  0.113745  0.000326  1
  Co  Co14  1  0.885929  0.886255  0.999674  1
  Co  Co15  1  0.658543  0.499801  0.158742  1
  Co  Co16  1  0.341457  0.500199  0.841258  1
  Bi  Bi17  1  0.500000  0.000000  0.500000  1
