# generated using pymatgen
data_CaSc(SiTc2)4
_symmetry_space_group_name_H-M   'P 1'
_cell_length_a   7.27565577
_cell_length_b   7.27565577
_cell_length_c   4.18411600
_cell_angle_alpha   90.00000000
_cell_angle_beta   90.00000000
_cell_angle_gamma   88.51396185
_symmetry_Int_Tables_number   1
_chemical_formula_structural   CaSc(SiTc2)4
_chemical_formula_sum   'Ca1 Sc1 Si4 Tc8'
_cell_volume   221.41238716
_cell_formula_units_Z   1
loop_
 _symmetry_equiv_pos_site_id
 _symmetry_equiv_pos_as_xyz
  1  'x, y, z'
loop_
 _atom_site_type_symbol
 _atom_site_label
 _atom_site_symmetry_multiplicity
 _atom_site_fract_x
 _atom_site_fract_y
 _atom_site_fract_z
 _atom_site_occupancy
  Ca  Ca0  1  0.500000  0.500000  0.000000  1
  Sc  Sc1  1  0.000000  0.000000  0.500000  1
  Si  Si2  1  0.712331  0.712331  0.500000  1
  Si  Si3  1  0.287669  0.287669  0.500000  1
  Si  Si4  1  0.201712  0.798288  0.000000  1
  Si  Si5  1  0.798288  0.201712  0.000000  1
  Tc  Tc6  1  0.605074  0.148898  0.500000  1
  Tc  Tc7  1  0.394926  0.851102  0.500000  1
  Tc  Tc8  1  0.091573  0.340450  0.000000  1
  Tc  Tc9  1  0.908427  0.659550  0.000000  1
  Tc  Tc10  1  0.148898  0.605074  0.500000  1
  Tc  Tc11  1  0.851102  0.394926  0.500000  1
  Tc  Tc12  1  0.340450  0.091573  0.000000  1
  Tc  Tc13  1  0.659550  0.908427  0.000000  1
