# generated using pymatgen
data_Dy4YAl2GeC4
_symmetry_space_group_name_H-M   'P 1'
_cell_length_a   10.79044206
_cell_length_b   10.79867727
_cell_length_c   3.52842000
_cell_angle_alpha   90.00000000
_cell_angle_beta   90.00000000
_cell_angle_gamma   90.03370705
_symmetry_Int_Tables_number   1
_chemical_formula_structural   Dy4YAl2GeC4
_chemical_formula_sum   'Dy8 Y2 Al4 Ge2 C8'
_cell_volume   411.14025319
_cell_formula_units_Z   2
loop_
 _symmetry_equiv_pos_site_id
 _symmetry_equiv_pos_as_xyz
  1  'x, y, z'
loop_
 _atom_site_type_symbol
 _atom_site_label
 _atom_site_symmetry_multiplicity
 _atom_site_fract_x
 _atom_site_fract_y
 _atom_site_fract_z
 _atom_site_occupancy
  Dy  Dy0  1  0.550592  0.726128  0.500000  1
  Dy  Dy1  1  0.449408  0.273872  0.500000  1
  Dy  Dy2  1  0.050581  0.773601  0.500000  1
  Dy  Dy3  1  0.949419  0.226399  0.500000  1
  Dy  Dy4  1  0.274061  0.550519  0.500000  1
  Dy  Dy5  1  0.725939  0.449481  0.500000  1
  Dy  Dy6  1  0.500000  0.000000  0.000000  1
  Dy  Dy7  1  0.000000  0.500000  0.000000  1
  Y  Y8  1  0.225768  0.050360  0.500000  1
  Y  Y9  1  0.774232  0.949640  0.500000  1
  Al  Al10  1  0.703689  0.203914  0.000000  1
  Al  Al11  1  0.296311  0.796086  0.000000  1
  Al  Al12  1  0.203914  0.296440  0.000000  1
  Al  Al13  1  0.796086  0.703560  0.000000  1
  Ge  Ge14  1  0.500000  0.500000  0.000000  1
  Ge  Ge15  1  0.000000  0.000000  0.000000  1
  C  C16  1  0.633254  0.134339  0.500000  1
  C  C17  1  0.366746  0.865661  0.500000  1
  C  C18  1  0.133662  0.366379  0.500000  1
  C  C19  1  0.866338  0.633621  0.500000  1
  C  C20  1  0.162996  0.662963  0.000000  1
  C  C21  1  0.837004  0.337037  0.000000  1
  C  C22  1  0.662697  0.836595  0.000000  1
  C  C23  1  0.337303  0.163405  0.000000  1
