# generated using pymatgen
data_Y7HoTi11Si16Pd
_symmetry_space_group_name_H-M   'P 1'
_cell_length_a   7.05779023
_cell_length_b   7.05741496
_cell_length_c   12.88773905
_cell_angle_alpha   90.12229696
_cell_angle_beta   89.88285427
_cell_angle_gamma   89.68517171
_symmetry_Int_Tables_number   1
_chemical_formula_structural   Y7HoTi11Si16Pd
_chemical_formula_sum   'Y7 Ho1 Ti11 Si16 Pd1'
_cell_volume   641.92260619
_cell_formula_units_Z   1
loop_
 _symmetry_equiv_pos_site_id
 _symmetry_equiv_pos_as_xyz
  1  'x, y, z'
loop_
 _atom_site_type_symbol
 _atom_site_label
 _atom_site_symmetry_multiplicity
 _atom_site_fract_x
 _atom_site_fract_y
 _atom_site_fract_z
 _atom_site_occupancy
  Y  Y0  1  0.340459  0.003183  0.466751  1
  Y  Y1  1  0.496882  0.841722  0.717576  1
  Y  Y2  1  0.501362  0.157743  0.214278  1
  Y  Y3  1  0.841793  0.496896  0.282380  1
  Y  Y4  1  0.157645  0.501387  0.785758  1
  Y  Y5  1  0.656316  0.999599  0.968365  1
  Y  Y6  1  0.003181  0.340487  0.533243  1
  Ho  Ho7  1  0.000040  0.655950  0.031784  1
  Ti  Ti8  1  0.175566  0.825905  0.248946  1
  Ti  Ti9  1  0.825988  0.175686  0.750962  1
  Ti  Ti10  1  0.673053  0.673054  0.500001  1
  Ti  Ti11  1  0.148361  0.006031  0.877129  1
  Ti  Ti12  1  0.494308  0.653103  0.123961  1
  Ti  Ti13  1  0.507804  0.350083  0.626670  1
  Ti  Ti14  1  0.653256  0.494379  0.876105  1
  Ti  Ti15  1  0.350069  0.507795  0.373317  1
  Ti  Ti16  1  0.849923  0.992719  0.374543  1
  Ti  Ti17  1  0.006161  0.148429  0.122934  1
  Ti  Ti18  1  0.992721  0.849898  0.625459  1
  Si  Si19  1  0.201697  0.132717  0.685572  1
  Si  Si20  1  0.372729  0.711082  0.932042  1
  Si  Si21  1  0.630902  0.294545  0.433215  1
  Si  Si22  1  0.711644  0.373427  0.068005  1
  Si  Si23  1  0.294540  0.630906  0.566780  1
  Si  Si24  1  0.797803  0.867750  0.183034  1
  Si  Si25  1  0.132692  0.201727  0.314395  1
  Si  Si26  1  0.868102  0.797353  0.816858  1
  Si  Si27  1  0.285394  0.943034  0.064743  1
  Si  Si28  1  0.547534  0.790986  0.314691  1
  Si  Si29  1  0.450596  0.210242  0.813668  1
  Si  Si30  1  0.790962  0.547508  0.685334  1
  Si  Si31  1  0.209879  0.450787  0.186133  1
  Si  Si32  1  0.708789  0.047980  0.564995  1
  Si  Si33  1  0.943420  0.286164  0.935362  1
  Si  Si34  1  0.047954  0.708797  0.435010  1
  Pd  Pd35  1  0.330476  0.330945  0.000004  1
