# generated using pymatgen
data_Nd8TlHg2Os
_symmetry_space_group_name_H-M   'P 1'
_cell_length_a   10.49046600
_cell_length_b   10.49632402
_cell_length_c   7.39411500
_cell_angle_alpha   89.84540533
_cell_angle_beta   90.00000000
_cell_angle_gamma   119.98154614
_symmetry_Int_Tables_number   1
_chemical_formula_structural   Nd8TlHg2Os
_chemical_formula_sum   'Nd16 Tl2 Hg4 Os2'
_cell_volume   705.22461672
_cell_formula_units_Z   2
loop_
 _symmetry_equiv_pos_site_id
 _symmetry_equiv_pos_as_xyz
  1  'x, y, z'
loop_
 _atom_site_type_symbol
 _atom_site_label
 _atom_site_symmetry_multiplicity
 _atom_site_fract_x
 _atom_site_fract_y
 _atom_site_fract_z
 _atom_site_occupancy
  Nd  Nd0  1  0.824980  0.649967  0.479496  1
  Nd  Nd1  1  0.343906  0.176477  0.483434  1
  Nd  Nd2  1  0.832576  0.176474  0.483434  1
  Nd  Nd3  1  0.169923  0.339853  0.980699  1
  Nd  Nd4  1  0.658784  0.829978  0.991493  1
  Nd  Nd5  1  0.171194  0.829980  0.991500  1
  Nd  Nd6  1  0.665994  0.331991  0.173689  1
  Nd  Nd7  1  0.332682  0.665366  0.674154  1
  Nd  Nd8  1  0.537815  0.075631  0.789093  1
  Nd  Nd9  1  0.926208  0.464783  0.793524  1
  Nd  Nd10  1  0.538578  0.464787  0.793530  1
  Nd  Nd11  1  0.462996  0.925984  0.289240  1
  Nd  Nd12  1  0.078201  0.534776  0.289432  1
  Nd  Nd13  1  0.456569  0.534771  0.289429  1
  Nd  Nd14  1  0.998639  0.997263  0.775753  1
  Nd  Nd15  1  0.999405  0.998810  0.279599  1
  Tl  Tl16  1  0.668739  0.834167  0.544298  1
  Tl  Tl17  1  0.165426  0.834167  0.544294  1
  Hg  Hg18  1  0.831643  0.663286  0.043066  1
  Hg  Hg19  1  0.336032  0.168109  0.044356  1
  Hg  Hg20  1  0.832072  0.168106  0.044358  1
  Hg  Hg21  1  0.168106  0.336213  0.545236  1
  Os  Os22  1  0.666280  0.332556  0.552704  1
  Os  Os23  1  0.333249  0.666503  0.050430  1
