# generated using pymatgen
data_RbLi3(BrO3)4
_symmetry_space_group_name_H-M   'P 1'
_cell_length_a   6.98641027
_cell_length_b   6.98641044
_cell_length_c   6.96822900
_cell_angle_alpha   70.97083471
_cell_angle_beta   70.97083425
_cell_angle_gamma   88.15095107
_symmetry_Int_Tables_number   1
_chemical_formula_structural   RbLi3(BrO3)4
_chemical_formula_sum   'Rb1 Li3 Br4 O12'
_cell_volume   302.91635123
_cell_formula_units_Z   1
loop_
 _symmetry_equiv_pos_site_id
 _symmetry_equiv_pos_as_xyz
  1  'x, y, z'
loop_
 _atom_site_type_symbol
 _atom_site_label
 _atom_site_symmetry_multiplicity
 _atom_site_fract_x
 _atom_site_fract_y
 _atom_site_fract_z
 _atom_site_occupancy
  Rb  Rb0  1  0.735001  0.264999  0.000000  1
  Li  Li1  1  0.917715  0.082285  0.500000  1
  Li  Li2  1  0.117293  0.882707  0.000000  1
  Li  Li3  1  0.257774  0.742226  0.500000  1
  Br  Br4  1  0.828308  0.587376  0.463233  1
  Br  Br5  1  0.412624  0.171692  0.536767  1
  Br  Br6  1  0.208293  0.425850  0.983255  1
  Br  Br7  1  0.574150  0.791707  0.016745  1
  O  O8  1  0.923400  0.361952  0.543207  1
  O  O9  1  0.638048  0.076600  0.456793  1
  O  O10  1  0.044171  0.593566  0.056011  1
  O  O11  1  0.406434  0.955829  0.943989  1
  O  O12  1  0.534550  0.784419  0.270414  1
  O  O13  1  0.215581  0.465450  0.729586  1
  O  O14  1  0.396085  0.339332  0.308273  1
  O  O15  1  0.660668  0.603915  0.691727  1
  O  O16  1  0.018552  0.773669  0.389131  1
  O  O17  1  0.226331  0.981448  0.610869  1
  O  O18  1  0.080704  0.195682  0.124950  1
  O  O19  1  0.804318  0.919296  0.875050  1
