# generated using pymatgen
data_Lu12InCo2Ni2Ru
_symmetry_space_group_name_H-M   'P 1'
_cell_length_a   8.11303528
_cell_length_b   8.11303587
_cell_length_c   8.11303512
_cell_angle_alpha   111.52987307
_cell_angle_beta   111.25001250
_cell_angle_gamma   105.69851272
_symmetry_Int_Tables_number   1
_chemical_formula_structural   Lu12InCo2Ni2Ru
_chemical_formula_sum   'Lu12 In1 Co2 Ni2 Ru1'
_cell_volume   409.75380156
_cell_formula_units_Z   1
loop_
 _symmetry_equiv_pos_site_id
 _symmetry_equiv_pos_as_xyz
  1  'x, y, z'
loop_
 _atom_site_type_symbol
 _atom_site_label
 _atom_site_symmetry_multiplicity
 _atom_site_fract_x
 _atom_site_fract_y
 _atom_site_fract_z
 _atom_site_occupancy
  Lu  Lu0  1  0.183193  0.277618  0.460810  1
  Lu  Lu1  1  0.816807  0.722382  0.539190  1
  Lu  Lu2  1  0.183193  0.722382  0.905575  1
  Lu  Lu3  1  0.816807  0.277618  0.094425  1
  Lu  Lu4  1  0.321282  0.626885  0.305603  1
  Lu  Lu5  1  0.678718  0.373115  0.694397  1
  Lu  Lu6  1  0.321282  0.015680  0.694397  1
  Lu  Lu7  1  0.678718  0.984320  0.305603  1
  Lu  Lu8  1  0.413496  0.221561  0.191934  1
  Lu  Lu9  1  0.586504  0.778439  0.808066  1
  Lu  Lu10  1  0.029628  0.221561  0.808066  1
  Lu  Lu11  1  0.970372  0.778439  0.191934  1
  In  In12  1  0.500000  0.500000  0.000000  1
  Co  Co13  1  0.363704  0.000000  0.363704  1
  Co  Co14  1  0.636296  0.000000  0.636296  1
  Ni  Ni15  1  0.118196  0.618196  0.500000  1
  Ni  Ni16  1  0.881804  0.381804  0.500000  1
  Ru  Ru17  1  0.000000  0.000000  0.000000  1
