# generated using pymatgen
data_Sm5Lu(Si3Ru)8
_symmetry_space_group_name_H-M   'P 1'
_cell_length_a   10.13710913
_cell_length_b   10.13711002
_cell_length_c   8.19071600
_cell_angle_alpha   90.01951256
_cell_angle_beta   90.01951700
_cell_angle_gamma   132.36769695
_symmetry_Int_Tables_number   1
_chemical_formula_structural   Sm5Lu(Si3Ru)8
_chemical_formula_sum   'Sm5 Lu1 Si24 Ru8'
_cell_volume   621.86725001
_cell_formula_units_Z   1
loop_
 _symmetry_equiv_pos_site_id
 _symmetry_equiv_pos_as_xyz
  1  'x, y, z'
loop_
 _atom_site_type_symbol
 _atom_site_label
 _atom_site_symmetry_multiplicity
 _atom_site_fract_x
 _atom_site_fract_y
 _atom_site_fract_z
 _atom_site_occupancy
  Sm  Sm0  1  0.000000  0.000000  0.000000  1
  Sm  Sm1  1  0.502591  0.002344  0.749428  1
  Sm  Sm2  1  0.997656  0.497409  0.250572  1
  Sm  Sm3  1  0.497409  0.997656  0.250572  1
  Sm  Sm4  1  0.002344  0.502591  0.749428  1
  Lu  Lu5  1  0.500000  0.500000  0.500000  1
  Si  Si6  1  0.794167  0.205833  0.500000  1
  Si  Si7  1  0.295149  0.704851  0.000000  1
  Si  Si8  1  0.205833  0.794167  0.500000  1
  Si  Si9  1  0.704851  0.295149  0.000000  1
  Si  Si10  1  0.332476  0.332476  0.832707  1
  Si  Si11  1  0.667524  0.667524  0.167293  1
  Si  Si12  1  0.167512  0.167512  0.333338  1
  Si  Si13  1  0.832488  0.832488  0.666662  1
  Si  Si14  1  0.120325  0.886018  0.727338  1
  Si  Si15  1  0.113982  0.879675  0.272662  1
  Si  Si16  1  0.610593  0.377786  0.228958  1
  Si  Si17  1  0.622214  0.389407  0.771042  1
  Si  Si18  1  0.879675  0.113982  0.272662  1
  Si  Si19  1  0.886018  0.120325  0.727338  1
  Si  Si20  1  0.389407  0.622214  0.771042  1
  Si  Si21  1  0.377786  0.610593  0.228958  1
  Si  Si22  1  0.344667  0.111799  0.504550  1
  Si  Si23  1  0.888201  0.655333  0.495450  1
  Si  Si24  1  0.388140  0.155095  0.004577  1
  Si  Si25  1  0.844905  0.611860  0.995423  1
  Si  Si26  1  0.655333  0.888201  0.495450  1
  Si  Si27  1  0.111799  0.344667  0.504550  1
  Si  Si28  1  0.611860  0.844905  0.995423  1
  Si  Si29  1  0.155095  0.388140  0.004577  1
  Ru  Ru30  1  0.666784  0.333216  0.500000  1
  Ru  Ru31  1  0.168921  0.831079  0.000000  1
  Ru  Ru32  1  0.333216  0.666784  0.500000  1
  Ru  Ru33  1  0.831079  0.168921  0.000000  1
  Ru  Ru34  1  0.127367  0.127367  0.623947  1
  Ru  Ru35  1  0.872633  0.872633  0.376053  1
  Ru  Ru36  1  0.375985  0.375985  0.128760  1
  Ru  Ru37  1  0.624015  0.624015  0.871240  1
