# generated using pymatgen
data_Pr18Y2Si15Cl
_symmetry_space_group_name_H-M   'P 1'
_cell_length_a   7.94453379
_cell_length_b   7.87441383
_cell_length_c   15.25682738
_cell_angle_alpha   89.51401952
_cell_angle_beta   89.14290081
_cell_angle_gamma   90.76638698
_symmetry_Int_Tables_number   1
_chemical_formula_structural   Pr18Y2Si15Cl
_chemical_formula_sum   'Pr18 Y2 Si15 Cl1'
_cell_volume   954.21680803
_cell_formula_units_Z   1
loop_
 _symmetry_equiv_pos_site_id
 _symmetry_equiv_pos_as_xyz
  1  'x, y, z'
loop_
 _atom_site_type_symbol
 _atom_site_label
 _atom_site_symmetry_multiplicity
 _atom_site_fract_x
 _atom_site_fract_y
 _atom_site_fract_z
 _atom_site_occupancy
  Pr  Pr0  1  0.795504  0.189771  0.753014  1
  Pr  Pr1  1  0.687881  0.687934  0.497720  1
  Pr  Pr2  1  0.381032  0.002826  0.442017  1
  Pr  Pr3  1  0.499087  0.861238  0.701307  1
  Pr  Pr4  1  0.510555  0.123347  0.197001  1
  Pr  Pr5  1  0.873400  0.483284  0.299486  1
  Pr  Pr6  1  0.123907  0.517409  0.801941  1
  Pr  Pr7  1  0.634992  0.986386  0.953202  1
  Pr  Pr8  1  0.996300  0.382140  0.545984  1
  Pr  Pr9  1  0.994513  0.624524  0.052312  1
  Pr  Pr10  1  0.141285  0.989781  0.873819  1
  Pr  Pr11  1  0.519451  0.631420  0.124651  1
  Pr  Pr12  1  0.473836  0.362281  0.631709  1
  Pr  Pr13  1  0.636936  0.520772  0.876771  1
  Pr  Pr14  1  0.366306  0.475682  0.375531  1
  Pr  Pr15  1  0.870819  0.019069  0.376959  1
  Pr  Pr16  1  0.984447  0.126676  0.123518  1
  Pr  Pr17  1  0.019448  0.874655  0.621369  1
  Y  Y18  1  0.313072  0.311470  0.998866  1
  Y  Y19  1  0.186157  0.807776  0.249546  1
  Si  Si20  1  0.333078  0.696271  0.949580  1
  Si  Si21  1  0.660793  0.303266  0.453577  1
  Si  Si22  1  0.700531  0.334628  0.050875  1
  Si  Si23  1  0.302854  0.665349  0.551325  1
  Si  Si24  1  0.807589  0.829560  0.203398  1
  Si  Si25  1  0.169207  0.189867  0.295341  1
  Si  Si26  1  0.845416  0.804527  0.797821  1
  Si  Si27  1  0.288438  0.924336  0.060395  1
  Si  Si28  1  0.572521  0.784489  0.307603  1
  Si  Si29  1  0.448143  0.209353  0.826998  1
  Si  Si30  1  0.790840  0.578499  0.687832  1
  Si  Si31  1  0.212436  0.425450  0.188253  1
  Si  Si32  1  0.704398  0.073808  0.561320  1
  Si  Si33  1  0.932692  0.291892  0.940821  1
  Si  Si34  1  0.078201  0.712417  0.438137  1
  Cl  Cl35  1  0.143932  0.197849  0.690003  1
