# generated using pymatgen
data_Tm3MgHg2C
_symmetry_space_group_name_H-M   'P 1'
_cell_length_a   9.43893604
_cell_length_b   9.43893247
_cell_length_c   9.43893000
_cell_angle_alpha   59.99984043
_cell_angle_beta   59.99969172
_cell_angle_gamma   59.99976343
_symmetry_Int_Tables_number   1
_chemical_formula_structural   Tm3MgHg2C
_chemical_formula_sum   'Tm12 Mg4 Hg8 C4'
_cell_volume   594.63624520
_cell_formula_units_Z   4
loop_
 _symmetry_equiv_pos_site_id
 _symmetry_equiv_pos_as_xyz
  1  'x, y, z'
loop_
 _atom_site_type_symbol
 _atom_site_label
 _atom_site_symmetry_multiplicity
 _atom_site_fract_x
 _atom_site_fract_y
 _atom_site_fract_z
 _atom_site_occupancy
  Tm  Tm0  1  0.437716  0.437733  0.062278  1
  Tm  Tm1  1  0.062304  0.437707  0.062305  1
  Tm  Tm2  1  0.437710  0.062291  0.062291  1
  Tm  Tm3  1  0.062291  0.062289  0.437709  1
  Tm  Tm4  1  0.437714  0.062287  0.437713  1
  Tm  Tm5  1  0.062279  0.437733  0.437715  1
  Tm  Tm6  1  0.812277  0.812261  0.187728  1
  Tm  Tm7  1  0.187701  0.812289  0.187700  1
  Tm  Tm8  1  0.812282  0.187717  0.187716  1
  Tm  Tm9  1  0.187715  0.187717  0.812284  1
  Tm  Tm10  1  0.812280  0.187719  0.812281  1
  Tm  Tm11  1  0.187727  0.812262  0.812278  1
  Mg  Mg12  1  0.625003  0.625004  0.124992  1
  Mg  Mg13  1  0.624999  0.125000  0.625001  1
  Mg  Mg14  1  0.124995  0.625003  0.625001  1
  Mg  Mg15  1  0.625007  0.624994  0.625006  1
  Hg  Hg16  1  0.836087  0.836079  0.491747  1
  Hg  Hg17  1  0.836081  0.491750  0.836078  1
  Hg  Hg18  1  0.491745  0.836080  0.836085  1
  Hg  Hg19  1  0.836089  0.836089  0.836088  1
  Hg  Hg20  1  0.413916  0.413926  0.758241  1
  Hg  Hg21  1  0.413924  0.758237  0.413927  1
  Hg  Hg22  1  0.758241  0.413926  0.413919  1
  Hg  Hg23  1  0.413915  0.413916  0.413915  1
  C  C24  1  0.125001  0.125000  0.624996  1
  C  C25  1  0.125002  0.624995  0.125001  1
  C  C26  1  0.624995  0.125001  0.125001  1
  C  C27  1  0.125002  0.125000  0.125002  1
