# generated using pymatgen
data_Lu15Sc5Si15Au
_symmetry_space_group_name_H-M   'P 1'
_cell_length_a   7.18017755
_cell_length_b   7.42329685
_cell_length_c   14.15543373
_cell_angle_alpha   90.36596071
_cell_angle_beta   89.21438197
_cell_angle_gamma   90.12634535
_symmetry_Int_Tables_number   1
_chemical_formula_structural   Lu15Sc5Si15Au
_chemical_formula_sum   'Lu15 Sc5 Si15 Au1'
_cell_volume   754.40495498
_cell_formula_units_Z   1
loop_
 _symmetry_equiv_pos_site_id
 _symmetry_equiv_pos_as_xyz
  1  'x, y, z'
loop_
 _atom_site_type_symbol
 _atom_site_label
 _atom_site_symmetry_multiplicity
 _atom_site_fract_x
 _atom_site_fract_y
 _atom_site_fract_z
 _atom_site_occupancy
  Lu  Lu0  1  0.173409  0.991701  0.753200  1
  Lu  Lu1  1  0.826952  0.007655  0.248618  1
  Lu  Lu2  1  0.324385  0.497626  0.247130  1
  Lu  Lu3  1  0.677276  0.505421  0.752061  1
  Lu  Lu4  1  0.999275  0.669303  0.599854  1
  Lu  Lu5  1  0.998747  0.327937  0.399147  1
  Lu  Lu6  1  0.504235  0.184183  0.399228  1
  Lu  Lu7  1  0.006800  0.325755  0.093929  1
  Lu  Lu8  1  0.498275  0.818538  0.600815  1
  Lu  Lu9  1  0.993246  0.674121  0.906202  1
  Lu  Lu10  1  0.491855  0.821073  0.906451  1
  Lu  Lu11  1  0.507665  0.179356  0.093145  1
  Lu  Lu12  1  0.352422  0.322783  0.622225  1
  Lu  Lu13  1  0.652241  0.677587  0.377964  1
  Lu  Lu14  1  0.156659  0.830054  0.372890  1
  Sc  Sc15  1  0.661703  0.678598  0.121654  1
  Sc  Sc16  1  0.841911  0.171668  0.628613  1
  Sc  Sc17  1  0.337749  0.320684  0.878396  1
  Sc  Sc18  1  0.838301  0.178290  0.878176  1
  Sc  Sc19  1  0.159649  0.822273  0.122441  1
  Si  Si20  1  0.050024  0.378787  0.754670  1
  Si  Si21  1  0.949541  0.614640  0.243958  1
  Si  Si22  1  0.455040  0.891431  0.243622  1
  Si  Si23  1  0.548554  0.109746  0.754770  1
  Si  Si24  1  0.292698  0.622504  0.754514  1
  Si  Si25  1  0.706061  0.374954  0.244734  1
  Si  Si26  1  0.208832  0.132998  0.243002  1
  Si  Si27  1  0.792431  0.871225  0.756450  1
  Si  Si28  1  0.825028  0.974721  0.462558  1
  Si  Si29  1  0.313613  0.535397  0.458972  1
  Si  Si30  1  0.836891  0.965637  0.036573  1
  Si  Si31  1  0.689519  0.458528  0.540051  1
  Si  Si32  1  0.161284  0.034471  0.963689  1
  Si  Si33  1  0.664790  0.465419  0.962109  1
  Si  Si34  1  0.334637  0.536208  0.037121  1
  Au  Au35  1  0.168297  0.028725  0.541070  1
