# generated using pymatgen
data_Nd5Co16(P4W)3
_symmetry_space_group_name_H-M   'P 1'
_cell_length_a   12.26145000
_cell_length_b   12.26145034
_cell_length_c   3.77788300
_cell_angle_alpha   90.00000000
_cell_angle_beta   90.00000000
_cell_angle_gamma   120.00000448
_symmetry_Int_Tables_number   1
_chemical_formula_structural   Nd5Co16(P4W)3
_chemical_formula_sum   'Nd5 Co16 P12 W3'
_cell_volume   491.88410736
_cell_formula_units_Z   1
loop_
 _symmetry_equiv_pos_site_id
 _symmetry_equiv_pos_as_xyz
  1  'x, y, z'
loop_
 _atom_site_type_symbol
 _atom_site_label
 _atom_site_symmetry_multiplicity
 _atom_site_fract_x
 _atom_site_fract_y
 _atom_site_fract_z
 _atom_site_occupancy
  Nd  Nd0  1  0.666667  0.333333  0.000000  1
  Nd  Nd1  1  0.333333  0.666667  0.000000  1
  Nd  Nd2  1  0.813866  0.813866  0.500000  1
  Nd  Nd3  1  0.186134  0.000000  0.500000  1
  Nd  Nd4  1  0.000000  0.186134  0.500000  1
  Co  Co5  1  0.874903  0.357361  0.500000  1
  Co  Co6  1  0.642639  0.517542  0.500000  1
  Co  Co7  1  0.482458  0.125097  0.500000  1
  Co  Co8  1  0.357361  0.874903  0.500000  1
  Co  Co9  1  0.517542  0.642639  0.500000  1
  Co  Co10  1  0.125097  0.482458  0.500000  1
  Co  Co11  1  0.799368  0.176137  0.000000  1
  Co  Co12  1  0.823863  0.623230  0.000000  1
  Co  Co13  1  0.376770  0.200632  0.000000  1
  Co  Co14  1  0.176137  0.799368  0.000000  1
  Co  Co15  1  0.623230  0.823863  0.000000  1
  Co  Co16  1  0.200632  0.376770  0.000000  1
  Co  Co17  1  0.282702  0.282702  0.500000  1
  Co  Co18  1  0.717298  0.000000  0.500000  1
  Co  Co19  1  0.000000  0.717298  0.500000  1
  Co  Co20  1  0.000000  0.000000  0.000000  1
  P  P21  1  0.686864  0.163653  0.500000  1
  P  P22  1  0.836347  0.523211  0.500000  1
  P  P23  1  0.476789  0.313136  0.500000  1
  P  P24  1  0.163653  0.686864  0.500000  1
  P  P25  1  0.523211  0.836347  0.500000  1
  P  P26  1  0.313136  0.476789  0.500000  1
  P  P27  1  0.180690  0.180690  0.000000  1
  P  P28  1  0.819310  0.000000  0.000000  1
  P  P29  1  0.000000  0.819310  0.000000  1
  P  P30  1  0.636014  0.636014  0.000000  1
  P  P31  1  0.363986  0.000000  0.000000  1
  P  P32  1  0.000000  0.363986  0.000000  1
  W  W33  1  0.444699  0.444699  0.000000  1
  W  W34  1  0.555301  0.000000  0.000000  1
  W  W35  1  0.000000  0.555301  0.000000  1
