# generated using pymatgen
data_Ho19Er(Ir5Au)2
_symmetry_space_group_name_H-M   'P 1'
_cell_length_a   10.98489576
_cell_length_b   10.93779700
_cell_length_c   6.31666835
_cell_angle_alpha   90.00079761
_cell_angle_beta   89.82373508
_cell_angle_gamma   89.99760214
_symmetry_Int_Tables_number   1
_chemical_formula_structural   Ho19Er(Ir5Au)2
_chemical_formula_sum   'Ho19 Er1 Ir10 Au2'
_cell_volume   758.94764597
_cell_formula_units_Z   1
loop_
 _symmetry_equiv_pos_site_id
 _symmetry_equiv_pos_as_xyz
  1  'x, y, z'
loop_
 _atom_site_type_symbol
 _atom_site_label
 _atom_site_symmetry_multiplicity
 _atom_site_fract_x
 _atom_site_fract_y
 _atom_site_fract_z
 _atom_site_occupancy
  Ho  Ho0  1  0.292308  0.088127  0.372418  1
  Ho  Ho1  1  0.292298  0.911868  0.872464  1
  Ho  Ho2  1  0.698806  0.091713  0.866287  1
  Ho  Ho3  1  0.698790  0.908273  0.366220  1
  Ho  Ho4  1  0.578650  0.789537  0.877219  1
  Ho  Ho5  1  0.578624  0.210578  0.377257  1
  Ho  Ho6  1  0.409239  0.790655  0.376727  1
  Ho  Ho7  1  0.409196  0.209260  0.876670  1
  Ho  Ho8  1  0.209499  0.411458  0.621866  1
  Ho  Ho9  1  0.209417  0.588585  0.121906  1
  Ho  Ho10  1  0.789393  0.419291  0.122963  1
  Ho  Ho11  1  0.789303  0.580668  0.622975  1
  Ho  Ho12  1  0.916827  0.704970  0.137679  1
  Ho  Ho13  1  0.916795  0.295023  0.637707  1
  Ho  Ho14  1  0.095464  0.703645  0.624062  1
  Ho  Ho15  1  0.095447  0.296362  0.124021  1
  Ho  Ho16  1  0.008968  0.998407  0.499911  1
  Ho  Ho17  1  0.009007  0.001581  0.999915  1
  Ho  Ho18  1  0.499801  0.498967  0.000626  1
  Er  Er19  1  0.499698  0.501034  0.500638  1
  Ir  Ir20  1  0.153594  0.153822  0.750227  1
  Ir  Ir21  1  0.153586  0.846181  0.250217  1
  Ir  Ir22  1  0.655382  0.345929  0.748326  1
  Ir  Ir23  1  0.655371  0.654065  0.248879  1
  Ir  Ir24  1  0.347142  0.346196  0.251710  1
  Ir  Ir25  1  0.347177  0.653792  0.751189  1
  Ir  Ir26  1  0.500241  0.999700  0.121945  1
  Ir  Ir27  1  0.500258  0.000293  0.621908  1
  Ir  Ir28  1  0.999663  0.500718  0.877991  1
  Ir  Ir29  1  0.999664  0.499277  0.378002  1
  Au  Au30  1  0.845203  0.154727  0.250064  1
  Au  Au31  1  0.845187  0.845298  0.750012  1
