# generated using pymatgen
data_ErTm5(Sc2In3)2
_symmetry_space_group_name_H-M   'P 1'
_cell_length_a   6.19923400
_cell_length_b   8.84136342
_cell_length_c   8.84325777
_cell_angle_alpha   119.99291748
_cell_angle_beta   89.99990207
_cell_angle_gamma   90.00019235
_symmetry_Int_Tables_number   1
_chemical_formula_structural   ErTm5(Sc2In3)2
_chemical_formula_sum   'Er1 Tm5 Sc4 In6'
_cell_volume   419.78912017
_cell_formula_units_Z   1
loop_
 _symmetry_equiv_pos_site_id
 _symmetry_equiv_pos_as_xyz
  1  'x, y, z'
loop_
 _atom_site_type_symbol
 _atom_site_label
 _atom_site_symmetry_multiplicity
 _atom_site_fract_x
 _atom_site_fract_y
 _atom_site_fract_z
 _atom_site_occupancy
  Er  Er0  1  0.750009  0.235246  0.000000  1
  Tm  Tm1  1  0.749983  0.765087  0.765427  1
  Tm  Tm2  1  0.749983  0.999659  0.234573  1
  Tm  Tm3  1  0.250000  0.765020  0.000000  1
  Tm  Tm4  1  0.249987  0.234895  0.234623  1
  Tm  Tm5  1  0.249987  0.000272  0.765377  1
  Sc  Sc6  1  0.499990  0.333278  0.666431  1
  Sc  Sc7  1  0.499990  0.666846  0.333569  1
  Sc  Sc8  1  0.000024  0.666830  0.333573  1
  Sc  Sc9  1  0.000024  0.333258  0.666427  1
  In  In10  1  0.749992  0.592005  0.000000  1
  In  In11  1  0.750009  0.408009  0.408353  1
  In  In12  1  0.750009  0.999657  0.591647  1
  In  In13  1  0.250004  0.407983  0.000000  1
  In  In14  1  0.250005  0.591939  0.591922  1
  In  In15  1  0.250005  0.000017  0.408078  1
