# generated using pymatgen
data_NdTh2P3
_symmetry_space_group_name_H-M   'P 1'
_cell_length_a   7.17402061
_cell_length_b   7.17402062
_cell_length_c   7.17402046
_cell_angle_alpha   146.33558391
_cell_angle_beta   131.64131747
_cell_angle_gamma   60.21387990
_symmetry_Int_Tables_number   1
_chemical_formula_structural   NdTh2P3
_chemical_formula_sum   'Nd1 Th2 P3'
_cell_volume   151.53627385
_cell_formula_units_Z   1
loop_
 _symmetry_equiv_pos_site_id
 _symmetry_equiv_pos_as_xyz
  1  'x, y, z'
loop_
 _atom_site_type_symbol
 _atom_site_label
 _atom_site_symmetry_multiplicity
 _atom_site_fract_x
 _atom_site_fract_y
 _atom_site_fract_z
 _atom_site_occupancy
  Nd  Nd0  1  0.000000  0.000000  0.000000  1
  Th  Th1  1  0.666115  0.666115  0.000000  1
  Th  Th2  1  0.333885  0.333885  0.000000  1
  P  P3  1  0.500000  0.000000  0.500000  1
  P  P4  1  0.169109  0.669109  0.500000  1
  P  P5  1  0.830891  0.330891  0.500000  1
