# generated using pymatgen
data_Pa2TaTcC4
_symmetry_space_group_name_H-M   'P 1'
_cell_length_a   3.34688000
_cell_length_b   5.76236000
_cell_length_c   11.07346100
_cell_angle_alpha   90.00000000
_cell_angle_beta   90.00000000
_cell_angle_gamma   90.00000000
_symmetry_Int_Tables_number   1
_chemical_formula_structural   Pa2TaTcC4
_chemical_formula_sum   'Pa4 Ta2 Tc2 C8'
_cell_volume   213.56196532
_cell_formula_units_Z   2
loop_
 _symmetry_equiv_pos_site_id
 _symmetry_equiv_pos_as_xyz
  1  'x, y, z'
loop_
 _atom_site_type_symbol
 _atom_site_label
 _atom_site_symmetry_multiplicity
 _atom_site_fract_x
 _atom_site_fract_y
 _atom_site_fract_z
 _atom_site_occupancy
  Pa  Pa0  1  0.250000  0.082286  0.854765  1
  Pa  Pa1  1  0.250000  0.582286  0.645235  1
  Pa  Pa2  1  0.750000  0.918017  0.139317  1
  Pa  Pa3  1  0.750000  0.418017  0.360683  1
  Ta  Ta4  1  0.250000  0.418608  0.097747  1
  Ta  Ta5  1  0.250000  0.918608  0.402253  1
  Tc  Tc6  1  0.750000  0.581775  0.897417  1
  Tc  Tc7  1  0.750000  0.081775  0.602583  1
  C  C8  1  0.250000  0.163237  0.244636  1
  C  C9  1  0.250000  0.663237  0.255364  1
  C  C10  1  0.750000  0.840167  0.750033  1
  C  C11  1  0.750000  0.340167  0.749967  1
  C  C12  1  0.250000  0.742444  0.987226  1
  C  C13  1  0.250000  0.242444  0.512774  1
  C  C14  1  0.750000  0.253467  0.005081  1
  C  C15  1  0.750000  0.753467  0.494919  1
