# generated using pymatgen
data_LiSc4Ir2Ru
_symmetry_space_group_name_H-M   'P 1'
_cell_length_a   6.44585600
_cell_length_b   4.59754000
_cell_length_c   9.23658300
_cell_angle_alpha   90.00000000
_cell_angle_beta   90.00000000
_cell_angle_gamma   90.00000000
_symmetry_Int_Tables_number   1
_chemical_formula_structural   LiSc4Ir2Ru
_chemical_formula_sum   'Li2 Sc8 Ir4 Ru2'
_cell_volume   273.72688347
_cell_formula_units_Z   2
loop_
 _symmetry_equiv_pos_site_id
 _symmetry_equiv_pos_as_xyz
  1  'x, y, z'
loop_
 _atom_site_type_symbol
 _atom_site_label
 _atom_site_symmetry_multiplicity
 _atom_site_fract_x
 _atom_site_fract_y
 _atom_site_fract_z
 _atom_site_occupancy
  Li  Li0  1  0.249915  0.250000  0.124332  1
  Li  Li1  1  0.749914  0.750000  0.375667  1
  Sc  Sc2  1  0.995783  0.750000  0.120533  1
  Sc  Sc3  1  0.504016  0.750000  0.120566  1
  Sc  Sc4  1  0.004015  0.250000  0.379434  1
  Sc  Sc5  1  0.495784  0.250000  0.379466  1
  Sc  Sc6  1  0.496659  0.750000  0.629259  1
  Sc  Sc7  1  0.003550  0.750000  0.629233  1
  Sc  Sc8  1  0.503549  0.250000  0.870767  1
  Sc  Sc9  1  0.996658  0.250000  0.870741  1
  Ir  Ir10  1  0.749937  0.250000  0.127337  1
  Ir  Ir11  1  0.249936  0.750000  0.372663  1
  Ir  Ir12  1  0.750072  0.250000  0.621727  1
  Ir  Ir13  1  0.250071  0.750000  0.878272  1
  Ru  Ru14  1  0.250074  0.250000  0.624564  1
  Ru  Ru15  1  0.750073  0.750000  0.875435  1
