# generated using pymatgen
data_CaNpTcB6
_symmetry_space_group_name_H-M   'P 1'
_cell_length_a   3.62154800
_cell_length_b   9.26681500
_cell_length_c   11.35619700
_cell_angle_alpha   90.00000000
_cell_angle_beta   90.00000000
_cell_angle_gamma   90.00000000
_symmetry_Int_Tables_number   1
_chemical_formula_structural   CaNpTcB6
_chemical_formula_sum   'Ca4 Np4 Tc4 B24'
_cell_volume   381.11641665
_cell_formula_units_Z   4
loop_
 _symmetry_equiv_pos_site_id
 _symmetry_equiv_pos_as_xyz
  1  'x, y, z'
loop_
 _atom_site_type_symbol
 _atom_site_label
 _atom_site_symmetry_multiplicity
 _atom_site_fract_x
 _atom_site_fract_y
 _atom_site_fract_z
 _atom_site_occupancy
  Ca  Ca0  1  0.000000  0.340462  0.408486  1
  Ca  Ca1  1  0.000000  0.659538  0.591514  1
  Ca  Ca2  1  0.000000  0.840462  0.091514  1
  Ca  Ca3  1  0.000000  0.159538  0.908486  1
  Np  Np4  1  0.000000  0.959110  0.399888  1
  Np  Np5  1  0.000000  0.040890  0.600112  1
  Np  Np6  1  0.000000  0.459110  0.100112  1
  Np  Np7  1  0.000000  0.540890  0.899888  1
  Tc  Tc8  1  0.000000  0.648894  0.316179  1
  Tc  Tc9  1  0.000000  0.351106  0.683821  1
  Tc  Tc10  1  0.000000  0.148894  0.183821  1
  Tc  Tc11  1  0.000000  0.851106  0.816179  1
  B  B12  1  0.500000  0.553572  0.430630  1
  B  B13  1  0.500000  0.446428  0.569370  1
  B  B14  1  0.500000  0.053572  0.069370  1
  B  B15  1  0.500000  0.946428  0.930630  1
  B  B16  1  0.500000  0.745774  0.421374  1
  B  B17  1  0.500000  0.254226  0.578626  1
  B  B18  1  0.500000  0.245774  0.078626  1
  B  B19  1  0.500000  0.754226  0.921374  1
  B  B20  1  0.500000  0.805614  0.274640  1
  B  B21  1  0.500000  0.194386  0.725360  1
  B  B22  1  0.500000  0.305614  0.225360  1
  B  B23  1  0.500000  0.694386  0.774640  1
  B  B24  1  0.500000  0.643632  0.188279  1
  B  B25  1  0.500000  0.356368  0.811721  1
  B  B26  1  0.500000  0.143632  0.311721  1
  B  B27  1  0.500000  0.856368  0.688279  1
  B  B28  1  0.500000  0.990482  0.220472  1
  B  B29  1  0.500000  0.009518  0.779528  1
  B  B30  1  0.500000  0.490482  0.279528  1
  B  B31  1  0.500000  0.509518  0.720472  1
  B  B32  1  0.500000  0.637385  0.037796  1
  B  B33  1  0.500000  0.362615  0.962204  1
  B  B34  1  0.500000  0.137385  0.462204  1
  B  B35  1  0.500000  0.862615  0.537796  1
