# generated using pymatgen
data_Tb5Er7(TcRh)2
_symmetry_space_group_name_H-M   'P 1'
_cell_length_a   6.32402458
_cell_length_b   7.32051566
_cell_length_c   9.16129871
_cell_angle_alpha   89.95456526
_cell_angle_beta   89.84866165
_cell_angle_gamma   89.98295864
_symmetry_Int_Tables_number   1
_chemical_formula_structural   Tb5Er7(TcRh)2
_chemical_formula_sum   'Tb5 Er7 Tc2 Rh2'
_cell_volume   424.12180071
_cell_formula_units_Z   1
loop_
 _symmetry_equiv_pos_site_id
 _symmetry_equiv_pos_as_xyz
  1  'x, y, z'
loop_
 _atom_site_type_symbol
 _atom_site_label
 _atom_site_symmetry_multiplicity
 _atom_site_fract_x
 _atom_site_fract_y
 _atom_site_fract_z
 _atom_site_occupancy
  Tb  Tb0  1  0.670772  0.175994  0.065083  1
  Tb  Tb1  1  0.868152  0.959541  0.749424  1
  Tb  Tb2  1  0.367102  0.540306  0.250352  1
  Tb  Tb3  1  0.630675  0.461326  0.749657  1
  Tb  Tb4  1  0.131249  0.038548  0.250602  1
  Er  Er5  1  0.170293  0.324332  0.934114  1
  Er  Er6  1  0.832693  0.678749  0.437897  1
  Er  Er7  1  0.332607  0.821309  0.562103  1
  Er  Er8  1  0.332052  0.820791  0.937455  1
  Er  Er9  1  0.833063  0.678572  0.062105  1
  Er  Er10  1  0.170493  0.324171  0.565412  1
  Er  Er11  1  0.670769  0.175876  0.435358  1
  Tc  Tc12  1  0.039938  0.612495  0.750081  1
  Tc  Tc13  1  0.540036  0.887391  0.250425  1
  Rh  Rh14  1  0.454422  0.115304  0.749317  1
  Rh  Rh15  1  0.955682  0.385295  0.250614  1
