# generated using pymatgen
data_Y3ThAl18PdRh5
_symmetry_space_group_name_H-M   'P 1'
_cell_length_a   7.59622110
_cell_length_b   7.60617963
_cell_length_c   9.49585000
_cell_angle_alpha   90.03963003
_cell_angle_beta   90.00923977
_cell_angle_gamma   119.44965040
_symmetry_Int_Tables_number   1
_chemical_formula_structural   Y3ThAl18PdRh5
_chemical_formula_sum   'Y3 Th1 Al18 Pd1 Rh5'
_cell_volume   477.76059022
_cell_formula_units_Z   1
loop_
 _symmetry_equiv_pos_site_id
 _symmetry_equiv_pos_as_xyz
  1  'x, y, z'
loop_
 _atom_site_type_symbol
 _atom_site_label
 _atom_site_symmetry_multiplicity
 _atom_site_fract_x
 _atom_site_fract_y
 _atom_site_fract_z
 _atom_site_occupancy
  Y  Y0  1  0.004027  0.327837  0.749989  1
  Y  Y1  1  0.672425  0.995179  0.250095  1
  Y  Y2  1  0.329320  0.006324  0.749666  1
  Th  Th3  1  0.995130  0.671222  0.250687  1
  Al  Al4  1  0.131697  0.132281  0.250346  1
  Al  Al5  1  0.872392  0.873682  0.749424  1
  Al  Al6  1  0.004825  0.331308  0.073664  1
  Al  Al7  1  0.002945  0.668387  0.917889  1
  Al  Al8  1  0.000072  0.664049  0.580994  1
  Al  Al9  1  0.340074  0.004330  0.428404  1
  Al  Al10  1  0.000774  0.330913  0.428170  1
  Al  Al11  1  0.664787  0.000602  0.576094  1
  Al  Al12  1  0.664439  0.996261  0.922363  1
  Al  Al13  1  0.335804  0.001555  0.073053  1
  Al  Al14  1  0.331921  0.332150  0.553014  1
  Al  Al15  1  0.663339  0.666557  0.456266  1
  Al  Al16  1  0.662876  0.669187  0.046496  1
  Al  Al17  1  0.329419  0.332870  0.944456  1
  Al  Al18  1  0.344208  0.549180  0.250266  1
  Al  Al19  1  0.657912  0.450977  0.746651  1
  Al  Al20  1  0.543568  0.338025  0.253303  1
  Al  Al21  1  0.448260  0.660055  0.749473  1
  Pd  Pd22  1  0.673087  0.328625  0.999976  1
  Rh  Rh23  1  0.326780  0.671340  0.000261  1
  Rh  Rh24  1  0.326692  0.671425  0.499529  1
  Rh  Rh25  1  0.673085  0.328943  0.499705  1
  Rh  Rh26  1  0.999904  0.998520  0.000508  1
  Rh  Rh27  1  0.000234  0.998215  0.499258  1
