# generated using pymatgen
data_Ca7Ac3Ir4
_symmetry_space_group_name_H-M   'P 1'
_cell_length_a   8.91292014
_cell_length_b   8.95586143
_cell_length_c   7.67400319
_cell_angle_alpha   83.15577123
_cell_angle_beta   82.88400330
_cell_angle_gamma   44.85215833
_symmetry_Int_Tables_number   1
_chemical_formula_structural   Ca7Ac3Ir4
_chemical_formula_sum   'Ca7 Ac3 Ir4'
_cell_volume   428.26889752
_cell_formula_units_Z   1
loop_
 _symmetry_equiv_pos_site_id
 _symmetry_equiv_pos_as_xyz
  1  'x, y, z'
loop_
 _atom_site_type_symbol
 _atom_site_label
 _atom_site_symmetry_multiplicity
 _atom_site_fract_x
 _atom_site_fract_y
 _atom_site_fract_z
 _atom_site_occupancy
  Ca  Ca0  1  0.008436  0.813077  0.913121  1
  Ca  Ca1  1  0.190418  0.988618  0.589675  1
  Ca  Ca2  1  0.992598  0.185751  0.085040  1
  Ca  Ca3  1  0.814435  0.003766  0.411502  1
  Ca  Ca4  1  0.356865  0.202806  0.823645  1
  Ca  Ca5  1  0.788692  0.649014  0.683139  1
  Ca  Ca6  1  0.639956  0.798575  0.171975  1
  Ac  Ac7  1  0.201655  0.359475  0.324615  1
  Ac  Ac8  1  0.573891  0.426126  0.748255  1
  Ac  Ac9  1  0.433985  0.574960  0.248754  1
  Ir  Ir10  1  0.181347  0.595937  0.579353  1
  Ir  Ir11  1  0.396095  0.816656  0.919403  1
  Ir  Ir12  1  0.829163  0.401195  0.417346  1
  Ir  Ir13  1  0.592461  0.184041  0.084178  1
