# generated using pymatgen
data_Zr6In4CCl18
_symmetry_space_group_name_H-M   'P 1'
_cell_length_a   9.84263432
_cell_length_b   10.01986345
_cell_length_c   10.09821200
_cell_angle_alpha   118.38333624
_cell_angle_beta   100.01070785
_cell_angle_gamma   103.96896179
_symmetry_Int_Tables_number   1
_chemical_formula_structural   Zr6In4CCl18
_chemical_formula_sum   'Zr6 In4 C1 Cl18'
_cell_volume   800.22630130
_cell_formula_units_Z   1
loop_
 _symmetry_equiv_pos_site_id
 _symmetry_equiv_pos_as_xyz
  1  'x, y, z'
loop_
 _atom_site_type_symbol
 _atom_site_label
 _atom_site_symmetry_multiplicity
 _atom_site_fract_x
 _atom_site_fract_y
 _atom_site_fract_z
 _atom_site_occupancy
  Zr  Zr0  1  0.346904  0.443359  0.766342  1
  Zr  Zr1  1  0.359459  0.628954  0.136047  1
  Zr  Zr2  1  0.648060  0.742291  0.045235  1
  Zr  Zr3  1  0.653098  0.556680  0.233693  1
  Zr  Zr4  1  0.352176  0.257806  0.955096  1
  Zr  Zr5  1  0.640753  0.371134  0.864240  1
  In  In6  1  0.179425  0.722547  0.558114  1
  In  In7  1  0.850697  0.962974  0.774468  1
  In  In8  1  0.149031  0.036465  0.224986  1
  In  In9  1  0.820086  0.277692  0.441683  1
  C  C10  1  0.500196  0.500087  0.000280  1
  Cl  Cl11  1  0.823413  0.420822  0.109873  1
  Cl  Cl12  1  0.515236  0.705132  0.411033  1
  Cl  Cl13  1  0.173233  0.976268  0.898766  1
  Cl  Cl14  1  0.176777  0.579079  0.890344  1
  Cl  Cl15  1  0.831929  0.835085  0.312530  1
  Cl  Cl16  1  0.504084  0.294690  0.210887  1
  Cl  Cl17  1  0.798752  0.222215  0.707474  1
  Cl  Cl18  1  0.168368  0.165260  0.687891  1
  Cl  Cl19  1  0.508081  0.911553  0.197554  1
  Cl  Cl20  1  0.819794  0.627929  0.901339  1
  Cl  Cl21  1  0.200706  0.777739  0.291668  1
  Cl  Cl22  1  0.163136  0.377160  0.496441  1
  Cl  Cl23  1  0.495950  0.705226  0.789401  1
  Cl  Cl24  1  0.826399  0.023525  0.100488  1
  Cl  Cl25  1  0.484817  0.295048  0.589354  1
  Cl  Cl26  1  0.180144  0.372067  0.098509  1
  Cl  Cl27  1  0.837489  0.622819  0.504030  1
  Cl  Cl28  1  0.491807  0.088396  0.802234  1
