# generated using pymatgen
data_PrAg3(PSe4)2
_symmetry_space_group_name_H-M   'P 1'
_cell_length_a   10.32957902
_cell_length_b   10.32957909
_cell_length_c   10.02621291
_cell_angle_alpha   61.09910005
_cell_angle_beta   61.09910272
_cell_angle_gamma   57.33226779
_symmetry_Int_Tables_number   1
_chemical_formula_structural   PrAg3(PSe4)2
_chemical_formula_sum   'Pr2 Ag6 P4 Se16'
_cell_volume   751.64628764
_cell_formula_units_Z   2
loop_
 _symmetry_equiv_pos_site_id
 _symmetry_equiv_pos_as_xyz
  1  'x, y, z'
loop_
 _atom_site_type_symbol
 _atom_site_label
 _atom_site_symmetry_multiplicity
 _atom_site_fract_x
 _atom_site_fract_y
 _atom_site_fract_z
 _atom_site_occupancy
  Pr  Pr0  1  0.039211  0.960789  0.250000  1
  Pr  Pr1  1  0.960789  0.039211  0.750000  1
  Ag  Ag2  1  0.760126  0.535883  0.227141  1
  Ag  Ag3  1  0.464117  0.239874  0.272859  1
  Ag  Ag4  1  0.239874  0.464117  0.772859  1
  Ag  Ag5  1  0.535883  0.760126  0.727141  1
  Ag  Ag6  1  0.428755  0.571245  0.250000  1
  Ag  Ag7  1  0.571245  0.428755  0.750000  1
  P  P8  1  0.851866  0.344609  0.932711  1
  P  P9  1  0.655391  0.148134  0.567289  1
  P  P10  1  0.148134  0.655391  0.067289  1
  P  P11  1  0.344609  0.851866  0.432711  1
  Se  Se12  1  0.223864  0.866212  0.918792  1
  Se  Se13  1  0.614356  0.109111  0.820402  1
  Se  Se14  1  0.328129  0.418718  0.018115  1
  Se  Se15  1  0.109111  0.614356  0.320402  1
  Se  Se16  1  0.735539  0.920685  0.523768  1
  Se  Se17  1  0.776136  0.133788  0.081208  1
  Se  Se18  1  0.079315  0.264461  0.976232  1
  Se  Se19  1  0.264461  0.079315  0.476232  1
  Se  Se20  1  0.920685  0.735539  0.023768  1
  Se  Se21  1  0.866212  0.223864  0.418792  1
  Se  Se22  1  0.890889  0.385644  0.679598  1
  Se  Se23  1  0.385644  0.890889  0.179598  1
  Se  Se24  1  0.671871  0.581282  0.981885  1
  Se  Se25  1  0.418718  0.328129  0.518115  1
  Se  Se26  1  0.133788  0.776136  0.581208  1
  Se  Se27  1  0.581282  0.671871  0.481885  1
