# generated using pymatgen
data_YTa5B4(Os2Ru3)2
_symmetry_space_group_name_H-M   'P 1'
_cell_length_a   9.51320657
_cell_length_b   9.58612792
_cell_length_c   3.05945200
_cell_angle_alpha   90.00000000
_cell_angle_beta   90.00000000
_cell_angle_gamma   90.36611857
_symmetry_Int_Tables_number   1
_chemical_formula_structural   YTa5B4(Os2Ru3)2
_chemical_formula_sum   'Y1 Ta5 B4 Os4 Ru6'
_cell_volume   279.00046311
_cell_formula_units_Z   1
loop_
 _symmetry_equiv_pos_site_id
 _symmetry_equiv_pos_as_xyz
  1  'x, y, z'
loop_
 _atom_site_type_symbol
 _atom_site_label
 _atom_site_symmetry_multiplicity
 _atom_site_fract_x
 _atom_site_fract_y
 _atom_site_fract_z
 _atom_site_occupancy
  Y  Y0  1  0.824655  0.675915  0.000000  1
  Ta  Ta1  1  0.178396  0.320596  0.000000  1
  Ta  Ta2  1  0.325254  0.823465  0.000000  1
  Ta  Ta3  1  0.676457  0.177028  0.000000  1
  Ta  Ta4  1  0.500861  0.500875  0.000000  1
  Ta  Ta5  1  0.998627  0.998673  0.000000  1
  B  B6  1  0.618242  0.880928  0.000000  1
  B  B7  1  0.377931  0.122468  0.000000  1
  B  B8  1  0.122571  0.620115  0.000000  1
  B  B9  1  0.880433  0.377197  0.000000  1
  Os  Os10  1  0.556210  0.725984  0.500000  1
  Os  Os11  1  0.426849  0.281947  0.500000  1
  Os  Os12  1  0.084819  0.782207  0.500000  1
  Os  Os13  1  0.929842  0.216961  0.500000  1
  Ru  Ru14  1  0.284041  0.567083  0.500000  1
  Ru  Ru15  1  0.716767  0.419554  0.500000  1
  Ru  Ru16  1  0.216558  0.071855  0.500000  1
  Ru  Ru17  1  0.775206  0.941497  0.500000  1
  Ru  Ru18  1  0.496735  0.004654  0.500000  1
  Ru  Ru19  1  0.009546  0.490997  0.500000  1
