# generated using pymatgen
data_Dy3HoSc4(B6Ir)4
_symmetry_space_group_name_H-M   'P 1'
_cell_length_a   3.54722600
_cell_length_b   9.01151600
_cell_length_c   11.38042200
_cell_angle_alpha   90.00255172
_cell_angle_beta   90.00000000
_cell_angle_gamma   90.00000000
_symmetry_Int_Tables_number   1
_chemical_formula_structural   Dy3HoSc4(B6Ir)4
_chemical_formula_sum   'Dy3 Ho1 Sc4 B24 Ir4'
_cell_volume   363.78524769
_cell_formula_units_Z   1
loop_
 _symmetry_equiv_pos_site_id
 _symmetry_equiv_pos_as_xyz
  1  'x, y, z'
loop_
 _atom_site_type_symbol
 _atom_site_label
 _atom_site_symmetry_multiplicity
 _atom_site_fract_x
 _atom_site_fract_y
 _atom_site_fract_z
 _atom_site_occupancy
  Dy  Dy0  1  0.500000  0.319972  0.414052  1
  Dy  Dy1  1  0.500000  0.680038  0.585917  1
  Dy  Dy2  1  0.500000  0.180053  0.914077  1
  Ho  Ho3  1  0.500000  0.819869  0.085922  1
  Sc  Sc4  1  0.500000  0.445180  0.124220  1
  Sc  Sc5  1  0.500000  0.554916  0.875829  1
  Sc  Sc6  1  0.500000  0.054862  0.624220  1
  Sc  Sc7  1  0.500000  0.945119  0.375754  1
  B  B8  1  0.000000  0.100271  0.472883  1
  B  B9  1  0.000000  0.899712  0.527086  1
  B  B10  1  0.000000  0.399718  0.972908  1
  B  B11  1  0.000000  0.600514  0.027182  1
  B  B12  1  0.000000  0.129875  0.318412  1
  B  B13  1  0.000000  0.870105  0.681583  1
  B  B14  1  0.000000  0.370107  0.818448  1
  B  B15  1  0.000000  0.630072  0.181452  1
  B  B16  1  0.000000  0.054556  0.065729  1
  B  B17  1  0.000000  0.945169  0.934440  1
  B  B18  1  0.000000  0.445294  0.565716  1
  B  B19  1  0.000000  0.554715  0.434262  1
  B  B20  1  0.000000  0.481803  0.285035  1
  B  B21  1  0.000000  0.518232  0.714956  1
  B  B22  1  0.000000  0.018198  0.785056  1
  B  B23  1  0.000000  0.981618  0.214848  1
  B  B24  1  0.000000  0.253968  0.080284  1
  B  B25  1  0.000000  0.746092  0.919927  1
  B  B26  1  0.000000  0.246018  0.580259  1
  B  B27  1  0.000000  0.753988  0.419709  1
  B  B28  1  0.000000  0.295692  0.235406  1
  B  B29  1  0.000000  0.704313  0.764616  1
  B  B30  1  0.000000  0.204286  0.735439  1
  B  B31  1  0.000000  0.795763  0.264385  1
  Ir  Ir32  1  0.500000  0.141264  0.181417  1
  Ir  Ir33  1  0.500000  0.858556  0.818661  1
  Ir  Ir34  1  0.500000  0.358540  0.681517  1
  Ir  Ir35  1  0.500000  0.641551  0.318395  1
