# generated using pymatgen
data_La4NdP12Pd3Ru16
_symmetry_space_group_name_H-M   'P 1'
_cell_length_a   12.75858600
_cell_length_b   12.75858649
_cell_length_c   4.04059300
_cell_angle_alpha   90.00000000
_cell_angle_beta   90.00000000
_cell_angle_gamma   120.00000911
_symmetry_Int_Tables_number   1
_chemical_formula_structural   La4NdP12Pd3Ru16
_chemical_formula_sum   'La4 Nd1 P12 Pd3 Ru16'
_cell_volume   569.61419854
_cell_formula_units_Z   1
loop_
 _symmetry_equiv_pos_site_id
 _symmetry_equiv_pos_as_xyz
  1  'x, y, z'
loop_
 _atom_site_type_symbol
 _atom_site_label
 _atom_site_symmetry_multiplicity
 _atom_site_fract_x
 _atom_site_fract_y
 _atom_site_fract_z
 _atom_site_occupancy
  La  La0  1  0.999839  0.180683  0.500000  1
  La  La1  1  0.819317  0.819156  0.500000  1
  La  La2  1  0.180844  0.000161  0.500000  1
  La  La3  1  0.666667  0.333333  0.000000  1
  Nd  Nd4  1  0.333333  0.666667  0.000000  1
  P  P5  1  0.000925  0.809663  0.000000  1
  P  P6  1  0.190337  0.191262  0.000000  1
  P  P7  1  0.808738  0.999075  0.000000  1
  P  P8  1  0.701461  0.178325  0.500000  1
  P  P9  1  0.821675  0.523135  0.500000  1
  P  P10  1  0.476865  0.298539  0.500000  1
  P  P11  1  0.180570  0.701579  0.500000  1
  P  P12  1  0.521009  0.819430  0.500000  1
  P  P13  1  0.298421  0.478991  0.500000  1
  P  P14  1  0.999660  0.369958  0.000000  1
  P  P15  1  0.630042  0.629702  0.000000  1
  P  P16  1  0.370298  0.000340  0.000000  1
  Pd  Pd17  1  0.999885  0.553562  0.000000  1
  Pd  Pd18  1  0.446438  0.446323  0.000000  1
  Pd  Pd19  1  0.553677  0.000115  0.000000  1
  Ru  Ru20  1  0.000944  0.709244  0.500000  1
  Ru  Ru21  1  0.290756  0.291700  0.500000  1
  Ru  Ru22  1  0.708300  0.999056  0.500000  1
  Ru  Ru23  1  0.805144  0.185128  0.000000  1
  Ru  Ru24  1  0.814872  0.620016  0.000000  1
  Ru  Ru25  1  0.379984  0.194856  0.000000  1
  Ru  Ru26  1  0.186716  0.805046  0.000000  1
  Ru  Ru27  1  0.618330  0.813284  0.000000  1
  Ru  Ru28  1  0.194954  0.381670  0.000000  1
  Ru  Ru29  1  0.878286  0.369534  0.500000  1
  Ru  Ru30  1  0.630466  0.508752  0.500000  1
  Ru  Ru31  1  0.491248  0.121714  0.500000  1
  Ru  Ru32  1  0.370687  0.877246  0.500000  1
  Ru  Ru33  1  0.506559  0.629313  0.500000  1
  Ru  Ru34  1  0.122754  0.493441  0.500000  1
  Ru  Ru35  1  0.000000  0.000000  0.000000  1
