# generated using pymatgen
data_TbY3(Ga5Rh3)2
_symmetry_space_group_name_H-M   'P 1'
_cell_length_a   8.60742136
_cell_length_b   8.61097415
_cell_length_c   5.68794200
_cell_angle_alpha   70.70591698
_cell_angle_beta   70.69742495
_cell_angle_gamma   96.67894797
_symmetry_Int_Tables_number   1
_chemical_formula_structural   TbY3(Ga5Rh3)2
_chemical_formula_sum   'Tb1 Y3 Ga10 Rh6'
_cell_volume   363.29956940
_cell_formula_units_Z   1
loop_
 _symmetry_equiv_pos_site_id
 _symmetry_equiv_pos_as_xyz
  1  'x, y, z'
loop_
 _atom_site_type_symbol
 _atom_site_label
 _atom_site_symmetry_multiplicity
 _atom_site_fract_x
 _atom_site_fract_y
 _atom_site_fract_z
 _atom_site_occupancy
  Tb  Tb0  1  0.867451  0.584689  0.774721  1
  Y  Y1  1  0.414758  0.132503  0.725634  1
  Y  Y2  1  0.132442  0.414657  0.225666  1
  Y  Y3  1  0.585216  0.867609  0.274346  1
  Ga  Ga4  1  0.092174  0.265109  0.820901  1
  Ga  Ga5  1  0.735272  0.907715  0.678935  1
  Ga  Ga6  1  0.908048  0.735314  0.178727  1
  Ga  Ga7  1  0.264696  0.092100  0.321276  1
  Ga  Ga8  1  0.202267  0.798054  0.750038  1
  Ga  Ga9  1  0.797807  0.202045  0.250215  1
  Ga  Ga10  1  0.500084  0.499809  0.749902  1
  Ga  Ga11  1  0.499745  0.500069  0.250168  1
  Ga  Ga12  1  0.797486  0.202289  0.749977  1
  Ga  Ga13  1  0.202525  0.797770  0.249660  1
  Rh  Rh14  1  0.261896  0.563159  0.587996  1
  Rh  Rh15  1  0.437070  0.737671  0.912142  1
  Rh  Rh16  1  0.738060  0.437166  0.411755  1
  Rh  Rh17  1  0.562917  0.262120  0.088036  1
  Rh  Rh18  1  0.999760  0.000382  0.750423  1
  Rh  Rh19  1  0.000327  0.999769  0.249481  1
