# generated using pymatgen
data_Th2CuBRh5
_symmetry_space_group_name_H-M   'P 1'
_cell_length_a   5.90144045
_cell_length_b   5.90144007
_cell_length_c   6.00574900
_cell_angle_alpha   59.41356168
_cell_angle_beta   59.41356386
_cell_angle_gamma   61.17285965
_symmetry_Int_Tables_number   1
_chemical_formula_structural   Th2CuBRh5
_chemical_formula_sum   'Th2 Cu1 B1 Rh5'
_cell_volume   147.80591406
_cell_formula_units_Z   1
loop_
 _symmetry_equiv_pos_site_id
 _symmetry_equiv_pos_as_xyz
  1  'x, y, z'
loop_
 _atom_site_type_symbol
 _atom_site_label
 _atom_site_symmetry_multiplicity
 _atom_site_fract_x
 _atom_site_fract_y
 _atom_site_fract_z
 _atom_site_occupancy
  Th  Th0  1  0.749101  0.749101  0.750899  1
  Th  Th1  1  0.249101  0.249101  0.250899  1
  Cu  Cu2  1  0.764590  0.764590  0.235410  1
  B  B3  1  0.497166  0.497166  0.502834  1
  Rh  Rh4  1  0.751615  0.247188  0.248385  1
  Rh  Rh5  1  0.247188  0.751615  0.248385  1
  Rh  Rh6  1  0.242436  0.242436  0.757564  1
  Rh  Rh7  1  0.751615  0.247188  0.752812  1
  Rh  Rh8  1  0.247188  0.751615  0.752812  1
