# generated using pymatgen
data_Tb5ZnGaRu3
_symmetry_space_group_name_H-M   'P 1'
_cell_length_a   8.36980692
_cell_length_b   8.36980805
_cell_length_c   8.31483000
_cell_angle_alpha   109.51702800
_cell_angle_beta   109.51017478
_cell_angle_gamma   109.65324741
_symmetry_Int_Tables_number   1
_chemical_formula_structural   Tb5ZnGaRu3
_chemical_formula_sum   'Tb10 Zn2 Ga2 Ru6'
_cell_volume   446.91359635
_cell_formula_units_Z   2
loop_
 _symmetry_equiv_pos_site_id
 _symmetry_equiv_pos_as_xyz
  1  'x, y, z'
loop_
 _atom_site_type_symbol
 _atom_site_label
 _atom_site_symmetry_multiplicity
 _atom_site_fract_x
 _atom_site_fract_y
 _atom_site_fract_z
 _atom_site_occupancy
  Tb  Tb0  1  0.251655  0.683217  0.434815  1
  Tb  Tb1  1  0.748400  0.816839  0.065185  1
  Tb  Tb2  1  0.432682  0.250937  0.684170  1
  Tb  Tb3  1  0.683125  0.433125  0.250000  1
  Tb  Tb4  1  0.066767  0.748511  0.815830  1
  Tb  Tb5  1  0.817006  0.067006  0.750000  1
  Tb  Tb6  1  0.218854  0.218940  0.218820  1
  Tb  Tb7  1  0.500120  0.000035  0.281180  1
  Tb  Tb8  1  0.280683  0.499773  0.999956  1
  Tb  Tb9  1  0.999817  0.280727  0.500044  1
  Zn  Zn10  1  0.589030  0.587870  0.587616  1
  Zn  Zn11  1  0.500252  0.001413  0.912384  1
  Ga  Ga12  1  0.911534  0.501654  0.001909  1
  Ga  Ga13  1  0.999744  0.909624  0.498091  1
  Ru  Ru14  1  0.245372  0.125095  0.873797  1
  Ru  Ru15  1  0.751297  0.371575  0.626203  1
  Ru  Ru16  1  0.881436  0.255339  0.128334  1
  Ru  Ru17  1  0.124990  0.874989  0.250000  1
  Ru  Ru18  1  0.627005  0.753103  0.371666  1
  Ru  Ru19  1  0.370231  0.620231  0.750000  1
