# generated using pymatgen
data_TbY3Al4Ir3Pd
_symmetry_space_group_name_H-M   'P 1'
_cell_length_a   4.32265100
_cell_length_b   6.88574186
_cell_length_c   7.89674023
_cell_angle_alpha   89.86316450
_cell_angle_beta   90.00000000
_cell_angle_gamma   90.00000000
_symmetry_Int_Tables_number   1
_chemical_formula_structural   TbY3Al4Ir3Pd
_chemical_formula_sum   'Tb1 Y3 Al4 Ir3 Pd1'
_cell_volume   235.04310953
_cell_formula_units_Z   1
loop_
 _symmetry_equiv_pos_site_id
 _symmetry_equiv_pos_as_xyz
  1  'x, y, z'
loop_
 _atom_site_type_symbol
 _atom_site_label
 _atom_site_symmetry_multiplicity
 _atom_site_fract_x
 _atom_site_fract_y
 _atom_site_fract_z
 _atom_site_occupancy
  Tb  Tb0  1  0.750000  0.971174  0.679755  1
  Y  Y1  1  0.250000  0.025507  0.322510  1
  Y  Y2  1  0.250000  0.536539  0.181958  1
  Y  Y3  1  0.750000  0.473854  0.815761  1
  Al  Al4  1  0.250000  0.140003  0.934579  1
  Al  Al5  1  0.250000  0.640893  0.562887  1
  Al  Al6  1  0.750000  0.853572  0.061912  1
  Al  Al7  1  0.750000  0.361002  0.441690  1
  Ir  Ir8  1  0.250000  0.269221  0.618761  1
  Ir  Ir9  1  0.250000  0.770036  0.881480  1
  Ir  Ir10  1  0.750000  0.730459  0.379765  1
  Pd  Pd11  1  0.750000  0.227740  0.118945  1
