# generated using pymatgen
data_Ho4Ga16TcNi2
_symmetry_space_group_name_H-M   'P 1'
_cell_length_a   6.09271800
_cell_length_b   6.09271800
_cell_length_c   11.08036200
_cell_angle_alpha   90.00000000
_cell_angle_beta   90.00000000
_cell_angle_gamma   90.00000000
_symmetry_Int_Tables_number   1
_chemical_formula_structural   Ho4Ga16TcNi2
_chemical_formula_sum   'Ho4 Ga16 Tc1 Ni2'
_cell_volume   411.31647379
_cell_formula_units_Z   1
loop_
 _symmetry_equiv_pos_site_id
 _symmetry_equiv_pos_as_xyz
  1  'x, y, z'
loop_
 _atom_site_type_symbol
 _atom_site_label
 _atom_site_symmetry_multiplicity
 _atom_site_fract_x
 _atom_site_fract_y
 _atom_site_fract_z
 _atom_site_occupancy
  Ho  Ho0  1  0.500000  0.000000  0.808515  1
  Ho  Ho1  1  0.000000  0.500000  0.808515  1
  Ho  Ho2  1  0.500000  0.000000  0.191485  1
  Ho  Ho3  1  0.000000  0.500000  0.191485  1
  Ga  Ga4  1  0.250385  0.250385  0.617111  1
  Ga  Ga5  1  0.749615  0.749615  0.617111  1
  Ga  Ga6  1  0.749615  0.250385  0.617111  1
  Ga  Ga7  1  0.250385  0.749615  0.617111  1
  Ga  Ga8  1  0.749615  0.749615  0.382889  1
  Ga  Ga9  1  0.250385  0.250385  0.382889  1
  Ga  Ga10  1  0.250385  0.749615  0.382889  1
  Ga  Ga11  1  0.749615  0.250385  0.382889  1
  Ga  Ga12  1  0.287582  0.287582  0.000000  1
  Ga  Ga13  1  0.712418  0.712418  0.000000  1
  Ga  Ga14  1  0.712418  0.287582  0.000000  1
  Ga  Ga15  1  0.287582  0.712418  0.000000  1
  Ga  Ga16  1  0.500000  0.500000  0.800917  1
  Ga  Ga17  1  0.500000  0.500000  0.199083  1
  Ga  Ga18  1  0.000000  0.000000  0.772693  1
  Ga  Ga19  1  0.000000  0.000000  0.227307  1
  Tc  Tc20  1  0.000000  0.000000  0.000000  1
  Ni  Ni21  1  0.500000  0.000000  0.500000  1
  Ni  Ni22  1  0.000000  0.500000  0.500000  1
