# generated using pymatgen
data_TbEr(PdO2)4
_symmetry_space_group_name_H-M   'P 1'
_cell_length_a   6.51321454
_cell_length_b   6.51321588
_cell_length_c   6.51321524
_cell_angle_alpha   126.89506657
_cell_angle_beta   126.89507202
_cell_angle_gamma   78.42193116
_symmetry_Int_Tables_number   1
_chemical_formula_structural   TbEr(PdO2)4
_chemical_formula_sum   'Tb1 Er1 Pd4 O8'
_cell_volume   171.11865770
_cell_formula_units_Z   1
loop_
 _symmetry_equiv_pos_site_id
 _symmetry_equiv_pos_as_xyz
  1  'x, y, z'
loop_
 _atom_site_type_symbol
 _atom_site_label
 _atom_site_symmetry_multiplicity
 _atom_site_fract_x
 _atom_site_fract_y
 _atom_site_fract_z
 _atom_site_occupancy
  Tb  Tb0  1  0.000000  0.000000  0.000000  1
  Er  Er1  1  0.750000  0.250000  0.500000  1
  Pd  Pd2  1  0.374293  0.624405  0.248856  1
  Pd  Pd3  1  0.874564  0.625707  0.250112  1
  Pd  Pd4  1  0.375548  0.125436  0.751144  1
  Pd  Pd5  1  0.375595  0.624452  0.749888  1
  O  O6  1  0.991198  0.962128  0.349461  1
  O  O7  1  0.707805  0.863568  0.465199  1
  O  O8  1  0.398370  0.242607  0.534801  1
  O  O9  1  0.612667  0.641737  0.650539  1
  O  O10  1  0.757393  0.292195  0.155763  1
  O  O11  1  0.037872  0.387333  0.029069  1
  O  O12  1  0.136432  0.601630  0.844237  1
  O  O13  1  0.358263  0.008802  0.970931  1
