# generated using pymatgen
data_Li4Ac3NdIn8
_symmetry_space_group_name_H-M   'P 1'
_cell_length_a   5.04291700
_cell_length_b   7.30404711
_cell_length_c   11.54091099
_cell_angle_alpha   89.57916675
_cell_angle_beta   90.00000000
_cell_angle_gamma   90.00000000
_symmetry_Int_Tables_number   1
_chemical_formula_structural   Li4Ac3NdIn8
_chemical_formula_sum   'Li4 Ac3 Nd1 In8'
_cell_volume   425.08302526
_cell_formula_units_Z   1
loop_
 _symmetry_equiv_pos_site_id
 _symmetry_equiv_pos_as_xyz
  1  'x, y, z'
loop_
 _atom_site_type_symbol
 _atom_site_label
 _atom_site_symmetry_multiplicity
 _atom_site_fract_x
 _atom_site_fract_y
 _atom_site_fract_z
 _atom_site_occupancy
  Li  Li0  1  0.250000  0.462213  0.390325  1
  Li  Li1  1  0.250000  0.939622  0.114265  1
  Li  Li2  1  0.750000  0.555300  0.615409  1
  Li  Li3  1  0.750000  0.041581  0.894079  1
  Ac  Ac4  1  0.250000  0.243959  0.651854  1
  Ac  Ac5  1  0.250000  0.732427  0.846222  1
  Ac  Ac6  1  0.750000  0.771605  0.345149  1
  Nd  Nd7  1  0.750000  0.258614  0.149410  1
  In  In8  1  0.250000  0.242291  0.955450  1
  In  In9  1  0.250000  0.759048  0.549218  1
  In  In10  1  0.750000  0.733286  0.051424  1
  In  In11  1  0.750000  0.261647  0.443126  1
  In  In12  1  0.250000  0.090283  0.338216  1
  In  In13  1  0.250000  0.547564  0.153323  1
  In  In14  1  0.750000  0.939409  0.649675  1
  In  In15  1  0.750000  0.421152  0.852854  1
