# generated using pymatgen
data_LuNb6TlCl18
_symmetry_space_group_name_H-M   'P 1'
_cell_length_a   10.20696120
_cell_length_b   10.20398870
_cell_length_c   10.20635100
_cell_angle_alpha   55.63407962
_cell_angle_beta   55.63478619
_cell_angle_gamma   55.64760477
_symmetry_Int_Tables_number   1
_chemical_formula_structural   LuNb6TlCl18
_chemical_formula_sum   'Lu1 Nb6 Tl1 Cl18'
_cell_volume   675.59441184
_cell_formula_units_Z   1
loop_
 _symmetry_equiv_pos_site_id
 _symmetry_equiv_pos_as_xyz
  1  'x, y, z'
loop_
 _atom_site_type_symbol
 _atom_site_label
 _atom_site_symmetry_multiplicity
 _atom_site_fract_x
 _atom_site_fract_y
 _atom_site_fract_z
 _atom_site_occupancy
  Lu  Lu0  1  0.498676  0.498690  0.498676  1
  Nb  Nb1  1  0.803379  0.149981  0.907732  1
  Nb  Nb2  1  0.907732  0.803293  0.150025  1
  Nb  Nb3  1  0.150003  0.907745  0.803334  1
  Nb  Nb4  1  0.197823  0.850420  0.091009  1
  Nb  Nb5  1  0.091026  0.197915  0.850362  1
  Nb  Nb6  1  0.850396  0.091011  0.197862  1
  Tl  Tl7  1  0.221775  0.221760  0.221885  1
  Cl  Cl8  1  0.870341  0.411285  0.722677  1
  Cl  Cl9  1  0.722830  0.870161  0.411280  1
  Cl  Cl10  1  0.411173  0.722795  0.870292  1
  Cl  Cl11  1  0.128501  0.588732  0.279587  1
  Cl  Cl12  1  0.279498  0.128676  0.588718  1
  Cl  Cl13  1  0.588860  0.279488  0.128534  1
  Cl  Cl14  1  0.541710  0.342559  0.791371  1
  Cl  Cl15  1  0.791446  0.541481  0.342656  1
  Cl  Cl16  1  0.342538  0.791424  0.541654  1
  Cl  Cl17  1  0.454631  0.659502  0.211099  1
  Cl  Cl18  1  0.211028  0.454922  0.659402  1
  Cl  Cl19  1  0.659546  0.211029  0.454709  1
  Cl  Cl20  1  0.660429  0.943390  0.067316  1
  Cl  Cl21  1  0.067310  0.660327  0.943461  1
  Cl  Cl22  1  0.943476  0.067307  0.660372  1
  Cl  Cl23  1  0.341968  0.056056  0.929116  1
  Cl  Cl24  1  0.929087  0.342090  0.055981  1
  Cl  Cl25  1  0.055957  0.929102  0.342027  1
