# generated using pymatgen
data_Ce2Ta3Ge4
_symmetry_space_group_name_H-M   'P 1'
_cell_length_a   7.11981900
_cell_length_b   7.22140000
_cell_length_c   13.64240700
_cell_angle_alpha   90.00000000
_cell_angle_beta   90.00000000
_cell_angle_gamma   90.00000000
_symmetry_Int_Tables_number   1
_chemical_formula_structural   Ce2Ta3Ge4
_chemical_formula_sum   'Ce8 Ta12 Ge16'
_cell_volume   701.42518709
_cell_formula_units_Z   4
loop_
 _symmetry_equiv_pos_site_id
 _symmetry_equiv_pos_as_xyz
  1  'x, y, z'
loop_
 _atom_site_type_symbol
 _atom_site_label
 _atom_site_symmetry_multiplicity
 _atom_site_fract_x
 _atom_site_fract_y
 _atom_site_fract_z
 _atom_site_occupancy
  Ce  Ce0  1  0.494441  0.670109  0.592713  1
  Ce  Ce1  1  0.994441  0.829891  0.907287  1
  Ce  Ce2  1  0.505559  0.329891  0.092713  1
  Ce  Ce3  1  0.005559  0.170109  0.407287  1
  Ce  Ce4  1  0.505559  0.329891  0.407287  1
  Ce  Ce5  1  0.005559  0.170109  0.092713  1
  Ce  Ce6  1  0.494441  0.670109  0.907287  1
  Ce  Ce7  1  0.994441  0.829891  0.592713  1
  Ta  Ta8  1  0.659169  0.165842  0.626834  1
  Ta  Ta9  1  0.159169  0.334158  0.873166  1
  Ta  Ta10  1  0.340831  0.834158  0.126834  1
  Ta  Ta11  1  0.840831  0.665842  0.373166  1
  Ta  Ta12  1  0.340831  0.834158  0.373166  1
  Ta  Ta13  1  0.840831  0.665842  0.126834  1
  Ta  Ta14  1  0.659169  0.165842  0.873166  1
  Ta  Ta15  1  0.159169  0.334158  0.626834  1
  Ta  Ta16  1  0.834470  0.490180  0.750000  1
  Ta  Ta17  1  0.334470  0.009820  0.750000  1
  Ta  Ta18  1  0.165530  0.509820  0.250000  1
  Ta  Ta19  1  0.665530  0.990180  0.250000  1
  Ge  Ge20  1  0.672289  0.955224  0.455350  1
  Ge  Ge21  1  0.172289  0.544776  0.044650  1
  Ge  Ge22  1  0.327711  0.044776  0.955350  1
  Ge  Ge23  1  0.827711  0.455224  0.544650  1
  Ge  Ge24  1  0.327711  0.044776  0.544650  1
  Ge  Ge25  1  0.827711  0.455224  0.955350  1
  Ge  Ge26  1  0.672289  0.955224  0.044650  1
  Ge  Ge27  1  0.172289  0.544776  0.455350  1
  Ge  Ge28  1  0.460571  0.374648  0.750000  1
  Ge  Ge29  1  0.960571  0.125352  0.750000  1
  Ge  Ge30  1  0.539429  0.625352  0.250000  1
  Ge  Ge31  1  0.039429  0.874648  0.250000  1
  Ge  Ge32  1  0.690489  0.861331  0.750000  1
  Ge  Ge33  1  0.190489  0.638669  0.750000  1
  Ge  Ge34  1  0.309511  0.138669  0.250000  1
  Ge  Ge35  1  0.809511  0.361331  0.250000  1
