# generated using pymatgen
data_Er2LuMg3Ge2Pd
_symmetry_space_group_name_H-M   'P 1'
_cell_length_a   7.21019300
_cell_length_b   7.21019274
_cell_length_c   4.23572300
_cell_angle_alpha   90.00000000
_cell_angle_beta   90.00000000
_cell_angle_gamma   120.02991429
_symmetry_Int_Tables_number   1
_chemical_formula_structural   Er2LuMg3Ge2Pd
_chemical_formula_sum   'Er2 Lu1 Mg3 Ge2 Pd1'
_cell_volume   190.64304069
_cell_formula_units_Z   1
loop_
 _symmetry_equiv_pos_site_id
 _symmetry_equiv_pos_as_xyz
  1  'x, y, z'
loop_
 _atom_site_type_symbol
 _atom_site_label
 _atom_site_symmetry_multiplicity
 _atom_site_fract_x
 _atom_site_fract_y
 _atom_site_fract_z
 _atom_site_occupancy
  Er  Er0  1  0.581999  0.000040  0.500000  1
  Er  Er1  1  0.000040  0.581999  0.500000  1
  Lu  Lu2  1  0.417870  0.417870  0.500000  1
  Mg  Mg3  1  0.756900  0.756900  0.000000  1
  Mg  Mg4  1  0.242812  0.000354  0.000000  1
  Mg  Mg5  1  0.000354  0.242812  0.000000  1
  Ge  Ge6  1  0.666148  0.333374  0.000000  1
  Ge  Ge7  1  0.333374  0.666148  0.000000  1
  Pd  Pd8  1  0.000504  0.000504  0.500000  1
