# generated using pymatgen
data_Hf4Sc2GeAs5Ru6
_symmetry_space_group_name_H-M   'P 1'
_cell_length_a   7.68549741
_cell_length_b   7.69402526
_cell_length_c   7.68549753
_cell_angle_alpha   128.26530669
_cell_angle_beta   120.44264319
_cell_angle_gamma   82.73111243
_symmetry_Int_Tables_number   1
_chemical_formula_structural   Hf4Sc2GeAs5Ru6
_chemical_formula_sum   'Hf4 Sc2 Ge1 As5 Ru6'
_cell_volume   295.62329505
_cell_formula_units_Z   1
loop_
 _symmetry_equiv_pos_site_id
 _symmetry_equiv_pos_as_xyz
  1  'x, y, z'
loop_
 _atom_site_type_symbol
 _atom_site_label
 _atom_site_symmetry_multiplicity
 _atom_site_fract_x
 _atom_site_fract_y
 _atom_site_fract_z
 _atom_site_occupancy
  Hf  Hf0  1  0.750251  0.833918  0.583666  1
  Hf  Hf1  1  0.248723  0.830301  0.081577  1
  Hf  Hf2  1  0.054630  0.257739  0.703109  1
  Hf  Hf3  1  0.947703  0.653209  0.205506  1
  Sc  Sc4  1  0.471865  0.703467  0.731601  1
  Sc  Sc5  1  0.526790  0.257062  0.230273  1
  Ge  Ge6  1  0.280321  0.279366  0.499046  1
  As  As7  1  0.720202  0.217665  0.997463  1
  As  As8  1  0.329939  0.585299  0.250618  1
  As  As9  1  0.669638  0.921264  0.256955  1
  As  As10  1  0.164309  0.921264  0.751626  1
  As  As11  1  0.834682  0.585299  0.755360  1
  Ru  Ru12  1  0.503991  0.497572  0.001317  1
  Ru  Ru13  1  0.996255  0.497572  0.493581  1
  Ru  Ru14  1  0.087713  0.252010  0.095149  1
  Ru  Ru15  1  0.910827  0.007291  0.161992  1
  Ru  Ru16  1  0.345300  0.007291  0.596465  1
  Ru  Ru17  1  0.656861  0.252010  0.664297  1
