# generated using pymatgen
data_Co4ReMo6WC2
_symmetry_space_group_name_H-M   'P 1'
_cell_length_a   8.01517914
_cell_length_b   7.97826901
_cell_length_c   7.97826953
_cell_angle_alpha   59.71538178
_cell_angle_beta   59.84684791
_cell_angle_gamma   59.84685735
_symmetry_Int_Tables_number   1
_chemical_formula_structural   Co4ReMo6WC2
_chemical_formula_sum   'Co8 Re2 Mo12 W2 C4'
_cell_volume   359.14337239
_cell_formula_units_Z   2
loop_
 _symmetry_equiv_pos_site_id
 _symmetry_equiv_pos_as_xyz
  1  'x, y, z'
loop_
 _atom_site_type_symbol
 _atom_site_label
 _atom_site_symmetry_multiplicity
 _atom_site_fract_x
 _atom_site_fract_y
 _atom_site_fract_z
 _atom_site_occupancy
  Co  Co0  1  0.919562  0.240537  0.920339  1
  Co  Co1  1  0.246075  0.918339  0.918339  1
  Co  Co2  1  0.919562  0.920339  0.240537  1
  Co  Co3  1  0.003925  0.331661  0.331661  1
  Co  Co4  1  0.330438  0.009463  0.329661  1
  Co  Co5  1  0.917246  0.918339  0.918339  1
  Co  Co6  1  0.332754  0.331661  0.331661  1
  Co  Co7  1  0.330438  0.329661  0.009463  1
  Re  Re8  1  0.625000  0.125000  0.125000  1
  Re  Re9  1  0.125000  0.125000  0.125000  1
  Mo  Mo10  1  0.564012  0.938297  0.559508  1
  Mo  Mo11  1  0.685988  0.311703  0.690492  1
  Mo  Mo12  1  0.685988  0.690492  0.311703  1
  Mo  Mo13  1  0.311817  0.311703  0.690492  1
  Mo  Mo14  1  0.690362  0.309638  0.309638  1
  Mo  Mo15  1  0.314103  0.685897  0.685897  1
  Mo  Mo16  1  0.935897  0.564103  0.564103  1
  Mo  Mo17  1  0.938183  0.938297  0.559508  1
  Mo  Mo18  1  0.311817  0.690492  0.311703  1
  Mo  Mo19  1  0.564012  0.559508  0.938297  1
  Mo  Mo20  1  0.938183  0.559508  0.938297  1
  Mo  Mo21  1  0.559638  0.940362  0.940362  1
  W  W22  1  0.125000  0.125000  0.625000  1
  W  W23  1  0.125000  0.625000  0.125000  1
  C  C24  1  0.625000  0.625000  0.625000  1
  C  C25  1  0.125000  0.625000  0.625000  1
  C  C26  1  0.625000  0.125000  0.625000  1
  C  C27  1  0.625000  0.625000  0.125000  1
