# generated using pymatgen
data_Pr4NdRu2
_symmetry_space_group_name_H-M   'P 1'
_cell_length_a   8.94750743
_cell_length_b   8.94750753
_cell_length_c   7.44429284
_cell_angle_alpha   83.98736216
_cell_angle_beta   83.98736281
_cell_angle_gamma   43.75445185
_symmetry_Int_Tables_number   1
_chemical_formula_structural   Pr4NdRu2
_chemical_formula_sum   'Pr8 Nd2 Ru4'
_cell_volume   409.52341544
_cell_formula_units_Z   2
loop_
 _symmetry_equiv_pos_site_id
 _symmetry_equiv_pos_as_xyz
  1  'x, y, z'
loop_
 _atom_site_type_symbol
 _atom_site_label
 _atom_site_symmetry_multiplicity
 _atom_site_fract_x
 _atom_site_fract_y
 _atom_site_fract_z
 _atom_site_occupancy
  Pr  Pr0  1  0.018800  0.797758  0.913722  1
  Pr  Pr1  1  0.202242  0.981200  0.586278  1
  Pr  Pr2  1  0.981200  0.202242  0.086278  1
  Pr  Pr3  1  0.797758  0.018800  0.413722  1
  Pr  Pr4  1  0.360375  0.208426  0.814659  1
  Pr  Pr5  1  0.791574  0.639625  0.685341  1
  Pr  Pr6  1  0.639625  0.791574  0.185341  1
  Pr  Pr7  1  0.208426  0.360375  0.314659  1
  Nd  Nd8  1  0.573728  0.426272  0.750000  1
  Nd  Nd9  1  0.426272  0.573728  0.250000  1
  Ru  Ru10  1  0.177656  0.601170  0.575253  1
  Ru  Ru11  1  0.398830  0.822344  0.924747  1
  Ru  Ru12  1  0.822344  0.398830  0.424747  1
  Ru  Ru13  1  0.601170  0.177656  0.075253  1
