# generated using pymatgen
data_TbNd7GaPd24
_symmetry_space_group_name_H-M   'P 1'
_cell_length_a   8.47509404
_cell_length_b   8.47509404
_cell_length_c   8.47509404
_cell_angle_alpha   89.99180599
_cell_angle_beta   89.99180599
_cell_angle_gamma   89.99180599
_symmetry_Int_Tables_number   1
_chemical_formula_structural   TbNd7GaPd24
_chemical_formula_sum   'Tb1 Nd7 Ga1 Pd24'
_cell_volume   608.74241759
_cell_formula_units_Z   1
loop_
 _symmetry_equiv_pos_site_id
 _symmetry_equiv_pos_as_xyz
  1  'x, y, z'
loop_
 _atom_site_type_symbol
 _atom_site_label
 _atom_site_symmetry_multiplicity
 _atom_site_fract_x
 _atom_site_fract_y
 _atom_site_fract_z
 _atom_site_occupancy
  Tb  Tb0  1  0.252211  0.252211  0.252211  1
  Nd  Nd1  1  0.252036  0.252036  0.748002  1
  Nd  Nd2  1  0.252036  0.748002  0.252036  1
  Nd  Nd3  1  0.748002  0.252036  0.252036  1
  Nd  Nd4  1  0.748099  0.748099  0.748099  1
  Nd  Nd5  1  0.748037  0.748037  0.251911  1
  Nd  Nd6  1  0.748037  0.251911  0.748037  1
  Nd  Nd7  1  0.251911  0.748037  0.748037  1
  Ga  Ga8  1  0.000030  0.000030  0.000030  1
  Pd  Pd9  1  0.500178  0.500178  0.746959  1
  Pd  Pd10  1  0.498074  0.253042  0.498074  1
  Pd  Pd11  1  0.253042  0.498074  0.498074  1
  Pd  Pd12  1  0.498074  0.498074  0.253042  1
  Pd  Pd13  1  0.500178  0.746959  0.500178  1
  Pd  Pd14  1  0.746959  0.500178  0.500178  1
  Pd  Pd15  1  0.999914  0.999914  0.706996  1
  Pd  Pd16  1  0.001638  0.292667  0.001638  1
  Pd  Pd17  1  0.292667  0.001638  0.001638  1
  Pd  Pd18  1  0.001638  0.001638  0.292667  1
  Pd  Pd19  1  0.999914  0.706996  0.999914  1
  Pd  Pd20  1  0.706996  0.999914  0.999914  1
  Pd  Pd21  1  0.999833  0.500155  0.739715  1
  Pd  Pd22  1  0.498319  0.260275  0.001868  1
  Pd  Pd23  1  0.260275  0.001868  0.498319  1
  Pd  Pd24  1  0.001868  0.260275  0.498319  1
  Pd  Pd25  1  0.500155  0.999833  0.739715  1
  Pd  Pd26  1  0.260275  0.498319  0.001868  1
  Pd  Pd27  1  0.001868  0.498319  0.260275  1
  Pd  Pd28  1  0.500155  0.739715  0.999833  1
  Pd  Pd29  1  0.999833  0.739715  0.500155  1
  Pd  Pd30  1  0.498319  0.001868  0.260275  1
  Pd  Pd31  1  0.739715  0.999833  0.500155  1
  Pd  Pd32  1  0.739715  0.500155  0.999833  1
