# generated using pymatgen
data_Y8VSi16Tc11
_symmetry_space_group_name_H-M   'P 1'
_cell_length_a   6.81889803
_cell_length_b   6.80237126
_cell_length_c   12.68414632
_cell_angle_alpha   89.63449651
_cell_angle_beta   89.69204336
_cell_angle_gamma   90.03783484
_symmetry_Int_Tables_number   1
_chemical_formula_structural   Y8VSi16Tc11
_chemical_formula_sum   'Y8 V1 Si16 Tc11'
_cell_volume   588.32940496
_cell_formula_units_Z   1
loop_
 _symmetry_equiv_pos_site_id
 _symmetry_equiv_pos_as_xyz
  1  'x, y, z'
loop_
 _atom_site_type_symbol
 _atom_site_label
 _atom_site_symmetry_multiplicity
 _atom_site_fract_x
 _atom_site_fract_y
 _atom_site_fract_z
 _atom_site_occupancy
  Y  Y0  1  0.002604  0.665398  0.030051  1
  Y  Y1  1  0.835490  0.500527  0.279651  1
  Y  Y2  1  0.160813  0.495825  0.780408  1
  Y  Y3  1  0.501312  0.837699  0.719936  1
  Y  Y4  1  0.493640  0.161586  0.219095  1
  Y  Y5  1  0.992687  0.336116  0.531814  1
  Y  Y6  1  0.661349  0.005642  0.968791  1
  Y  Y7  1  0.334947  0.998376  0.470123  1
  V  V8  1  0.829020  0.997664  0.377681  1
  Si  Si9  1  0.272785  0.979062  0.063048  1
  Si  Si10  1  0.528027  0.782870  0.314492  1
  Si  Si11  1  0.483094  0.234092  0.811602  1
  Si  Si12  1  0.768841  0.519946  0.688724  1
  Si  Si13  1  0.218680  0.474037  0.184552  1
  Si  Si14  1  0.720502  0.027756  0.565967  1
  Si  Si15  1  0.981058  0.273341  0.938783  1
  Si  Si16  1  0.036014  0.712199  0.434340  1
  Si  Si17  1  0.693071  0.384682  0.063481  1
  Si  Si18  1  0.115039  0.196263  0.314314  1
  Si  Si19  1  0.886052  0.809781  0.811373  1
  Si  Si20  1  0.192456  0.114935  0.686826  1
  Si  Si21  1  0.803864  0.885598  0.189179  1
  Si  Si22  1  0.308040  0.613864  0.560813  1
  Si  Si23  1  0.386705  0.692093  0.937060  1
  Si  Si24  1  0.618981  0.302064  0.435842  1
  Tc  Tc25  1  0.333606  0.333612  0.999580  1
  Tc  Tc26  1  0.162222  0.836143  0.251934  1
  Tc  Tc27  1  0.831673  0.167286  0.750509  1
  Tc  Tc28  1  0.664059  0.671230  0.496927  1
  Tc  Tc29  1  0.977781  0.183805  0.130289  1
  Tc  Tc30  1  0.325044  0.487696  0.372726  1
  Tc  Tc31  1  0.689450  0.524308  0.881804  1
  Tc  Tc32  1  0.477151  0.314283  0.619865  1
  Tc  Tc33  1  0.512314  0.675715  0.124793  1
  Tc  Tc34  1  0.017699  0.823680  0.622803  1
  Tc  Tc35  1  0.183928  0.980827  0.870825  1
