# generated using pymatgen
data_Tb16CdCo(HgRu)3
_symmetry_space_group_name_H-M   'P 1'
_cell_length_a   9.65767036
_cell_length_b   9.64083320
_cell_length_c   9.58609820
_cell_angle_alpha   59.72174233
_cell_angle_beta   59.75270826
_cell_angle_gamma   59.94221957
_symmetry_Int_Tables_number   1
_chemical_formula_structural   Tb16CdCo(HgRu)3
_chemical_formula_sum   'Tb16 Cd1 Co1 Hg3 Ru3'
_cell_volume   628.33154029
_cell_formula_units_Z   1
loop_
 _symmetry_equiv_pos_site_id
 _symmetry_equiv_pos_as_xyz
  1  'x, y, z'
loop_
 _atom_site_type_symbol
 _atom_site_label
 _atom_site_symmetry_multiplicity
 _atom_site_fract_x
 _atom_site_fract_y
 _atom_site_fract_z
 _atom_site_occupancy
  Tb  Tb0  1  0.439327  0.438143  0.057667  1
  Tb  Tb1  1  0.595128  0.595413  0.601895  1
  Tb  Tb2  1  0.187483  0.815508  0.809526  1
  Tb  Tb3  1  0.060164  0.059421  0.438474  1
  Tb  Tb4  1  0.440097  0.062973  0.056831  1
  Tb  Tb5  1  0.814685  0.187022  0.809611  1
  Tb  Tb6  1  0.441941  0.059421  0.438474  1
  Tb  Tb7  1  0.595339  0.207040  0.602281  1
  Tb  Tb8  1  0.809769  0.810258  0.190159  1
  Tb  Tb9  1  0.207563  0.595413  0.601895  1
  Tb  Tb10  1  0.809352  0.190298  0.190998  1
  Tb  Tb11  1  0.060892  0.439631  0.438585  1
  Tb  Tb12  1  0.189814  0.810258  0.190159  1
  Tb  Tb13  1  0.597434  0.597232  0.207898  1
  Tb  Tb14  1  0.188681  0.187022  0.809611  1
  Tb  Tb15  1  0.064862  0.438143  0.057667  1
  Cd  Cd16  1  0.829882  0.511947  0.828288  1
  Co  Co17  1  0.389653  0.390608  0.830087  1
  Hg  Hg18  1  0.835024  0.832204  0.497746  1
  Hg  Hg19  1  0.835385  0.832658  0.833593  1
  Hg  Hg20  1  0.498362  0.832658  0.833593  1
  Ru  Ru21  1  0.388565  0.388378  0.391283  1
  Ru  Ru22  1  0.831774  0.388378  0.391283  1
  Ru  Ru23  1  0.388818  0.829969  0.392395  1
