# generated using pymatgen
data_Nd2TcO5
_symmetry_space_group_name_H-M   'P 1'
_cell_length_a   6.93810077
_cell_length_b   6.93810054
_cell_length_c   6.93810080
_cell_angle_alpha   100.39520322
_cell_angle_beta   100.39520147
_cell_angle_gamma   129.72670302
_symmetry_Int_Tables_number   1
_chemical_formula_structural   Nd2TcO5
_chemical_formula_sum   'Nd4 Tc2 O10'
_cell_volume   232.53956200
_cell_formula_units_Z   2
loop_
 _symmetry_equiv_pos_site_id
 _symmetry_equiv_pos_as_xyz
  1  'x, y, z'
loop_
 _atom_site_type_symbol
 _atom_site_label
 _atom_site_symmetry_multiplicity
 _atom_site_fract_x
 _atom_site_fract_y
 _atom_site_fract_z
 _atom_site_occupancy
  Nd  Nd0  1  0.817485  0.398194  0.215678  1
  Nd  Nd1  1  0.398194  0.182515  0.580710  1
  Nd  Nd2  1  0.601806  0.817485  0.419290  1
  Nd  Nd3  1  0.182515  0.601806  0.784322  1
  Tc  Tc4  1  0.188370  0.188370  0.000000  1
  Tc  Tc5  1  0.811630  0.811630  0.000000  1
  O  O6  1  0.351187  0.064092  0.905962  1
  O  O7  1  0.064092  0.158130  0.712905  1
  O  O8  1  0.445226  0.351187  0.287095  1
  O  O9  1  0.158130  0.445226  0.094038  1
  O  O10  1  0.648813  0.935908  0.094038  1
  O  O11  1  0.935908  0.841870  0.287095  1
  O  O12  1  0.250000  0.750000  0.500000  1
  O  O13  1  0.750000  0.250000  0.500000  1
  O  O14  1  0.841870  0.554774  0.905962  1
  O  O15  1  0.554774  0.648813  0.712905  1
