# generated using pymatgen
data_Dy3TmHf3O12
_symmetry_space_group_name_H-M   'P 1'
_cell_length_a   6.31013278
_cell_length_b   6.35090995
_cell_length_c   6.56636476
_cell_angle_alpha   99.95280103
_cell_angle_beta   98.15968434
_cell_angle_gamma   99.76517603
_symmetry_Int_Tables_number   1
_chemical_formula_structural   Dy3TmHf3O12
_chemical_formula_sum   'Dy3 Tm1 Hf3 O12'
_cell_volume   251.42559447
_cell_formula_units_Z   1
loop_
 _symmetry_equiv_pos_site_id
 _symmetry_equiv_pos_as_xyz
  1  'x, y, z'
loop_
 _atom_site_type_symbol
 _atom_site_label
 _atom_site_symmetry_multiplicity
 _atom_site_fract_x
 _atom_site_fract_y
 _atom_site_fract_z
 _atom_site_occupancy
  Dy  Dy0  1  0.385471  0.698579  0.865761  1
  Dy  Dy1  1  0.696722  0.865589  0.390107  1
  Dy  Dy2  1  0.613376  0.299956  0.133218  1
  Tm  Tm3  1  0.304727  0.135019  0.610195  1
  Hf  Hf4  1  0.001117  0.000839  0.000440  1
  Hf  Hf5  1  0.848659  0.396666  0.668797  1
  Hf  Hf6  1  0.151565  0.602764  0.332823  1
  O  O7  1  0.019469  0.678284  0.880184  1
  O  O8  1  0.686891  0.933537  0.058983  1
  O  O9  1  0.920706  0.088357  0.698706  1
  O  O10  1  0.979911  0.321675  0.119609  1
  O  O11  1  0.312994  0.067034  0.937047  1
  O  O12  1  0.082352  0.914375  0.302545  1
  O  O13  1  0.588107  0.190318  0.436941  1
  O  O14  1  0.170968  0.425570  0.572176  1
  O  O15  1  0.412750  0.582903  0.181521  1
  O  O16  1  0.406885  0.812477  0.564786  1
  O  O17  1  0.831703  0.570951  0.428031  1
  O  O18  1  0.585625  0.415107  0.818130  1
