# generated using pymatgen
data_Tb9Y3Os3Rh
_symmetry_space_group_name_H-M   'P 1'
_cell_length_a   6.41495117
_cell_length_b   7.38113668
_cell_length_c   9.18392918
_cell_angle_alpha   89.99708183
_cell_angle_beta   89.97742398
_cell_angle_gamma   90.23348564
_symmetry_Int_Tables_number   1
_chemical_formula_structural   Tb9Y3Os3Rh
_chemical_formula_sum   'Tb9 Y3 Os3 Rh1'
_cell_volume   434.85201634
_cell_formula_units_Z   1
loop_
 _symmetry_equiv_pos_site_id
 _symmetry_equiv_pos_as_xyz
  1  'x, y, z'
loop_
 _atom_site_type_symbol
 _atom_site_label
 _atom_site_symmetry_multiplicity
 _atom_site_fract_x
 _atom_site_fract_y
 _atom_site_fract_z
 _atom_site_occupancy
  Tb  Tb0  1  0.826028  0.824142  0.932746  1
  Tb  Tb1  1  0.670754  0.324253  0.935353  1
  Tb  Tb2  1  0.825746  0.824495  0.567388  1
  Tb  Tb3  1  0.333390  0.672503  0.437654  1
  Tb  Tb4  1  0.170195  0.178439  0.062809  1
  Tb  Tb5  1  0.866299  0.538972  0.249691  1
  Tb  Tb6  1  0.633210  0.040600  0.250019  1
  Tb  Tb7  1  0.131323  0.461400  0.749852  1
  Tb  Tb8  1  0.366691  0.961363  0.749992  1
  Y  Y9  1  0.333328  0.673138  0.061869  1
  Y  Y10  1  0.170232  0.177822  0.437836  1
  Y  Y11  1  0.670446  0.324315  0.564071  1
  Os  Os12  1  0.460155  0.382653  0.250300  1
  Os  Os13  1  0.960775  0.115329  0.750133  1
  Os  Os14  1  0.538625  0.616960  0.750353  1
  Rh  Rh15  1  0.042805  0.883619  0.249935  1
