# generated using pymatgen
data_Zr10InSn5O
_symmetry_space_group_name_H-M   'P 1'
_cell_length_a   8.51574948
_cell_length_b   8.52908232
_cell_length_c   5.79226572
_cell_angle_alpha   89.88894475
_cell_angle_beta   90.05561419
_cell_angle_gamma   120.05180529
_symmetry_Int_Tables_number   1
_chemical_formula_structural   Zr10InSn5O
_chemical_formula_sum   'Zr10 In1 Sn5 O1'
_cell_volume   364.14682386
_cell_formula_units_Z   1
loop_
 _symmetry_equiv_pos_site_id
 _symmetry_equiv_pos_as_xyz
  1  'x, y, z'
loop_
 _atom_site_type_symbol
 _atom_site_label
 _atom_site_symmetry_multiplicity
 _atom_site_fract_x
 _atom_site_fract_y
 _atom_site_fract_z
 _atom_site_occupancy
  Zr  Zr0  1  0.000000  0.765817  0.256309  1
  Zr  Zr1  1  0.234369  0.234189  0.256821  1
  Zr  Zr2  1  0.765631  0.999820  0.256821  1
  Zr  Zr3  1  0.000000  0.234037  0.743218  1
  Zr  Zr4  1  0.765537  0.765599  0.743232  1
  Zr  Zr5  1  0.234463  0.000063  0.743232  1
  Zr  Zr6  1  0.333389  0.666851  0.500054  1
  Zr  Zr7  1  0.666611  0.333461  0.500054  1
  Zr  Zr8  1  0.666627  0.333512  0.999955  1
  Zr  Zr9  1  0.333373  0.666887  0.999955  1
  In  In10  1  0.000000  0.397129  0.246845  1
  Sn  Sn11  1  0.602968  0.602957  0.246474  1
  Sn  Sn12  1  0.397032  0.999989  0.246474  1
  Sn  Sn13  1  0.000000  0.602484  0.753594  1
  Sn  Sn14  1  0.396845  0.397029  0.753427  1
  Sn  Sn15  1  0.603155  0.000184  0.753427  1
  O  O16  1  0.000000  0.999993  0.500105  1
