# generated using pymatgen
data_Dy12Co2I17
_symmetry_space_group_name_H-M   'P 1'
_cell_length_a   9.76376439
_cell_length_b   11.68902980
_cell_length_c   11.68218200
_cell_angle_alpha   93.22418247
_cell_angle_beta   104.73828002
_cell_angle_gamma   114.51584118
_symmetry_Int_Tables_number   1
_chemical_formula_structural   Dy12Co2I17
_chemical_formula_sum   'Dy12 Co2 I17'
_cell_volume   1153.15695580
_cell_formula_units_Z   1
loop_
 _symmetry_equiv_pos_site_id
 _symmetry_equiv_pos_as_xyz
  1  'x, y, z'
loop_
 _atom_site_type_symbol
 _atom_site_label
 _atom_site_symmetry_multiplicity
 _atom_site_fract_x
 _atom_site_fract_y
 _atom_site_fract_z
 _atom_site_occupancy
  Dy  Dy0  1  0.050708  0.501446  0.319765  1
  Dy  Dy1  1  0.993877  0.809107  0.588629  1
  Dy  Dy2  1  0.654114  0.241490  0.280354  1
  Dy  Dy3  1  0.006123  0.190893  0.411371  1
  Dy  Dy4  1  0.213339  0.668288  0.981378  1
  Dy  Dy5  1  0.255676  0.975837  0.889591  1
  Dy  Dy6  1  0.345886  0.758510  0.719646  1
  Dy  Dy7  1  0.949292  0.498554  0.680235  1
  Dy  Dy8  1  0.744324  0.024163  0.110409  1
  Dy  Dy9  1  0.142561  0.287352  0.152793  1
  Dy  Dy10  1  0.786661  0.331712  0.018622  1
  Dy  Dy11  1  0.857439  0.712648  0.847207  1
  Co  Co12  1  0.103042  0.738210  0.784270  1
  Co  Co13  1  0.896958  0.261790  0.215730  1
  I  I14  1  0.781946  0.529187  0.417461  1
  I  I15  1  0.643955  0.418322  0.762383  1
  I  I16  1  0.844287  0.895790  0.327280  1
  I  I17  1  0.327707  0.213341  0.368140  1
  I  I18  1  0.155713  0.104210  0.672720  1
  I  I19  1  0.586795  0.054564  0.841489  1
  I  I20  1  0.757429  0.187923  0.539467  1
  I  I21  1  0.552799  0.711353  0.955017  1
  I  I22  1  0.356045  0.581678  0.237617  1
  I  I23  1  0.218054  0.470813  0.582539  1
  I  I24  1  0.056618  0.363758  0.893657  1
  I  I25  1  0.447201  0.288647  0.044983  1
  I  I26  1  0.000000  0.000000  0.000000  1
  I  I27  1  0.242571  0.812077  0.460533  1
  I  I28  1  0.413205  0.945436  0.158511  1
  I  I29  1  0.672293  0.786659  0.631860  1
  I  I30  1  0.943382  0.636242  0.106343  1
