# generated using pymatgen
data_MgVCo2AsO8
_symmetry_space_group_name_H-M   'P 1'
_cell_length_a   8.51566100
_cell_length_b   5.37589340
_cell_length_c   9.05637526
_cell_angle_alpha   61.02331789
_cell_angle_beta   90.00000000
_cell_angle_gamma   90.00000000
_symmetry_Int_Tables_number   1
_chemical_formula_structural   MgVCo2AsO8
_chemical_formula_sum   'Mg2 V2 Co4 As2 O16'
_cell_volume   362.69419635
_cell_formula_units_Z   2
loop_
 _symmetry_equiv_pos_site_id
 _symmetry_equiv_pos_as_xyz
  1  'x, y, z'
loop_
 _atom_site_type_symbol
 _atom_site_label
 _atom_site_symmetry_multiplicity
 _atom_site_fract_x
 _atom_site_fract_y
 _atom_site_fract_z
 _atom_site_occupancy
  Mg  Mg0  1  0.997386  0.499777  0.502978  1
  Mg  Mg1  1  0.497386  0.500223  0.997022  1
  V  V2  1  0.301681  0.850913  0.195019  1
  V  V3  1  0.801681  0.149087  0.304981  1
  Co  Co4  1  0.361064  0.487239  0.606301  1
  Co  Co5  1  0.861064  0.512761  0.893699  1
  Co  Co6  1  0.141281  0.493579  0.107768  1
  Co  Co7  1  0.641281  0.506421  0.392232  1
  As  As8  1  0.196150  0.851140  0.694454  1
  As  As9  1  0.696150  0.148860  0.805546  1
  O  O10  1  0.875344  0.326534  0.744761  1
  O  O11  1  0.433678  0.696712  0.364271  1
  O  O12  1  0.643044  0.235280  0.957788  1
  O  O13  1  0.800713  0.779082  0.384061  1
  O  O14  1  0.143044  0.764720  0.542212  1
  O  O15  1  0.375344  0.673466  0.755239  1
  O  O16  1  0.300713  0.220918  0.115939  1
  O  O17  1  0.933678  0.303288  0.135729  1
  O  O18  1  0.068903  0.709304  0.864572  1
  O  O19  1  0.696439  0.786682  0.884350  1
  O  O20  1  0.621853  0.331688  0.239566  1
  O  O21  1  0.862463  0.225123  0.459968  1
  O  O22  1  0.196439  0.213318  0.615650  1
  O  O23  1  0.362463  0.774877  0.040032  1
  O  O24  1  0.568903  0.290696  0.635428  1
  O  O25  1  0.121853  0.668312  0.260434  1
