# generated using pymatgen
data_Er3ZnSn3IrRh
_symmetry_space_group_name_H-M   'P 1'
_cell_length_a   7.56145200
_cell_length_b   7.56145141
_cell_length_c   3.86866100
_cell_angle_alpha   90.00000000
_cell_angle_beta   90.00000000
_cell_angle_gamma   119.99998506
_symmetry_Int_Tables_number   1
_chemical_formula_structural   Er3ZnSn3IrRh
_chemical_formula_sum   'Er3 Zn1 Sn3 Ir1 Rh1'
_cell_volume   191.55863690
_cell_formula_units_Z   1
loop_
 _symmetry_equiv_pos_site_id
 _symmetry_equiv_pos_as_xyz
  1  'x, y, z'
loop_
 _atom_site_type_symbol
 _atom_site_label
 _atom_site_symmetry_multiplicity
 _atom_site_fract_x
 _atom_site_fract_y
 _atom_site_fract_z
 _atom_site_occupancy
  Er  Er0  1  0.391445  0.407973  0.000000  1
  Er  Er1  1  0.016529  0.608555  0.000000  1
  Er  Er2  1  0.592027  0.983471  0.000000  1
  Zn  Zn3  1  0.666667  0.333333  0.500000  1
  Sn  Sn4  1  0.740594  0.738218  0.500000  1
  Sn  Sn5  1  0.997624  0.259406  0.500000  1
  Sn  Sn6  1  0.261782  0.002376  0.500000  1
  Ir  Ir7  1  0.333333  0.666667  0.500000  1
  Rh  Rh8  1  0.000000  0.000000  0.000000  1
