# generated using pymatgen
data_Ce2Pa3O10
_symmetry_space_group_name_H-M   'P 1'
_cell_length_a   6.72111091
_cell_length_b   6.72111123
_cell_length_c   8.64400017
_cell_angle_alpha   49.97496389
_cell_angle_beta   49.97496167
_cell_angle_gamma   48.18949790
_symmetry_Int_Tables_number   1
_chemical_formula_structural   Ce2Pa3O10
_chemical_formula_sum   'Ce2 Pa3 O10'
_cell_volume   206.55409197
_cell_formula_units_Z   1
loop_
 _symmetry_equiv_pos_site_id
 _symmetry_equiv_pos_as_xyz
  1  'x, y, z'
loop_
 _atom_site_type_symbol
 _atom_site_label
 _atom_site_symmetry_multiplicity
 _atom_site_fract_x
 _atom_site_fract_y
 _atom_site_fract_z
 _atom_site_occupancy
  Ce  Ce0  1  0.300961  0.300961  0.097924  1
  Ce  Ce1  1  0.699039  0.699039  0.902076  1
  Pa  Pa2  1  0.098665  0.098665  0.701763  1
  Pa  Pa3  1  0.500000  0.500000  0.500000  1
  Pa  Pa4  1  0.901335  0.901335  0.298237  1
  O  O5  1  0.660288  0.159396  0.784878  1
  O  O6  1  0.159396  0.660288  0.784878  1
  O  O7  1  0.455705  0.942746  0.406428  1
  O  O8  1  0.942746  0.455705  0.406428  1
  O  O9  1  0.840604  0.339712  0.215122  1
  O  O10  1  0.236209  0.763791  0.000000  1
  O  O11  1  0.339712  0.840604  0.215122  1
  O  O12  1  0.763791  0.236209  0.000000  1
  O  O13  1  0.057254  0.544295  0.593572  1
  O  O14  1  0.544295  0.057254  0.593572  1
