# generated using pymatgen
data_Pr16Ag4Os3Pt
_symmetry_space_group_name_H-M   'P 1'
_cell_length_a   9.91607890
_cell_length_b   9.97544665
_cell_length_c   9.97544600
_cell_angle_alpha   59.99999553
_cell_angle_beta   59.80174807
_cell_angle_gamma   59.80174803
_symmetry_Int_Tables_number   1
_chemical_formula_structural   Pr16Ag4Os3Pt
_chemical_formula_sum   'Pr16 Ag4 Os3 Pt1'
_cell_volume   695.63546653
_cell_formula_units_Z   1
loop_
 _symmetry_equiv_pos_site_id
 _symmetry_equiv_pos_as_xyz
  1  'x, y, z'
loop_
 _atom_site_type_symbol
 _atom_site_label
 _atom_site_symmetry_multiplicity
 _atom_site_fract_x
 _atom_site_fract_y
 _atom_site_fract_z
 _atom_site_occupancy
  Pr  Pr0  1  0.348347  0.353476  0.353476  1
  Pr  Pr1  1  0.348347  0.353476  0.944702  1
  Pr  Pr2  1  0.348347  0.944702  0.353476  1
  Pr  Pr3  1  0.951407  0.349531  0.349531  1
  Pr  Pr4  1  0.814187  0.191149  0.191149  1
  Pr  Pr5  1  0.188932  0.811051  0.811051  1
  Pr  Pr6  1  0.188932  0.811051  0.188965  1
  Pr  Pr7  1  0.814187  0.191149  0.803516  1
  Pr  Pr8  1  0.188932  0.188965  0.811051  1
  Pr  Pr9  1  0.814187  0.803516  0.191149  1
  Pr  Pr10  1  0.939844  0.560543  0.560543  1
  Pr  Pr11  1  0.556717  0.939913  0.939913  1
  Pr  Pr12  1  0.556717  0.939913  0.563458  1
  Pr  Pr13  1  0.939844  0.560543  0.939068  1
  Pr  Pr14  1  0.556717  0.563458  0.939913  1
  Pr  Pr15  1  0.939844  0.939068  0.560543  1
  Ag  Ag16  1  0.580348  0.580927  0.580927  1
  Ag  Ag17  1  0.580348  0.580927  0.257796  1
  Ag  Ag18  1  0.580348  0.257796  0.580927  1
  Ag  Ag19  1  0.257758  0.580747  0.580747  1
  Os  Os20  1  0.144299  0.139950  0.139950  1
  Os  Os21  1  0.144299  0.139950  0.575800  1
  Os  Os22  1  0.144299  0.575800  0.139950  1
  Pt  Pt23  1  0.572810  0.142397  0.142397  1
