# generated using pymatgen
data_Nd3Y(Si5Os3)2
_symmetry_space_group_name_H-M   'P 1'
_cell_length_a   8.21026041
_cell_length_b   8.19988259
_cell_length_c   5.86472578
_cell_angle_alpha   70.44550732
_cell_angle_beta   70.35777056
_cell_angle_gamma   93.70983637
_symmetry_Int_Tables_number   1
_chemical_formula_structural   Nd3Y(Si5Os3)2
_chemical_formula_sum   'Nd3 Y1 Si10 Os6'
_cell_volume   343.35255707
_cell_formula_units_Z   1
loop_
 _symmetry_equiv_pos_site_id
 _symmetry_equiv_pos_as_xyz
  1  'x, y, z'
loop_
 _atom_site_type_symbol
 _atom_site_label
 _atom_site_symmetry_multiplicity
 _atom_site_fract_x
 _atom_site_fract_y
 _atom_site_fract_z
 _atom_site_occupancy
  Nd  Nd0  1  0.867648  0.602322  0.754745  1
  Nd  Nd1  1  0.397244  0.132660  0.745603  1
  Nd  Nd2  1  0.132897  0.397369  0.245126  1
  Y  Y3  1  0.602672  0.867605  0.253652  1
  Si  Si4  1  0.062843  0.261571  0.836082  1
  Si  Si5  1  0.739100  0.937071  0.664048  1
  Si  Si6  1  0.934035  0.740300  0.164195  1
  Si  Si7  1  0.259955  0.060881  0.337111  1
  Si  Si8  1  0.208266  0.791561  0.751763  1
  Si  Si9  1  0.789768  0.206649  0.250013  1
  Si  Si10  1  0.512879  0.488878  0.749689  1
  Si  Si11  1  0.489951  0.514476  0.247543  1
  Si  Si12  1  0.772515  0.225589  0.752647  1
  Si  Si13  1  0.230218  0.772865  0.248923  1
  Os  Os14  1  0.258737  0.543848  0.630312  1
  Os  Os15  1  0.459408  0.744724  0.865745  1
  Os  Os16  1  0.743320  0.457132  0.369510  1
  Os  Os17  1  0.541219  0.254694  0.132069  1
  Os  Os18  1  0.001528  0.997316  0.750796  1
  Os  Os19  1  0.995797  0.002489  0.250427  1
