# generated using pymatgen
data_ErTmPd2F14
_symmetry_space_group_name_H-M   'P 1'
_cell_length_a   5.47871000
_cell_length_b   8.75171483
_cell_length_c   11.83213804
_cell_angle_alpha   62.63503999
_cell_angle_beta   90.00000000
_cell_angle_gamma   90.00000000
_symmetry_Int_Tables_number   1
_chemical_formula_structural   ErTmPd2F14
_chemical_formula_sum   'Er2 Tm2 Pd4 F28'
_cell_volume   503.84265942
_cell_formula_units_Z   2
loop_
 _symmetry_equiv_pos_site_id
 _symmetry_equiv_pos_as_xyz
  1  'x, y, z'
loop_
 _atom_site_type_symbol
 _atom_site_label
 _atom_site_symmetry_multiplicity
 _atom_site_fract_x
 _atom_site_fract_y
 _atom_site_fract_z
 _atom_site_occupancy
  Er  Er0  1  0.238736  0.186428  0.235552  1
  Er  Er1  1  0.738736  0.813572  0.264448  1
  Tm  Tm2  1  0.761214  0.814284  0.764484  1
  Tm  Tm3  1  0.261214  0.185716  0.735516  1
  Pd  Pd4  1  0.759091  0.272512  0.956264  1
  Pd  Pd5  1  0.259091  0.727488  0.543736  1
  Pd  Pd6  1  0.241343  0.728344  0.041821  1
  Pd  Pd7  1  0.741343  0.271656  0.458179  1
  F  F8  1  0.437693  0.701006  0.915249  1
  F  F9  1  0.937693  0.298994  0.584751  1
  F  F10  1  0.562350  0.298982  0.083069  1
  F  F11  1  0.062350  0.701018  0.416931  1
  F  F12  1  0.438625  0.278189  0.543277  1
  F  F13  1  0.938625  0.721811  0.956723  1
  F  F14  1  0.560654  0.720464  0.458389  1
  F  F15  1  0.060654  0.279536  0.041611  1
  F  F16  1  0.774975  0.522195  0.857282  1
  F  F17  1  0.274975  0.477805  0.642718  1
  F  F18  1  0.224358  0.479036  0.141539  1
  F  F19  1  0.724358  0.520964  0.358461  1
  F  F20  1  0.754636  0.022829  0.048980  1
  F  F21  1  0.254636  0.977171  0.451020  1
  F  F22  1  0.246463  0.978082  0.949436  1
  F  F23  1  0.746463  0.021918  0.550564  1
  F  F24  1  0.966562  0.724889  0.637961  1
  F  F25  1  0.466562  0.275111  0.862039  1
  F  F26  1  0.034873  0.275893  0.364259  1
  F  F27  1  0.534873  0.724107  0.135741  1
  F  F28  1  0.052427  0.746231  0.174991  1
  F  F29  1  0.552427  0.253769  0.325009  1
  F  F30  1  0.950000  0.253997  0.823894  1
  F  F31  1  0.450000  0.746003  0.676106  1
  F  F32  1  0.414488  0.969583  0.232071  1
  F  F33  1  0.914488  0.030417  0.267929  1
  F  F34  1  0.581513  0.028534  0.767300  1
  F  F35  1  0.081513  0.971466  0.732700  1
