# generated using pymatgen
data_YbLu3TcRu7
_symmetry_space_group_name_H-M   'P 1'
_cell_length_a   5.17431845
_cell_length_b   5.30729920
_cell_length_c   8.90227318
_cell_angle_alpha   90.00000213
_cell_angle_beta   89.98027993
_cell_angle_gamma   120.85384418
_symmetry_Int_Tables_number   1
_chemical_formula_structural   YbLu3TcRu7
_chemical_formula_sum   'Yb1 Lu3 Tc1 Ru7'
_cell_volume   209.87317862
_cell_formula_units_Z   1
loop_
 _symmetry_equiv_pos_site_id
 _symmetry_equiv_pos_as_xyz
  1  'x, y, z'
loop_
 _atom_site_type_symbol
 _atom_site_label
 _atom_site_symmetry_multiplicity
 _atom_site_fract_x
 _atom_site_fract_y
 _atom_site_fract_z
 _atom_site_occupancy
  Yb  Yb0  1  0.332369  0.666185  0.433621  1
  Lu  Lu1  1  0.662755  0.331377  0.563970  1
  Lu  Lu2  1  0.662754  0.331377  0.933905  1
  Lu  Lu3  1  0.333443  0.666722  0.070084  1
  Tc  Tc4  1  0.664408  0.832203  0.750493  1
  Ru  Ru5  1  0.988629  0.994314  0.499631  1
  Ru  Ru6  1  0.987944  0.993971  0.999635  1
  Ru  Ru7  1  0.830998  0.169321  0.248861  1
  Ru  Ru8  1  0.830998  0.661677  0.248861  1
  Ru  Ru9  1  0.348124  0.174063  0.248403  1
  Ru  Ru10  1  0.178789  0.831799  0.751268  1
  Ru  Ru11  1  0.178789  0.346991  0.751268  1
