# generated using pymatgen
data_Er20Cd6TcRu
_symmetry_space_group_name_H-M   'P 1'
_cell_length_a   9.46944100
_cell_length_b   9.46944035
_cell_length_c   9.82063200
_cell_angle_alpha   90.00000000
_cell_angle_beta   90.00000000
_cell_angle_gamma   119.99999879
_symmetry_Int_Tables_number   1
_chemical_formula_structural   Er20Cd6TcRu
_chemical_formula_sum   'Er20 Cd6 Tc1 Ru1'
_cell_volume   762.63850633
_cell_formula_units_Z   1
loop_
 _symmetry_equiv_pos_site_id
 _symmetry_equiv_pos_as_xyz
  1  'x, y, z'
loop_
 _atom_site_type_symbol
 _atom_site_label
 _atom_site_symmetry_multiplicity
 _atom_site_fract_x
 _atom_site_fract_y
 _atom_site_fract_z
 _atom_site_occupancy
  Er  Er0  1  0.000000  0.000000  0.500239  1
  Er  Er1  1  0.000000  0.000000  0.999761  1
  Er  Er2  1  0.209848  0.790152  0.441769  1
  Er  Er3  1  0.209848  0.419696  0.441769  1
  Er  Er4  1  0.580304  0.790152  0.441769  1
  Er  Er5  1  0.789934  0.210066  0.558681  1
  Er  Er6  1  0.789934  0.579865  0.558681  1
  Er  Er7  1  0.420135  0.210066  0.558681  1
  Er  Er8  1  0.789934  0.210066  0.941319  1
  Er  Er9  1  0.789934  0.579865  0.941319  1
  Er  Er10  1  0.420135  0.210066  0.941319  1
  Er  Er11  1  0.209848  0.790152  0.058231  1
  Er  Er12  1  0.209848  0.419696  0.058231  1
  Er  Er13  1  0.580304  0.790152  0.058231  1
  Er  Er14  1  0.539974  0.460026  0.250000  1
  Er  Er15  1  0.539974  0.079948  0.250000  1
  Er  Er16  1  0.920052  0.460026  0.250000  1
  Er  Er17  1  0.458849  0.541151  0.750000  1
  Er  Er18  1  0.458849  0.917698  0.750000  1
  Er  Er19  1  0.082302  0.541151  0.750000  1
  Cd  Cd20  1  0.885333  0.114667  0.250000  1
  Cd  Cd21  1  0.885333  0.770666  0.250000  1
  Cd  Cd22  1  0.229334  0.114667  0.250000  1
  Cd  Cd23  1  0.114499  0.885501  0.750000  1
  Cd  Cd24  1  0.114499  0.228998  0.750000  1
  Cd  Cd25  1  0.771002  0.885501  0.750000  1
  Tc  Tc26  1  0.333333  0.666667  0.250000  1
  Ru  Ru27  1  0.666667  0.333333  0.750000  1
