# generated using pymatgen
data_La12Tc3AuBr12
_symmetry_space_group_name_H-M   'P 1'
_cell_length_a   10.73057987
_cell_length_b   10.72117791
_cell_length_c   10.72117743
_cell_angle_alpha   109.45344660
_cell_angle_beta   109.48898875
_cell_angle_gamma   109.48898796
_symmetry_Int_Tables_number   1
_chemical_formula_structural   La12Tc3AuBr12
_chemical_formula_sum   'La12 Tc3 Au1 Br12'
_cell_volume   949.27274368
_cell_formula_units_Z   1
loop_
 _symmetry_equiv_pos_site_id
 _symmetry_equiv_pos_as_xyz
  1  'x, y, z'
loop_
 _atom_site_type_symbol
 _atom_site_label
 _atom_site_symmetry_multiplicity
 _atom_site_fract_x
 _atom_site_fract_y
 _atom_site_fract_z
 _atom_site_occupancy
  La  La0  1  0.463061  0.469457  0.241924  1
  La  La1  1  0.750000  0.236223  0.263777  1
  La  La2  1  0.750000  0.012848  0.487152  1
  La  La3  1  0.237152  0.474305  0.487152  1
  La  La4  1  0.278863  0.772466  0.241924  1
  La  La5  1  0.036939  0.258076  0.030543  1
  La  La6  1  0.013777  0.027553  0.263777  1
  La  La7  1  0.493603  0.772466  0.030543  1
  La  La8  1  0.486223  0.236223  0.472447  1
  La  La9  1  0.006397  0.469457  0.727534  1
  La  La10  1  0.262848  0.012848  0.025695  1
  La  La11  1  0.221137  0.258076  0.727534  1
  Tc  Tc12  1  0.250000  0.257336  0.242664  1
  Tc  Tc13  1  0.492664  0.985329  0.242664  1
  Tc  Tc14  1  0.007336  0.257336  0.514671  1
  Au  Au15  1  0.250000  0.500000  0.000000  1
  Br  Br16  1  0.250000  0.754479  0.745521  1
  Br  Br17  1  0.505468  0.503920  0.749542  1
  Br  Br18  1  0.994532  0.750458  0.996080  1
  Br  Br19  1  0.744074  0.245622  0.749542  1
  Br  Br20  1  0.995521  0.991042  0.745521  1
  Br  Br21  1  0.250000  0.996494  0.503506  1
  Br  Br22  1  0.753506  0.507010  0.503506  1
  Br  Br23  1  0.501548  0.245622  0.996080  1
  Br  Br24  1  0.755926  0.750458  0.254378  1
  Br  Br25  1  0.746494  0.996494  0.992990  1
  Br  Br26  1  0.998452  0.503920  0.254378  1
  Br  Br27  1  0.504479  0.754479  0.508958  1
