# generated using pymatgen
data_Nd20Si15Os
_symmetry_space_group_name_H-M   'P 1'
_cell_length_a   7.67606707
_cell_length_b   8.00822698
_cell_length_c   15.19786300
_cell_angle_alpha   90.00000000
_cell_angle_beta   90.00000000
_cell_angle_gamma   89.65260483
_symmetry_Int_Tables_number   1
_chemical_formula_structural   Nd20Si15Os
_chemical_formula_sum   'Nd20 Si15 Os1'
_cell_volume   934.22111117
_cell_formula_units_Z   1
loop_
 _symmetry_equiv_pos_site_id
 _symmetry_equiv_pos_as_xyz
  1  'x, y, z'
loop_
 _atom_site_type_symbol
 _atom_site_label
 _atom_site_symmetry_multiplicity
 _atom_site_fract_x
 _atom_site_fract_y
 _atom_site_fract_z
 _atom_site_occupancy
  Nd  Nd0  1  0.138860  0.516436  0.750000  1
  Nd  Nd1  1  0.810993  0.320613  0.621467  1
  Nd  Nd2  1  0.461578  0.688964  0.900227  1
  Nd  Nd3  1  0.962385  0.812644  0.901407  1
  Nd  Nd4  1  0.198442  0.677130  0.126490  1
  Nd  Nd5  1  0.682349  0.814754  0.123444  1
  Nd  Nd6  1  0.311278  0.181630  0.877198  1
  Nd  Nd7  1  0.198442  0.677130  0.373510  1
  Nd  Nd8  1  0.036341  0.185830  0.098815  1
  Nd  Nd9  1  0.311278  0.181630  0.622802  1
  Nd  Nd10  1  0.845062  0.486510  0.250000  1
  Nd  Nd11  1  0.364937  0.016134  0.250000  1
  Nd  Nd12  1  0.531535  0.320825  0.400933  1
  Nd  Nd13  1  0.810993  0.320613  0.878533  1
  Nd  Nd14  1  0.962385  0.812644  0.598593  1
  Nd  Nd15  1  0.461578  0.688964  0.599773  1
  Nd  Nd16  1  0.036341  0.185830  0.401185  1
  Nd  Nd17  1  0.682349  0.814754  0.376556  1
  Nd  Nd18  1  0.638727  0.986880  0.750000  1
  Nd  Nd19  1  0.531535  0.320825  0.099067  1
  Si  Si20  1  0.248135  0.371603  0.250000  1
  Si  Si21  1  0.868469  0.526012  0.459544  1
  Si  Si22  1  0.518483  0.401812  0.750000  1
  Si  Si23  1  0.635916  0.026763  0.959636  1
  Si  Si24  1  0.016466  0.098656  0.750000  1
  Si  Si25  1  0.750267  0.620516  0.750000  1
  Si  Si26  1  0.755787  0.119063  0.250000  1
  Si  Si27  1  0.359839  0.976122  0.459816  1
  Si  Si28  1  0.984110  0.900706  0.250000  1
  Si  Si29  1  0.359839  0.976122  0.040184  1
  Si  Si30  1  0.635916  0.026763  0.540364  1
  Si  Si31  1  0.140959  0.473756  0.961315  1
  Si  Si32  1  0.140959  0.473756  0.538685  1
  Si  Si33  1  0.868469  0.526012  0.040456  1
  Si  Si34  1  0.249680  0.880110  0.750000  1
  Os  Os35  1  0.489318  0.591486  0.250000  1
