# generated using pymatgen
data_Hf2Zr6Co13(P4Os)3
_symmetry_space_group_name_H-M   'P 1'
_cell_length_a   12.23579802
_cell_length_b   12.23223731
_cell_length_c   3.68793000
_cell_angle_alpha   90.00000000
_cell_angle_beta   90.00000000
_cell_angle_gamma   120.00385746
_symmetry_Int_Tables_number   1
_chemical_formula_structural   Hf2Zr6Co13(P4Os)3
_chemical_formula_sum   'Hf2 Zr6 Co13 P12 Os3'
_cell_volume   478.00739507
_cell_formula_units_Z   1
loop_
 _symmetry_equiv_pos_site_id
 _symmetry_equiv_pos_as_xyz
  1  'x, y, z'
loop_
 _atom_site_type_symbol
 _atom_site_label
 _atom_site_symmetry_multiplicity
 _atom_site_fract_x
 _atom_site_fract_y
 _atom_site_fract_z
 _atom_site_occupancy
  Hf  Hf0  1  0.447027  0.439665  0.000000  1
  Hf  Hf1  1  0.560343  0.007157  0.000000  1
  Zr  Zr2  1  0.992508  0.552726  0.000000  1
  Zr  Zr3  1  0.666470  0.333199  0.000000  1
  Zr  Zr4  1  0.333224  0.666681  0.000000  1
  Zr  Zr5  1  0.822859  0.826138  0.500000  1
  Zr  Zr6  1  0.174340  0.997302  0.500000  1
  Zr  Zr7  1  0.003035  0.176622  0.500000  1
  Co  Co8  1  0.198206  0.364816  0.000000  1
  Co  Co9  1  0.167938  0.803403  0.000000  1
  Co  Co10  1  0.817792  0.629596  0.000000  1
  Co  Co11  1  0.810482  0.181039  0.000000  1
  Co  Co12  1  0.370835  0.189504  0.000000  1
  Co  Co13  1  0.641698  0.508257  0.500000  1
  Co  Co14  1  0.865584  0.356314  0.500000  1
  Co  Co15  1  0.491546  0.134119  0.500000  1
  Co  Co16  1  0.000001  0.999976  0.000000  1
  Co  Co17  1  0.725868  0.006291  0.500000  1
  Co  Co18  1  0.993658  0.720724  0.500000  1
  Co  Co19  1  0.634868  0.832958  0.000000  1
  Co  Co20  1  0.280538  0.274030  0.500000  1
  P  P21  1  0.655026  0.657386  0.000000  1
  P  P22  1  0.343396  0.998702  0.000000  1
  P  P23  1  0.002030  0.343715  0.000000  1
  P  P24  1  0.481175  0.305532  0.500000  1
  P  P25  1  0.694184  0.175480  0.500000  1
  P  P26  1  0.823054  0.518721  0.500000  1
  P  P27  1  0.522875  0.836879  0.500000  1
  P  P28  1  0.164173  0.686717  0.500000  1
  P  P29  1  0.827843  0.003448  0.000000  1
  P  P30  1  0.996420  0.824262  0.000000  1
  P  P31  1  0.314184  0.477006  0.500000  1
  P  P32  1  0.175833  0.171955  0.000000  1
  Os  Os33  1  0.122846  0.473351  0.500000  1
  Os  Os34  1  0.352344  0.878199  0.500000  1
  Os  Os35  1  0.525798  0.648132  0.500000  1
