# generated using pymatgen
data_Er2LuSc3Sb2Mo
_symmetry_space_group_name_H-M   'P 1'
_cell_length_a   7.82233912
_cell_length_b   7.81997474
_cell_length_c   4.24538000
_cell_angle_alpha   90.00000000
_cell_angle_beta   90.00000000
_cell_angle_gamma   119.98999873
_symmetry_Int_Tables_number   1
_chemical_formula_structural   Er2LuSc3Sb2Mo
_chemical_formula_sum   'Er2 Lu1 Sc3 Sb2 Mo1'
_cell_volume   224.92252522
_cell_formula_units_Z   1
loop_
 _symmetry_equiv_pos_site_id
 _symmetry_equiv_pos_as_xyz
  1  'x, y, z'
loop_
 _atom_site_type_symbol
 _atom_site_label
 _atom_site_symmetry_multiplicity
 _atom_site_fract_x
 _atom_site_fract_y
 _atom_site_fract_z
 _atom_site_occupancy
  Er  Er0  1  0.602014  0.000331  0.500000  1
  Er  Er1  1  0.397986  0.398317  0.500000  1
  Lu  Lu2  1  0.000000  0.604508  0.500000  1
  Sc  Sc3  1  0.000000  0.232069  0.000000  1
  Sc  Sc4  1  0.768122  0.766979  0.000000  1
  Sc  Sc5  1  0.231878  0.998858  0.000000  1
  Sb  Sb6  1  0.668344  0.334598  0.000000  1
  Sb  Sb7  1  0.331656  0.666255  0.000000  1
  Mo  Mo8  1  0.000000  0.998086  0.500000  1
