# generated using pymatgen
data_Nd4Al17SiRh6
_symmetry_space_group_name_H-M   'P 1'
_cell_length_a   7.61275925
_cell_length_b   7.59966117
_cell_length_c   9.60272809
_cell_angle_alpha   89.98643734
_cell_angle_beta   89.95833415
_cell_angle_gamma   119.43978983
_symmetry_Int_Tables_number   1
_chemical_formula_structural   Nd4Al17SiRh6
_chemical_formula_sum   'Nd4 Al17 Si1 Rh6'
_cell_volume   483.82177564
_cell_formula_units_Z   1
loop_
 _symmetry_equiv_pos_site_id
 _symmetry_equiv_pos_as_xyz
  1  'x, y, z'
loop_
 _atom_site_type_symbol
 _atom_site_label
 _atom_site_symmetry_multiplicity
 _atom_site_fract_x
 _atom_site_fract_y
 _atom_site_fract_z
 _atom_site_occupancy
  Nd  Nd0  1  0.994586  0.664483  0.247014  1
  Nd  Nd1  1  0.004772  0.329724  0.754553  1
  Nd  Nd2  1  0.674786  0.001304  0.246741  1
  Nd  Nd3  1  0.329042  0.004964  0.750786  1
  Al  Al4  1  0.130190  0.130290  0.249460  1
  Al  Al5  1  0.869487  0.871311  0.749549  1
  Al  Al6  1  0.996386  0.669048  0.924675  1
  Al  Al7  1  0.997518  0.665214  0.572823  1
  Al  Al8  1  0.334575  0.001195  0.426764  1
  Al  Al9  1  0.003434  0.335069  0.431770  1
  Al  Al10  1  0.664332  0.997486  0.572811  1
  Al  Al11  1  0.660257  0.992717  0.924324  1
  Al  Al12  1  0.334093  0.001651  0.073966  1
  Al  Al13  1  0.334773  0.334021  0.548395  1
  Al  Al14  1  0.666988  0.667417  0.451734  1
  Al  Al15  1  0.665558  0.666152  0.049706  1
  Al  Al16  1  0.337145  0.334630  0.952265  1
  Al  Al17  1  0.340382  0.547559  0.250154  1
  Al  Al18  1  0.660875  0.452345  0.750360  1
  Al  Al19  1  0.544342  0.339515  0.249862  1
  Al  Al20  1  0.451430  0.658250  0.749564  1
  Si  Si21  1  0.004698  0.334994  0.072833  1
  Rh  Rh22  1  0.679842  0.329305  0.002123  1
  Rh  Rh23  1  0.320898  0.663473  0.000349  1
  Rh  Rh24  1  0.328590  0.670660  0.499129  1
  Rh  Rh25  1  0.671632  0.329087  0.498918  1
  Rh  Rh26  1  0.999390  0.007222  0.000364  1
  Rh  Rh27  1  0.999997  0.000915  0.499011  1
