# generated using pymatgen
data_Rb4Ce2(MoH9)3
_symmetry_space_group_name_H-M   'P 1'
_cell_length_a   9.67619700
_cell_length_b   9.25341958
_cell_length_c   5.58632000
_cell_angle_alpha   90.00000000
_cell_angle_beta   90.00000000
_cell_angle_gamma   121.52324520
_symmetry_Int_Tables_number   1
_chemical_formula_structural   Rb4Ce2(MoH9)3
_chemical_formula_sum   'Rb4 Ce2 Mo3 H27'
_cell_volume   426.37382053
_cell_formula_units_Z   1
loop_
 _symmetry_equiv_pos_site_id
 _symmetry_equiv_pos_as_xyz
  1  'x, y, z'
loop_
 _atom_site_type_symbol
 _atom_site_label
 _atom_site_symmetry_multiplicity
 _atom_site_fract_x
 _atom_site_fract_y
 _atom_site_fract_z
 _atom_site_occupancy
  Rb  Rb0  1  0.263367  0.000000  0.500000  1
  Rb  Rb1  1  0.025916  0.614079  0.000000  1
  Rb  Rb2  1  0.411837  0.385921  0.000000  1
  Rb  Rb3  1  0.577432  0.000000  0.000000  1
  Ce  Ce4  1  0.986963  0.264849  0.500000  1
  Ce  Ce5  1  0.722114  0.735151  0.500000  1
  Mo  Mo6  1  0.703894  0.365757  0.500000  1
  Mo  Mo7  1  0.338135  0.634243  0.500000  1
  Mo  Mo8  1  0.959968  0.000000  0.000000  1
  H  H9  1  0.817454  0.336950  0.727039  1
  H  H10  1  0.723648  0.509227  0.729074  1
  H  H11  1  0.559950  0.242348  0.718352  1
  H  H12  1  0.214420  0.490773  0.270926  1
  H  H13  1  0.559950  0.242348  0.281648  1
  H  H14  1  0.817454  0.336950  0.272961  1
  H  H15  1  0.723648  0.509227  0.270926  1
  H  H16  1  0.317601  0.757652  0.718352  1
  H  H17  1  0.480504  0.663050  0.727039  1
  H  H18  1  0.137184  0.000000  0.000000  1
  H  H19  1  0.766398  0.809879  0.000000  1
  H  H20  1  0.956518  0.190121  0.000000  1
  H  H21  1  0.842285  0.000000  0.256010  1
  H  H22  1  0.099034  0.140576  0.782096  1
  H  H23  1  0.958458  0.859424  0.782096  1
  H  H24  1  0.958458  0.859424  0.217904  1
  H  H25  1  0.099034  0.140576  0.217904  1
  H  H26  1  0.842285  0.000000  0.743990  1
  H  H27  1  0.145400  0.603688  0.500000  1
  H  H28  1  0.510259  0.839923  0.500000  1
  H  H29  1  0.355832  0.455803  0.500000  1
  H  H30  1  0.541712  0.396312  0.500000  1
  H  H31  1  0.900029  0.544197  0.500000  1
  H  H32  1  0.670335  0.160077  0.500000  1
  H  H33  1  0.214420  0.490773  0.729074  1
  H  H34  1  0.317601  0.757652  0.281648  1
  H  H35  1  0.480504  0.663050  0.272961  1
