# generated using pymatgen
data_Sc6CuIr3Rh2
_symmetry_space_group_name_H-M   'P 1'
_cell_length_a   4.54506101
_cell_length_b   6.54897100
_cell_length_c   13.68537603
_cell_angle_alpha   90.00000000
_cell_angle_beta   90.00812865
_cell_angle_gamma   90.00000000
_symmetry_Int_Tables_number   1
_chemical_formula_structural   Sc6CuIr3Rh2
_chemical_formula_sum   'Sc12 Cu2 Ir6 Rh4'
_cell_volume   407.35168342
_cell_formula_units_Z   2
loop_
 _symmetry_equiv_pos_site_id
 _symmetry_equiv_pos_as_xyz
  1  'x, y, z'
loop_
 _atom_site_type_symbol
 _atom_site_label
 _atom_site_symmetry_multiplicity
 _atom_site_fract_x
 _atom_site_fract_y
 _atom_site_fract_z
 _atom_site_occupancy
  Sc  Sc0  1  0.500018  0.249352  0.998251  1
  Sc  Sc1  1  0.500018  0.750648  0.998251  1
  Sc  Sc2  1  0.999923  0.250654  0.168494  1
  Sc  Sc3  1  0.999923  0.749345  0.168494  1
  Sc  Sc4  1  0.499943  0.250175  0.334068  1
  Sc  Sc5  1  0.499943  0.749824  0.334068  1
  Sc  Sc6  1  0.999997  0.250254  0.499715  1
  Sc  Sc7  1  0.999997  0.749745  0.499715  1
  Sc  Sc8  1  0.500046  0.249820  0.666945  1
  Sc  Sc9  1  0.500046  0.750179  0.666945  1
  Sc  Sc10  1  0.000077  0.249879  0.832585  1
  Sc  Sc11  1  0.000077  0.750120  0.832585  1
  Cu  Cu12  1  0.000007  0.500000  0.999696  1
  Cu  Cu13  1  0.499872  0.000000  0.167061  1
  Ir  Ir14  1  0.000029  0.000000  0.002068  1
  Ir  Ir15  1  0.499925  0.500000  0.164706  1
  Ir  Ir16  1  0.999950  0.000000  0.330844  1
  Ir  Ir17  1  0.500007  0.500000  0.499549  1
  Ir  Ir18  1  0.000034  0.000000  0.667017  1
  Ir  Ir19  1  0.500073  0.500000  0.835851  1
  Rh  Rh20  1  0.999876  0.500000  0.335358  1
  Rh  Rh21  1  0.499994  0.000000  0.501465  1
  Rh  Rh22  1  0.000127  0.500000  0.664987  1
  Rh  Rh23  1  0.500100  0.000000  0.831279  1
