# generated using pymatgen
data_TbDy3Ga4(IrPt)2
_symmetry_space_group_name_H-M   'P 1'
_cell_length_a   4.41244900
_cell_length_b   6.85282390
_cell_length_c   7.75453804
_cell_angle_alpha   89.71249585
_cell_angle_beta   90.00000000
_cell_angle_gamma   90.00000000
_symmetry_Int_Tables_number   1
_chemical_formula_structural   TbDy3Ga4(IrPt)2
_chemical_formula_sum   'Tb1 Dy3 Ga4 Ir2 Pt2'
_cell_volume   234.47672161
_cell_formula_units_Z   1
loop_
 _symmetry_equiv_pos_site_id
 _symmetry_equiv_pos_as_xyz
  1  'x, y, z'
loop_
 _atom_site_type_symbol
 _atom_site_label
 _atom_site_symmetry_multiplicity
 _atom_site_fract_x
 _atom_site_fract_y
 _atom_site_fract_z
 _atom_site_occupancy
  Tb  Tb0  1  0.250000  0.974116  0.313325  1
  Dy  Dy1  1  0.250000  0.474000  0.186161  1
  Dy  Dy2  1  0.750000  0.019281  0.693248  1
  Dy  Dy3  1  0.750000  0.518582  0.806902  1
  Ga  Ga4  1  0.250000  0.343638  0.571868  1
  Ga  Ga5  1  0.250000  0.843030  0.927743  1
  Ga  Ga6  1  0.750000  0.662199  0.433084  1
  Ga  Ga7  1  0.750000  0.162061  0.067452  1
  Ir  Ir8  1  0.250000  0.229052  0.892271  1
  Ir  Ir9  1  0.250000  0.728910  0.608885  1
  Pt  Pt10  1  0.750000  0.771446  0.107613  1
  Pt  Pt11  1  0.750000  0.273685  0.391449  1
