# generated using pymatgen
data_Li8Eu7YSn3Pb5
_symmetry_space_group_name_H-M   'P 1'
_cell_length_a   10.15261910
_cell_length_b   10.15261930
_cell_length_c   7.94120100
_cell_angle_alpha   90.00794597
_cell_angle_beta   89.99205402
_cell_angle_gamma   119.99864781
_symmetry_Int_Tables_number   1
_chemical_formula_structural   Li8Eu7YSn3Pb5
_chemical_formula_sum   'Li8 Eu7 Y1 Sn3 Pb5'
_cell_volume   708.89012456
_cell_formula_units_Z   1
loop_
 _symmetry_equiv_pos_site_id
 _symmetry_equiv_pos_as_xyz
  1  'x, y, z'
loop_
 _atom_site_type_symbol
 _atom_site_label
 _atom_site_symmetry_multiplicity
 _atom_site_fract_x
 _atom_site_fract_y
 _atom_site_fract_z
 _atom_site_occupancy
  Li  Li0  1  0.167555  0.832445  0.189614  1
  Li  Li1  1  0.335060  0.167470  0.689633  1
  Li  Li2  1  0.832530  0.664940  0.689633  1
  Li  Li3  1  0.166486  0.334579  0.189926  1
  Li  Li4  1  0.665421  0.833514  0.189926  1
  Li  Li5  1  0.832427  0.167573  0.688709  1
  Li  Li6  1  0.333303  0.666697  0.816713  1
  Li  Li7  1  0.667223  0.332777  0.316458  1
  Eu  Eu8  1  0.513833  0.486167  0.990940  1
  Eu  Eu9  1  0.026918  0.512525  0.490224  1
  Eu  Eu10  1  0.487475  0.973082  0.490224  1
  Eu  Eu11  1  0.515117  0.028203  0.991782  1
  Eu  Eu12  1  0.971797  0.484883  0.991782  1
  Eu  Eu13  1  0.486168  0.513832  0.490933  1
  Eu  Eu14  1  0.999393  0.000607  0.985929  1
  Y  Y15  1  0.999285  0.000715  0.484391  1
  Sn  Sn16  1  0.833412  0.166588  0.259400  1
  Sn  Sn17  1  0.333346  0.666654  0.223494  1
  Sn  Sn18  1  0.666644  0.333356  0.723527  1
  Pb  Pb19  1  0.166588  0.833412  0.759371  1
  Pb  Pb20  1  0.333218  0.166624  0.259414  1
  Pb  Pb21  1  0.833376  0.666782  0.259414  1
  Pb  Pb22  1  0.166579  0.333153  0.759283  1
  Pb  Pb23  1  0.666847  0.833421  0.759283  1
