# generated using pymatgen
data_Tb3Nd6HoPb6
_symmetry_space_group_name_H-M   'P 1'
_cell_length_a   9.28756000
_cell_length_b   9.28756059
_cell_length_c   6.79512200
_cell_angle_alpha   90.00000000
_cell_angle_beta   90.00000000
_cell_angle_gamma   120.00000503
_symmetry_Int_Tables_number   1
_chemical_formula_structural   Tb3Nd6HoPb6
_chemical_formula_sum   'Tb3 Nd6 Ho1 Pb6'
_cell_volume   507.61115866
_cell_formula_units_Z   1
loop_
 _symmetry_equiv_pos_site_id
 _symmetry_equiv_pos_as_xyz
  1  'x, y, z'
loop_
 _atom_site_type_symbol
 _atom_site_label
 _atom_site_symmetry_multiplicity
 _atom_site_fract_x
 _atom_site_fract_y
 _atom_site_fract_z
 _atom_site_occupancy
  Tb  Tb0  1  0.333333  0.666667  0.000000  1
  Tb  Tb1  1  0.666667  0.333333  0.500000  1
  Tb  Tb2  1  0.666667  0.333333  0.000000  1
  Nd  Nd3  1  0.239200  0.000216  0.250280  1
  Nd  Nd4  1  0.239200  0.238984  0.749720  1
  Nd  Nd5  1  0.999784  0.760800  0.749720  1
  Nd  Nd6  1  0.999784  0.238984  0.250280  1
  Nd  Nd7  1  0.761016  0.760800  0.250280  1
  Nd  Nd8  1  0.761016  0.000216  0.749720  1
  Ho  Ho9  1  0.333333  0.666667  0.500000  1
  Pb  Pb10  1  0.601885  0.998488  0.251719  1
  Pb  Pb11  1  0.601885  0.603396  0.748281  1
  Pb  Pb12  1  0.001512  0.398115  0.748281  1
  Pb  Pb13  1  0.001512  0.603396  0.251719  1
  Pb  Pb14  1  0.396604  0.398115  0.251719  1
  Pb  Pb15  1  0.396604  0.998488  0.748281  1
