# generated using pymatgen
data_Ho3Er5(ZnCo)2
_symmetry_space_group_name_H-M   'P 1'
_cell_length_a   9.28221079
_cell_length_b   9.28221066
_cell_length_c   9.28221100
_cell_angle_alpha   59.99999522
_cell_angle_beta   59.99999569
_cell_angle_gamma   59.99999871
_symmetry_Int_Tables_number   1
_chemical_formula_structural   Ho3Er5(ZnCo)2
_chemical_formula_sum   'Ho6 Er10 Zn4 Co4'
_cell_volume   565.50864917
_cell_formula_units_Z   2
loop_
 _symmetry_equiv_pos_site_id
 _symmetry_equiv_pos_as_xyz
  1  'x, y, z'
loop_
 _atom_site_type_symbol
 _atom_site_label
 _atom_site_symmetry_multiplicity
 _atom_site_fract_x
 _atom_site_fract_y
 _atom_site_fract_z
 _atom_site_occupancy
  Ho  Ho0  1  0.937894  0.562106  0.562106  1
  Ho  Ho1  1  0.562106  0.937894  0.937894  1
  Ho  Ho2  1  0.562106  0.937894  0.562106  1
  Ho  Ho3  1  0.937894  0.562106  0.937894  1
  Ho  Ho4  1  0.562106  0.562106  0.937894  1
  Ho  Ho5  1  0.937894  0.937894  0.562106  1
  Er  Er6  1  0.350007  0.350007  0.350007  1
  Er  Er7  1  0.350007  0.350007  0.949980  1
  Er  Er8  1  0.350007  0.949980  0.350007  1
  Er  Er9  1  0.949980  0.350007  0.350007  1
  Er  Er10  1  0.809620  0.190380  0.190380  1
  Er  Er11  1  0.190380  0.809620  0.809620  1
  Er  Er12  1  0.190380  0.809620  0.190380  1
  Er  Er13  1  0.809620  0.190380  0.809620  1
  Er  Er14  1  0.190380  0.190380  0.809620  1
  Er  Er15  1  0.809620  0.809620  0.190380  1
  Zn  Zn16  1  0.577694  0.577694  0.577694  1
  Zn  Zn17  1  0.577694  0.577694  0.266918  1
  Zn  Zn18  1  0.577694  0.266918  0.577694  1
  Zn  Zn19  1  0.266918  0.577694  0.577694  1
  Co  Co20  1  0.141739  0.141739  0.141739  1
  Co  Co21  1  0.141739  0.141739  0.574785  1
  Co  Co22  1  0.141739  0.574785  0.141739  1
  Co  Co23  1  0.574785  0.141739  0.141739  1
