# generated using pymatgen
data_AlCr2Ga3(NiPt4)2
_symmetry_space_group_name_H-M   'P 1'
_cell_length_a   3.98825300
_cell_length_b   5.40159237
_cell_length_c   10.80140390
_cell_angle_alpha   96.40014926
_cell_angle_beta   90.00000000
_cell_angle_gamma   90.00000000
_symmetry_Int_Tables_number   1
_chemical_formula_structural   AlCr2Ga3(NiPt4)2
_chemical_formula_sum   'Al1 Cr2 Ga3 Ni2 Pt8'
_cell_volume   231.24351361
_cell_formula_units_Z   1
loop_
 _symmetry_equiv_pos_site_id
 _symmetry_equiv_pos_as_xyz
  1  'x, y, z'
loop_
 _atom_site_type_symbol
 _atom_site_label
 _atom_site_symmetry_multiplicity
 _atom_site_fract_x
 _atom_site_fract_y
 _atom_site_fract_z
 _atom_site_occupancy
  Al  Al0  1  0.500000  0.713569  0.142767  1
  Cr  Cr1  1  0.500000  0.273563  0.363056  1
  Cr  Cr2  1  0.500000  0.275020  0.863025  1
  Ga  Ga3  1  0.500000  0.707857  0.646236  1
  Ga  Ga4  1  0.000000  0.023649  0.990496  1
  Ga  Ga5  1  0.000000  0.018839  0.488394  1
  Ni  Ni6  1  0.000000  0.489072  0.254475  1
  Ni  Ni7  1  0.000000  0.489260  0.755671  1
  Pt  Pt8  1  0.500000  0.768092  0.382467  1
  Pt  Pt9  1  0.500000  0.771854  0.889366  1
  Pt  Pt10  1  0.500000  0.232083  0.115792  1
  Pt  Pt11  1  0.500000  0.224008  0.614401  1
  Pt  Pt12  1  0.000000  0.986345  0.239196  1
  Pt  Pt13  1  0.000000  0.990476  0.742928  1
  Pt  Pt14  1  0.000000  0.519447  0.007314  1
  Pt  Pt15  1  0.000000  0.516863  0.504413  1
