# generated using pymatgen
data_Sr9Mg(Pa2N7)2
_symmetry_space_group_name_H-M   'P 1'
_cell_length_a   6.40311451
_cell_length_b   9.75445497
_cell_length_c   9.65041768
_cell_angle_alpha   119.80458572
_cell_angle_beta   95.04336311
_cell_angle_gamma   103.96733387
_symmetry_Int_Tables_number   1
_chemical_formula_structural   Sr9Mg(Pa2N7)2
_chemical_formula_sum   'Sr9 Mg1 Pa4 N14'
_cell_volume   491.85192282
_cell_formula_units_Z   1
loop_
 _symmetry_equiv_pos_site_id
 _symmetry_equiv_pos_as_xyz
  1  'x, y, z'
loop_
 _atom_site_type_symbol
 _atom_site_label
 _atom_site_symmetry_multiplicity
 _atom_site_fract_x
 _atom_site_fract_y
 _atom_site_fract_z
 _atom_site_occupancy
  Sr  Sr0  1  0.216104  0.935420  0.563558  1
  Sr  Sr1  1  0.739429  0.305688  0.857020  1
  Sr  Sr2  1  0.220641  0.658864  0.146263  1
  Sr  Sr3  1  0.231811  0.803742  0.857887  1
  Sr  Sr4  1  0.738962  0.161340  0.143150  1
  Sr  Sr5  1  0.246047  0.377611  0.714193  1
  Sr  Sr6  1  0.745130  0.872705  0.713117  1
  Sr  Sr7  1  0.228946  0.095904  0.287298  1
  Sr  Sr8  1  0.729980  0.016396  0.432080  1
  Mg  Mg9  1  0.666446  0.605706  0.282200  1
  Pa  Pa10  1  0.731250  0.449438  0.560823  1
  Pa  Pa11  1  0.241743  0.522360  0.430678  1
  Pa  Pa12  1  0.255010  0.245948  0.999239  1
  Pa  Pa13  1  0.742486  0.737439  0.012067  1
  N  N14  1  0.494348  0.598663  0.671722  1
  N  N15  1  0.475724  0.369379  0.303630  1
  N  N16  1  0.987837  0.653704  0.552592  1
  N  N17  1  0.990596  0.318761  0.446351  1
  N  N18  1  0.524669  0.230308  0.558837  1
  N  N19  1  0.458274  0.743158  0.431322  1
  N  N20  1  0.026072  0.143518  0.755668  1
  N  N21  1  0.933704  0.813220  0.261217  1
  N  N22  1  0.442571  0.087246  0.886748  1
  N  N23  1  0.955389  0.950599  0.005326  1
  N  N24  1  0.483264  0.477588  0.016922  1
  N  N25  1  0.060548  0.381547  0.139649  1
  N  N26  1  0.913977  0.574394  0.856906  1
  N  N27  1  0.519041  0.869353  0.113537  1
