# generated using pymatgen
data_Ta3Nb3(B2Ru5)2
_symmetry_space_group_name_H-M   'P 1'
_cell_length_a   9.47643465
_cell_length_b   9.47643465
_cell_length_c   3.01593100
_cell_angle_alpha   90.00000000
_cell_angle_beta   90.00000000
_cell_angle_gamma   90.04255268
_symmetry_Int_Tables_number   1
_chemical_formula_structural   Ta3Nb3(B2Ru5)2
_chemical_formula_sum   'Ta3 Nb3 B4 Ru10'
_cell_volume   270.83901515
_cell_formula_units_Z   1
loop_
 _symmetry_equiv_pos_site_id
 _symmetry_equiv_pos_as_xyz
  1  'x, y, z'
loop_
 _atom_site_type_symbol
 _atom_site_label
 _atom_site_symmetry_multiplicity
 _atom_site_fract_x
 _atom_site_fract_y
 _atom_site_fract_z
 _atom_site_occupancy
  Ta  Ta0  1  0.676291  0.176291  0.000000  1
  Ta  Ta1  1  0.499966  0.500051  0.000000  1
  Ta  Ta2  1  0.000051  0.999966  0.000000  1
  Nb  Nb3  1  0.823810  0.676191  0.000000  1
  Nb  Nb4  1  0.176191  0.323810  0.000000  1
  Nb  Nb5  1  0.323837  0.823837  0.000000  1
  B  B6  1  0.621322  0.878580  0.000000  1
  B  B7  1  0.378580  0.121322  0.000000  1
  B  B8  1  0.121306  0.621306  0.000000  1
  B  B9  1  0.878734  0.378734  0.000000  1
  Ru  Ru10  1  0.571422  0.718746  0.500000  1
  Ru  Ru11  1  0.429265  0.281377  0.500000  1
  Ru  Ru12  1  0.071303  0.781380  0.500000  1
  Ru  Ru13  1  0.927956  0.218205  0.500000  1
  Ru  Ru14  1  0.281380  0.571303  0.500000  1
  Ru  Ru15  1  0.718205  0.427956  0.500000  1
  Ru  Ru16  1  0.218746  0.071422  0.500000  1
  Ru  Ru17  1  0.781377  0.929265  0.500000  1
  Ru  Ru18  1  0.500389  0.000389  0.500000  1
  Ru  Ru19  1  0.999870  0.499870  0.500000  1
