# generated using pymatgen
data_La8Tb11LuGa16
_symmetry_space_group_name_H-M   'P 1'
_cell_length_a   7.63483400
_cell_length_b   8.04255613
_cell_length_c   15.39622400
_cell_angle_alpha   90.00000000
_cell_angle_beta   90.00000000
_cell_angle_gamma   90.09952339
_symmetry_Int_Tables_number   1
_chemical_formula_structural   La8Tb11LuGa16
_chemical_formula_sum   'La8 Tb11 Lu1 Ga16'
_cell_volume   945.38186144
_cell_formula_units_Z   1
loop_
 _symmetry_equiv_pos_site_id
 _symmetry_equiv_pos_as_xyz
  1  'x, y, z'
loop_
 _atom_site_type_symbol
 _atom_site_label
 _atom_site_symmetry_multiplicity
 _atom_site_fract_x
 _atom_site_fract_y
 _atom_site_fract_z
 _atom_site_occupancy
  La  La0  1  0.016030  0.178461  0.408110  1
  La  La1  1  0.516410  0.320648  0.406920  1
  La  La2  1  0.483570  0.678316  0.904394  1
  La  La3  1  0.483570  0.678316  0.595606  1
  La  La4  1  0.985426  0.819950  0.594555  1
  La  La5  1  0.985426  0.819950  0.905445  1
  La  La6  1  0.516410  0.320648  0.093080  1
  La  La7  1  0.016030  0.178461  0.091890  1
  Tb  Tb8  1  0.326501  0.177378  0.622921  1
  Tb  Tb9  1  0.675305  0.824226  0.378851  1
  Tb  Tb10  1  0.662659  0.984466  0.750000  1
  Tb  Tb11  1  0.175155  0.675032  0.378977  1
  Tb  Tb12  1  0.824403  0.326253  0.876249  1
  Tb  Tb13  1  0.824403  0.326253  0.623751  1
  Tb  Tb14  1  0.835815  0.485560  0.250000  1
  Tb  Tb15  1  0.334930  0.013663  0.250000  1
  Tb  Tb16  1  0.326501  0.177378  0.877079  1
  Tb  Tb17  1  0.175155  0.675032  0.121023  1
  Tb  Tb18  1  0.675305  0.824226  0.121149  1
  Lu  Lu19  1  0.160199  0.508135  0.750000  1
  Ga  Ga20  1  0.271689  0.877946  0.750000  1
  Ga  Ga21  1  0.466668  0.612945  0.250000  1
  Ga  Ga22  1  0.032577  0.114910  0.750000  1
  Ga  Ga23  1  0.527816  0.394222  0.750000  1
  Ga  Ga24  1  0.153506  0.468283  0.541360  1
  Ga  Ga25  1  0.966669  0.886759  0.250000  1
  Ga  Ga26  1  0.726759  0.118257  0.250000  1
  Ga  Ga27  1  0.846701  0.531824  0.038932  1
  Ga  Ga28  1  0.346941  0.967800  0.038703  1
  Ga  Ga29  1  0.153506  0.468283  0.958640  1
  Ga  Ga30  1  0.654123  0.033130  0.540427  1
  Ga  Ga31  1  0.346941  0.967800  0.461297  1
  Ga  Ga32  1  0.846701  0.531824  0.461068  1
  Ga  Ga33  1  0.779769  0.620060  0.750000  1
  Ga  Ga34  1  0.226308  0.380478  0.250000  1
  Ga  Ga35  1  0.654123  0.033130  0.959573  1
