# generated using pymatgen
data_Y4Zr2MoO12
_symmetry_space_group_name_H-M   'P 1'
_cell_length_a   6.34179910
_cell_length_b   6.42642021
_cell_length_c   6.60312737
_cell_angle_alpha   100.32079314
_cell_angle_beta   98.31589016
_cell_angle_gamma   99.36491281
_symmetry_Int_Tables_number   1
_chemical_formula_structural   Y4Zr2MoO12
_chemical_formula_sum   'Y4 Zr2 Mo1 O12'
_cell_volume   257.00762164
_cell_formula_units_Z   1
loop_
 _symmetry_equiv_pos_site_id
 _symmetry_equiv_pos_as_xyz
  1  'x, y, z'
loop_
 _atom_site_type_symbol
 _atom_site_label
 _atom_site_symmetry_multiplicity
 _atom_site_fract_x
 _atom_site_fract_y
 _atom_site_fract_z
 _atom_site_occupancy
  Y  Y0  1  0.700775  0.865982  0.391618  1
  Y  Y1  1  0.386729  0.700604  0.865932  1
  Y  Y2  1  0.299225  0.134018  0.608382  1
  Y  Y3  1  0.613271  0.299396  0.134068  1
  Zr  Zr4  1  0.847719  0.397098  0.671437  1
  Zr  Zr5  1  0.152281  0.602902  0.328563  1
  Mo  Mo6  1  0.000000  0.000000  0.000000  1
  O  O7  1  0.584611  0.416184  0.822357  1
  O  O8  1  0.827229  0.567474  0.423535  1
  O  O9  1  0.410722  0.812063  0.565844  1
  O  O10  1  0.415389  0.583816  0.177643  1
  O  O11  1  0.172771  0.432526  0.576465  1
  O  O12  1  0.589278  0.187937  0.434156  1
  O  O13  1  0.020625  0.684306  0.888048  1
  O  O14  1  0.923849  0.089027  0.695971  1
  O  O15  1  0.691062  0.932518  0.057133  1
  O  O16  1  0.979375  0.315694  0.111952  1
  O  O17  1  0.076151  0.910973  0.304029  1
  O  O18  1  0.308938  0.067482  0.942867  1
