# generated using pymatgen
data_Er7PaBePd24
_symmetry_space_group_name_H-M   'P 1'
_cell_length_a   8.26828638
_cell_length_b   8.26828576
_cell_length_c   8.26828600
_cell_angle_alpha   89.96686966
_cell_angle_beta   90.03312341
_cell_angle_gamma   90.03312177
_symmetry_Int_Tables_number   1
_chemical_formula_structural   Er7PaBePd24
_chemical_formula_sum   'Er7 Pa1 Be1 Pd24'
_cell_volume   565.25740613
_cell_formula_units_Z   1
loop_
 _symmetry_equiv_pos_site_id
 _symmetry_equiv_pos_as_xyz
  1  'x, y, z'
loop_
 _atom_site_type_symbol
 _atom_site_label
 _atom_site_symmetry_multiplicity
 _atom_site_fract_x
 _atom_site_fract_y
 _atom_site_fract_z
 _atom_site_occupancy
  Er  Er0  1  0.250605  0.251545  0.251545  1
  Er  Er1  1  0.748289  0.748703  0.748703  1
  Er  Er2  1  0.748455  0.749395  0.251545  1
  Er  Er3  1  0.748455  0.251545  0.749395  1
  Er  Er4  1  0.251297  0.251711  0.748703  1
  Er  Er5  1  0.251297  0.748703  0.251711  1
  Er  Er6  1  0.251936  0.748064  0.748064  1
  Pa  Pa7  1  0.746028  0.253972  0.253972  1
  Be  Be8  1  0.002799  0.997201  0.997201  1
  Pd  Pd9  1  0.253791  0.499355  0.000320  1
  Pd  Pd10  1  0.746049  0.496740  0.004310  1
  Pd  Pd11  1  0.995690  0.253951  0.496740  1
  Pd  Pd12  1  0.503260  0.253951  0.004310  1
  Pd  Pd13  1  0.999680  0.746209  0.499355  1
  Pd  Pd14  1  0.500645  0.746209  0.000320  1
  Pd  Pd15  1  0.503260  0.004310  0.253951  1
  Pd  Pd16  1  0.253791  0.000320  0.499355  1
  Pd  Pd17  1  0.500645  0.000320  0.746209  1
  Pd  Pd18  1  0.746049  0.004310  0.496740  1
  Pd  Pd19  1  0.995690  0.496740  0.253951  1
  Pd  Pd20  1  0.999680  0.499355  0.746209  1
  Pd  Pd21  1  0.251135  0.499541  0.499541  1
  Pd  Pd22  1  0.748275  0.497438  0.497438  1
  Pd  Pd23  1  0.502562  0.251725  0.497438  1
  Pd  Pd24  1  0.500459  0.748865  0.499541  1
  Pd  Pd25  1  0.502562  0.497438  0.251725  1
  Pd  Pd26  1  0.500459  0.499541  0.748865  1
  Pd  Pd27  1  0.269169  0.999974  0.999974  1
  Pd  Pd28  1  0.733907  0.002985  0.002985  1
  Pd  Pd29  1  0.997015  0.266093  0.002985  1
  Pd  Pd30  1  0.000026  0.730831  0.999974  1
  Pd  Pd31  1  0.997015  0.002985  0.266093  1
  Pd  Pd32  1  0.000026  0.999974  0.730831  1
