# generated using pymatgen
data_Ta3TiB4(PRu5)2
_symmetry_space_group_name_H-M   'P 1'
_cell_length_a   9.23594740
_cell_length_b   9.23594740
_cell_length_c   2.94399700
_cell_angle_alpha   90.00000000
_cell_angle_beta   90.00000000
_cell_angle_gamma   89.70117404
_symmetry_Int_Tables_number   1
_chemical_formula_structural   Ta3TiB4(PRu5)2
_chemical_formula_sum   'Ta3 Ti1 B4 P2 Ru10'
_cell_volume   251.12754931
_cell_formula_units_Z   1
loop_
 _symmetry_equiv_pos_site_id
 _symmetry_equiv_pos_as_xyz
  1  'x, y, z'
loop_
 _atom_site_type_symbol
 _atom_site_label
 _atom_site_symmetry_multiplicity
 _atom_site_fract_x
 _atom_site_fract_y
 _atom_site_fract_z
 _atom_site_occupancy
  Ta  Ta0  1  0.174235  0.325765  0.000000  1
  Ta  Ta1  1  0.324002  0.823019  0.000000  1
  Ta  Ta2  1  0.676981  0.175998  0.000000  1
  Ti  Ti3  1  0.824353  0.675647  0.000000  1
  B  B4  1  0.626033  0.873967  0.000000  1
  B  B5  1  0.375009  0.124991  0.000000  1
  B  B6  1  0.124179  0.624991  0.000000  1
  B  B7  1  0.875009  0.375821  0.000000  1
  P  P8  1  0.501931  0.500875  0.000000  1
  P  P9  1  0.999125  0.998069  0.000000  1
  Ru  Ru10  1  0.567822  0.708025  0.500000  1
  Ru  Ru11  1  0.432769  0.291890  0.500000  1
  Ru  Ru12  1  0.067607  0.792125  0.500000  1
  Ru  Ru13  1  0.934243  0.208176  0.500000  1
  Ru  Ru14  1  0.291824  0.565757  0.500000  1
  Ru  Ru15  1  0.707875  0.432393  0.500000  1
  Ru  Ru16  1  0.208110  0.067231  0.500000  1
  Ru  Ru17  1  0.791975  0.932178  0.500000  1
  Ru  Ru18  1  0.500247  0.999753  0.500000  1
  Ru  Ru19  1  0.996674  0.503326  0.500000  1
