# generated using pymatgen
data_CsPrY9(C2Br9)2
_symmetry_space_group_name_H-M   'P 1'
_cell_length_a   10.79086188
_cell_length_b   10.86445027
_cell_length_c   10.97380328
_cell_angle_alpha   113.44072565
_cell_angle_beta   87.32234556
_cell_angle_gamma   118.95684696
_symmetry_Int_Tables_number   1
_chemical_formula_structural   CsPrY9(C2Br9)2
_chemical_formula_sum   'Cs1 Pr1 Y9 C4 Br18'
_cell_volume   1015.60019274
_cell_formula_units_Z   1
loop_
 _symmetry_equiv_pos_site_id
 _symmetry_equiv_pos_as_xyz
  1  'x, y, z'
loop_
 _atom_site_type_symbol
 _atom_site_label
 _atom_site_symmetry_multiplicity
 _atom_site_fract_x
 _atom_site_fract_y
 _atom_site_fract_z
 _atom_site_occupancy
  Cs  Cs0  1  0.500150  0.000908  0.499997  1
  Pr  Pr1  1  0.655152  0.713974  0.697933  1
  Y  Y2  1  0.281576  0.363745  0.012793  1
  Y  Y3  1  0.092506  0.404983  0.299827  1
  Y  Y4  1  0.960685  0.037586  0.332879  1
  Y  Y5  1  0.906402  0.593940  0.699120  1
  Y  Y6  1  0.112248  0.942585  0.001905  1
  Y  Y7  1  0.041025  0.963420  0.668032  1
  Y  Y8  1  0.336728  0.282344  0.296655  1
  Y  Y9  1  0.719671  0.636770  0.988544  1
  Y  Y10  1  0.888935  0.057958  0.998772  1
  C  C11  1  0.156511  0.226922  0.123582  1
  C  C12  1  0.846079  0.774125  0.877979  1
  C  C13  1  0.924193  0.852455  0.798388  1
  C  C14  1  0.078400  0.148557  0.203410  1
  Br  Br15  1  0.448996  0.526888  0.839409  1
  Br  Br16  1  0.381206  0.039727  0.159189  1
  Br  Br17  1  0.784078  0.862292  0.498637  1
  Br  Br18  1  0.840115  0.310434  0.154478  1
  Br  Br19  1  0.547649  0.469272  0.165564  1
  Br  Br20  1  0.220459  0.141936  0.498244  1
  Br  Br21  1  0.314190  0.100732  0.829203  1
  Br  Br22  1  0.686675  0.899582  0.170826  1
  Br  Br23  1  0.973498  0.761512  0.173380  1
  Br  Br24  1  0.933576  0.302157  0.500094  1
  Br  Br25  1  0.026976  0.238345  0.827255  1
  Br  Br26  1  0.066864  0.697951  0.499978  1
  Br  Br27  1  0.260070  0.621783  0.187552  1
  Br  Br28  1  0.739852  0.378492  0.812610  1
  Br  Br29  1  0.638854  0.422916  0.492597  1
  Br  Br30  1  0.160524  0.690514  0.846344  1
  Br  Br31  1  0.619207  0.972038  0.847738  1
  Br  Br32  1  0.356950  0.563158  0.497084  1
