# generated using pymatgen
data_Dy8Nb11Si16Os
_symmetry_space_group_name_H-M   'P 1'
_cell_length_a   7.04559158
_cell_length_b   7.05682760
_cell_length_c   13.05149534
_cell_angle_alpha   90.26005556
_cell_angle_beta   90.05195519
_cell_angle_gamma   90.08700042
_symmetry_Int_Tables_number   1
_chemical_formula_structural   Dy8Nb11Si16Os
_chemical_formula_sum   'Dy8 Nb11 Si16 Os1'
_cell_volume   648.90644796
_cell_formula_units_Z   1
loop_
 _symmetry_equiv_pos_site_id
 _symmetry_equiv_pos_as_xyz
  1  'x, y, z'
loop_
 _atom_site_type_symbol
 _atom_site_label
 _atom_site_symmetry_multiplicity
 _atom_site_fract_x
 _atom_site_fract_y
 _atom_site_fract_z
 _atom_site_occupancy
  Dy  Dy0  1  0.999109  0.657743  0.033963  1
  Dy  Dy1  1  0.001781  0.342731  0.531356  1
  Dy  Dy2  1  0.659112  0.997809  0.967534  1
  Dy  Dy3  1  0.158353  0.501213  0.781945  1
  Dy  Dy4  1  0.841111  0.498488  0.282544  1
  Dy  Dy5  1  0.502271  0.158500  0.219679  1
  Dy  Dy6  1  0.497155  0.840970  0.715955  1
  Dy  Dy7  1  0.341442  0.000280  0.467345  1
  Nb  Nb8  1  0.844855  0.994428  0.374577  1
  Nb  Nb9  1  0.011153  0.157854  0.127780  1
  Nb  Nb10  1  0.995172  0.843303  0.623607  1
  Nb  Nb11  1  0.504139  0.346197  0.623019  1
  Nb  Nb12  1  0.153936  0.006646  0.874411  1
  Nb  Nb13  1  0.674011  0.671382  0.499936  1
  Nb  Nb14  1  0.829603  0.170465  0.749827  1
  Nb  Nb15  1  0.172714  0.831887  0.249546  1
  Nb  Nb16  1  0.329176  0.328232  0.000969  1
  Nb  Nb17  1  0.494858  0.653731  0.124356  1
  Nb  Nb18  1  0.653552  0.492823  0.875513  1
  Si  Si19  1  0.048667  0.707202  0.434431  1
  Si  Si20  1  0.954807  0.293630  0.936778  1
  Si  Si21  1  0.708002  0.046010  0.563344  1
  Si  Si22  1  0.209876  0.458935  0.189867  1
  Si  Si23  1  0.792630  0.544645  0.686795  1
  Si  Si24  1  0.454522  0.205921  0.813124  1
  Si  Si25  1  0.540188  0.785384  0.313590  1
  Si  Si26  1  0.293838  0.954046  0.063192  1
  Si  Si27  1  0.797009  0.869644  0.184074  1
  Si  Si28  1  0.298855  0.630885  0.563881  1
  Si  Si29  1  0.703838  0.365936  0.067592  1
  Si  Si30  1  0.625597  0.302993  0.432700  1
  Si  Si31  1  0.367078  0.703644  0.932870  1
  Si  Si32  1  0.132421  0.208354  0.318883  1
  Si  Si33  1  0.202783  0.132878  0.682374  1
  Si  Si34  1  0.867454  0.794505  0.816477  1
  Os  Os35  1  0.338932  0.500707  0.376169  1
