# generated using pymatgen
data_Ca3Ru4PbO14
_symmetry_space_group_name_H-M   'P 1'
_cell_length_a   7.27383579
_cell_length_b   7.27383445
_cell_length_c   7.27383570
_cell_angle_alpha   60.76199797
_cell_angle_beta   60.76200076
_cell_angle_gamma   60.76199930
_symmetry_Int_Tables_number   1
_chemical_formula_structural   Ca3Ru4PbO14
_chemical_formula_sum   'Ca3 Ru4 Pb1 O14'
_cell_volume   276.80763466
_cell_formula_units_Z   1
loop_
 _symmetry_equiv_pos_site_id
 _symmetry_equiv_pos_as_xyz
  1  'x, y, z'
loop_
 _atom_site_type_symbol
 _atom_site_label
 _atom_site_symmetry_multiplicity
 _atom_site_fract_x
 _atom_site_fract_y
 _atom_site_fract_z
 _atom_site_occupancy
  Ca  Ca0  1  0.625000  0.125000  0.625000  1
  Ca  Ca1  1  0.625000  0.625000  0.125000  1
  Ca  Ca2  1  0.125000  0.625000  0.625000  1
  Ru  Ru3  1  0.625000  0.125000  0.125000  1
  Ru  Ru4  1  0.125000  0.625000  0.125000  1
  Ru  Ru5  1  0.125000  0.125000  0.625000  1
  Ru  Ru6  1  0.125000  0.125000  0.125000  1
  Pb  Pb7  1  0.625000  0.625000  0.625000  1
  O  O8  1  0.193750  0.193750  0.805424  1
  O  O9  1  0.193750  0.805424  0.193750  1
  O  O10  1  0.444576  0.056250  0.056250  1
  O  O11  1  0.201005  0.800024  0.800024  1
  O  O12  1  0.048995  0.449976  0.449976  1
  O  O13  1  0.800024  0.800024  0.201005  1
  O  O14  1  0.449976  0.449976  0.048995  1
  O  O15  1  0.501236  0.501236  0.501236  1
  O  O16  1  0.056250  0.056250  0.444576  1
  O  O17  1  0.449976  0.048995  0.449976  1
  O  O18  1  0.056250  0.444576  0.056250  1
  O  O19  1  0.748764  0.748764  0.748764  1
  O  O20  1  0.800024  0.201005  0.800024  1
  O  O21  1  0.805424  0.193750  0.193750  1
