# generated using pymatgen
data_Sc24Co5Ru3
_symmetry_space_group_name_H-M   'P 1'
_cell_length_a   5.85839521
_cell_length_b   8.53177900
_cell_length_c   13.21955630
_cell_angle_alpha   90.00000000
_cell_angle_beta   89.73094746
_cell_angle_gamma   90.00000000
_symmetry_Int_Tables_number   1
_chemical_formula_structural   Sc24Co5Ru3
_chemical_formula_sum   'Sc24 Co5 Ru3'
_cell_volume   660.73962686
_cell_formula_units_Z   1
loop_
 _symmetry_equiv_pos_site_id
 _symmetry_equiv_pos_as_xyz
  1  'x, y, z'
loop_
 _atom_site_type_symbol
 _atom_site_label
 _atom_site_symmetry_multiplicity
 _atom_site_fract_x
 _atom_site_fract_y
 _atom_site_fract_z
 _atom_site_occupancy
  Sc  Sc0  1  0.536151  0.750000  0.351975  1
  Sc  Sc1  1  0.036558  0.250000  0.147118  1
  Sc  Sc2  1  0.464993  0.250000  0.649335  1
  Sc  Sc3  1  0.953016  0.750000  0.854233  1
  Sc  Sc4  1  0.785500  0.750000  0.106592  1
  Sc  Sc5  1  0.284345  0.250000  0.387922  1
  Sc  Sc6  1  0.213653  0.250000  0.887406  1
  Sc  Sc7  1  0.711307  0.750000  0.613426  1
  Sc  Sc8  1  0.405324  0.931928  0.788987  1
  Sc  Sc9  1  0.908408  0.064976  0.715061  1
  Sc  Sc10  1  0.591541  0.434538  0.214289  1
  Sc  Sc11  1  0.089833  0.566874  0.283716  1
  Sc  Sc12  1  0.591541  0.065462  0.214289  1
  Sc  Sc13  1  0.089833  0.933126  0.283716  1
  Sc  Sc14  1  0.405324  0.568072  0.788987  1
  Sc  Sc15  1  0.908408  0.435024  0.715061  1
  Sc  Sc16  1  0.249130  0.937524  0.538090  1
  Sc  Sc17  1  0.752023  0.062205  0.962518  1
  Sc  Sc18  1  0.753214  0.438293  0.462734  1
  Sc  Sc19  1  0.257918  0.564348  0.035421  1
  Sc  Sc20  1  0.753214  0.061707  0.462734  1
  Sc  Sc21  1  0.257918  0.935652  0.035421  1
  Sc  Sc22  1  0.249130  0.562476  0.538090  1
  Sc  Sc23  1  0.752023  0.437795  0.962518  1
  Co  Co24  1  0.554209  0.750000  0.939782  1
  Co  Co25  1  0.374792  0.750000  0.179077  1
  Co  Co26  1  0.871106  0.250000  0.319057  1
  Co  Co27  1  0.630752  0.250000  0.821298  1
  Co  Co28  1  0.126917  0.750000  0.681434  1
  Ru  Ru29  1  0.938950  0.750000  0.441487  1
  Ru  Ru30  1  0.441693  0.250000  0.058100  1
  Ru  Ru31  1  0.061274  0.250000  0.560127  1
