# generated using pymatgen
data_NdEr2Tm(Si3Rh)2
_symmetry_space_group_name_H-M   'P 1'
_cell_length_a   8.17656703
_cell_length_b   8.17532104
_cell_length_c   7.95211400
_cell_angle_alpha   90.00000000
_cell_angle_beta   90.00000000
_cell_angle_gamma   119.99495755
_symmetry_Int_Tables_number   1
_chemical_formula_structural   NdEr2Tm(Si3Rh)2
_chemical_formula_sum   'Nd2 Er4 Tm2 Si12 Rh4'
_cell_volume   460.37434206
_cell_formula_units_Z   2
loop_
 _symmetry_equiv_pos_site_id
 _symmetry_equiv_pos_as_xyz
  1  'x, y, z'
loop_
 _atom_site_type_symbol
 _atom_site_label
 _atom_site_symmetry_multiplicity
 _atom_site_fract_x
 _atom_site_fract_y
 _atom_site_fract_z
 _atom_site_occupancy
  Nd  Nd0  1  0.999967  0.999983  0.250000  1
  Nd  Nd1  1  0.000049  0.000025  0.750000  1
  Er  Er2  1  0.015970  0.507985  0.250000  1
  Er  Er3  1  0.507970  0.492010  0.750000  1
  Er  Er4  1  0.984058  0.492029  0.750000  1
  Er  Er5  1  0.507970  0.015961  0.750000  1
  Tm  Tm6  1  0.492106  0.507973  0.250000  1
  Tm  Tm7  1  0.492106  0.984133  0.250000  1
  Si  Si8  1  0.831398  0.168493  0.502479  1
  Si  Si9  1  0.831398  0.662907  0.502479  1
  Si  Si10  1  0.337105  0.168553  0.502438  1
  Si  Si11  1  0.831398  0.168493  0.997521  1
  Si  Si12  1  0.831398  0.662907  0.997521  1
  Si  Si13  1  0.337105  0.168553  0.997562  1
  Si  Si14  1  0.168631  0.831559  0.002712  1
  Si  Si15  1  0.662873  0.831436  0.002844  1
  Si  Si16  1  0.168631  0.337071  0.002712  1
  Si  Si17  1  0.168631  0.831559  0.497288  1
  Si  Si18  1  0.662873  0.831436  0.497156  1
  Si  Si19  1  0.168631  0.337071  0.497288  1
  Rh  Rh20  1  0.666398  0.333199  0.464303  1
  Rh  Rh21  1  0.666398  0.333199  0.035697  1
  Rh  Rh22  1  0.333465  0.666733  0.965159  1
  Rh  Rh23  1  0.333465  0.666733  0.534841  1
