# generated using pymatgen
data_Zr5TlInGaSn
_symmetry_space_group_name_H-M   'P 1'
_cell_length_a   8.78390342
_cell_length_b   8.78286595
_cell_length_c   5.91538600
_cell_angle_alpha   90.00000000
_cell_angle_beta   90.00000000
_cell_angle_gamma   119.96850369
_symmetry_Int_Tables_number   1
_chemical_formula_structural   Zr5TlInGaSn
_chemical_formula_sum   'Zr10 Tl2 In2 Ga2 Sn2'
_cell_volume   395.34411176
_cell_formula_units_Z   2
loop_
 _symmetry_equiv_pos_site_id
 _symmetry_equiv_pos_as_xyz
  1  'x, y, z'
loop_
 _atom_site_type_symbol
 _atom_site_label
 _atom_site_symmetry_multiplicity
 _atom_site_fract_x
 _atom_site_fract_y
 _atom_site_fract_z
 _atom_site_occupancy
  Zr  Zr0  1  0.999835  0.263791  0.250000  1
  Zr  Zr1  1  0.738309  0.999986  0.750000  1
  Zr  Zr2  1  0.737271  0.736216  0.250000  1
  Zr  Zr3  1  0.668028  0.335007  0.501369  1
  Zr  Zr4  1  0.997279  0.734159  0.750000  1
  Zr  Zr5  1  0.262934  0.265602  0.750000  1
  Zr  Zr6  1  0.332167  0.665367  0.998747  1
  Zr  Zr7  1  0.668028  0.335007  0.998631  1
  Zr  Zr8  1  0.332167  0.665367  0.501253  1
  Zr  Zr9  1  0.263885  0.998856  0.250000  1
  Tl  Tl10  1  0.612989  0.999880  0.250000  1
  Tl  Tl11  1  0.385713  0.385145  0.250000  1
  In  In12  1  0.385129  0.000106  0.750000  1
  In  In13  1  0.000473  0.615205  0.250000  1
  Ga  Ga14  1  0.001993  0.999860  0.001478  1
  Ga  Ga15  1  0.001993  0.999860  0.498522  1
  Sn  Sn16  1  0.998921  0.386422  0.750000  1
  Sn  Sn17  1  0.612882  0.614165  0.750000  1
