# generated using pymatgen
data_Ba9AcLa2(Si7Cl3)2
_symmetry_space_group_name_H-M   'P 1'
_cell_length_a   4.34674300
_cell_length_b   12.38348000
_cell_length_c   17.93053300
_cell_angle_alpha   90.00000000
_cell_angle_beta   90.00000000
_cell_angle_gamma   90.00000000
_symmetry_Int_Tables_number   1
_chemical_formula_structural   Ba9AcLa2(Si7Cl3)2
_chemical_formula_sum   'Ba9 Ac1 La2 Si14 Cl6'
_cell_volume   965.16123397
_cell_formula_units_Z   1
loop_
 _symmetry_equiv_pos_site_id
 _symmetry_equiv_pos_as_xyz
  1  'x, y, z'
loop_
 _atom_site_type_symbol
 _atom_site_label
 _atom_site_symmetry_multiplicity
 _atom_site_fract_x
 _atom_site_fract_y
 _atom_site_fract_z
 _atom_site_occupancy
  Ba  Ba0  1  0.000000  0.678279  0.000000  1
  Ba  Ba1  1  0.500000  0.342688  0.750249  1
  Ba  Ba2  1  0.000000  0.654689  0.748213  1
  Ba  Ba3  1  0.500000  0.342688  0.249751  1
  Ba  Ba4  1  0.000000  0.654689  0.251787  1
  Ba  Ba5  1  0.500000  0.049326  0.875219  1
  Ba  Ba6  1  0.000000  0.948484  0.624592  1
  Ba  Ba7  1  0.500000  0.049326  0.124781  1
  Ba  Ba8  1  0.000000  0.948484  0.375408  1
  Ac  Ac9  1  0.500000  0.337025  0.500000  1
  La  La10  1  0.500000  0.362120  0.000000  1
  La  La11  1  0.000000  0.641738  0.500000  1
  Si  Si12  1  0.000000  0.170884  0.000000  1
  Si  Si13  1  0.500000  0.829225  0.500000  1
  Si  Si14  1  0.500000  0.549011  0.878060  1
  Si  Si15  1  0.000000  0.444895  0.617552  1
  Si  Si16  1  0.500000  0.549011  0.121940  1
  Si  Si17  1  0.000000  0.444895  0.382448  1
  Si  Si18  1  0.000000  0.262688  0.885577  1
  Si  Si19  1  0.500000  0.734335  0.614605  1
  Si  Si20  1  0.000000  0.262688  0.114423  1
  Si  Si21  1  0.500000  0.734335  0.385395  1
  Si  Si22  1  0.000000  0.455280  0.883135  1
  Si  Si23  1  0.500000  0.541849  0.613287  1
  Si  Si24  1  0.500000  0.541849  0.386713  1
  Si  Si25  1  0.000000  0.455280  0.116865  1
  Cl  Cl26  1  0.500000  0.104032  0.692420  1
  Cl  Cl27  1  0.000000  0.895232  0.805174  1
  Cl  Cl28  1  0.000000  0.149920  0.500000  1
  Cl  Cl29  1  0.500000  0.865794  0.000000  1
  Cl  Cl30  1  0.500000  0.104032  0.307580  1
  Cl  Cl31  1  0.000000  0.895232  0.194826  1
