# generated using pymatgen
data_Tm2Lu10InFe3Pb
_symmetry_space_group_name_H-M   'P 1'
_cell_length_a   8.20543284
_cell_length_b   8.20519443
_cell_length_c   8.20063859
_cell_angle_alpha   108.51117452
_cell_angle_beta   108.67898697
_cell_angle_gamma   111.25976357
_symmetry_Int_Tables_number   1
_chemical_formula_structural   Tm2Lu10InFe3Pb
_chemical_formula_sum   'Tm2 Lu10 In1 Fe3 Pb1'
_cell_volume   424.60427605
_cell_formula_units_Z   1
loop_
 _symmetry_equiv_pos_site_id
 _symmetry_equiv_pos_as_xyz
  1  'x, y, z'
loop_
 _atom_site_type_symbol
 _atom_site_label
 _atom_site_symmetry_multiplicity
 _atom_site_fract_x
 _atom_site_fract_y
 _atom_site_fract_z
 _atom_site_occupancy
  Tm  Tm0  1  0.693918  0.309651  0.003571  1
  Tm  Tm1  1  0.306082  0.690349  0.996429  1
  Lu  Lu2  1  0.190381  0.425359  0.235547  1
  Lu  Lu3  1  0.809619  0.574641  0.764453  1
  Lu  Lu4  1  0.189794  0.954812  0.764447  1
  Lu  Lu5  1  0.959333  0.192549  0.766200  1
  Lu  Lu6  1  0.810206  0.045188  0.235553  1
  Lu  Lu7  1  0.040667  0.807451  0.233800  1
  Lu  Lu8  1  0.426357  0.193143  0.233799  1
  Lu  Lu9  1  0.573643  0.806857  0.766201  1
  Lu  Lu10  1  0.306257  0.309826  0.616080  1
  Lu  Lu11  1  0.693743  0.690174  0.383920  1
  In  In12  1  0.000000  0.500000  0.500000  1
  Fe  Fe13  1  0.384163  0.384160  0.000001  1
  Fe  Fe14  1  0.615837  0.615840  0.999999  1
  Fe  Fe15  1  0.000000  0.000000  0.000000  1
  Pb  Pb16  1  0.500000  0.000000  0.500000  1
