# generated using pymatgen
data_Tb15YMgCo4Ag3
_symmetry_space_group_name_H-M   'P 1'
_cell_length_a   9.47042318
_cell_length_b   9.49089737
_cell_length_c   9.46891702
_cell_angle_alpha   60.06936935
_cell_angle_beta   60.00255690
_cell_angle_gamma   60.10077417
_symmetry_Int_Tables_number   1
_chemical_formula_structural   Tb15YMgCo4Ag3
_chemical_formula_sum   'Tb15 Y1 Mg1 Co4 Ag3'
_cell_volume   602.59783885
_cell_formula_units_Z   1
loop_
 _symmetry_equiv_pos_site_id
 _symmetry_equiv_pos_as_xyz
  1  'x, y, z'
loop_
 _atom_site_type_symbol
 _atom_site_label
 _atom_site_symmetry_multiplicity
 _atom_site_fract_x
 _atom_site_fract_y
 _atom_site_fract_z
 _atom_site_occupancy
  Tb  Tb0  1  0.346026  0.345047  0.345358  1
  Tb  Tb1  1  0.345998  0.345015  0.963596  1
  Tb  Tb2  1  0.346226  0.963473  0.345115  1
  Tb  Tb3  1  0.950810  0.350130  0.349501  1
  Tb  Tb4  1  0.809073  0.188965  0.189889  1
  Tb  Tb5  1  0.185331  0.813541  0.813862  1
  Tb  Tb6  1  0.185335  0.813571  0.187276  1
  Tb  Tb7  1  0.809031  0.188961  0.812119  1
  Tb  Tb8  1  0.185209  0.186011  0.814434  1
  Tb  Tb9  1  0.808496  0.811575  0.189971  1
  Tb  Tb10  1  0.935796  0.562482  0.562681  1
  Tb  Tb11  1  0.562538  0.937416  0.937673  1
  Tb  Tb12  1  0.562559  0.937390  0.562395  1
  Tb  Tb13  1  0.935814  0.562469  0.939060  1
  Tb  Tb14  1  0.561777  0.562994  0.937622  1
  Y  Y15  1  0.936751  0.937893  0.562672  1
  Mg  Mg16  1  0.290139  0.569849  0.570028  1
  Co  Co17  1  0.139236  0.142530  0.141306  1
  Co  Co18  1  0.139229  0.142536  0.576921  1
  Co  Co19  1  0.140294  0.576910  0.141404  1
  Co  Co20  1  0.576984  0.142035  0.140493  1
  Ag  Ag21  1  0.582572  0.583413  0.582660  1
  Ag  Ag22  1  0.582598  0.583368  0.251294  1
  Ag  Ag23  1  0.582178  0.252425  0.582670  1
