# generated using pymatgen
data_Y6Tm10Cd4Ir3Ru
_symmetry_space_group_name_H-M   'P 1'
_cell_length_a   9.58505383
_cell_length_b   9.58505403
_cell_length_c   9.58505424
_cell_angle_alpha   59.76491764
_cell_angle_beta   59.76491523
_cell_angle_gamma   59.76491735
_symmetry_Int_Tables_number   1
_chemical_formula_structural   Y6Tm10Cd4Ir3Ru
_chemical_formula_sum   'Y6 Tm10 Cd4 Ir3 Ru1'
_cell_volume   619.36168181
_cell_formula_units_Z   1
loop_
 _symmetry_equiv_pos_site_id
 _symmetry_equiv_pos_as_xyz
  1  'x, y, z'
loop_
 _atom_site_type_symbol
 _atom_site_label
 _atom_site_symmetry_multiplicity
 _atom_site_fract_x
 _atom_site_fract_y
 _atom_site_fract_z
 _atom_site_occupancy
  Y  Y0  1  0.940653  0.560190  0.560190  1
  Y  Y1  1  0.559013  0.939829  0.939829  1
  Y  Y2  1  0.560190  0.940653  0.560190  1
  Y  Y3  1  0.939829  0.559013  0.939829  1
  Y  Y4  1  0.560190  0.560190  0.940653  1
  Y  Y5  1  0.939829  0.939829  0.559013  1
  Tm  Tm6  1  0.347909  0.347909  0.347909  1
  Tm  Tm7  1  0.348297  0.348297  0.956241  1
  Tm  Tm8  1  0.348297  0.956241  0.348297  1
  Tm  Tm9  1  0.956241  0.348297  0.348297  1
  Tm  Tm10  1  0.812261  0.187958  0.187958  1
  Tm  Tm11  1  0.187615  0.811205  0.811205  1
  Tm  Tm12  1  0.187958  0.812261  0.187958  1
  Tm  Tm13  1  0.811205  0.187615  0.811205  1
  Tm  Tm14  1  0.187958  0.187958  0.812261  1
  Tm  Tm15  1  0.811205  0.811205  0.187615  1
  Cd  Cd16  1  0.579794  0.579794  0.579794  1
  Cd  Cd17  1  0.580553  0.580553  0.257795  1
  Cd  Cd18  1  0.580553  0.257795  0.580553  1
  Cd  Cd19  1  0.257795  0.580553  0.580553  1
  Ir  Ir20  1  0.142699  0.142699  0.576153  1
  Ir  Ir21  1  0.142699  0.576153  0.142699  1
  Ir  Ir22  1  0.576153  0.142699  0.142699  1
  Ru  Ru23  1  0.141109  0.141109  0.141109  1
