# generated using pymatgen
data_Lu2Al2RuRh
_symmetry_space_group_name_H-M   'P 1'
_cell_length_a   4.03874800
_cell_length_b   6.86665300
_cell_length_c   7.99330200
_cell_angle_alpha   90.00000000
_cell_angle_beta   90.00000000
_cell_angle_gamma   90.00000000
_symmetry_Int_Tables_number   1
_chemical_formula_structural   Lu2Al2RuRh
_chemical_formula_sum   'Lu4 Al4 Ru2 Rh2'
_cell_volume   221.67569507
_cell_formula_units_Z   2
loop_
 _symmetry_equiv_pos_site_id
 _symmetry_equiv_pos_as_xyz
  1  'x, y, z'
loop_
 _atom_site_type_symbol
 _atom_site_label
 _atom_site_symmetry_multiplicity
 _atom_site_fract_x
 _atom_site_fract_y
 _atom_site_fract_z
 _atom_site_occupancy
  Lu  Lu0  1  0.250000  0.965592  0.321911  1
  Lu  Lu1  1  0.750000  0.535716  0.822961  1
  Lu  Lu2  1  0.250000  0.465592  0.178089  1
  Lu  Lu3  1  0.750000  0.035716  0.677039  1
  Al  Al4  1  0.750000  0.636559  0.439897  1
  Al  Al5  1  0.750000  0.136559  0.060103  1
  Al  Al6  1  0.250000  0.361707  0.558019  1
  Al  Al7  1  0.250000  0.861707  0.941981  1
  Ru  Ru8  1  0.750000  0.764903  0.123779  1
  Ru  Ru9  1  0.750000  0.264903  0.376221  1
  Rh  Rh10  1  0.250000  0.235522  0.874923  1
  Rh  Rh11  1  0.250000  0.735522  0.625077  1
