# generated using pymatgen
data_TaAlSiRh5
_symmetry_space_group_name_H-M   'P 1'
_cell_length_a   4.05073000
_cell_length_b   5.41413133
_cell_length_c   10.43866020
_cell_angle_alpha   86.66048232
_cell_angle_beta   90.00000000
_cell_angle_gamma   90.00000000
_symmetry_Int_Tables_number   1
_chemical_formula_structural   TaAlSiRh5
_chemical_formula_sum   'Ta2 Al2 Si2 Rh10'
_cell_volume   228.54342446
_cell_formula_units_Z   2
loop_
 _symmetry_equiv_pos_site_id
 _symmetry_equiv_pos_as_xyz
  1  'x, y, z'
loop_
 _atom_site_type_symbol
 _atom_site_label
 _atom_site_symmetry_multiplicity
 _atom_site_fract_x
 _atom_site_fract_y
 _atom_site_fract_z
 _atom_site_occupancy
  Ta  Ta0  1  0.500000  0.159250  0.646988  1
  Ta  Ta1  1  0.500000  0.840750  0.353012  1
  Al  Al2  1  0.500000  0.646181  0.859946  1
  Al  Al3  1  0.500000  0.353819  0.140054  1
  Si  Si4  1  0.000000  0.500000  0.500000  1
  Si  Si5  1  0.000000  0.000000  0.000000  1
  Rh  Rh6  1  0.500000  0.321203  0.397852  1
  Rh  Rh7  1  0.500000  0.678797  0.602148  1
  Rh  Rh8  1  0.500000  0.821920  0.103229  1
  Rh  Rh9  1  0.500000  0.178080  0.896771  1
  Rh  Rh10  1  0.000000  0.403147  0.735205  1
  Rh  Rh11  1  0.000000  0.596853  0.264795  1
  Rh  Rh12  1  0.000000  0.897891  0.773772  1
  Rh  Rh13  1  0.000000  0.102109  0.226228  1
  Rh  Rh14  1  0.000000  0.500000  0.000000  1
  Rh  Rh15  1  0.000000  0.000000  0.500000  1
