# generated using pymatgen
data_Ba(FeI4)2
_symmetry_space_group_name_H-M   'P 1'
_cell_length_a   8.15027200
_cell_length_b   9.29939841
_cell_length_c   14.59813838
_cell_angle_alpha   79.01195284
_cell_angle_beta   90.00000000
_cell_angle_gamma   90.00000000
_symmetry_Int_Tables_number   1
_chemical_formula_structural   Ba(FeI4)2
_chemical_formula_sum   'Ba2 Fe4 I16'
_cell_volume   1086.14700992
_cell_formula_units_Z   2
loop_
 _symmetry_equiv_pos_site_id
 _symmetry_equiv_pos_as_xyz
  1  'x, y, z'
loop_
 _atom_site_type_symbol
 _atom_site_label
 _atom_site_symmetry_multiplicity
 _atom_site_fract_x
 _atom_site_fract_y
 _atom_site_fract_z
 _atom_site_occupancy
  Ba  Ba0  1  0.864669  0.500000  0.750000  1
  Ba  Ba1  1  0.135331  0.500000  0.250000  1
  Fe  Fe2  1  0.270187  0.692665  0.560600  1
  Fe  Fe3  1  0.729813  0.692665  0.060600  1
  Fe  Fe4  1  0.729813  0.307335  0.439400  1
  Fe  Fe5  1  0.270187  0.307335  0.939400  1
  I  I6  1  0.799655  0.421063  0.107221  1
  I  I7  1  0.799655  0.578937  0.392779  1
  I  I8  1  0.276579  0.772828  0.382039  1
  I  I9  1  0.276579  0.227172  0.117961  1
  I  I10  1  0.723421  0.227172  0.617961  1
  I  I11  1  0.723421  0.772828  0.882039  1
  I  I12  1  0.052794  0.838346  0.631955  1
  I  I13  1  0.052794  0.161654  0.868045  1
  I  I14  1  0.947206  0.161654  0.368045  1
  I  I15  1  0.947206  0.838346  0.131955  1
  I  I16  1  0.555122  0.745447  0.620870  1
  I  I17  1  0.555122  0.254553  0.879130  1
  I  I18  1  0.444878  0.254553  0.379130  1
  I  I19  1  0.444878  0.745447  0.120870  1
  I  I20  1  0.200345  0.421063  0.607221  1
  I  I21  1  0.200345  0.578937  0.892779  1
