# generated using pymatgen
data_ThAs12OsRu3
_symmetry_space_group_name_H-M   'P 1'
_cell_length_a   7.44906083
_cell_length_b   7.45683745
_cell_length_c   7.45683751
_cell_angle_alpha   109.49234123
_cell_angle_beta   109.45009600
_cell_angle_gamma   109.45009868
_symmetry_Int_Tables_number   1
_chemical_formula_structural   ThAs12OsRu3
_chemical_formula_sum   'Th1 As12 Os1 Ru3'
_cell_volume   318.93494407
_cell_formula_units_Z   1
loop_
 _symmetry_equiv_pos_site_id
 _symmetry_equiv_pos_as_xyz
  1  'x, y, z'
loop_
 _atom_site_type_symbol
 _atom_site_label
 _atom_site_symmetry_multiplicity
 _atom_site_fract_x
 _atom_site_fract_y
 _atom_site_fract_z
 _atom_site_occupancy
  Th  Th0  1  0.000000  0.000000  0.000000  1
  As  As1  1  0.345855  0.196904  0.849850  1
  As  As2  1  0.654145  0.803096  0.150150  1
  As  As3  1  0.653745  0.504011  0.850142  1
  As  As4  1  0.346255  0.495989  0.149858  1
  As  As5  1  0.196397  0.850142  0.346132  1
  As  As6  1  0.803603  0.149858  0.653868  1
  As  As7  1  0.503996  0.849850  0.652946  1
  As  As8  1  0.496004  0.150150  0.347054  1
  As  As9  1  0.851049  0.347054  0.196904  1
  As  As10  1  0.148951  0.652946  0.803096  1
  As  As11  1  0.850265  0.653868  0.504011  1
  As  As12  1  0.149735  0.346132  0.495989  1
  Os  Os13  1  0.500000  0.000000  0.000000  1
  Ru  Ru14  1  0.000000  0.000000  0.500000  1
  Ru  Ru15  1  0.000000  0.500000  0.000000  1
  Ru  Ru16  1  0.500000  0.500000  0.500000  1
