# generated using pymatgen
data_Eu4V3WO12
_symmetry_space_group_name_H-M   'P 1'
_cell_length_a   5.56681076
_cell_length_b   5.66868982
_cell_length_c   7.99785627
_cell_angle_alpha   89.98883032
_cell_angle_beta   90.11884856
_cell_angle_gamma   90.51736540
_symmetry_Int_Tables_number   1
_chemical_formula_structural   Eu4V3WO12
_chemical_formula_sum   'Eu4 V3 W1 O12'
_cell_volume   252.37370302
_cell_formula_units_Z   1
loop_
 _symmetry_equiv_pos_site_id
 _symmetry_equiv_pos_as_xyz
  1  'x, y, z'
loop_
 _atom_site_type_symbol
 _atom_site_label
 _atom_site_symmetry_multiplicity
 _atom_site_fract_x
 _atom_site_fract_y
 _atom_site_fract_z
 _atom_site_occupancy
  Eu  Eu0  1  0.990604  0.048411  0.264996  1
  Eu  Eu1  1  0.496673  0.461143  0.737164  1
  Eu  Eu2  1  0.503327  0.538857  0.262836  1
  Eu  Eu3  1  0.009396  0.951589  0.735004  1
  V  V4  1  0.500000  0.000000  0.500000  1
  V  V5  1  0.000000  0.500000  0.000000  1
  V  V6  1  0.000000  0.500000  0.500000  1
  W  W7  1  0.500000  0.000000  0.000000  1
  O  O8  1  0.585970  0.027325  0.754188  1
  O  O9  1  0.214065  0.207076  0.540267  1
  O  O10  1  0.219203  0.197882  0.956439  1
  O  O11  1  0.704525  0.294109  0.047279  1
  O  O12  1  0.709737  0.290704  0.462904  1
  O  O13  1  0.077745  0.474980  0.246872  1
  O  O14  1  0.922255  0.525020  0.753128  1
  O  O15  1  0.295475  0.705891  0.952721  1
  O  O16  1  0.290263  0.709296  0.537096  1
  O  O17  1  0.780797  0.802118  0.043561  1
  O  O18  1  0.785935  0.792924  0.459733  1
  O  O19  1  0.414030  0.972675  0.245812  1
