# generated using pymatgen
data_Tb5YEr4(In2Ni)4
_symmetry_space_group_name_H-M   'P 1'
_cell_length_a   3.60209600
_cell_length_b   8.02385423
_cell_length_c   17.95142952
_cell_angle_alpha   90.02759903
_cell_angle_beta   90.00000000
_cell_angle_gamma   90.00000000
_symmetry_Int_Tables_number   1
_chemical_formula_structural   Tb5YEr4(In2Ni)4
_chemical_formula_sum   'Tb5 Y1 Er4 In8 Ni4'
_cell_volume   518.84460039
_cell_formula_units_Z   1
loop_
 _symmetry_equiv_pos_site_id
 _symmetry_equiv_pos_as_xyz
  1  'x, y, z'
loop_
 _atom_site_type_symbol
 _atom_site_label
 _atom_site_symmetry_multiplicity
 _atom_site_fract_x
 _atom_site_fract_y
 _atom_site_fract_z
 _atom_site_occupancy
  Tb  Tb0  1  0.000000  0.500000  0.500000  1
  Tb  Tb1  1  0.000000  0.747645  0.280565  1
  Tb  Tb2  1  0.000000  0.252355  0.719435  1
  Tb  Tb3  1  0.000000  0.752371  0.780486  1
  Tb  Tb4  1  0.000000  0.247629  0.219514  1
  Y  Y5  1  0.000000  0.000000  0.000000  1
  Er  Er6  1  0.000000  0.618958  0.089273  1
  Er  Er7  1  0.000000  0.381042  0.910727  1
  Er  Er8  1  0.000000  0.880685  0.589194  1
  Er  Er9  1  0.000000  0.119315  0.410806  1
  In  In10  1  0.500000  0.699972  0.933828  1
  In  In11  1  0.500000  0.300028  0.066172  1
  In  In12  1  0.500000  0.800204  0.433774  1
  In  In13  1  0.500000  0.199796  0.566226  1
  In  In14  1  0.500000  0.573964  0.652751  1
  In  In15  1  0.500000  0.426036  0.347249  1
  In  In16  1  0.500000  0.926057  0.152597  1
  In  In17  1  0.500000  0.073943  0.847403  1
  Ni  Ni18  1  0.500000  0.528143  0.195605  1
  Ni  Ni19  1  0.500000  0.471857  0.804395  1
  Ni  Ni20  1  0.500000  0.971914  0.695687  1
  Ni  Ni21  1  0.500000  0.028086  0.304313  1
