# generated using pymatgen
data_Ce3Pr5(ZnPt)8
_symmetry_space_group_name_H-M   'P 1'
_cell_length_a   4.08467100
_cell_length_b   7.58385729
_cell_length_c   16.98722900
_cell_angle_alpha   89.31988604
_cell_angle_beta   90.00000000
_cell_angle_gamma   90.00000000
_symmetry_Int_Tables_number   1
_chemical_formula_structural   Ce3Pr5(ZnPt)8
_chemical_formula_sum   'Ce3 Pr5 Zn8 Pt8'
_cell_volume   526.18586564
_cell_formula_units_Z   1
loop_
 _symmetry_equiv_pos_site_id
 _symmetry_equiv_pos_as_xyz
  1  'x, y, z'
loop_
 _atom_site_type_symbol
 _atom_site_label
 _atom_site_symmetry_multiplicity
 _atom_site_fract_x
 _atom_site_fract_y
 _atom_site_fract_z
 _atom_site_occupancy
  Ce  Ce0  1  0.250000  0.557576  0.784559  1
  Ce  Ce1  1  0.750000  0.444073  0.217434  1
  Ce  Ce2  1  0.750000  0.330873  0.440031  1
  Pr  Pr3  1  0.250000  0.667610  0.561420  1
  Pr  Pr4  1  0.750000  0.828213  0.060605  1
  Pr  Pr5  1  0.250000  0.058219  0.714491  1
  Pr  Pr6  1  0.250000  0.173587  0.939357  1
  Pr  Pr7  1  0.750000  0.944208  0.284290  1
  Zn  Zn8  1  0.250000  0.116465  0.152816  1
  Zn  Zn9  1  0.750000  0.502629  0.940324  1
  Zn  Zn10  1  0.750000  0.998184  0.559326  1
  Zn  Zn11  1  0.750000  0.380470  0.650322  1
  Zn  Zn12  1  0.750000  0.884986  0.847669  1
  Zn  Zn13  1  0.250000  0.497947  0.060441  1
  Zn  Zn14  1  0.250000  0.616517  0.348342  1
  Zn  Zn15  1  0.250000  0.995994  0.437881  1
  Pt  Pt16  1  0.750000  0.749142  0.434551  1
  Pt  Pt17  1  0.750000  0.277776  0.813089  1
  Pt  Pt18  1  0.750000  0.749585  0.690804  1
  Pt  Pt19  1  0.250000  0.726817  0.186145  1
  Pt  Pt20  1  0.250000  0.742478  0.931207  1
  Pt  Pt21  1  0.250000  0.244197  0.558246  1
  Pt  Pt22  1  0.750000  0.257923  0.070011  1
  Pt  Pt23  1  0.250000  0.254530  0.316634  1
