# generated using pymatgen
data_Lu16Cd3Co4Ag
_symmetry_space_group_name_H-M   'P 1'
_cell_length_a   9.29859792
_cell_length_b   9.29729452
_cell_length_c   9.29860000
_cell_angle_alpha   59.99536212
_cell_angle_beta   59.99999973
_cell_angle_gamma   59.99536221
_symmetry_Int_Tables_number   1
_chemical_formula_structural   Lu16Cd3Co4Ag
_chemical_formula_sum   'Lu16 Cd3 Co4 Ag1'
_cell_volume   568.38967097
_cell_formula_units_Z   1
loop_
 _symmetry_equiv_pos_site_id
 _symmetry_equiv_pos_as_xyz
  1  'x, y, z'
loop_
 _atom_site_type_symbol
 _atom_site_label
 _atom_site_symmetry_multiplicity
 _atom_site_fract_x
 _atom_site_fract_y
 _atom_site_fract_z
 _atom_site_occupancy
  Lu  Lu0  1  0.153504  0.539487  0.153504  1
  Lu  Lu1  1  0.688009  0.311925  0.688009  1
  Lu  Lu2  1  0.688009  0.311925  0.312056  1
  Lu  Lu3  1  0.938297  0.558888  0.564518  1
  Lu  Lu4  1  0.539769  0.152833  0.153698  1
  Lu  Lu5  1  0.153698  0.152833  0.539769  1
  Lu  Lu6  1  0.937875  0.936564  0.562780  1
  Lu  Lu7  1  0.312059  0.688018  0.312059  1
  Lu  Lu8  1  0.562780  0.936564  0.937875  1
  Lu  Lu9  1  0.562780  0.936564  0.562780  1
  Lu  Lu10  1  0.687864  0.688018  0.312059  1
  Lu  Lu11  1  0.564518  0.558888  0.938297  1
  Lu  Lu12  1  0.938297  0.558888  0.938297  1
  Lu  Lu13  1  0.312059  0.688018  0.687864  1
  Lu  Lu14  1  0.153698  0.152833  0.153698  1
  Lu  Lu15  1  0.312056  0.311925  0.688009  1
  Cd  Cd16  1  0.918580  0.921751  0.918580  1
  Cd  Cd17  1  0.918580  0.921751  0.241088  1
  Cd  Cd18  1  0.241088  0.921751  0.918580  1
  Co  Co19  1  0.358686  0.359278  0.923350  1
  Co  Co20  1  0.358978  0.923066  0.358978  1
  Co  Co21  1  0.923350  0.359278  0.358686  1
  Co  Co22  1  0.358686  0.359278  0.358686  1
  Ag  Ag23  1  0.916775  0.249675  0.916775  1
