# generated using pymatgen
data_Ni(RuO3)2
_symmetry_space_group_name_H-M   'P 1'
_cell_length_a   4.58709200
_cell_length_b   4.58709200
_cell_length_c   9.20695600
_cell_angle_alpha   90.00000000
_cell_angle_beta   90.00000000
_cell_angle_gamma   90.00000000
_symmetry_Int_Tables_number   1
_chemical_formula_structural   Ni(RuO3)2
_chemical_formula_sum   'Ni2 Ru4 O12'
_cell_volume   193.72736382
_cell_formula_units_Z   2
loop_
 _symmetry_equiv_pos_site_id
 _symmetry_equiv_pos_as_xyz
  1  'x, y, z'
loop_
 _atom_site_type_symbol
 _atom_site_label
 _atom_site_symmetry_multiplicity
 _atom_site_fract_x
 _atom_site_fract_y
 _atom_site_fract_z
 _atom_site_occupancy
  Ni  Ni0  1  0.500000  0.500000  0.500000  1
  Ni  Ni1  1  0.000000  0.000000  0.000000  1
  Ru  Ru2  1  0.500000  0.500000  0.169039  1
  Ru  Ru3  1  0.000000  0.000000  0.669039  1
  Ru  Ru4  1  0.500000  0.500000  0.830961  1
  Ru  Ru5  1  0.000000  0.000000  0.330961  1
  O  O6  1  0.186618  0.813382  0.500000  1
  O  O7  1  0.813382  0.186618  0.500000  1
  O  O8  1  0.313382  0.313382  0.000000  1
  O  O9  1  0.686618  0.686618  0.000000  1
  O  O10  1  0.202737  0.797263  0.173415  1
  O  O11  1  0.797263  0.202737  0.173415  1
  O  O12  1  0.297263  0.297263  0.673415  1
  O  O13  1  0.702737  0.702737  0.673415  1
  O  O14  1  0.797263  0.202737  0.826585  1
  O  O15  1  0.202737  0.797263  0.826585  1
  O  O16  1  0.702737  0.702737  0.326585  1
  O  O17  1  0.297263  0.297263  0.326585  1
