# generated using pymatgen
data_LiDy3(Co4P3)2
_symmetry_space_group_name_H-M   'P 1'
_cell_length_a   3.72263000
_cell_length_b   10.58158300
_cell_length_c   12.21438800
_cell_angle_alpha   90.00000000
_cell_angle_beta   90.00000000
_cell_angle_gamma   90.00000000
_symmetry_Int_Tables_number   1
_chemical_formula_structural   LiDy3(Co4P3)2
_chemical_formula_sum   'Li2 Dy6 Co16 P12'
_cell_volume   481.14084583
_cell_formula_units_Z   2
loop_
 _symmetry_equiv_pos_site_id
 _symmetry_equiv_pos_as_xyz
  1  'x, y, z'
loop_
 _atom_site_type_symbol
 _atom_site_label
 _atom_site_symmetry_multiplicity
 _atom_site_fract_x
 _atom_site_fract_y
 _atom_site_fract_z
 _atom_site_occupancy
  Li  Li0  1  0.500000  0.500000  0.153309  1
  Li  Li1  1  0.000000  0.000000  0.846691  1
  Dy  Dy2  1  0.000000  0.500000  0.523112  1
  Dy  Dy3  1  0.500000  0.000000  0.476888  1
  Dy  Dy4  1  0.500000  0.819284  0.205945  1
  Dy  Dy5  1  0.500000  0.180716  0.205945  1
  Dy  Dy6  1  0.000000  0.680716  0.794055  1
  Dy  Dy7  1  0.000000  0.319284  0.794055  1
  Co  Co8  1  0.500000  0.500000  0.704046  1
  Co  Co9  1  0.000000  0.000000  0.295954  1
  Co  Co10  1  0.000000  0.500000  0.986715  1
  Co  Co11  1  0.500000  0.000000  0.013285  1
  Co  Co12  1  0.500000  0.333073  0.996726  1
  Co  Co13  1  0.500000  0.666927  0.996726  1
  Co  Co14  1  0.000000  0.166927  0.003274  1
  Co  Co15  1  0.000000  0.833073  0.003274  1
  Co  Co16  1  0.500000  0.296626  0.431015  1
  Co  Co17  1  0.500000  0.703374  0.431015  1
  Co  Co18  1  0.000000  0.203374  0.568985  1
  Co  Co19  1  0.000000  0.796626  0.568985  1
  Co  Co20  1  0.500000  0.878841  0.706608  1
  Co  Co21  1  0.500000  0.121159  0.706608  1
  Co  Co22  1  0.000000  0.621159  0.293392  1
  Co  Co23  1  0.000000  0.378841  0.293392  1
  P  P24  1  0.500000  0.500000  0.884574  1
  P  P25  1  0.000000  0.000000  0.115426  1
  P  P26  1  0.500000  0.500000  0.346143  1
  P  P27  1  0.000000  0.000000  0.653857  1
  P  P28  1  0.500000  0.309417  0.615838  1
  P  P29  1  0.500000  0.690583  0.615838  1
  P  P30  1  0.000000  0.190583  0.384162  1
  P  P31  1  0.000000  0.809417  0.384162  1
  P  P32  1  0.500000  0.843652  0.893826  1
  P  P33  1  0.500000  0.156348  0.893826  1
  P  P34  1  0.000000  0.656348  0.106174  1
  P  P35  1  0.000000  0.343652  0.106174  1
