# generated using pymatgen
data_Ho4MnCoC8
_symmetry_space_group_name_H-M   'P 1'
_cell_length_a   6.58073057
_cell_length_b   6.58073112
_cell_length_c   6.58073040
_cell_angle_alpha   135.02193167
_cell_angle_beta   110.85100831
_cell_angle_gamma   86.36981182
_symmetry_Int_Tables_number   1
_chemical_formula_structural   Ho4MnCoC8
_chemical_formula_sum   'Ho4 Mn1 Co1 C8'
_cell_volume   180.42055568
_cell_formula_units_Z   1
loop_
 _symmetry_equiv_pos_site_id
 _symmetry_equiv_pos_as_xyz
  1  'x, y, z'
loop_
 _atom_site_type_symbol
 _atom_site_label
 _atom_site_symmetry_multiplicity
 _atom_site_fract_x
 _atom_site_fract_y
 _atom_site_fract_z
 _atom_site_occupancy
  Ho  Ho0  1  0.512591  0.357431  0.158616  1
  Ho  Ho1  1  0.487409  0.646025  0.844839  1
  Ho  Ho2  1  0.198814  0.853975  0.341384  1
  Ho  Ho3  1  0.801186  0.142569  0.655161  1
  Mn  Mn4  1  0.000000  0.750000  0.750000  1
  Co  Co5  1  0.000000  0.250000  0.250000  1
  C  C6  1  0.247220  0.064014  0.152352  1
  C  C7  1  0.752780  0.905131  0.816794  1
  C  C8  1  0.911662  0.594869  0.347648  1
  C  C9  1  0.088338  0.435986  0.683206  1
  C  C10  1  0.468102  0.134145  0.344894  1
  C  C11  1  0.531898  0.876794  0.666044  1
  C  C12  1  0.789251  0.623206  0.155106  1
  C  C13  1  0.210749  0.365855  0.833956  1
