# generated using pymatgen
data_ErTm2Ga7Cu4
_symmetry_space_group_name_H-M   'P 1'
_cell_length_a   7.95570411
_cell_length_b   7.95570353
_cell_length_c   9.31845699
_cell_angle_alpha   54.44171720
_cell_angle_beta   54.44171198
_cell_angle_gamma   30.65230941
_symmetry_Int_Tables_number   1
_chemical_formula_structural   ErTm2Ga7Cu4
_chemical_formula_sum   'Er1 Tm2 Ga7 Cu4'
_cell_volume   239.88140805
_cell_formula_units_Z   1
loop_
 _symmetry_equiv_pos_site_id
 _symmetry_equiv_pos_as_xyz
  1  'x, y, z'
loop_
 _atom_site_type_symbol
 _atom_site_label
 _atom_site_symmetry_multiplicity
 _atom_site_fract_x
 _atom_site_fract_y
 _atom_site_fract_z
 _atom_site_occupancy
  Er  Er0  1  0.000000  0.000000  0.000000  1
  Tm  Tm1  1  0.302103  0.302103  0.706279  1
  Tm  Tm2  1  0.697897  0.697897  0.293721  1
  Ga  Ga3  1  0.858144  0.858144  0.421425  1
  Ga  Ga4  1  0.141856  0.141856  0.578575  1
  Ga  Ga5  1  0.138905  0.138905  0.133240  1
  Ga  Ga6  1  0.861095  0.861095  0.866760  1
  Ga  Ga7  1  0.000000  0.000000  0.500000  1
  Ga  Ga8  1  0.344840  0.344840  0.275170  1
  Ga  Ga9  1  0.655160  0.655160  0.724830  1
  Cu  Cu10  1  0.496114  0.496114  0.313150  1
  Cu  Cu11  1  0.503886  0.503886  0.686850  1
  Cu  Cu12  1  0.657770  0.657770  0.983956  1
  Cu  Cu13  1  0.342230  0.342230  0.016044  1
