# generated using pymatgen
data_TcSb14Mo4Ru
_symmetry_space_group_name_H-M   'P 1'
_cell_length_a   8.32704781
_cell_length_b   8.31309420
_cell_length_c   8.32704905
_cell_angle_alpha   109.03040889
_cell_angle_beta   109.96404124
_cell_angle_gamma   109.48775575
_symmetry_Int_Tables_number   1
_chemical_formula_structural   TcSb14Mo4Ru
_chemical_formula_sum   'Tc1 Sb14 Mo4 Ru1'
_cell_volume   443.33645662
_cell_formula_units_Z   1
loop_
 _symmetry_equiv_pos_site_id
 _symmetry_equiv_pos_as_xyz
  1  'x, y, z'
loop_
 _atom_site_type_symbol
 _atom_site_label
 _atom_site_symmetry_multiplicity
 _atom_site_fract_x
 _atom_site_fract_y
 _atom_site_fract_z
 _atom_site_occupancy
  Tc  Tc0  1  0.339980  0.339613  0.999632  1
  Sb  Sb1  1  0.750072  0.251884  0.501813  1
  Sb  Sb2  1  0.500146  0.249557  0.749411  1
  Sb  Sb3  1  0.500932  0.747765  0.246833  1
  Sb  Sb4  1  0.250684  0.501963  0.752124  1
  Sb  Sb5  1  0.749839  0.501963  0.251279  1
  Sb  Sb6  1  0.247926  0.750448  0.502522  1
  Sb  Sb7  1  0.325743  0.326409  0.325202  1
  Sb  Sb8  1  0.001038  0.001302  0.326102  1
  Sb  Sb9  1  0.326093  0.001863  0.001283  1
  Sb  Sb10  1  0.001207  0.326409  0.000666  1
  Sb  Sb11  1  0.675200  0.001302  0.000265  1
  Sb  Sb12  1  0.000038  0.675246  0.000153  1
  Sb  Sb13  1  0.000580  0.001863  0.675770  1
  Sb  Sb14  1  0.675093  0.675246  0.675209  1
  Mo  Mo15  1  0.999461  0.653560  0.654098  1
  Mo  Mo16  1  0.658325  0.999052  0.658055  1
  Mo  Mo17  1  0.340997  0.999052  0.340727  1
  Mo  Mo18  1  0.656799  0.656073  0.999273  1
  Ru  Ru19  1  0.999847  0.339430  0.339581  1
