# generated using pymatgen
data_Y5Tm4Lu7(CdPt)4
_symmetry_space_group_name_H-M   'P 1'
_cell_length_a   9.57924207
_cell_length_b   9.56948148
_cell_length_c   9.56948135
_cell_angle_alpha   60.04176646
_cell_angle_beta   59.96625543
_cell_angle_gamma   59.96625631
_symmetry_Int_Tables_number   1
_chemical_formula_structural   Y5Tm4Lu7(CdPt)4
_chemical_formula_sum   'Y5 Tm4 Lu7 Cd4 Pt4'
_cell_volume   620.16609220
_cell_formula_units_Z   1
loop_
 _symmetry_equiv_pos_site_id
 _symmetry_equiv_pos_as_xyz
  1  'x, y, z'
loop_
 _atom_site_type_symbol
 _atom_site_label
 _atom_site_symmetry_multiplicity
 _atom_site_fract_x
 _atom_site_fract_y
 _atom_site_fract_z
 _atom_site_occupancy
  Y  Y0  1  0.560689  0.939311  0.939311  1
  Y  Y1  1  0.564742  0.935305  0.562655  1
  Y  Y2  1  0.937297  0.562655  0.935305  1
  Y  Y3  1  0.564742  0.562655  0.935305  1
  Y  Y4  1  0.937297  0.935305  0.562655  1
  Tm  Tm5  1  0.349944  0.352684  0.352684  1
  Tm  Tm6  1  0.352393  0.356100  0.939114  1
  Tm  Tm7  1  0.352393  0.939114  0.356100  1
  Tm  Tm8  1  0.944687  0.352684  0.352684  1
  Lu  Lu9  1  0.810716  0.189284  0.189284  1
  Lu  Lu10  1  0.187009  0.812991  0.812991  1
  Lu  Lu11  1  0.187010  0.811948  0.189262  1
  Lu  Lu12  1  0.811779  0.189262  0.811948  1
  Lu  Lu13  1  0.187010  0.189262  0.811948  1
  Lu  Lu14  1  0.811779  0.811948  0.189262  1
  Lu  Lu15  1  0.937388  0.562612  0.562612  1
  Cd  Cd16  1  0.584013  0.580590  0.580590  1
  Cd  Cd17  1  0.581538  0.580511  0.256415  1
  Cd  Cd18  1  0.581538  0.256415  0.580511  1
  Cd  Cd19  1  0.254807  0.580590  0.580590  1
  Pt  Pt20  1  0.145282  0.142176  0.142176  1
  Pt  Pt21  1  0.142790  0.141637  0.572783  1
  Pt  Pt22  1  0.142790  0.572783  0.141637  1
  Pt  Pt23  1  0.570365  0.142176  0.142176  1
