# generated using pymatgen
data_Sm4DyCo9(P6Ru5)2
_symmetry_space_group_name_H-M   'P 1'
_cell_length_a   12.37594446
_cell_length_b   12.34855439
_cell_length_c   3.78578500
_cell_angle_alpha   90.00000000
_cell_angle_beta   90.00000000
_cell_angle_gamma   119.85443458
_symmetry_Int_Tables_number   1
_chemical_formula_structural   Sm4DyCo9(P6Ru5)2
_chemical_formula_sum   'Sm4 Dy1 Co9 P12 Ru10'
_cell_volume   501.78330829
_cell_formula_units_Z   1
loop_
 _symmetry_equiv_pos_site_id
 _symmetry_equiv_pos_as_xyz
  1  'x, y, z'
loop_
 _atom_site_type_symbol
 _atom_site_label
 _atom_site_symmetry_multiplicity
 _atom_site_fract_x
 _atom_site_fract_y
 _atom_site_fract_z
 _atom_site_occupancy
  Sm  Sm0  1  0.663823  0.333592  0.000000  1
  Sm  Sm1  1  0.333037  0.667152  0.000000  1
  Sm  Sm2  1  0.183499  0.181815  0.500000  1
  Sm  Sm3  1  0.818135  0.998323  0.500000  1
  Dy  Dy4  1  0.999544  0.817858  0.500000  1
  Co  Co5  1  0.802798  0.630318  0.000000  1
  Co  Co6  1  0.369025  0.170389  0.000000  1
  Co  Co7  1  0.195066  0.827838  0.000000  1
  Co  Co8  1  0.628884  0.799414  0.000000  1
  Co  Co9  1  0.176305  0.371345  0.000000  1
  Co  Co10  1  0.718860  0.717815  0.500000  1
  Co  Co11  1  0.279314  0.998803  0.500000  1
  Co  Co12  1  0.006555  0.285693  0.500000  1
  Co  Co13  1  0.999592  0.998035  0.000000  1
  P  P14  1  0.364952  0.365011  0.000000  1
  P  P15  1  0.632097  0.997585  0.000000  1
  P  P16  1  0.000641  0.637507  0.000000  1
  P  P17  1  0.838923  0.315814  0.500000  1
  P  P18  1  0.685345  0.525069  0.500000  1
  P  P19  1  0.471957  0.158688  0.500000  1
  P  P20  1  0.315250  0.841080  0.500000  1
  P  P21  1  0.525620  0.684314  0.500000  1
  P  P22  1  0.161430  0.477369  0.500000  1
  P  P23  1  0.820064  0.818720  0.000000  1
  P  P24  1  0.178256  0.998255  0.000000  1
  P  P25  1  0.005428  0.182485  0.000000  1
  Ru  Ru26  1  0.555733  0.554091  0.000000  1
  Ru  Ru27  1  0.439954  0.995315  0.000000  1
  Ru  Ru28  1  0.008581  0.451057  0.000000  1
  Ru  Ru29  1  0.827038  0.199019  0.000000  1
  Ru  Ru30  1  0.639460  0.124356  0.500000  1
  Ru  Ru31  1  0.873725  0.520278  0.500000  1
  Ru  Ru32  1  0.479709  0.352665  0.500000  1
  Ru  Ru33  1  0.128674  0.650212  0.500000  1
  Ru  Ru34  1  0.518695  0.870924  0.500000  1
  Ru  Ru35  1  0.354031  0.481792  0.500000  1
