# generated using pymatgen
data_Tm4C2Br3
_symmetry_space_group_name_H-M   'P 1'
_cell_length_a   3.64352400
_cell_length_b   10.55593800
_cell_length_c   20.23562700
_cell_angle_alpha   90.00000000
_cell_angle_beta   90.00000000
_cell_angle_gamma   90.00000000
_symmetry_Int_Tables_number   1
_chemical_formula_structural   Tm4C2Br3
_chemical_formula_sum   'Tm16 C8 Br12'
_cell_volume   778.27867500
_cell_formula_units_Z   4
loop_
 _symmetry_equiv_pos_site_id
 _symmetry_equiv_pos_as_xyz
  1  'x, y, z'
loop_
 _atom_site_type_symbol
 _atom_site_label
 _atom_site_symmetry_multiplicity
 _atom_site_fract_x
 _atom_site_fract_y
 _atom_site_fract_z
 _atom_site_occupancy
  Tm  Tm0  1  0.250000  0.865885  0.581884  1
  Tm  Tm1  1  0.750000  0.134115  0.418116  1
  Tm  Tm2  1  0.750000  0.634115  0.081884  1
  Tm  Tm3  1  0.250000  0.365885  0.918116  1
  Tm  Tm4  1  0.250000  0.865103  0.743839  1
  Tm  Tm5  1  0.750000  0.134897  0.256161  1
  Tm  Tm6  1  0.750000  0.634897  0.243839  1
  Tm  Tm7  1  0.250000  0.365103  0.756161  1
  Tm  Tm8  1  0.250000  0.867714  0.169598  1
  Tm  Tm9  1  0.750000  0.132286  0.830402  1
  Tm  Tm10  1  0.750000  0.632286  0.669598  1
  Tm  Tm11  1  0.250000  0.367714  0.330402  1
  Tm  Tm12  1  0.250000  0.901345  0.327327  1
  Tm  Tm13  1  0.750000  0.098655  0.672673  1
  Tm  Tm14  1  0.750000  0.598655  0.827327  1
  Tm  Tm15  1  0.250000  0.401345  0.172673  1
  C  C16  1  0.250000  0.614590  0.750135  1
  C  C17  1  0.750000  0.385410  0.249865  1
  C  C18  1  0.750000  0.885410  0.250135  1
  C  C19  1  0.250000  0.114590  0.749865  1
  C  C20  1  0.250000  0.633208  0.156739  1
  C  C21  1  0.750000  0.366792  0.843261  1
  C  C22  1  0.750000  0.866792  0.656739  1
  C  C23  1  0.250000  0.133208  0.343261  1
  Br  Br24  1  0.250000  0.612220  0.556074  1
  Br  Br25  1  0.750000  0.387780  0.443926  1
  Br  Br26  1  0.750000  0.887780  0.056074  1
  Br  Br27  1  0.250000  0.112220  0.943926  1
  Br  Br28  1  0.250000  0.627385  0.953239  1
  Br  Br29  1  0.750000  0.372615  0.046761  1
  Br  Br30  1  0.750000  0.872615  0.453239  1
  Br  Br31  1  0.250000  0.127385  0.546761  1
  Br  Br32  1  0.250000  0.636714  0.356315  1
  Br  Br33  1  0.750000  0.363286  0.643685  1
  Br  Br34  1  0.750000  0.863286  0.856315  1
  Br  Br35  1  0.250000  0.136714  0.143685  1
