# generated using pymatgen
data_Pa4MnCdO12
_symmetry_space_group_name_H-M   'P 1'
_cell_length_a   5.39516900
_cell_length_b   5.41760200
_cell_length_c   16.30333900
_cell_angle_alpha   90.00000000
_cell_angle_beta   90.00000000
_cell_angle_gamma   90.00000000
_symmetry_Int_Tables_number   1
_chemical_formula_structural   Pa4MnCdO12
_chemical_formula_sum   'Pa8 Mn2 Cd2 O24'
_cell_volume   476.52831257
_cell_formula_units_Z   2
loop_
 _symmetry_equiv_pos_site_id
 _symmetry_equiv_pos_as_xyz
  1  'x, y, z'
loop_
 _atom_site_type_symbol
 _atom_site_label
 _atom_site_symmetry_multiplicity
 _atom_site_fract_x
 _atom_site_fract_y
 _atom_site_fract_z
 _atom_site_occupancy
  Pa  Pa0  1  0.963373  0.495642  0.660696  1
  Pa  Pa1  1  0.463373  0.504358  0.839304  1
  Pa  Pa2  1  0.536627  0.504358  0.160696  1
  Pa  Pa3  1  0.036627  0.495642  0.339304  1
  Pa  Pa4  1  0.533315  0.002486  0.339293  1
  Pa  Pa5  1  0.033315  0.997514  0.160707  1
  Pa  Pa6  1  0.966685  0.997514  0.839293  1
  Pa  Pa7  1  0.466685  0.002486  0.660707  1
  Mn  Mn8  1  0.000000  0.465758  0.000000  1
  Mn  Mn9  1  0.500000  0.534242  0.500000  1
  Cd  Cd10  1  0.500000  0.030681  0.000000  1
  Cd  Cd11  1  0.000000  0.969319  0.500000  1
  O  O12  1  0.246421  0.701494  0.590876  1
  O  O13  1  0.746421  0.298506  0.909124  1
  O  O14  1  0.253579  0.298506  0.090876  1
  O  O15  1  0.753579  0.701494  0.409124  1
  O  O16  1  0.264107  0.783323  0.410031  1
  O  O17  1  0.764107  0.216677  0.089969  1
  O  O18  1  0.235893  0.216677  0.910031  1
  O  O19  1  0.735893  0.783323  0.589969  1
  O  O20  1  0.277812  0.726825  0.251536  1
  O  O21  1  0.777812  0.273175  0.248464  1
  O  O22  1  0.222188  0.273175  0.751536  1
  O  O23  1  0.722188  0.726825  0.748464  1
  O  O24  1  0.222063  0.773588  0.750193  1
  O  O25  1  0.722063  0.226412  0.749807  1
  O  O26  1  0.277937  0.226412  0.250193  1
  O  O27  1  0.777937  0.773588  0.249807  1
  O  O28  1  0.163882  0.705432  0.907427  1
  O  O29  1  0.663882  0.294568  0.592573  1
  O  O30  1  0.336118  0.294568  0.407427  1
  O  O31  1  0.836118  0.705432  0.092573  1
  O  O32  1  0.333040  0.795967  0.097153  1
  O  O33  1  0.833040  0.204033  0.402847  1
  O  O34  1  0.166960  0.204033  0.597153  1
  O  O35  1  0.666960  0.795967  0.902847  1
