# generated using pymatgen
data_Tm2VWC3
_symmetry_space_group_name_H-M   'P 1'
_cell_length_a   5.98317463
_cell_length_b   5.98317344
_cell_length_c   5.60046083
_cell_angle_alpha   69.32607218
_cell_angle_beta   69.32607524
_cell_angle_gamma   31.83101583
_symmetry_Int_Tables_number   1
_chemical_formula_structural   Tm2VWC3
_chemical_formula_sum   'Tm2 V1 W1 C3'
_cell_volume   98.35666759
_cell_formula_units_Z   1
loop_
 _symmetry_equiv_pos_site_id
 _symmetry_equiv_pos_as_xyz
  1  'x, y, z'
loop_
 _atom_site_type_symbol
 _atom_site_label
 _atom_site_symmetry_multiplicity
 _atom_site_fract_x
 _atom_site_fract_y
 _atom_site_fract_z
 _atom_site_occupancy
  Tm  Tm0  1  0.610360  0.610360  0.170901  1
  Tm  Tm1  1  0.390295  0.390295  0.822507  1
  V  V2  1  0.155431  0.155431  0.676083  1
  W  W3  1  0.845427  0.845427  0.332379  1
  C  C4  1  0.749256  0.749256  0.733805  1
  C  C5  1  0.246751  0.246751  0.270267  1
  C  C6  1  0.002480  0.002480  0.994060  1
