# generated using pymatgen
data_Zr8Si16Ni5Rh7
_symmetry_space_group_name_H-M   'P 1'
_cell_length_a   5.38262523
_cell_length_b   6.88423463
_cell_length_c   14.17147248
_cell_angle_alpha   89.86839044
_cell_angle_beta   89.96344755
_cell_angle_gamma   89.74128318
_symmetry_Int_Tables_number   1
_chemical_formula_structural   Zr8Si16Ni5Rh7
_chemical_formula_sum   'Zr8 Si16 Ni5 Rh7'
_cell_volume   525.12068371
_cell_formula_units_Z   1
loop_
 _symmetry_equiv_pos_site_id
 _symmetry_equiv_pos_as_xyz
  1  'x, y, z'
loop_
 _atom_site_type_symbol
 _atom_site_label
 _atom_site_symmetry_multiplicity
 _atom_site_fract_x
 _atom_site_fract_y
 _atom_site_fract_z
 _atom_site_occupancy
  Zr  Zr0  1  0.233093  0.394664  0.152905  1
  Zr  Zr1  1  0.739110  0.097541  0.150764  1
  Zr  Zr2  1  0.268514  0.106131  0.652590  1
  Zr  Zr3  1  0.761649  0.403149  0.650055  1
  Zr  Zr4  1  0.233432  0.595372  0.350446  1
  Zr  Zr5  1  0.737343  0.896779  0.349016  1
  Zr  Zr6  1  0.267115  0.906012  0.852340  1
  Zr  Zr7  1  0.762187  0.602968  0.849968  1
  Si  Si8  1  0.218692  0.018794  0.071341  1
  Si  Si9  1  0.716894  0.521777  0.428236  1
  Si  Si10  1  0.790491  0.017147  0.571104  1
  Si  Si11  1  0.484038  0.751069  0.187213  1
  Si  Si12  1  0.020683  0.262156  0.810195  1
  Si  Si13  1  0.509755  0.255163  0.810890  1
  Si  Si14  1  0.212789  0.973144  0.426088  1
  Si  Si15  1  0.286217  0.529111  0.927172  1
  Si  Si16  1  0.985846  0.743375  0.191628  1
  Si  Si17  1  0.710465  0.482488  0.074566  1
  Si  Si18  1  0.281590  0.479017  0.569956  1
  Si  Si19  1  0.486240  0.243126  0.307969  1
  Si  Si20  1  0.024085  0.744145  0.683688  1
  Si  Si21  1  0.782988  0.977495  0.931695  1
  Si  Si22  1  0.506899  0.750933  0.689122  1
  Si  Si23  1  0.984608  0.250810  0.308661  1
  Ni  Ni24  1  0.726251  0.500071  0.250358  1
  Ni  Ni25  1  0.230881  0.995850  0.249222  1
  Ni  Ni26  1  0.267996  0.504988  0.749724  1
  Ni  Ni27  1  0.507992  0.779478  0.021349  1
  Ni  Ni28  1  0.991262  0.717968  0.518698  1
  Rh  Rh29  1  0.992587  0.283838  0.980571  1
  Rh  Rh30  1  0.507155  0.216628  0.478778  1
  Rh  Rh31  1  0.773055  0.998370  0.751061  1
  Rh  Rh32  1  0.492433  0.227294  0.981761  1
  Rh  Rh33  1  0.490939  0.777684  0.519504  1
  Rh  Rh34  1  0.007149  0.273986  0.480048  1
  Rh  Rh35  1  0.007576  0.721477  0.021318  1
