# generated using pymatgen
data_HoTmB6Ir7Rh2
_symmetry_space_group_name_H-M   'P 1'
_cell_length_a   5.61962200
_cell_length_b   5.61962200
_cell_length_c   8.63963200
_cell_angle_alpha   90.00000000
_cell_angle_beta   90.00000000
_cell_angle_gamma   119.80512511
_symmetry_Int_Tables_number   1
_chemical_formula_structural   HoTmB6Ir7Rh2
_chemical_formula_sum   'Ho1 Tm1 B6 Ir7 Rh2'
_cell_volume   236.74976609
_cell_formula_units_Z   1
loop_
 _symmetry_equiv_pos_site_id
 _symmetry_equiv_pos_as_xyz
  1  'x, y, z'
loop_
 _atom_site_type_symbol
 _atom_site_label
 _atom_site_symmetry_multiplicity
 _atom_site_fract_x
 _atom_site_fract_y
 _atom_site_fract_z
 _atom_site_occupancy
  Ho  Ho0  1  0.000000  0.000000  0.702435  1
  Tm  Tm1  1  0.000000  0.000000  0.296942  1
  B  B2  1  0.667831  0.332169  0.000108  1
  B  B3  1  0.332169  0.667831  0.000108  1
  B  B4  1  0.666703  0.333297  0.667910  1
  B  B5  1  0.333297  0.666703  0.667910  1
  B  B6  1  0.333293  0.666707  0.332076  1
  B  B7  1  0.666707  0.333293  0.332076  1
  Ir  Ir8  1  0.500000  0.000000  0.835854  1
  Ir  Ir9  1  0.000000  0.500000  0.835854  1
  Ir  Ir10  1  0.500000  0.000000  0.164381  1
  Ir  Ir11  1  0.000000  0.500000  0.164381  1
  Ir  Ir12  1  0.500000  0.500000  0.499870  1
  Ir  Ir13  1  0.500000  0.000000  0.499830  1
  Ir  Ir14  1  0.000000  0.500000  0.499830  1
  Rh  Rh15  1  0.500000  0.500000  0.836123  1
  Rh  Rh16  1  0.500000  0.500000  0.164312  1
