# generated using pymatgen
data_HoEr2In3Rh2Pb
_symmetry_space_group_name_H-M   'P 1'
_cell_length_a   7.84079135
_cell_length_b   7.83411312
_cell_length_c   3.88570700
_cell_angle_alpha   90.00000000
_cell_angle_beta   90.00000000
_cell_angle_gamma   119.99379590
_symmetry_Int_Tables_number   1
_chemical_formula_structural   HoEr2In3Rh2Pb
_chemical_formula_sum   'Ho1 Er2 In3 Rh2 Pb1'
_cell_volume   206.71765227
_cell_formula_units_Z   1
loop_
 _symmetry_equiv_pos_site_id
 _symmetry_equiv_pos_as_xyz
  1  'x, y, z'
loop_
 _atom_site_type_symbol
 _atom_site_label
 _atom_site_symmetry_multiplicity
 _atom_site_fract_x
 _atom_site_fract_y
 _atom_site_fract_z
 _atom_site_occupancy
  Ho  Ho0  1  0.033874  0.614048  0.500000  1
  Er  Er1  1  0.385566  0.420044  0.500000  1
  Er  Er2  1  0.580032  0.965457  0.500000  1
  In  In3  1  0.244845  0.987652  0.000000  1
  In  In4  1  0.742549  0.755584  0.000000  1
  In  In5  1  0.013055  0.257263  0.000000  1
  Rh  Rh6  1  0.333659  0.666737  0.000000  1
  Rh  Rh7  1  0.000022  0.000096  0.500000  1
  Pb  Pb8  1  0.666399  0.333119  0.000000  1
