# generated using pymatgen
data_Tb2Er6Hf11Si16Mo
_symmetry_space_group_name_H-M   'P 1'
_cell_length_a   7.23351508
_cell_length_b   7.23101549
_cell_length_c   13.26658715
_cell_angle_alpha   89.95830460
_cell_angle_beta   90.04823969
_cell_angle_gamma   90.07252815
_symmetry_Int_Tables_number   1
_chemical_formula_structural   Tb2Er6Hf11Si16Mo
_chemical_formula_sum   'Tb2 Er6 Hf11 Si16 Mo1'
_cell_volume   693.91660651
_cell_formula_units_Z   1
loop_
 _symmetry_equiv_pos_site_id
 _symmetry_equiv_pos_as_xyz
  1  'x, y, z'
loop_
 _atom_site_type_symbol
 _atom_site_label
 _atom_site_symmetry_multiplicity
 _atom_site_fract_x
 _atom_site_fract_y
 _atom_site_fract_z
 _atom_site_occupancy
  Tb  Tb0  1  0.343316  0.997668  0.787470  1
  Tb  Tb1  1  0.656765  0.004934  0.283260  1
  Er  Er2  1  0.998823  0.343879  0.212231  1
  Er  Er3  1  0.003905  0.656100  0.716604  1
  Er  Er4  1  0.156158  0.495722  0.465457  1
  Er  Er5  1  0.501043  0.845750  0.034161  1
  Er  Er6  1  0.845982  0.501054  0.965828  1
  Er  Er7  1  0.495699  0.156427  0.534584  1
  Hf  Hf8  1  0.825748  0.825248  0.500037  1
  Hf  Hf9  1  0.324104  0.674294  0.248740  1
  Hf  Hf10  1  0.675085  0.324881  0.751240  1
  Hf  Hf11  1  0.147992  0.997575  0.373616  1
  Hf  Hf12  1  0.853586  0.004294  0.877635  1
  Hf  Hf13  1  0.503920  0.647699  0.624819  1
  Hf  Hf14  1  0.350130  0.493361  0.877087  1
  Hf  Hf15  1  0.492966  0.350373  0.122867  1
  Hf  Hf16  1  0.647960  0.503637  0.375233  1
  Hf  Hf17  1  0.997848  0.148070  0.626346  1
  Hf  Hf18  1  0.004026  0.853595  0.122324  1
  Si  Si19  1  0.360425  0.296024  0.316709  1
  Si  Si20  1  0.638747  0.704142  0.818319  1
  Si  Si21  1  0.204794  0.861300  0.567595  1
  Si  Si22  1  0.137944  0.795099  0.933074  1
  Si  Si23  1  0.796505  0.139177  0.067316  1
  Si  Si24  1  0.862318  0.205831  0.432955  1
  Si  Si25  1  0.294867  0.362283  0.682938  1
  Si  Si26  1  0.705208  0.636862  0.181287  1
  Si  Si27  1  0.294163  0.051422  0.182177  1
  Si  Si28  1  0.703918  0.951834  0.685691  1
  Si  Si29  1  0.450118  0.796404  0.435364  1
  Si  Si30  1  0.202630  0.546924  0.064014  1
  Si  Si31  1  0.547991  0.203547  0.936334  1
  Si  Si32  1  0.797261  0.450981  0.565064  1
  Si  Si33  1  0.050468  0.295836  0.817487  1
  Si  Si34  1  0.952683  0.702307  0.313981  1
  Mo  Mo35  1  0.174903  0.175465  0.000152  1
