# generated using pymatgen
data_EuCuPdAu3
_symmetry_space_group_name_H-M   'P 1'
_cell_length_a   4.60789300
_cell_length_b   5.36380809
_cell_length_c   5.66716350
_cell_angle_alpha   58.11877223
_cell_angle_beta   90.00000000
_cell_angle_gamma   90.00000000
_symmetry_Int_Tables_number   1
_chemical_formula_structural   EuCuPdAu3
_chemical_formula_sum   'Eu1 Cu1 Pd1 Au3'
_cell_volume   118.93867674
_cell_formula_units_Z   1
loop_
 _symmetry_equiv_pos_site_id
 _symmetry_equiv_pos_as_xyz
  1  'x, y, z'
loop_
 _atom_site_type_symbol
 _atom_site_label
 _atom_site_symmetry_multiplicity
 _atom_site_fract_x
 _atom_site_fract_y
 _atom_site_fract_z
 _atom_site_occupancy
  Eu  Eu0  1  0.000000  0.000534  0.999736  1
  Cu  Cu1  1  0.500000  0.000048  0.499984  1
  Pd  Pd2  1  0.000000  0.315878  0.342150  1
  Au  Au3  1  0.000000  0.692756  0.653579  1
  Au  Au4  1  0.500000  0.495361  0.500953  1
  Au  Au5  1  0.500000  0.495323  0.003699  1
