# generated using pymatgen
data_AcH7Os
_symmetry_space_group_name_H-M   'P 1'
_cell_length_a   4.95937866
_cell_length_b   4.88268555
_cell_length_c   8.45220000
_cell_angle_alpha   90.00000000
_cell_angle_beta   90.00000000
_cell_angle_gamma   61.98307149
_symmetry_Int_Tables_number   1
_chemical_formula_structural   AcH7Os
_chemical_formula_sum   'Ac2 H14 Os2'
_cell_volume   180.68515221
_cell_formula_units_Z   2
loop_
 _symmetry_equiv_pos_site_id
 _symmetry_equiv_pos_as_xyz
  1  'x, y, z'
loop_
 _atom_site_type_symbol
 _atom_site_label
 _atom_site_symmetry_multiplicity
 _atom_site_fract_x
 _atom_site_fract_y
 _atom_site_fract_z
 _atom_site_occupancy
  Ac  Ac0  1  0.000000  0.000000  0.000000  1
  Ac  Ac1  1  0.000000  0.000000  0.500000  1
  H  H2  1  0.778172  0.897417  0.250000  1
  H  H3  1  0.221828  0.102583  0.750000  1
  H  H4  1  0.685074  0.687845  0.445205  1
  H  H5  1  0.314926  0.312155  0.945205  1
  H  H6  1  0.314926  0.312155  0.554795  1
  H  H7  1  0.685074  0.687845  0.054795  1
  H  H8  1  0.489839  0.458875  0.354475  1
  H  H9  1  0.510161  0.541125  0.854475  1
  H  H10  1  0.510161  0.541125  0.645525  1
  H  H11  1  0.489839  0.458875  0.145525  1
  H  H12  1  0.301926  0.965144  0.250000  1
  H  H13  1  0.698074  0.034856  0.750000  1
  H  H14  1  0.002047  0.340114  0.250000  1
  H  H15  1  0.997953  0.659886  0.750000  1
  Os  Os16  1  0.641181  0.638630  0.250000  1
  Os  Os17  1  0.358819  0.361370  0.750000  1
