# generated using pymatgen
data_Er12Ni4RuPb
_symmetry_space_group_name_H-M   'P 1'
_cell_length_a   8.25824132
_cell_length_b   8.25824031
_cell_length_c   8.25824213
_cell_angle_alpha   111.52147140
_cell_angle_beta   110.04767303
_cell_angle_gamma   106.87880471
_symmetry_Int_Tables_number   1
_chemical_formula_structural   Er12Ni4RuPb
_chemical_formula_sum   'Er12 Ni4 Ru1 Pb1'
_cell_volume   432.81454168
_cell_formula_units_Z   1
loop_
 _symmetry_equiv_pos_site_id
 _symmetry_equiv_pos_as_xyz
  1  'x, y, z'
loop_
 _atom_site_type_symbol
 _atom_site_label
 _atom_site_symmetry_multiplicity
 _atom_site_fract_x
 _atom_site_fract_y
 _atom_site_fract_z
 _atom_site_occupancy
  Er  Er0  1  0.320089  0.127759  0.807669  1
  Er  Er1  1  0.679911  0.487582  0.807669  1
  Er  Er2  1  0.407251  0.716731  0.690519  1
  Er  Er3  1  0.592749  0.283269  0.309481  1
  Er  Er4  1  0.973787  0.283269  0.690519  1
  Er  Er5  1  0.026213  0.716731  0.309481  1
  Er  Er6  1  0.320089  0.512418  0.192331  1
  Er  Er7  1  0.679911  0.872241  0.192331  1
  Er  Er8  1  0.180618  0.786575  0.967193  1
  Er  Er9  1  0.819382  0.786575  0.605959  1
  Er  Er10  1  0.180618  0.213425  0.394041  1
  Er  Er11  1  0.819382  0.213425  0.032807  1
  Ni  Ni12  1  0.877864  0.877864  0.000000  1
  Ni  Ni13  1  0.122136  0.122136  0.000000  1
  Ni  Ni14  1  0.640881  0.500000  0.140881  1
  Ni  Ni15  1  0.359119  0.500000  0.859119  1
  Ru  Ru16  1  0.000000  0.500000  0.500000  1
  Pb  Pb17  1  0.500000  0.000000  0.500000  1
