# generated using pymatgen
data_Tb3Y9(Er2Bi3)4
_symmetry_space_group_name_H-M   'P 1'
_cell_length_a   8.26686103
_cell_length_b   9.50882800
_cell_length_c   12.08375604
_cell_angle_alpha   90.00161810
_cell_angle_beta   89.99088513
_cell_angle_gamma   89.99684809
_symmetry_Int_Tables_number   1
_chemical_formula_structural   Tb3Y9(Er2Bi3)4
_chemical_formula_sum   'Tb3 Y9 Er8 Bi12'
_cell_volume   949.88181026
_cell_formula_units_Z   1
loop_
 _symmetry_equiv_pos_site_id
 _symmetry_equiv_pos_as_xyz
  1  'x, y, z'
loop_
 _atom_site_type_symbol
 _atom_site_label
 _atom_site_symmetry_multiplicity
 _atom_site_fract_x
 _atom_site_fract_y
 _atom_site_fract_z
 _atom_site_occupancy
  Tb  Tb0  1  0.186255  0.749815  0.718924  1
  Tb  Tb1  1  0.686303  0.750197  0.781087  1
  Tb  Tb2  1  0.813613  0.249807  0.281127  1
  Y  Y3  1  0.313786  0.250224  0.218860  1
  Y  Y4  1  0.693610  0.563146  0.059868  1
  Y  Y5  1  0.193575  0.936951  0.440121  1
  Y  Y6  1  0.306434  0.063045  0.940036  1
  Y  Y7  1  0.806485  0.436952  0.559851  1
  Y  Y8  1  0.354274  0.750021  0.215385  1
  Y  Y9  1  0.854074  0.749952  0.284644  1
  Y  Y10  1  0.645838  0.250035  0.784593  1
  Y  Y11  1  0.145845  0.249956  0.715376  1
  Er  Er12  1  0.025818  0.750216  0.988521  1
  Er  Er13  1  0.525830  0.749758  0.511498  1
  Er  Er14  1  0.974021  0.250215  0.011397  1
  Er  Er15  1  0.474262  0.249788  0.488678  1
  Er  Er16  1  0.306500  0.435366  0.940166  1
  Er  Er17  1  0.806617  0.064655  0.559752  1
  Er  Er18  1  0.693514  0.935286  0.059693  1
  Er  Er19  1  0.193526  0.564597  0.440236  1
  Bi  Bi20  1  0.434110  0.004008  0.673021  1
  Bi  Bi21  1  0.934069  0.495974  0.827029  1
  Bi  Bi22  1  0.565757  0.503909  0.327008  1
  Bi  Bi23  1  0.066050  0.996143  0.172985  1
  Bi  Bi24  1  0.566316  0.995885  0.327041  1
  Bi  Bi25  1  0.066625  0.504063  0.172944  1
  Bi  Bi26  1  0.433549  0.495785  0.672998  1
  Bi  Bi27  1  0.933513  0.004236  0.827055  1
  Bi  Bi28  1  0.408227  0.748835  0.958122  1
  Bi  Bi29  1  0.908181  0.751156  0.541865  1
  Bi  Bi30  1  0.591451  0.248873  0.042010  1
  Bi  Bi31  1  0.091972  0.251153  0.458107  1
