# generated using pymatgen
data_TmLu3NiB14
_symmetry_space_group_name_H-M   'P 1'
_cell_length_a   7.15020300
_cell_length_b   7.15019100
_cell_length_c   7.38673500
_cell_angle_alpha   90.00000000
_cell_angle_beta   90.00000000
_cell_angle_gamma   89.99815697
_symmetry_Int_Tables_number   1
_chemical_formula_structural   TmLu3NiB14
_chemical_formula_sum   'Tm2 Lu6 Ni2 B28'
_cell_volume   377.64916940
_cell_formula_units_Z   2
loop_
 _symmetry_equiv_pos_site_id
 _symmetry_equiv_pos_as_xyz
  1  'x, y, z'
loop_
 _atom_site_type_symbol
 _atom_site_label
 _atom_site_symmetry_multiplicity
 _atom_site_fract_x
 _atom_site_fract_y
 _atom_site_fract_z
 _atom_site_occupancy
  Tm  Tm0  1  0.193428  0.332731  0.000000  1
  Tm  Tm1  1  0.667376  0.193499  0.000000  1
  Lu  Lu2  1  0.333050  0.806684  0.000000  1
  Lu  Lu3  1  0.693324  0.167064  0.500000  1
  Lu  Lu4  1  0.306593  0.832945  0.500000  1
  Lu  Lu5  1  0.806525  0.667080  0.000000  1
  Lu  Lu6  1  0.832988  0.693437  0.500000  1
  Lu  Lu7  1  0.167112  0.306577  0.500000  1
  Ni  Ni8  1  0.000168  0.999172  0.000000  1
  Ni  Ni9  1  0.500028  0.500128  0.500000  1
  B  B10  1  0.175708  0.038722  0.232185  1
  B  B11  1  0.960949  0.175528  0.232386  1
  B  B12  1  0.039058  0.824132  0.231988  1
  B  B13  1  0.675757  0.461129  0.268420  1
  B  B14  1  0.324284  0.539393  0.268548  1
  B  B15  1  0.824321  0.960677  0.232187  1
  B  B16  1  0.539067  0.675928  0.268395  1
  B  B17  1  0.460879  0.324470  0.268595  1
  B  B18  1  0.824321  0.960677  0.767813  1
  B  B19  1  0.039058  0.824132  0.768012  1
  B  B20  1  0.960949  0.175528  0.767614  1
  B  B21  1  0.324284  0.539393  0.731452  1
  B  B22  1  0.675757  0.461129  0.731580  1
  B  B23  1  0.175708  0.038722  0.767815  1
  B  B24  1  0.460879  0.324470  0.731405  1
  B  B25  1  0.539067  0.675928  0.731605  1
  B  B26  1  0.088209  0.588487  0.250389  1
  B  B27  1  0.411489  0.088236  0.250398  1
  B  B28  1  0.588267  0.911616  0.250202  1
  B  B29  1  0.911628  0.411749  0.250208  1
  B  B30  1  0.911628  0.411749  0.749792  1
  B  B31  1  0.588267  0.911616  0.749798  1
  B  B32  1  0.411489  0.088236  0.749602  1
  B  B33  1  0.088209  0.588487  0.749611  1
  B  B34  1  0.999991  0.999786  0.388935  1
  B  B35  1  0.500100  0.500493  0.111429  1
  B  B36  1  0.999991  0.999786  0.611065  1
  B  B37  1  0.500100  0.500493  0.888571  1
