# generated using pymatgen
data_Dy4Y8ZnCo4Sb
_symmetry_space_group_name_H-M   'P 1'
_cell_length_a   8.33111058
_cell_length_b   8.33179235
_cell_length_c   8.33111200
_cell_angle_alpha   111.88766943
_cell_angle_beta   109.20248769
_cell_angle_gamma   107.35247755
_symmetry_Int_Tables_number   1
_chemical_formula_structural   Dy4Y8ZnCo4Sb
_chemical_formula_sum   'Dy4 Y8 Zn1 Co4 Sb1'
_cell_volume   444.47675014
_cell_formula_units_Z   1
loop_
 _symmetry_equiv_pos_site_id
 _symmetry_equiv_pos_as_xyz
  1  'x, y, z'
loop_
 _atom_site_type_symbol
 _atom_site_label
 _atom_site_symmetry_multiplicity
 _atom_site_fract_x
 _atom_site_fract_y
 _atom_site_fract_z
 _atom_site_occupancy
  Dy  Dy0  1  0.323464  0.637388  0.313925  1
  Dy  Dy1  1  0.676536  0.362612  0.686075  1
  Dy  Dy2  1  0.323451  0.009497  0.686046  1
  Dy  Dy3  1  0.676549  0.990503  0.313954  1
  Y  Y4  1  0.428283  0.228048  0.200284  1
  Y  Y5  1  0.571717  0.771952  0.799716  1
  Y  Y6  1  0.027762  0.228048  0.799765  1
  Y  Y7  1  0.972238  0.771952  0.200235  1
  Y  Y8  1  0.180271  0.282366  0.462640  1
  Y  Y9  1  0.819729  0.717634  0.537360  1
  Y  Y10  1  0.180274  0.717634  0.897905  1
  Y  Y11  1  0.819726  0.282366  0.102095  1
  Zn  Zn12  1  0.000000  0.000000  0.000000  1
  Co  Co13  1  0.347381  0.000000  0.347381  1
  Co  Co14  1  0.652619  0.000000  0.652619  1
  Co  Co15  1  0.114463  0.614456  0.499993  1
  Co  Co16  1  0.885537  0.385544  0.500007  1
  Sb  Sb17  1  0.500000  0.500000  0.000000  1
