# generated using pymatgen
data_Cs2TaCuSe4
_symmetry_space_group_name_H-M   'P 1'
_cell_length_a   15.19169317
_cell_length_b   13.51078881
_cell_length_c   8.07807766
_cell_angle_alpha   85.53081470
_cell_angle_beta   62.45519516
_cell_angle_gamma   32.01398168
_symmetry_Int_Tables_number   1
_chemical_formula_structural   Cs2TaCuSe4
_chemical_formula_sum   'Cs4 Ta2 Cu2 Se8'
_cell_volume   579.64632677
_cell_formula_units_Z   2
loop_
 _symmetry_equiv_pos_site_id
 _symmetry_equiv_pos_as_xyz
  1  'x, y, z'
loop_
 _atom_site_type_symbol
 _atom_site_label
 _atom_site_symmetry_multiplicity
 _atom_site_fract_x
 _atom_site_fract_y
 _atom_site_fract_z
 _atom_site_occupancy
  Cs  Cs0  1  0.572274  0.572274  0.927726  1
  Cs  Cs1  1  0.927726  0.927726  0.572274  1
  Cs  Cs2  1  0.322274  0.322274  0.677726  1
  Cs  Cs3  1  0.677726  0.677726  0.322274  1
  Ta  Ta4  1  0.750000  0.750000  0.750000  1
  Ta  Ta5  1  0.500000  0.500000  0.500000  1
  Cu  Cu6  1  0.000000  0.000000  0.000000  1
  Cu  Cu7  1  0.250000  0.250000  0.250000  1
  Se  Se8  1  0.216271  0.889153  0.598237  1
  Se  Se9  1  0.296339  0.598237  0.889153  1
  Se  Se10  1  0.598237  0.296339  0.216271  1
  Se  Se11  1  0.889153  0.216271  0.296339  1
  Se  Se12  1  0.360847  0.033729  0.953661  1
  Se  Se13  1  0.953661  0.651763  0.360847  1
  Se  Se14  1  0.651763  0.953661  0.033729  1
  Se  Se15  1  0.033729  0.360847  0.651763  1
