# generated using pymatgen
data_TmLu7Mn2(B12Rh)2
_symmetry_space_group_name_H-M   'P 1'
_cell_length_a   3.55061100
_cell_length_b   9.01186095
_cell_length_c   11.37518100
_cell_angle_alpha   90.15859158
_cell_angle_beta   90.00000000
_cell_angle_gamma   90.00000000
_symmetry_Int_Tables_number   1
_chemical_formula_structural   TmLu7Mn2(B12Rh)2
_chemical_formula_sum   'Tm1 Lu7 Mn2 B24 Rh2'
_cell_volume   363.97724081
_cell_formula_units_Z   1
loop_
 _symmetry_equiv_pos_site_id
 _symmetry_equiv_pos_as_xyz
  1  'x, y, z'
loop_
 _atom_site_type_symbol
 _atom_site_label
 _atom_site_symmetry_multiplicity
 _atom_site_fract_x
 _atom_site_fract_y
 _atom_site_fract_z
 _atom_site_occupancy
  Tm  Tm0  1  0.500000  0.947881  0.370452  1
  Lu  Lu1  1  0.500000  0.316660  0.409864  1
  Lu  Lu2  1  0.500000  0.683514  0.590383  1
  Lu  Lu3  1  0.500000  0.172294  0.918197  1
  Lu  Lu4  1  0.500000  0.827740  0.081565  1
  Lu  Lu5  1  0.500000  0.439700  0.125941  1
  Lu  Lu6  1  0.500000  0.560310  0.873925  1
  Lu  Lu7  1  0.500000  0.052040  0.629894  1
  Mn  Mn8  1  0.500000  0.139753  0.180309  1
  Mn  Mn9  1  0.500000  0.860623  0.819485  1
  B  B10  1  0.000000  0.108053  0.470988  1
  B  B11  1  0.000000  0.892262  0.529910  1
  B  B12  1  0.000000  0.391789  0.970298  1
  B  B13  1  0.000000  0.608183  0.029593  1
  B  B14  1  0.000000  0.132367  0.313493  1
  B  B15  1  0.000000  0.868151  0.686399  1
  B  B16  1  0.000000  0.367940  0.817733  1
  B  B17  1  0.000000  0.631906  0.182152  1
  B  B18  1  0.000000  0.053623  0.067268  1
  B  B19  1  0.000000  0.946505  0.932463  1
  B  B20  1  0.000000  0.446501  0.565681  1
  B  B21  1  0.000000  0.553206  0.434459  1
  B  B22  1  0.000000  0.480831  0.286528  1
  B  B23  1  0.000000  0.519065  0.713430  1
  B  B24  1  0.000000  0.015529  0.788466  1
  B  B25  1  0.000000  0.984810  0.211108  1
  B  B26  1  0.000000  0.246610  0.081031  1
  B  B27  1  0.000000  0.753489  0.918887  1
  B  B28  1  0.000000  0.249269  0.578580  1
  B  B29  1  0.000000  0.750180  0.421755  1
  B  B30  1  0.000000  0.291389  0.233537  1
  B  B31  1  0.000000  0.708879  0.766386  1
  B  B32  1  0.000000  0.206540  0.735663  1
  B  B33  1  0.000000  0.792936  0.264145  1
  Rh  Rh34  1  0.500000  0.361578  0.678907  1
  Rh  Rh35  1  0.500000  0.637891  0.321124  1
