# generated using pymatgen
data_Dy2Er2Al3ZnPt4
_symmetry_space_group_name_H-M   'P 1'
_cell_length_a   4.42579900
_cell_length_b   6.80758643
_cell_length_c   7.79018701
_cell_angle_alpha   89.76116416
_cell_angle_beta   90.00000000
_cell_angle_gamma   90.00000000
_symmetry_Int_Tables_number   1
_chemical_formula_structural   Dy2Er2Al3ZnPt4
_chemical_formula_sum   'Dy2 Er2 Al3 Zn1 Pt4'
_cell_volume   234.70857684
_cell_formula_units_Z   1
loop_
 _symmetry_equiv_pos_site_id
 _symmetry_equiv_pos_as_xyz
  1  'x, y, z'
loop_
 _atom_site_type_symbol
 _atom_site_label
 _atom_site_symmetry_multiplicity
 _atom_site_fract_x
 _atom_site_fract_y
 _atom_site_fract_z
 _atom_site_occupancy
  Dy  Dy0  1  0.750000  0.531166  0.820585  1
  Dy  Dy1  1  0.750000  0.027452  0.683720  1
  Er  Er2  1  0.250000  0.473121  0.182730  1
  Er  Er3  1  0.250000  0.972161  0.312851  1
  Al  Al4  1  0.750000  0.147150  0.064368  1
  Al  Al5  1  0.750000  0.644976  0.438309  1
  Al  Al6  1  0.250000  0.350483  0.562328  1
  Zn  Zn7  1  0.250000  0.848198  0.933831  1
  Pt  Pt8  1  0.250000  0.726986  0.607006  1
  Pt  Pt9  1  0.750000  0.271055  0.383308  1
  Pt  Pt10  1  0.750000  0.770532  0.125053  1
  Pt  Pt11  1  0.250000  0.236722  0.885910  1
