# generated using pymatgen
data_Sc6Al13Fe6Si10Ni
_symmetry_space_group_name_H-M   'P 1'
_cell_length_a   8.23954700
_cell_length_b   8.23954673
_cell_length_c   8.85653900
_cell_angle_alpha   90.00000000
_cell_angle_beta   90.00000000
_cell_angle_gamma   119.99999705
_symmetry_Int_Tables_number   1
_chemical_formula_structural   Sc6Al13Fe6Si10Ni
_chemical_formula_sum   'Sc6 Al13 Fe6 Si10 Ni1'
_cell_volume   520.71650163
_cell_formula_units_Z   1
loop_
 _symmetry_equiv_pos_site_id
 _symmetry_equiv_pos_as_xyz
  1  'x, y, z'
loop_
 _atom_site_type_symbol
 _atom_site_label
 _atom_site_symmetry_multiplicity
 _atom_site_fract_x
 _atom_site_fract_y
 _atom_site_fract_z
 _atom_site_occupancy
  Sc  Sc0  1  0.195703  0.804297  0.250000  1
  Sc  Sc1  1  0.195703  0.391405  0.250000  1
  Sc  Sc2  1  0.608595  0.804297  0.250000  1
  Sc  Sc3  1  0.800222  0.199778  0.750000  1
  Sc  Sc4  1  0.800222  0.600445  0.750000  1
  Sc  Sc5  1  0.399555  0.199778  0.750000  1
  Al  Al6  1  0.161859  0.838141  0.920601  1
  Al  Al7  1  0.161859  0.323720  0.920601  1
  Al  Al8  1  0.676280  0.838141  0.920601  1
  Al  Al9  1  0.846756  0.153244  0.085936  1
  Al  Al10  1  0.846756  0.693511  0.085936  1
  Al  Al11  1  0.306489  0.153244  0.085936  1
  Al  Al12  1  0.846756  0.153244  0.414064  1
  Al  Al13  1  0.846756  0.693511  0.414064  1
  Al  Al14  1  0.306489  0.153244  0.414064  1
  Al  Al15  1  0.161859  0.838141  0.579399  1
  Al  Al16  1  0.161859  0.323720  0.579399  1
  Al  Al17  1  0.676280  0.838141  0.579399  1
  Al  Al18  1  0.000000  0.000000  0.750000  1
  Fe  Fe19  1  0.499847  0.500153  0.499179  1
  Fe  Fe20  1  0.499847  0.999693  0.499179  1
  Fe  Fe21  1  0.000307  0.500153  0.499179  1
  Fe  Fe22  1  0.499847  0.500153  0.000821  1
  Fe  Fe23  1  0.499847  0.999693  0.000821  1
  Fe  Fe24  1  0.000307  0.500153  0.000821  1
  Si  Si25  1  0.560532  0.439468  0.250000  1
  Si  Si26  1  0.560532  0.121064  0.250000  1
  Si  Si27  1  0.878936  0.439468  0.250000  1
  Si  Si28  1  0.439375  0.560625  0.750000  1
  Si  Si29  1  0.439375  0.878749  0.750000  1
  Si  Si30  1  0.121251  0.560625  0.750000  1
  Si  Si31  1  0.333333  0.666667  0.458857  1
  Si  Si32  1  0.666667  0.333333  0.533947  1
  Si  Si33  1  0.666667  0.333333  0.966053  1
  Si  Si34  1  0.333333  0.666667  0.041143  1
  Ni  Ni35  1  0.000000  0.000000  0.250000  1
