# generated using pymatgen
data_Ta3Ti(TcOs)2
_symmetry_space_group_name_H-M   'P 1'
_cell_length_a   6.33547400
_cell_length_b   4.48298900
_cell_length_c   8.95261200
_cell_angle_alpha   90.00000000
_cell_angle_beta   89.99962449
_cell_angle_gamma   90.00000000
_symmetry_Int_Tables_number   1
_chemical_formula_structural   Ta3Ti(TcOs)2
_chemical_formula_sum   'Ta6 Ti2 Tc4 Os4'
_cell_volume   254.27083491
_cell_formula_units_Z   2
loop_
 _symmetry_equiv_pos_site_id
 _symmetry_equiv_pos_as_xyz
  1  'x, y, z'
loop_
 _atom_site_type_symbol
 _atom_site_label
 _atom_site_symmetry_multiplicity
 _atom_site_fract_x
 _atom_site_fract_y
 _atom_site_fract_z
 _atom_site_occupancy
  Ta  Ta0  1  0.999942  0.749999  0.120993  1
  Ta  Ta1  1  0.500083  0.749999  0.120985  1
  Ta  Ta2  1  0.000126  0.249999  0.375005  1
  Ta  Ta3  1  0.499902  0.249999  0.375008  1
  Ta  Ta4  1  0.500052  0.749999  0.629008  1
  Ta  Ta5  1  0.999923  0.749999  0.628997  1
  Ti  Ti6  1  0.499765  0.249999  0.874998  1
  Ti  Ti7  1  0.000207  0.249999  0.875002  1
  Tc  Tc8  1  0.749998  0.249999  0.123586  1
  Tc  Tc9  1  0.250011  0.749999  0.374994  1
  Tc  Tc10  1  0.749976  0.249999  0.626428  1
  Tc  Tc11  1  0.250014  0.749999  0.874997  1
  Os  Os12  1  0.250026  0.249999  0.123760  1
  Os  Os13  1  0.750015  0.749999  0.375010  1
  Os  Os14  1  0.250000  0.249999  0.626221  1
  Os  Os15  1  0.749959  0.749999  0.875010  1
