# generated using pymatgen
data_Dy4Er(GeB4)2
_symmetry_space_group_name_H-M   'P 1'
_cell_length_a   7.24384400
_cell_length_b   7.24384400
_cell_length_c   8.12991400
_cell_angle_alpha   90.00000000
_cell_angle_beta   90.00000000
_cell_angle_gamma   90.00000000
_symmetry_Int_Tables_number   1
_chemical_formula_structural   Dy4Er(GeB4)2
_chemical_formula_sum   'Dy8 Er2 Ge4 B16'
_cell_volume   426.60322034
_cell_formula_units_Z   2
loop_
 _symmetry_equiv_pos_site_id
 _symmetry_equiv_pos_as_xyz
  1  'x, y, z'
loop_
 _atom_site_type_symbol
 _atom_site_label
 _atom_site_symmetry_multiplicity
 _atom_site_fract_x
 _atom_site_fract_y
 _atom_site_fract_z
 _atom_site_occupancy
  Dy  Dy0  1  0.680373  0.180373  0.221646  1
  Dy  Dy1  1  0.319627  0.819627  0.778354  1
  Dy  Dy2  1  0.319627  0.819627  0.221646  1
  Dy  Dy3  1  0.819627  0.680373  0.221646  1
  Dy  Dy4  1  0.819627  0.680373  0.778354  1
  Dy  Dy5  1  0.680373  0.180373  0.778354  1
  Dy  Dy6  1  0.180373  0.319627  0.778354  1
  Dy  Dy7  1  0.180373  0.319627  0.221646  1
  Er  Er8  1  0.000000  0.000000  0.500000  1
  Er  Er9  1  0.500000  0.500000  0.500000  1
  Ge  Ge10  1  0.120615  0.620615  0.500000  1
  Ge  Ge11  1  0.879385  0.379385  0.500000  1
  Ge  Ge12  1  0.379385  0.120615  0.500000  1
  Ge  Ge13  1  0.620615  0.879385  0.500000  1
  B  B14  1  0.172241  0.039142  0.000000  1
  B  B15  1  0.827759  0.960858  0.000000  1
  B  B16  1  0.960858  0.172241  0.000000  1
  B  B17  1  0.327759  0.539142  0.000000  1
  B  B18  1  0.039142  0.827759  0.000000  1
  B  B19  1  0.672241  0.460858  0.000000  1
  B  B20  1  0.539142  0.672241  0.000000  1
  B  B21  1  0.460858  0.327759  0.000000  1
  B  B22  1  0.090200  0.590200  0.000000  1
  B  B23  1  0.909800  0.409800  0.000000  1
  B  B24  1  0.409800  0.090200  0.000000  1
  B  B25  1  0.590200  0.909800  0.000000  1
  B  B26  1  0.000000  0.000000  0.162511  1
  B  B27  1  0.000000  0.000000  0.837489  1
  B  B28  1  0.500000  0.500000  0.837489  1
  B  B29  1  0.500000  0.500000  0.162511  1
