# generated using pymatgen
data_Nd2V2Co5(P2Rh)3
_symmetry_space_group_name_H-M   'P 1'
_cell_length_a   3.75479900
_cell_length_b   10.64272900
_cell_length_c   12.20597900
_cell_angle_alpha   90.00000000
_cell_angle_beta   90.00000000
_cell_angle_gamma   90.00000000
_symmetry_Int_Tables_number   1
_chemical_formula_structural   Nd2V2Co5(P2Rh)3
_chemical_formula_sum   'Nd4 V4 Co10 P12 Rh6'
_cell_volume   487.76688878
_cell_formula_units_Z   2
loop_
 _symmetry_equiv_pos_site_id
 _symmetry_equiv_pos_as_xyz
  1  'x, y, z'
loop_
 _atom_site_type_symbol
 _atom_site_label
 _atom_site_symmetry_multiplicity
 _atom_site_fract_x
 _atom_site_fract_y
 _atom_site_fract_z
 _atom_site_occupancy
  Nd  Nd0  1  0.250000  0.583502  0.707900  1
  Nd  Nd1  1  0.250000  0.916498  0.207900  1
  Nd  Nd2  1  0.750000  0.421183  0.293833  1
  Nd  Nd3  1  0.750000  0.078817  0.793833  1
  V  V4  1  0.250000  0.701264  0.986317  1
  V  V5  1  0.250000  0.798736  0.486317  1
  V  V6  1  0.750000  0.299345  0.011789  1
  V  V7  1  0.750000  0.200655  0.511789  1
  Co  Co8  1  0.750000  0.775045  0.819047  1
  Co  Co9  1  0.750000  0.724955  0.319047  1
  Co  Co10  1  0.250000  0.881929  0.693937  1
  Co  Co11  1  0.250000  0.618071  0.193937  1
  Co  Co12  1  0.750000  0.112224  0.308194  1
  Co  Co13  1  0.750000  0.387776  0.808194  1
  Co  Co14  1  0.250000  0.467994  0.936085  1
  Co  Co15  1  0.250000  0.032006  0.436085  1
  Co  Co16  1  0.750000  0.535003  0.064523  1
  Co  Co17  1  0.750000  0.964997  0.564523  1
  P  P18  1  0.250000  0.427591  0.110476  1
  P  P19  1  0.250000  0.072409  0.610476  1
  P  P20  1  0.750000  0.581179  0.888891  1
  P  P21  1  0.750000  0.918821  0.388891  1
  P  P22  1  0.250000  0.276226  0.872150  1
  P  P23  1  0.250000  0.223774  0.372150  1
  P  P24  1  0.750000  0.724016  0.133697  1
  P  P25  1  0.750000  0.775984  0.633697  1
  P  P26  1  0.250000  0.612923  0.382203  1
  P  P27  1  0.250000  0.887077  0.882203  1
  P  P28  1  0.750000  0.398138  0.612225  1
  P  P29  1  0.750000  0.101862  0.112225  1
  Rh  Rh30  1  0.250000  0.404907  0.487382  1
  Rh  Rh31  1  0.250000  0.095093  0.987382  1
  Rh  Rh32  1  0.750000  0.601131  0.509836  1
  Rh  Rh33  1  0.750000  0.898869  0.009836  1
  Rh  Rh34  1  0.250000  0.225002  0.181515  1
  Rh  Rh35  1  0.250000  0.274998  0.681515  1
