# generated using pymatgen
data_HoLuAl6
_symmetry_space_group_name_H-M   'P 1'
_cell_length_a   6.05383200
_cell_length_b   6.05383210
_cell_length_c   9.55937000
_cell_angle_alpha   90.00000000
_cell_angle_beta   90.00000000
_cell_angle_gamma   119.99998850
_symmetry_Int_Tables_number   1
_chemical_formula_structural   HoLuAl6
_chemical_formula_sum   'Ho2 Lu2 Al12'
_cell_volume   303.40357261
_cell_formula_units_Z   2
loop_
 _symmetry_equiv_pos_site_id
 _symmetry_equiv_pos_as_xyz
  1  'x, y, z'
loop_
 _atom_site_type_symbol
 _atom_site_label
 _atom_site_symmetry_multiplicity
 _atom_site_fract_x
 _atom_site_fract_y
 _atom_site_fract_z
 _atom_site_occupancy
  Ho  Ho0  1  0.000000  0.000000  0.000000  1
  Ho  Ho1  1  0.000000  0.000000  0.500000  1
  Lu  Lu2  1  0.333333  0.666667  0.750000  1
  Lu  Lu3  1  0.666667  0.333333  0.250000  1
  Al  Al4  1  0.816558  0.633114  0.750000  1
  Al  Al5  1  0.366886  0.183442  0.750000  1
  Al  Al6  1  0.816558  0.183442  0.750000  1
  Al  Al7  1  0.183442  0.366886  0.250000  1
  Al  Al8  1  0.633114  0.816558  0.250000  1
  Al  Al9  1  0.183442  0.816558  0.250000  1
  Al  Al10  1  0.500000  0.500000  0.000000  1
  Al  Al11  1  0.500000  0.000000  0.000000  1
  Al  Al12  1  0.000000  0.500000  0.000000  1
  Al  Al13  1  0.500000  0.500000  0.500000  1
  Al  Al14  1  0.500000  0.000000  0.500000  1
  Al  Al15  1  0.000000  0.500000  0.500000  1
