# generated using pymatgen
data_HoTa8NbN12
_symmetry_space_group_name_H-M   'P 1'
_cell_length_a   5.28821121
_cell_length_b   5.28453513
_cell_length_c   10.52064202
_cell_angle_alpha   89.97658112
_cell_angle_beta   89.97296913
_cell_angle_gamma   120.11451627
_symmetry_Int_Tables_number   1
_chemical_formula_structural   HoTa8NbN12
_chemical_formula_sum   'Ho1 Ta8 Nb1 N12'
_cell_volume   254.32319986
_cell_formula_units_Z   1
loop_
 _symmetry_equiv_pos_site_id
 _symmetry_equiv_pos_as_xyz
  1  'x, y, z'
loop_
 _atom_site_type_symbol
 _atom_site_label
 _atom_site_symmetry_multiplicity
 _atom_site_fract_x
 _atom_site_fract_y
 _atom_site_fract_z
 _atom_site_occupancy
  Ho  Ho0  1  0.667367  0.335565  0.000192  1
  Ta  Ta1  1  0.323959  0.001805  0.745653  1
  Ta  Ta2  1  0.997235  0.321440  0.745582  1
  Ta  Ta3  1  0.324752  0.322685  0.254982  1
  Ta  Ta4  1  0.677566  0.002581  0.254795  1
  Ta  Ta5  1  0.998005  0.675509  0.254896  1
  Ta  Ta6  1  0.334880  0.666939  0.999351  1
  Ta  Ta7  1  0.334765  0.666271  0.499528  1
  Ta  Ta8  1  0.666353  0.335139  0.499661  1
  Nb  Nb9  1  0.675999  0.673806  0.744586  1
  N  N10  1  0.660613  0.661156  0.382096  1
  N  N11  1  0.341352  0.999836  0.382018  1
  N  N12  1  0.000324  0.341822  0.382076  1
  N  N13  1  0.335798  0.336354  0.616928  1
  N  N14  1  0.656730  0.003420  0.617593  1
  N  N15  1  0.004031  0.657312  0.617830  1
  N  N16  1  0.328292  0.345471  0.870594  1
  N  N17  1  0.648035  0.985927  0.869816  1
  N  N18  1  0.022037  0.665160  0.869861  1
  N  N19  1  0.649549  0.667246  0.130581  1
  N  N20  1  0.334623  0.982372  0.130605  1
  N  N21  1  0.017731  0.352185  0.130778  1
