# generated using pymatgen
data_Ba13Na14SrMgN6
_symmetry_space_group_name_H-M   'P 1'
_cell_length_a   12.44617964
_cell_length_b   12.44617944
_cell_length_c   12.44618103
_cell_angle_alpha   60.77881224
_cell_angle_beta   60.77881342
_cell_angle_gamma   60.77881564
_symmetry_Int_Tables_number   1
_chemical_formula_structural   Ba13Na14SrMgN6
_chemical_formula_sum   'Ba13 Na14 Sr1 Mg1 N6'
_cell_volume   1387.25725276
_cell_formula_units_Z   1
loop_
 _symmetry_equiv_pos_site_id
 _symmetry_equiv_pos_as_xyz
  1  'x, y, z'
loop_
 _atom_site_type_symbol
 _atom_site_label
 _atom_site_symmetry_multiplicity
 _atom_site_fract_x
 _atom_site_fract_y
 _atom_site_fract_z
 _atom_site_occupancy
  Ba  Ba0  1  0.681709  0.104507  0.104507  1
  Ba  Ba1  1  0.104507  0.104507  0.681709  1
  Ba  Ba2  1  0.104507  0.681709  0.104507  1
  Ba  Ba3  1  0.895063  0.895063  0.316091  1
  Ba  Ba4  1  0.895063  0.316091  0.895063  1
  Ba  Ba5  1  0.316091  0.895063  0.895063  1
  Ba  Ba6  1  0.107293  0.107293  0.107293  1
  Ba  Ba7  1  0.286159  0.712540  0.286159  1
  Ba  Ba8  1  0.714945  0.714945  0.281160  1
  Ba  Ba9  1  0.286159  0.286159  0.712540  1
  Ba  Ba10  1  0.281160  0.714945  0.714945  1
  Ba  Ba11  1  0.712540  0.286159  0.286159  1
  Ba  Ba12  1  0.714945  0.281160  0.714945  1
  Na  Na13  1  0.670400  0.670400  0.670400  1
  Na  Na14  1  0.013606  0.328220  0.328220  1
  Na  Na15  1  0.328220  0.328220  0.013606  1
  Na  Na16  1  0.328220  0.013606  0.328220  1
  Na  Na17  1  0.673993  0.673993  0.985155  1
  Na  Na18  1  0.673993  0.985155  0.673993  1
  Na  Na19  1  0.985155  0.673993  0.673993  1
  Na  Na20  1  0.329284  0.329284  0.329284  1
  Na  Na21  1  0.503146  0.999093  0.999093  1
  Na  Na22  1  0.999948  0.500208  0.500208  1
  Na  Na23  1  0.999093  0.503146  0.999093  1
  Na  Na24  1  0.500208  0.999948  0.500208  1
  Na  Na25  1  0.500208  0.500208  0.999948  1
  Na  Na26  1  0.999093  0.999093  0.503146  1
  Sr  Sr27  1  0.898092  0.898092  0.898092  1
  Mg  Mg28  1  0.999856  0.999856  0.999856  1
  N  N29  1  0.141707  0.858872  0.141707  1
  N  N30  1  0.859166  0.859166  0.136726  1
  N  N31  1  0.141707  0.141707  0.858872  1
  N  N32  1  0.136726  0.859166  0.859166  1
  N  N33  1  0.858872  0.141707  0.141707  1
  N  N34  1  0.859166  0.136726  0.859166  1
