# generated using pymatgen
data_Cs3FeCl5
_symmetry_space_group_name_H-M   'P 1'
_cell_length_a   9.99851072
_cell_length_b   9.99851198
_cell_length_c   9.99851190
_cell_angle_alpha   124.11485857
_cell_angle_beta   124.11486504
_cell_angle_gamma   83.00933788
_symmetry_Int_Tables_number   1
_chemical_formula_structural   Cs3FeCl5
_chemical_formula_sum   'Cs6 Fe2 Cl10'
_cell_volume   657.46107412
_cell_formula_units_Z   2
loop_
 _symmetry_equiv_pos_site_id
 _symmetry_equiv_pos_as_xyz
  1  'x, y, z'
loop_
 _atom_site_type_symbol
 _atom_site_label
 _atom_site_symmetry_multiplicity
 _atom_site_fract_x
 _atom_site_fract_y
 _atom_site_fract_z
 _atom_site_occupancy
  Cs  Cs0  1  0.166428  0.666428  0.832856  1
  Cs  Cs1  1  0.333572  0.166428  0.500000  1
  Cs  Cs2  1  0.250000  0.250000  0.000000  1
  Cs  Cs3  1  0.833572  0.333572  0.167144  1
  Cs  Cs4  1  0.750000  0.750000  0.000000  1
  Cs  Cs5  1  0.666428  0.833572  0.500000  1
  Fe  Fe6  1  0.750000  0.250000  0.500000  1
  Fe  Fe7  1  0.250000  0.750000  0.500000  1
  Cl  Cl8  1  0.980830  0.205061  0.500000  1
  Cl  Cl9  1  0.705061  0.480830  0.500000  1
  Cl  Cl10  1  0.019170  0.794939  0.500000  1
  Cl  Cl11  1  0.000000  0.000000  0.000000  1
  Cl  Cl12  1  0.205061  0.705061  0.224231  1
  Cl  Cl13  1  0.794939  0.294939  0.775769  1
  Cl  Cl14  1  0.480830  0.980830  0.775769  1
  Cl  Cl15  1  0.294939  0.519170  0.500000  1
  Cl  Cl16  1  0.519170  0.019170  0.224231  1
  Cl  Cl17  1  0.500000  0.500000  0.000000  1
