# generated using pymatgen
data_Mn3Ga3(NiPt4)2
_symmetry_space_group_name_H-M   'P 1'
_cell_length_a   3.99836900
_cell_length_b   5.41195066
_cell_length_c   10.80975065
_cell_angle_alpha   96.14483510
_cell_angle_beta   90.00000000
_cell_angle_gamma   90.00000000
_symmetry_Int_Tables_number   1
_chemical_formula_structural   Mn3Ga3(NiPt4)2
_chemical_formula_sum   'Mn3 Ga3 Ni2 Pt8'
_cell_volume   232.56798810
_cell_formula_units_Z   1
loop_
 _symmetry_equiv_pos_site_id
 _symmetry_equiv_pos_as_xyz
  1  'x, y, z'
loop_
 _atom_site_type_symbol
 _atom_site_label
 _atom_site_symmetry_multiplicity
 _atom_site_fract_x
 _atom_site_fract_y
 _atom_site_fract_z
 _atom_site_occupancy
  Mn  Mn0  1  0.500000  0.283061  0.360024  1
  Mn  Mn1  1  0.500000  0.273480  0.861795  1
  Mn  Mn2  1  0.500000  0.722666  0.139600  1
  Ga  Ga3  1  0.500000  0.709556  0.644270  1
  Ga  Ga4  1  0.000000  0.002216  0.998136  1
  Ga  Ga5  1  0.000000  0.015754  0.493030  1
  Ni  Ni6  1  0.000000  0.500430  0.251426  1
  Ni  Ni7  1  0.000000  0.488038  0.754236  1
  Pt  Pt8  1  0.500000  0.775793  0.387098  1
  Pt  Pt9  1  0.500000  0.769440  0.886238  1
  Pt  Pt10  1  0.500000  0.229443  0.113715  1
  Pt  Pt11  1  0.500000  0.224442  0.613374  1
  Pt  Pt12  1  0.000000  0.999637  0.248441  1
  Pt  Pt13  1  0.000000  0.991184  0.743833  1
  Pt  Pt14  1  0.000000  0.502151  0.001020  1
  Pt  Pt15  1  0.000000  0.512706  0.503762  1
