# generated using pymatgen
data_Er4TcB12Os
_symmetry_space_group_name_H-M   'P 1'
_cell_length_a   3.64455300
_cell_length_b   9.11071453
_cell_length_c   11.48851129
_cell_angle_alpha   89.92172270
_cell_angle_beta   90.00000000
_cell_angle_gamma   90.00000000
_symmetry_Int_Tables_number   1
_chemical_formula_structural   Er4TcB12Os
_chemical_formula_sum   'Er8 Tc2 B24 Os2'
_cell_volume   381.46971020
_cell_formula_units_Z   2
loop_
 _symmetry_equiv_pos_site_id
 _symmetry_equiv_pos_as_xyz
  1  'x, y, z'
loop_
 _atom_site_type_symbol
 _atom_site_label
 _atom_site_symmetry_multiplicity
 _atom_site_fract_x
 _atom_site_fract_y
 _atom_site_fract_z
 _atom_site_occupancy
  Er  Er0  1  0.000000  0.324541  0.415330  1
  Er  Er1  1  0.000000  0.675459  0.584670  1
  Er  Er2  1  0.000000  0.820572  0.087485  1
  Er  Er3  1  0.000000  0.179428  0.912515  1
  Er  Er4  1  0.000000  0.941793  0.371188  1
  Er  Er5  1  0.000000  0.058207  0.628813  1
  Er  Er6  1  0.000000  0.443732  0.129725  1
  Er  Er7  1  0.000000  0.556268  0.870274  1
  Tc  Tc8  1  0.000000  0.638233  0.320317  1
  Tc  Tc9  1  0.000000  0.361767  0.679683  1
  B  B10  1  0.500000  0.553017  0.433249  1
  B  B11  1  0.500000  0.446983  0.566751  1
  B  B12  1  0.500000  0.053592  0.066656  1
  B  B13  1  0.500000  0.946408  0.933344  1
  B  B14  1  0.500000  0.748612  0.419240  1
  B  B15  1  0.500000  0.251388  0.580760  1
  B  B16  1  0.500000  0.249026  0.080967  1
  B  B17  1  0.500000  0.750974  0.919033  1
  B  B18  1  0.500000  0.791630  0.265142  1
  B  B19  1  0.500000  0.208370  0.734858  1
  B  B20  1  0.500000  0.290904  0.234542  1
  B  B21  1  0.500000  0.709095  0.765458  1
  B  B22  1  0.500000  0.631107  0.184984  1
  B  B23  1  0.500000  0.368893  0.815016  1
  B  B24  1  0.500000  0.130604  0.314324  1
  B  B25  1  0.500000  0.869396  0.685676  1
  B  B26  1  0.500000  0.982229  0.211998  1
  B  B27  1  0.500000  0.017771  0.788002  1
  B  B28  1  0.500000  0.482031  0.287655  1
  B  B29  1  0.500000  0.517969  0.712345  1
  B  B30  1  0.500000  0.602959  0.028311  1
  B  B31  1  0.500000  0.397041  0.971689  1
  B  B32  1  0.500000  0.102981  0.471146  1
  B  B33  1  0.500000  0.897019  0.528854  1
  Os  Os34  1  0.000000  0.137331  0.178165  1
  Os  Os35  1  0.000000  0.862669  0.821835  1
