# generated using pymatgen
data_CaSm(RuO3)4
_symmetry_space_group_name_H-M   'P 1'
_cell_length_a   5.29736300
_cell_length_b   7.38619500
_cell_length_c   11.05736000
_cell_angle_alpha   90.00000000
_cell_angle_beta   90.00000000
_cell_angle_gamma   90.00000000
_symmetry_Int_Tables_number   1
_chemical_formula_structural   CaSm(RuO3)4
_chemical_formula_sum   'Ca2 Sm2 Ru8 O24'
_cell_volume   432.64526229
_cell_formula_units_Z   2
loop_
 _symmetry_equiv_pos_site_id
 _symmetry_equiv_pos_as_xyz
  1  'x, y, z'
loop_
 _atom_site_type_symbol
 _atom_site_label
 _atom_site_symmetry_multiplicity
 _atom_site_fract_x
 _atom_site_fract_y
 _atom_site_fract_z
 _atom_site_occupancy
  Ca  Ca0  1  0.541993  0.250000  0.954640  1
  Ca  Ca1  1  0.041993  0.750000  0.545360  1
  Sm  Sm2  1  0.457834  0.750000  0.045689  1
  Sm  Sm3  1  0.957834  0.250000  0.454311  1
  Ru  Ru4  1  0.557606  0.500617  0.641701  1
  Ru  Ru5  1  0.057606  0.499383  0.858299  1
  Ru  Ru6  1  0.440505  0.997240  0.360156  1
  Ru  Ru7  1  0.940505  0.002760  0.139844  1
  Ru  Ru8  1  0.057606  0.000617  0.858299  1
  Ru  Ru9  1  0.557606  0.999383  0.641701  1
  Ru  Ru10  1  0.940505  0.497240  0.139844  1
  Ru  Ru11  1  0.440505  0.502760  0.360156  1
  O  O12  1  0.682651  0.250000  0.625141  1
  O  O13  1  0.182651  0.750000  0.874859  1
  O  O14  1  0.329164  0.750000  0.375208  1
  O  O15  1  0.829164  0.250000  0.124792  1
  O  O16  1  0.442637  0.750000  0.645257  1
  O  O17  1  0.942637  0.250000  0.854743  1
  O  O18  1  0.562724  0.250000  0.353345  1
  O  O19  1  0.062724  0.750000  0.146655  1
  O  O20  1  0.125170  0.433661  0.285137  1
  O  O21  1  0.625170  0.566339  0.214863  1
  O  O22  1  0.867608  0.933537  0.718547  1
  O  O23  1  0.367608  0.066463  0.781453  1
  O  O24  1  0.770158  0.957204  0.976542  1
  O  O25  1  0.270158  0.042796  0.523458  1
  O  O26  1  0.230452  0.461634  0.022393  1
  O  O27  1  0.730452  0.538366  0.477607  1
  O  O28  1  0.230452  0.038366  0.022393  1
  O  O29  1  0.730452  0.961634  0.477607  1
  O  O30  1  0.770158  0.542796  0.976542  1
  O  O31  1  0.270158  0.457204  0.523458  1
  O  O32  1  0.625170  0.933661  0.214863  1
  O  O33  1  0.125170  0.066339  0.285137  1
  O  O34  1  0.367608  0.433537  0.781453  1
  O  O35  1  0.867608  0.566463  0.718547  1
