# generated using pymatgen
data_Be8V3W
_symmetry_space_group_name_H-M   'P 1'
_cell_length_a   4.39239300
_cell_length_b   4.39239655
_cell_length_c   7.11248900
_cell_angle_alpha   90.00008236
_cell_angle_beta   89.99984923
_cell_angle_gamma   120.00007816
_symmetry_Int_Tables_number   1
_chemical_formula_structural   Be8V3W
_chemical_formula_sum   'Be8 V3 W1'
_cell_volume   118.83780729
_cell_formula_units_Z   1
loop_
 _symmetry_equiv_pos_site_id
 _symmetry_equiv_pos_as_xyz
  1  'x, y, z'
loop_
 _atom_site_type_symbol
 _atom_site_label
 _atom_site_symmetry_multiplicity
 _atom_site_fract_x
 _atom_site_fract_y
 _atom_site_fract_z
 _atom_site_occupancy
  Be  Be0  1  0.000000  0.000001  0.000829  1
  Be  Be1  1  0.342174  0.171086  0.251097  1
  Be  Be2  1  0.828913  0.171086  0.251096  1
  Be  Be3  1  0.828913  0.657826  0.251096  1
  Be  Be4  1  0.999999  0.999999  0.498250  1
  Be  Be5  1  0.171018  0.342036  0.749037  1
  Be  Be6  1  0.171017  0.828984  0.749036  1
  Be  Be7  1  0.657965  0.828983  0.749037  1
  V  V8  1  0.333334  0.666669  0.068614  1
  V  V9  1  0.333330  0.666665  0.432306  1
  V  V10  1  0.666670  0.333333  0.564762  1
  W  W11  1  0.666667  0.333334  0.934843  1
