# generated using pymatgen
data_LiAc2La2Zn9Sn2
_symmetry_space_group_name_H-M   'P 1'
_cell_length_a   8.76975006
_cell_length_b   8.76974885
_cell_length_c   9.28058800
_cell_angle_alpha   90.00000000
_cell_angle_beta   90.00000000
_cell_angle_gamma   149.30221603
_symmetry_Int_Tables_number   1
_chemical_formula_structural   LiAc2La2Zn9Sn2
_chemical_formula_sum   'Li1 Ac2 La2 Zn9 Sn2'
_cell_volume   364.37941148
_cell_formula_units_Z   1
loop_
 _symmetry_equiv_pos_site_id
 _symmetry_equiv_pos_as_xyz
  1  'x, y, z'
loop_
 _atom_site_type_symbol
 _atom_site_label
 _atom_site_symmetry_multiplicity
 _atom_site_fract_x
 _atom_site_fract_y
 _atom_site_fract_z
 _atom_site_occupancy
  Li  Li0  1  0.398235  0.601765  0.250000  1
  Ac  Ac1  1  0.000541  0.999459  0.500768  1
  Ac  Ac2  1  0.000541  0.999459  0.999232  1
  La  La3  1  0.209369  0.790631  0.250000  1
  La  La4  1  0.791846  0.208154  0.750000  1
  Zn  Zn5  1  0.812976  0.187024  0.391931  1
  Zn  Zn6  1  0.186611  0.813389  0.610993  1
  Zn  Zn7  1  0.812976  0.187024  0.108069  1
  Zn  Zn8  1  0.186611  0.813389  0.889007  1
  Zn  Zn9  1  0.658345  0.341655  0.487449  1
  Zn  Zn10  1  0.340663  0.659337  0.512936  1
  Zn  Zn11  1  0.658345  0.341655  0.012551  1
  Zn  Zn12  1  0.340663  0.659337  0.987064  1
  Zn  Zn13  1  0.601612  0.398388  0.750000  1
  Sn  Sn14  1  0.562451  0.437549  0.250000  1
  Sn  Sn15  1  0.438217  0.561783  0.750000  1
