# generated using pymatgen
data_Ce3Lu5(TcB6)4
_symmetry_space_group_name_H-M   'P 1'
_cell_length_a   3.68110600
_cell_length_b   9.10596845
_cell_length_c   11.49540682
_cell_angle_alpha   89.93544594
_cell_angle_beta   90.00000000
_cell_angle_gamma   90.00000000
_symmetry_Int_Tables_number   1
_chemical_formula_structural   Ce3Lu5(TcB6)4
_chemical_formula_sum   'Ce3 Lu5 Tc4 B24'
_cell_volume   385.32619541
_cell_formula_units_Z   1
loop_
 _symmetry_equiv_pos_site_id
 _symmetry_equiv_pos_as_xyz
  1  'x, y, z'
loop_
 _atom_site_type_symbol
 _atom_site_label
 _atom_site_symmetry_multiplicity
 _atom_site_fract_x
 _atom_site_fract_y
 _atom_site_fract_z
 _atom_site_occupancy
  Ce  Ce0  1  0.000000  0.821042  0.085313  1
  Ce  Ce1  1  0.000000  0.178418  0.913771  1
  Ce  Ce2  1  0.000000  0.323271  0.415073  1
  Lu  Lu3  1  0.000000  0.677978  0.585690  1
  Lu  Lu4  1  0.000000  0.444498  0.128395  1
  Lu  Lu5  1  0.000000  0.556534  0.870643  1
  Lu  Lu6  1  0.000000  0.942594  0.372103  1
  Lu  Lu7  1  0.000000  0.055637  0.628631  1
  Tc  Tc8  1  0.000000  0.139185  0.180158  1
  Tc  Tc9  1  0.000000  0.861295  0.820040  1
  Tc  Tc10  1  0.000000  0.639309  0.320094  1
  Tc  Tc11  1  0.000000  0.360867  0.679779  1
  B  B12  1  0.500000  0.054922  0.068569  1
  B  B13  1  0.500000  0.944914  0.931160  1
  B  B14  1  0.500000  0.555146  0.433338  1
  B  B15  1  0.500000  0.446723  0.567854  1
  B  B16  1  0.500000  0.250786  0.082082  1
  B  B17  1  0.500000  0.749012  0.917088  1
  B  B18  1  0.500000  0.750153  0.420062  1
  B  B19  1  0.500000  0.250264  0.582109  1
  B  B20  1  0.500000  0.292043  0.234768  1
  B  B21  1  0.500000  0.706991  0.763853  1
  B  B22  1  0.500000  0.791795  0.266612  1
  B  B23  1  0.500000  0.208343  0.734172  1
  B  B24  1  0.500000  0.129999  0.315371  1
  B  B25  1  0.500000  0.868540  0.683661  1
  B  B26  1  0.500000  0.630399  0.185408  1
  B  B27  1  0.500000  0.370632  0.814313  1
  B  B28  1  0.500000  0.483430  0.287699  1
  B  B29  1  0.500000  0.519105  0.712198  1
  B  B30  1  0.500000  0.982764  0.213565  1
  B  B31  1  0.500000  0.016509  0.786054  1
  B  B32  1  0.500000  0.099916  0.472502  1
  B  B33  1  0.500000  0.896804  0.528579  1
  B  B34  1  0.500000  0.601848  0.027650  1
  B  B35  1  0.500000  0.398335  0.971644  1
