# generated using pymatgen
data_CaZnHgPd3
_symmetry_space_group_name_H-M   'P 1'
_cell_length_a   5.21926800
_cell_length_b   5.21926862
_cell_length_c   5.21926835
_cell_angle_alpha   64.39622845
_cell_angle_beta   64.39623112
_cell_angle_gamma   64.39623998
_symmetry_Int_Tables_number   1
_chemical_formula_structural   CaZnHgPd3
_chemical_formula_sum   'Ca1 Zn1 Hg1 Pd3'
_cell_volume   110.23589781
_cell_formula_units_Z   1
loop_
 _symmetry_equiv_pos_site_id
 _symmetry_equiv_pos_as_xyz
  1  'x, y, z'
loop_
 _atom_site_type_symbol
 _atom_site_label
 _atom_site_symmetry_multiplicity
 _atom_site_fract_x
 _atom_site_fract_y
 _atom_site_fract_z
 _atom_site_occupancy
  Ca  Ca0  1  0.124337  0.124337  0.124337  1
  Zn  Zn1  1  0.500219  0.500219  0.500219  1
  Hg  Hg2  1  0.872468  0.872468  0.872468  1
  Pd  Pd3  1  0.501692  0.501692  0.999593  1
  Pd  Pd4  1  0.999593  0.501692  0.501692  1
  Pd  Pd5  1  0.501692  0.999593  0.501692  1
