# generated using pymatgen
data_CsSc2(FeH6)2
_symmetry_space_group_name_H-M   'P 1'
_cell_length_a   4.62594000
_cell_length_b   4.62594175
_cell_length_c   9.27596000
_cell_angle_alpha   90.00000000
_cell_angle_beta   90.00000000
_cell_angle_gamma   120.00000179
_symmetry_Int_Tables_number   1
_chemical_formula_structural   CsSc2(FeH6)2
_chemical_formula_sum   'Cs1 Sc2 Fe2 H12'
_cell_volume   171.90545035
_cell_formula_units_Z   1
loop_
 _symmetry_equiv_pos_site_id
 _symmetry_equiv_pos_as_xyz
  1  'x, y, z'
loop_
 _atom_site_type_symbol
 _atom_site_label
 _atom_site_symmetry_multiplicity
 _atom_site_fract_x
 _atom_site_fract_y
 _atom_site_fract_z
 _atom_site_occupancy
  Cs  Cs0  1  0.000000  0.000000  0.000000  1
  Sc  Sc1  1  0.666667  0.333333  0.385070  1
  Sc  Sc2  1  0.333333  0.666667  0.614930  1
  Fe  Fe3  1  0.666667  0.333333  0.679427  1
  Fe  Fe4  1  0.333333  0.666667  0.320573  1
  H  H5  1  0.167523  0.832477  0.411908  1
  H  H6  1  0.664954  0.832477  0.411908  1
  H  H7  1  0.167523  0.335046  0.411908  1
  H  H8  1  0.832477  0.167523  0.588092  1
  H  H9  1  0.335046  0.167523  0.588092  1
  H  H10  1  0.832477  0.664954  0.588092  1
  H  H11  1  0.510105  0.020210  0.783100  1
  H  H12  1  0.510105  0.489895  0.783100  1
  H  H13  1  0.979790  0.489895  0.783100  1
  H  H14  1  0.489895  0.979790  0.216900  1
  H  H15  1  0.489895  0.510105  0.216900  1
  H  H16  1  0.020210  0.510105  0.216900  1
