# generated using pymatgen
data_YMg(Si7Ir3)2
_symmetry_space_group_name_H-M   'P 1'
_cell_length_a   8.00865470
_cell_length_b   8.00865532
_cell_length_c   8.00865491
_cell_angle_alpha   56.67167043
_cell_angle_beta   56.67166948
_cell_angle_gamma   56.67166837
_symmetry_Int_Tables_number   1
_chemical_formula_structural   YMg(Si7Ir3)2
_chemical_formula_sum   'Y1 Mg1 Si14 Ir6'
_cell_volume   335.29586538
_cell_formula_units_Z   1
loop_
 _symmetry_equiv_pos_site_id
 _symmetry_equiv_pos_as_xyz
  1  'x, y, z'
loop_
 _atom_site_type_symbol
 _atom_site_label
 _atom_site_symmetry_multiplicity
 _atom_site_fract_x
 _atom_site_fract_y
 _atom_site_fract_z
 _atom_site_occupancy
  Y  Y0  1  0.500000  0.500000  0.500000  1
  Mg  Mg1  1  0.000000  0.000000  0.000000  1
  Si  Si2  1  0.851693  0.063397  0.674376  1
  Si  Si3  1  0.674376  0.851693  0.063397  1
  Si  Si4  1  0.063397  0.674376  0.851693  1
  Si  Si5  1  0.650979  0.828461  0.434160  1
  Si  Si6  1  0.250159  0.250159  0.250159  1
  Si  Si7  1  0.749841  0.749841  0.749841  1
  Si  Si8  1  0.171539  0.565840  0.349021  1
  Si  Si9  1  0.565840  0.349021  0.171539  1
  Si  Si10  1  0.349021  0.171539  0.565840  1
  Si  Si11  1  0.936603  0.325624  0.148307  1
  Si  Si12  1  0.325624  0.148307  0.936603  1
  Si  Si13  1  0.148307  0.936603  0.325624  1
  Si  Si14  1  0.828461  0.434160  0.650979  1
  Si  Si15  1  0.434160  0.650979  0.828461  1
  Ir  Ir16  1  0.750508  0.072194  0.427198  1
  Ir  Ir17  1  0.427198  0.750508  0.072194  1
  Ir  Ir18  1  0.072194  0.427198  0.750508  1
  Ir  Ir19  1  0.249492  0.927806  0.572802  1
  Ir  Ir20  1  0.572802  0.249492  0.927806  1
  Ir  Ir21  1  0.927806  0.572802  0.249492  1
