# generated using pymatgen
data_Hf2Ti4GaP2
_symmetry_space_group_name_H-M   'P 1'
_cell_length_a   6.91330279
_cell_length_b   6.89390966
_cell_length_c   3.56972000
_cell_angle_alpha   90.00000000
_cell_angle_beta   90.00000000
_cell_angle_gamma   120.01041294
_symmetry_Int_Tables_number   1
_chemical_formula_structural   Hf2Ti4GaP2
_chemical_formula_sum   'Hf2 Ti4 Ga1 P2'
_cell_volume   147.32293815
_cell_formula_units_Z   1
loop_
 _symmetry_equiv_pos_site_id
 _symmetry_equiv_pos_as_xyz
  1  'x, y, z'
loop_
 _atom_site_type_symbol
 _atom_site_label
 _atom_site_symmetry_multiplicity
 _atom_site_fract_x
 _atom_site_fract_y
 _atom_site_fract_z
 _atom_site_occupancy
  Hf  Hf0  1  0.592390  0.986784  0.000000  1
  Hf  Hf1  1  0.393986  0.406875  0.000000  1
  Ti  Ti2  1  0.000946  0.251046  0.500000  1
  Ti  Ti3  1  0.245061  0.993984  0.500000  1
  Ti  Ti4  1  0.752942  0.751075  0.500000  1
  Ti  Ti5  1  0.014957  0.608204  0.000000  1
  Ga  Ga6  1  0.672107  0.337943  0.500000  1
  P  P7  1  0.000160  0.998805  0.000000  1
  P  P8  1  0.327451  0.665284  0.500000  1
