# generated using pymatgen
data_HoErTm2(B6Ru)2
_symmetry_space_group_name_H-M   'P 1'
_cell_length_a   3.62535700
_cell_length_b   9.07642101
_cell_length_c   11.44835402
_cell_angle_alpha   90.00591840
_cell_angle_beta   90.00000000
_cell_angle_gamma   90.00000000
_symmetry_Int_Tables_number   1
_chemical_formula_structural   HoErTm2(B6Ru)2
_chemical_formula_sum   'Ho2 Er2 Tm4 B24 Ru4'
_cell_volume   376.71113729
_cell_formula_units_Z   2
loop_
 _symmetry_equiv_pos_site_id
 _symmetry_equiv_pos_as_xyz
  1  'x, y, z'
loop_
 _atom_site_type_symbol
 _atom_site_label
 _atom_site_symmetry_multiplicity
 _atom_site_fract_x
 _atom_site_fract_y
 _atom_site_fract_z
 _atom_site_occupancy
  Ho  Ho0  1  0.000000  0.321877  0.414125  1
  Ho  Ho1  1  0.000000  0.678123  0.585875  1
  Er  Er2  1  0.000000  0.821964  0.085842  1
  Er  Er3  1  0.000000  0.178036  0.914158  1
  Tm  Tm4  1  0.000000  0.943789  0.372434  1
  Tm  Tm5  1  0.000000  0.056211  0.627566  1
  Tm  Tm6  1  0.000000  0.443810  0.127456  1
  Tm  Tm7  1  0.000000  0.556190  0.872544  1
  B  B8  1  0.500000  0.554173  0.433094  1
  B  B9  1  0.500000  0.445827  0.566906  1
  B  B10  1  0.500000  0.054045  0.066710  1
  B  B11  1  0.500000  0.945955  0.933290  1
  B  B12  1  0.500000  0.748885  0.419699  1
  B  B13  1  0.500000  0.251115  0.580301  1
  B  B14  1  0.500000  0.248776  0.080091  1
  B  B15  1  0.500000  0.751224  0.919909  1
  B  B16  1  0.500000  0.791618  0.265753  1
  B  B17  1  0.500000  0.208382  0.734247  1
  B  B18  1  0.500000  0.291498  0.234041  1
  B  B19  1  0.500000  0.708502  0.765959  1
  B  B20  1  0.500000  0.631356  0.184496  1
  B  B21  1  0.500000  0.368644  0.815504  1
  B  B22  1  0.500000  0.131206  0.315349  1
  B  B23  1  0.500000  0.868794  0.684651  1
  B  B24  1  0.500000  0.982711  0.212954  1
  B  B25  1  0.500000  0.017289  0.787046  1
  B  B26  1  0.500000  0.482908  0.286880  1
  B  B27  1  0.500000  0.517092  0.713120  1
  B  B28  1  0.500000  0.606437  0.029295  1
  B  B29  1  0.500000  0.393563  0.970705  1
  B  B30  1  0.500000  0.106129  0.470793  1
  B  B31  1  0.500000  0.893871  0.529207  1
  Ru  Ru32  1  0.000000  0.638185  0.320594  1
  Ru  Ru33  1  0.000000  0.361815  0.679406  1
  Ru  Ru34  1  0.000000  0.137915  0.179103  1
  Ru  Ru35  1  0.000000  0.862085  0.820897  1
