# generated using pymatgen
data_Tb6CrCo15(P6Rh)2
_symmetry_space_group_name_H-M   'P 1'
_cell_length_a   3.70658100
_cell_length_b   10.60617200
_cell_length_c   12.30523500
_cell_angle_alpha   90.00000000
_cell_angle_beta   90.00000000
_cell_angle_gamma   90.00000000
_symmetry_Int_Tables_number   1
_chemical_formula_structural   Tb6CrCo15(P6Rh)2
_chemical_formula_sum   'Tb6 Cr1 Co15 P12 Rh2'
_cell_volume   483.75121975
_cell_formula_units_Z   1
loop_
 _symmetry_equiv_pos_site_id
 _symmetry_equiv_pos_as_xyz
  1  'x, y, z'
loop_
 _atom_site_type_symbol
 _atom_site_label
 _atom_site_symmetry_multiplicity
 _atom_site_fract_x
 _atom_site_fract_y
 _atom_site_fract_z
 _atom_site_occupancy
  Tb  Tb0  1  0.000000  0.500000  0.518374  1
  Tb  Tb1  1  0.500000  0.000000  0.474944  1
  Tb  Tb2  1  0.500000  0.818090  0.206371  1
  Tb  Tb3  1  0.500000  0.181910  0.206371  1
  Tb  Tb4  1  0.000000  0.685429  0.796282  1
  Tb  Tb5  1  0.000000  0.314571  0.796282  1
  Cr  Cr6  1  0.500000  0.500000  0.157289  1
  Co  Co7  1  0.000000  0.000000  0.294940  1
  Co  Co8  1  0.000000  0.500000  0.990698  1
  Co  Co9  1  0.500000  0.000000  0.014803  1
  Co  Co10  1  0.500000  0.333028  0.996501  1
  Co  Co11  1  0.500000  0.666972  0.996501  1
  Co  Co12  1  0.000000  0.168308  0.009595  1
  Co  Co13  1  0.000000  0.831692  0.009595  1
  Co  Co14  1  0.500000  0.295604  0.428661  1
  Co  Co15  1  0.500000  0.704396  0.428661  1
  Co  Co16  1  0.000000  0.200176  0.566865  1
  Co  Co17  1  0.000000  0.799824  0.566865  1
  Co  Co18  1  0.500000  0.880235  0.707846  1
  Co  Co19  1  0.500000  0.119765  0.707846  1
  Co  Co20  1  0.000000  0.620177  0.290585  1
  Co  Co21  1  0.000000  0.379823  0.290585  1
  P  P22  1  0.500000  0.500000  0.890654  1
  P  P23  1  0.000000  0.000000  0.116804  1
  P  P24  1  0.500000  0.500000  0.343585  1
  P  P25  1  0.000000  0.000000  0.649312  1
  P  P26  1  0.500000  0.302390  0.612184  1
  P  P27  1  0.500000  0.697610  0.612184  1
  P  P28  1  0.000000  0.188775  0.382704  1
  P  P29  1  0.000000  0.811225  0.382704  1
  P  P30  1  0.500000  0.845432  0.896345  1
  P  P31  1  0.500000  0.154568  0.896345  1
  P  P32  1  0.000000  0.652784  0.109096  1
  P  P33  1  0.000000  0.347216  0.109096  1
  Rh  Rh34  1  0.000000  0.000000  0.840304  1
  Rh  Rh35  1  0.500000  0.500000  0.702228  1
