# generated using pymatgen
data_Tb3HoAl13Ga5Ir6
_symmetry_space_group_name_H-M   'P 1'
_cell_length_a   7.53187216
_cell_length_b   7.53350007
_cell_length_c   9.57135400
_cell_angle_alpha   90.00000000
_cell_angle_beta   90.00000000
_cell_angle_gamma   119.57403302
_symmetry_Int_Tables_number   1
_chemical_formula_structural   Tb3HoAl13Ga5Ir6
_chemical_formula_sum   'Tb3 Ho1 Al13 Ga5 Ir6'
_cell_volume   472.33695262
_cell_formula_units_Z   1
loop_
 _symmetry_equiv_pos_site_id
 _symmetry_equiv_pos_as_xyz
  1  'x, y, z'
loop_
 _atom_site_type_symbol
 _atom_site_label
 _atom_site_symmetry_multiplicity
 _atom_site_fract_x
 _atom_site_fract_y
 _atom_site_fract_z
 _atom_site_occupancy
  Tb  Tb0  1  0.995053  0.669856  0.250000  1
  Tb  Tb1  1  0.000499  0.326325  0.750000  1
  Tb  Tb2  1  0.670174  0.996499  0.250000  1
  Ho  Ho3  1  0.330414  0.006557  0.750000  1
  Al  Al4  1  0.002746  0.334936  0.072096  1
  Al  Al5  1  0.999445  0.665719  0.927217  1
  Al  Al6  1  0.999445  0.665719  0.572783  1
  Al  Al7  1  0.334797  0.002084  0.428336  1
  Al  Al8  1  0.002746  0.334936  0.427904  1
  Al  Al9  1  0.664458  0.997666  0.573015  1
  Al  Al10  1  0.664458  0.997666  0.926985  1
  Al  Al11  1  0.334797  0.002084  0.071664  1
  Al  Al12  1  0.334003  0.334171  0.557190  1
  Al  Al13  1  0.665761  0.665713  0.446845  1
  Al  Al14  1  0.665761  0.665713  0.053155  1
  Al  Al15  1  0.334003  0.334171  0.942810  1
  Al  Al16  1  0.450994  0.662073  0.750000  1
  Ga  Ga17  1  0.128953  0.128957  0.250000  1
  Ga  Ga18  1  0.869780  0.868795  0.750000  1
  Ga  Ga19  1  0.338587  0.546943  0.250000  1
  Ga  Ga20  1  0.661829  0.454438  0.750000  1
  Ga  Ga21  1  0.546744  0.339051  0.250000  1
  Ir  Ir22  1  0.672275  0.327995  0.000085  1
  Ir  Ir23  1  0.329436  0.671809  0.997652  1
  Ir  Ir24  1  0.329436  0.671809  0.502348  1
  Ir  Ir25  1  0.672275  0.327995  0.499915  1
  Ir  Ir26  1  0.000567  0.000158  0.999793  1
  Ir  Ir27  1  0.000567  0.000158  0.500207  1
