# generated using pymatgen
data_Pr12B3AsBr12
_symmetry_space_group_name_H-M   'P 1'
_cell_length_a   10.37092110
_cell_length_b   10.37092211
_cell_length_c   10.37092207
_cell_angle_alpha   109.97832612
_cell_angle_beta   109.97833316
_cell_angle_gamma   109.97832445
_symmetry_Int_Tables_number   1
_chemical_formula_structural   Pr12B3AsBr12
_chemical_formula_sum   'Pr12 B3 As1 Br12'
_cell_volume   842.17037399
_cell_formula_units_Z   1
loop_
 _symmetry_equiv_pos_site_id
 _symmetry_equiv_pos_as_xyz
  1  'x, y, z'
loop_
 _atom_site_type_symbol
 _atom_site_label
 _atom_site_symmetry_multiplicity
 _atom_site_fract_x
 _atom_site_fract_y
 _atom_site_fract_z
 _atom_site_occupancy
  Pr  Pr0  1  0.472640  0.498886  0.226666  1
  Pr  Pr1  1  0.750000  0.230029  0.269971  1
  Pr  Pr2  1  0.750000  0.016967  0.483033  1
  Pr  Pr3  1  0.226666  0.472640  0.498886  1
  Pr  Pr4  1  0.269971  0.750000  0.230029  1
  Pr  Pr5  1  0.027360  0.273334  0.001114  1
  Pr  Pr6  1  0.001114  0.027360  0.273334  1
  Pr  Pr7  1  0.483033  0.750000  0.016967  1
  Pr  Pr8  1  0.498886  0.226666  0.472640  1
  Pr  Pr9  1  0.016967  0.483033  0.750000  1
  Pr  Pr10  1  0.273334  0.001114  0.027360  1
  Pr  Pr11  1  0.230029  0.269971  0.750000  1
  B  B12  1  0.498627  0.001373  0.250000  1
  B  B13  1  0.001373  0.250000  0.498627  1
  B  B14  1  0.250000  0.498627  0.001373  1
  As  As15  1  0.250000  0.250000  0.250000  1
  Br  Br16  1  0.250000  0.757805  0.742195  1
  Br  Br17  1  0.511240  0.506132  0.756299  1
  Br  Br18  1  0.988760  0.743701  0.993868  1
  Br  Br19  1  0.742195  0.250000  0.757805  1
  Br  Br20  1  0.993868  0.988760  0.743701  1
  Br  Br21  1  0.250000  0.995222  0.504778  1
  Br  Br22  1  0.756299  0.511240  0.506132  1
  Br  Br23  1  0.504778  0.250000  0.995222  1
  Br  Br24  1  0.757805  0.742195  0.250000  1
  Br  Br25  1  0.743701  0.993868  0.988760  1
  Br  Br26  1  0.995222  0.504778  0.250000  1
  Br  Br27  1  0.506132  0.756299  0.511240  1
