# generated using pymatgen
data_Tb5AsSe4
_symmetry_space_group_name_H-M   'P 1'
_cell_length_a   7.11232189
_cell_length_b   7.11228545
_cell_length_c   7.11228127
_cell_angle_alpha   99.61404308
_cell_angle_beta   99.61390620
_cell_angle_gamma   131.75787578
_symmetry_Int_Tables_number   1
_chemical_formula_structural   Tb5AsSe4
_chemical_formula_sum   'Tb5 As1 Se4'
_cell_volume   244.94478129
_cell_formula_units_Z   1
loop_
 _symmetry_equiv_pos_site_id
 _symmetry_equiv_pos_as_xyz
  1  'x, y, z'
loop_
 _atom_site_type_symbol
 _atom_site_label
 _atom_site_symmetry_multiplicity
 _atom_site_fract_x
 _atom_site_fract_y
 _atom_site_fract_z
 _atom_site_occupancy
  Tb  Tb0  1  0.401135  0.793757  0.194896  1
  Tb  Tb1  1  0.000000  0.000000  0.000000  1
  Tb  Tb2  1  0.598865  0.206243  0.805104  1
  Tb  Tb3  1  0.206241  0.401136  0.607379  1
  Tb  Tb4  1  0.793759  0.598864  0.392621  1
  As  As5  1  0.500000  0.500000  0.000000  1
  Se  Se6  1  0.098210  0.698687  0.796895  1
  Se  Se7  1  0.698686  0.901791  0.600476  1
  Se  Se8  1  0.301314  0.098209  0.399524  1
  Se  Se9  1  0.901790  0.301313  0.203105  1
