# generated using pymatgen
data_LaU5(Sb4Pt3)2
_symmetry_space_group_name_H-M   'P 1'
_cell_length_a   8.49205259
_cell_length_b   8.49205257
_cell_length_c   8.49205195
_cell_angle_alpha   109.43242603
_cell_angle_beta   109.54882706
_cell_angle_gamma   109.43243377
_symmetry_Int_Tables_number   1
_chemical_formula_structural   LaU5(Sb4Pt3)2
_chemical_formula_sum   'La1 U5 Sb8 Pt6'
_cell_volume   471.42815735
_cell_formula_units_Z   1
loop_
 _symmetry_equiv_pos_site_id
 _symmetry_equiv_pos_as_xyz
  1  'x, y, z'
loop_
 _atom_site_type_symbol
 _atom_site_label
 _atom_site_symmetry_multiplicity
 _atom_site_fract_x
 _atom_site_fract_y
 _atom_site_fract_z
 _atom_site_occupancy
  La  La0  1  0.875000  0.250000  0.125000  1
  U  U1  1  0.625000  0.750000  0.375000  1
  U  U2  1  0.248817  0.123577  0.875984  1
  U  U3  1  0.752408  0.376423  0.625241  1
  U  U4  1  0.124016  0.872833  0.247592  1
  U  U5  1  0.374759  0.627167  0.751183  1
  Sb  Sb6  1  0.674562  0.498124  0.996867  1
  Sb  Sb7  1  0.498742  0.001876  0.676438  1
  Sb  Sb8  1  0.001911  0.678341  0.499754  1
  Sb  Sb9  1  0.821412  0.821659  0.823570  1
  Sb  Sb10  1  0.500246  0.002158  0.178588  1
  Sb  Sb11  1  0.176430  0.497842  0.998089  1
  Sb  Sb12  1  0.003133  0.177696  0.501258  1
  Sb  Sb13  1  0.323562  0.322304  0.325438  1
  Pt  Pt14  1  0.375000  0.250000  0.625000  1
  Pt  Pt15  1  0.125000  0.750000  0.875000  1
  Pt  Pt16  1  0.265564  0.635681  0.379919  1
  Pt  Pt17  1  0.744238  0.864319  0.129883  1
  Pt  Pt18  1  0.620081  0.385645  0.255762  1
  Pt  Pt19  1  0.870117  0.114355  0.734436  1
