# generated using pymatgen
data_Ho3Pa(HgPt2)2
_symmetry_space_group_name_H-M   'P 1'
_cell_length_a   7.79439870
_cell_length_b   7.79439870
_cell_length_c   3.63548100
_cell_angle_alpha   90.00000000
_cell_angle_beta   90.00000000
_cell_angle_gamma   88.17478467
_symmetry_Int_Tables_number   1
_chemical_formula_structural   Ho3Pa(HgPt2)2
_chemical_formula_sum   'Ho3 Pa1 Hg2 Pt4'
_cell_volume   220.75305087
_cell_formula_units_Z   1
loop_
 _symmetry_equiv_pos_site_id
 _symmetry_equiv_pos_as_xyz
  1  'x, y, z'
loop_
 _atom_site_type_symbol
 _atom_site_label
 _atom_site_symmetry_multiplicity
 _atom_site_fract_x
 _atom_site_fract_y
 _atom_site_fract_z
 _atom_site_occupancy
  Ho  Ho0  1  0.326140  0.173860  0.500000  1
  Ho  Ho1  1  0.832842  0.329240  0.500000  1
  Ho  Ho2  1  0.170760  0.667158  0.500000  1
  Pa  Pa3  1  0.667599  0.832401  0.500000  1
  Hg  Hg4  1  0.007851  0.001308  0.000000  1
  Hg  Hg5  1  0.498692  0.492149  0.000000  1
  Pt  Pt6  1  0.633808  0.119718  0.000000  1
  Pt  Pt7  1  0.122240  0.377760  0.000000  1
  Pt  Pt8  1  0.859786  0.640214  0.000000  1
  Pt  Pt9  1  0.380282  0.866192  0.000000  1
