# generated using pymatgen
data_YHo3Pd3Pt
_symmetry_space_group_name_H-M   'P 1'
_cell_length_a   4.55083700
_cell_length_b   5.59584092
_cell_length_c   6.98616703
_cell_angle_alpha   90.03970005
_cell_angle_beta   90.00000000
_cell_angle_gamma   90.00000000
_symmetry_Int_Tables_number   1
_chemical_formula_structural   YHo3Pd3Pt
_chemical_formula_sum   'Y1 Ho3 Pd3 Pt1'
_cell_volume   177.90800954
_cell_formula_units_Z   1
loop_
 _symmetry_equiv_pos_site_id
 _symmetry_equiv_pos_as_xyz
  1  'x, y, z'
loop_
 _atom_site_type_symbol
 _atom_site_label
 _atom_site_symmetry_multiplicity
 _atom_site_fract_x
 _atom_site_fract_y
 _atom_site_fract_z
 _atom_site_occupancy
  Y  Y0  1  0.750000  0.639891  0.317934  1
  Ho  Ho1  1  0.250000  0.356129  0.686003  1
  Ho  Ho2  1  0.250000  0.144444  0.179118  1
  Ho  Ho3  1  0.750000  0.859153  0.818043  1
  Pd  Pd4  1  0.250000  0.847683  0.542739  1
  Pd  Pd5  1  0.250000  0.656029  0.043453  1
  Pd  Pd6  1  0.750000  0.150959  0.457063  1
  Pt  Pt7  1  0.750000  0.345714  0.955645  1
