# generated using pymatgen
data_PrEr7Hf12Si15Ge
_symmetry_space_group_name_H-M   'P 1'
_cell_length_a   7.26786575
_cell_length_b   7.27292472
_cell_length_c   13.34722600
_cell_angle_alpha   89.92544301
_cell_angle_beta   89.94178079
_cell_angle_gamma   89.96232278
_symmetry_Int_Tables_number   1
_chemical_formula_structural   PrEr7Hf12Si15Ge
_chemical_formula_sum   'Pr1 Er7 Hf12 Si15 Ge1'
_cell_volume   705.51510756
_cell_formula_units_Z   1
loop_
 _symmetry_equiv_pos_site_id
 _symmetry_equiv_pos_as_xyz
  1  'x, y, z'
loop_
 _atom_site_type_symbol
 _atom_site_label
 _atom_site_symmetry_multiplicity
 _atom_site_fract_x
 _atom_site_fract_y
 _atom_site_fract_z
 _atom_site_occupancy
  Pr  Pr0  1  0.657889  0.006936  0.284402  1
  Er  Er1  1  0.995343  0.345294  0.213925  1
  Er  Er2  1  0.004782  0.655070  0.715512  1
  Er  Er3  1  0.153789  0.498576  0.467255  1
  Er  Er4  1  0.504370  0.842958  0.033215  1
  Er  Er5  1  0.845188  0.504003  0.964513  1
  Er  Er6  1  0.496282  0.154569  0.536578  1
  Er  Er7  1  0.344539  0.995547  0.784700  1
  Hf  Hf8  1  0.174508  0.175306  0.999095  1
  Hf  Hf9  1  0.825743  0.825084  0.500801  1
  Hf  Hf10  1  0.324725  0.676103  0.249436  1
  Hf  Hf11  1  0.675002  0.325132  0.749913  1
  Hf  Hf12  1  0.148755  0.994688  0.374406  1
  Hf  Hf13  1  0.852060  0.003440  0.874127  1
  Hf  Hf14  1  0.503176  0.647975  0.625400  1
  Hf  Hf15  1  0.351754  0.496715  0.875132  1
  Hf  Hf16  1  0.494027  0.351360  0.122585  1
  Hf  Hf17  1  0.651043  0.506610  0.377090  1
  Hf  Hf18  1  0.996527  0.148422  0.626511  1
  Hf  Hf19  1  0.002649  0.849752  0.124254  1
  Si  Si20  1  0.639325  0.704877  0.817503  1
  Si  Si21  1  0.204899  0.861287  0.568059  1
  Si  Si22  1  0.138899  0.794435  0.931712  1
  Si  Si23  1  0.796117  0.139405  0.065318  1
  Si  Si24  1  0.865170  0.208291  0.435928  1
  Si  Si25  1  0.295535  0.360894  0.682520  1
  Si  Si26  1  0.705680  0.633763  0.180915  1
  Si  Si27  1  0.291104  0.046955  0.182196  1
  Si  Si28  1  0.704181  0.950635  0.685853  1
  Si  Si29  1  0.447565  0.793765  0.437679  1
  Si  Si30  1  0.203289  0.548851  0.064016  1
  Si  Si31  1  0.548741  0.203522  0.934856  1
  Si  Si32  1  0.796205  0.451693  0.565355  1
  Si  Si33  1  0.048908  0.296248  0.814218  1
  Si  Si34  1  0.954167  0.701290  0.314262  1
  Ge  Ge35  1  0.358063  0.300550  0.320760  1
