# generated using pymatgen
data_Na(AcSn)4
_symmetry_space_group_name_H-M   'P 1'
_cell_length_a   8.34171200
_cell_length_b   8.97274900
_cell_length_c   17.15341200
_cell_angle_alpha   90.00000000
_cell_angle_beta   90.00000000
_cell_angle_gamma   90.00000000
_symmetry_Int_Tables_number   1
_chemical_formula_structural   Na(AcSn)4
_chemical_formula_sum   'Na4 Ac16 Sn16'
_cell_volume   1283.90009098
_cell_formula_units_Z   4
loop_
 _symmetry_equiv_pos_site_id
 _symmetry_equiv_pos_as_xyz
  1  'x, y, z'
loop_
 _atom_site_type_symbol
 _atom_site_label
 _atom_site_symmetry_multiplicity
 _atom_site_fract_x
 _atom_site_fract_y
 _atom_site_fract_z
 _atom_site_occupancy
  Na  Na0  1  0.161980  0.483227  0.750000  1
  Na  Na1  1  0.661980  0.016773  0.750000  1
  Na  Na2  1  0.838020  0.516773  0.250000  1
  Na  Na3  1  0.338020  0.983227  0.250000  1
  Ac  Ac4  1  0.332305  0.826451  0.872337  1
  Ac  Ac5  1  0.832305  0.673549  0.627663  1
  Ac  Ac6  1  0.667695  0.173549  0.372337  1
  Ac  Ac7  1  0.167695  0.326451  0.127663  1
  Ac  Ac8  1  0.667695  0.173549  0.127663  1
  Ac  Ac9  1  0.167695  0.326451  0.372337  1
  Ac  Ac10  1  0.332305  0.826451  0.627663  1
  Ac  Ac11  1  0.832305  0.673549  0.872337  1
  Ac  Ac12  1  0.488627  0.309804  0.900522  1
  Ac  Ac13  1  0.988627  0.190196  0.599478  1
  Ac  Ac14  1  0.511373  0.690196  0.400522  1
  Ac  Ac15  1  0.011373  0.809804  0.099478  1
  Ac  Ac16  1  0.511373  0.690196  0.099478  1
  Ac  Ac17  1  0.011373  0.809804  0.400522  1
  Ac  Ac18  1  0.488627  0.309804  0.599478  1
  Ac  Ac19  1  0.988627  0.190196  0.900522  1
  Sn  Sn20  1  0.330988  0.035567  0.036192  1
  Sn  Sn21  1  0.830988  0.464433  0.463808  1
  Sn  Sn22  1  0.669012  0.964433  0.536192  1
  Sn  Sn23  1  0.169012  0.535567  0.963808  1
  Sn  Sn24  1  0.669012  0.964433  0.963808  1
  Sn  Sn25  1  0.169012  0.535567  0.536192  1
  Sn  Sn26  1  0.330988  0.035567  0.463808  1
  Sn  Sn27  1  0.830988  0.464433  0.036192  1
  Sn  Sn28  1  0.522338  0.587136  0.750000  1
  Sn  Sn29  1  0.022338  0.912864  0.750000  1
  Sn  Sn30  1  0.477662  0.412864  0.250000  1
  Sn  Sn31  1  0.977662  0.087136  0.250000  1
  Sn  Sn32  1  0.282486  0.137192  0.750000  1
  Sn  Sn33  1  0.782486  0.362808  0.750000  1
  Sn  Sn34  1  0.717514  0.862808  0.250000  1
  Sn  Sn35  1  0.217514  0.637192  0.250000  1
