# generated using pymatgen
data_TbDy(Al3Pd)6
_symmetry_space_group_name_H-M   'P 1'
_cell_length_a   10.42763215
_cell_length_b   10.42763241
_cell_length_c   10.42763400
_cell_angle_alpha   42.21794378
_cell_angle_beta   42.21795034
_cell_angle_gamma   42.21794511
_symmetry_Int_Tables_number   1
_chemical_formula_structural   TbDy(Al3Pd)6
_chemical_formula_sum   'Tb1 Dy1 Al18 Pd6'
_cell_volume   463.30480750
_cell_formula_units_Z   1
loop_
 _symmetry_equiv_pos_site_id
 _symmetry_equiv_pos_as_xyz
  1  'x, y, z'
loop_
 _atom_site_type_symbol
 _atom_site_label
 _atom_site_symmetry_multiplicity
 _atom_site_fract_x
 _atom_site_fract_y
 _atom_site_fract_z
 _atom_site_occupancy
  Tb  Tb0  1  0.166853  0.166853  0.166853  1
  Dy  Dy1  1  0.833156  0.833156  0.833156  1
  Al  Al2  1  0.107294  0.435534  0.763707  1
  Al  Al3  1  0.435534  0.763707  0.107294  1
  Al  Al4  1  0.564894  0.892494  0.236084  1
  Al  Al5  1  0.949941  0.949941  0.949941  1
  Al  Al6  1  0.050029  0.050029  0.050029  1
  Al  Al7  1  0.295231  0.704536  0.500228  1
  Al  Al8  1  0.892494  0.236084  0.564894  1
  Al  Al9  1  0.384759  0.384759  0.384759  1
  Al  Al10  1  0.500228  0.295231  0.704536  1
  Al  Al11  1  0.236084  0.564894  0.892494  1
  Al  Al12  1  0.716328  0.716328  0.716328  1
  Al  Al13  1  0.615243  0.615243  0.615243  1
  Al  Al14  1  0.334406  0.999999  0.665591  1
  Al  Al15  1  0.704536  0.500228  0.295231  1
  Al  Al16  1  0.665591  0.334406  0.999999  1
  Al  Al17  1  0.283695  0.283695  0.283695  1
  Al  Al18  1  0.999999  0.665591  0.334406  1
  Al  Al19  1  0.763707  0.107294  0.435534  1
  Pd  Pd20  1  0.419019  0.077129  0.760222  1
  Pd  Pd21  1  0.581279  0.239643  0.922707  1
  Pd  Pd22  1  0.077129  0.760222  0.419019  1
  Pd  Pd23  1  0.760222  0.419019  0.077129  1
  Pd  Pd24  1  0.922707  0.581279  0.239643  1
  Pd  Pd25  1  0.239643  0.922707  0.581279  1
