# generated using pymatgen
data_Tm4Ga4IrPdRh2
_symmetry_space_group_name_H-M   'P 1'
_cell_length_a   4.28897800
_cell_length_b   6.80139347
_cell_length_c   7.76845370
_cell_angle_alpha   90.21721914
_cell_angle_beta   90.00000000
_cell_angle_gamma   90.00000000
_symmetry_Int_Tables_number   1
_chemical_formula_structural   Tm4Ga4IrPdRh2
_chemical_formula_sum   'Tm4 Ga4 Ir1 Pd1 Rh2'
_cell_volume   226.61214399
_cell_formula_units_Z   1
loop_
 _symmetry_equiv_pos_site_id
 _symmetry_equiv_pos_as_xyz
  1  'x, y, z'
loop_
 _atom_site_type_symbol
 _atom_site_label
 _atom_site_symmetry_multiplicity
 _atom_site_fract_x
 _atom_site_fract_y
 _atom_site_fract_z
 _atom_site_occupancy
  Tm  Tm0  1  0.250000  0.975202  0.313378  1
  Tm  Tm1  1  0.250000  0.477087  0.192629  1
  Tm  Tm2  1  0.750000  0.021149  0.683658  1
  Tm  Tm3  1  0.750000  0.532987  0.810658  1
  Ga  Ga4  1  0.250000  0.347791  0.567289  1
  Ga  Ga5  1  0.250000  0.841445  0.932313  1
  Ga  Ga6  1  0.750000  0.654139  0.430033  1
  Ga  Ga7  1  0.750000  0.152116  0.069482  1
  Ir  Ir8  1  0.250000  0.735678  0.612700  1
  Pd  Pd9  1  0.250000  0.232242  0.888447  1
  Rh  Rh10  1  0.750000  0.764924  0.110420  1
  Rh  Rh11  1  0.750000  0.265238  0.388992  1
