# generated using pymatgen
data_Pr3In3Ge2Ir
_symmetry_space_group_name_H-M   'P 1'
_cell_length_a   7.55034600
_cell_length_b   7.55034562
_cell_length_c   4.43157100
_cell_angle_alpha   90.00000000
_cell_angle_beta   90.00000000
_cell_angle_gamma   120.00000168
_symmetry_Int_Tables_number   1
_chemical_formula_structural   Pr3In3Ge2Ir
_chemical_formula_sum   'Pr3 In3 Ge2 Ir1'
_cell_volume   218.78725619
_cell_formula_units_Z   1
loop_
 _symmetry_equiv_pos_site_id
 _symmetry_equiv_pos_as_xyz
  1  'x, y, z'
loop_
 _atom_site_type_symbol
 _atom_site_label
 _atom_site_symmetry_multiplicity
 _atom_site_fract_x
 _atom_site_fract_y
 _atom_site_fract_z
 _atom_site_occupancy
  Pr  Pr0  1  0.404776  0.000000  0.000000  1
  Pr  Pr1  1  0.000000  0.404776  0.000000  1
  Pr  Pr2  1  0.595224  0.595223  0.000000  1
  In  In3  1  0.761372  0.000000  0.500001  1
  In  In4  1  0.238628  0.238628  0.500001  1
  In  In5  1  0.000000  0.761373  0.500001  1
  Ge  Ge6  1  0.666667  0.333334  0.500001  1
  Ge  Ge7  1  0.333333  0.666667  0.500001  1
  Ir  Ir8  1  0.000000  0.000000  0.000000  1
