# generated using pymatgen
data_Dy2YAl12Ru3Pt
_symmetry_space_group_name_H-M   'P 1'
_cell_length_a   8.82361951
_cell_length_b   8.80593272
_cell_length_c   9.57454315
_cell_angle_alpha   90.04902083
_cell_angle_beta   90.06628128
_cell_angle_gamma   119.58184291
_symmetry_Int_Tables_number   1
_chemical_formula_structural   Dy2YAl12Ru3Pt
_chemical_formula_sum   'Dy4 Y2 Al24 Ru6 Pt2'
_cell_volume   646.97057565
_cell_formula_units_Z   2
loop_
 _symmetry_equiv_pos_site_id
 _symmetry_equiv_pos_as_xyz
  1  'x, y, z'
loop_
 _atom_site_type_symbol
 _atom_site_label
 _atom_site_symmetry_multiplicity
 _atom_site_fract_x
 _atom_site_fract_y
 _atom_site_fract_z
 _atom_site_occupancy
  Dy  Dy0  1  0.190712  0.386219  0.252262  1
  Dy  Dy1  1  0.809288  0.613781  0.747738  1
  Dy  Dy2  1  0.615961  0.809028  0.251265  1
  Dy  Dy3  1  0.384039  0.190972  0.748735  1
  Y  Y4  1  0.191533  0.806345  0.251548  1
  Y  Y5  1  0.808467  0.193655  0.748452  1
  Al  Al6  1  0.327232  0.664180  0.024939  1
  Al  Al7  1  0.672768  0.335820  0.975061  1
  Al  Al8  1  0.666802  0.332754  0.522807  1
  Al  Al9  1  0.333198  0.667246  0.477193  1
  Al  Al10  1  0.163748  0.327244  0.576206  1
  Al  Al11  1  0.836252  0.672756  0.423794  1
  Al  Al12  1  0.673588  0.836899  0.575553  1
  Al  Al13  1  0.842137  0.675657  0.078288  1
  Al  Al14  1  0.326412  0.163101  0.424447  1
  Al  Al15  1  0.157863  0.324343  0.921712  1
  Al  Al16  1  0.163601  0.836926  0.577203  1
  Al  Al17  1  0.322865  0.162206  0.078955  1
  Al  Al18  1  0.836399  0.163074  0.422797  1
  Al  Al19  1  0.677135  0.837794  0.921045  1
  Al  Al20  1  0.841821  0.167590  0.078844  1
  Al  Al21  1  0.158179  0.832410  0.921156  1
  Al  Al22  1  0.561943  0.125177  0.252536  1
  Al  Al23  1  0.438057  0.874823  0.747464  1
  Al  Al24  1  0.877498  0.439829  0.248998  1
  Al  Al25  1  0.122502  0.560171  0.751002  1
  Al  Al26  1  0.562572  0.437625  0.252892  1
  Al  Al27  1  0.437428  0.562375  0.747108  1
  Al  Al28  1  0.997863  0.000311  0.250379  1
  Al  Al29  1  0.002137  0.999689  0.749621  1
  Ru  Ru30  1  0.000000  0.500000  0.000000  1
  Ru  Ru31  1  0.500000  0.000000  0.500000  1
  Ru  Ru32  1  0.000000  0.500000  0.500000  1
  Ru  Ru33  1  0.500000  0.500000  0.500000  1
  Ru  Ru34  1  0.000000  0.000000  0.000000  1
  Ru  Ru35  1  0.000000  0.000000  0.500000  1
  Pt  Pt36  1  0.500000  0.000000  0.000000  1
  Pt  Pt37  1  0.500000  0.500000  0.000000  1
