# generated using pymatgen
data_DyLu(B3Mo)2
_symmetry_space_group_name_H-M   'P 1'
_cell_length_a   3.15487500
_cell_length_b   5.41543240
_cell_length_c   6.80057203
_cell_angle_alpha   78.43175633
_cell_angle_beta   90.00000000
_cell_angle_gamma   90.00000000
_symmetry_Int_Tables_number   1
_chemical_formula_structural   DyLu(B3Mo)2
_chemical_formula_sum   'Dy1 Lu1 B6 Mo2'
_cell_volume   113.82768020
_cell_formula_units_Z   1
loop_
 _symmetry_equiv_pos_site_id
 _symmetry_equiv_pos_as_xyz
  1  'x, y, z'
loop_
 _atom_site_type_symbol
 _atom_site_label
 _atom_site_symmetry_multiplicity
 _atom_site_fract_x
 _atom_site_fract_y
 _atom_site_fract_z
 _atom_site_occupancy
  Dy  Dy0  1  0.750000  0.674413  0.293280  1
  Lu  Lu1  1  0.250000  0.319172  0.713430  1
  B  B2  1  0.250000  0.924752  0.524514  1
  B  B3  1  0.750000  0.087097  0.477206  1
  B  B4  1  0.250000  0.911833  0.002753  1
  B  B5  1  0.750000  0.086712  0.994348  1
  B  B6  1  0.250000  0.582359  0.005103  1
  B  B7  1  0.750000  0.415240  0.991181  1
  Mo  Mo8  1  0.250000  0.188874  0.219807  1
  Mo  Mo9  1  0.750000  0.809548  0.778377  1
