# generated using pymatgen
data_TbHo15In3HgRh4
_symmetry_space_group_name_H-M   'P 1'
_cell_length_a   9.60745918
_cell_length_b   9.60745955
_cell_length_c   9.60552902
_cell_angle_alpha   60.00576191
_cell_angle_beta   60.00575901
_cell_angle_gamma   60.00140618
_symmetry_Int_Tables_number   1
_chemical_formula_structural   TbHo15In3HgRh4
_chemical_formula_sum   'Tb1 Ho15 In3 Hg1 Rh4'
_cell_volume   626.99752642
_cell_formula_units_Z   1
loop_
 _symmetry_equiv_pos_site_id
 _symmetry_equiv_pos_as_xyz
  1  'x, y, z'
loop_
 _atom_site_type_symbol
 _atom_site_label
 _atom_site_symmetry_multiplicity
 _atom_site_fract_x
 _atom_site_fract_y
 _atom_site_fract_z
 _atom_site_occupancy
  Tb  Tb0  1  0.187818  0.187818  0.812112  1
  Ho  Ho1  1  0.601898  0.601898  0.198073  1
  Ho  Ho2  1  0.439819  0.059523  0.439168  1
  Ho  Ho3  1  0.439560  0.439560  0.059568  1
  Ho  Ho4  1  0.812908  0.184479  0.813492  1
  Ho  Ho5  1  0.188035  0.811505  0.188504  1
  Ho  Ho6  1  0.436624  0.061132  0.061293  1
  Ho  Ho7  1  0.184479  0.812908  0.813492  1
  Ho  Ho8  1  0.061132  0.436624  0.061293  1
  Ho  Ho9  1  0.813500  0.813500  0.184371  1
  Ho  Ho10  1  0.197970  0.602171  0.601628  1
  Ho  Ho11  1  0.059523  0.439819  0.439168  1
  Ho  Ho12  1  0.061198  0.061198  0.436415  1
  Ho  Ho13  1  0.811505  0.188035  0.188504  1
  Ho  Ho14  1  0.602171  0.197970  0.601628  1
  Ho  Ho15  1  0.598440  0.598440  0.598361  1
  In  In16  1  0.832174  0.832174  0.502957  1
  In  In17  1  0.503351  0.831686  0.832244  1
  In  In18  1  0.831686  0.503351  0.832244  1
  Hg  Hg19  1  0.836153  0.836153  0.836039  1
  Rh  Rh20  1  0.391845  0.822699  0.391772  1
  Rh  Rh21  1  0.393499  0.393499  0.393196  1
  Rh  Rh22  1  0.822699  0.391845  0.391772  1
  Rh  Rh23  1  0.392011  0.392011  0.822711  1
