# generated using pymatgen
data_DyEr4In2Bi
_symmetry_space_group_name_H-M   'P 1'
_cell_length_a   8.98840095
_cell_length_b   8.98822313
_cell_length_c   6.56859000
_cell_angle_alpha   90.00000000
_cell_angle_beta   90.00000000
_cell_angle_gamma   119.99934164
_symmetry_Int_Tables_number   1
_chemical_formula_structural   DyEr4In2Bi
_chemical_formula_sum   'Dy2 Er8 In4 Bi2'
_cell_volume   459.58087721
_cell_formula_units_Z   2
loop_
 _symmetry_equiv_pos_site_id
 _symmetry_equiv_pos_as_xyz
  1  'x, y, z'
loop_
 _atom_site_type_symbol
 _atom_site_label
 _atom_site_symmetry_multiplicity
 _atom_site_fract_x
 _atom_site_fract_y
 _atom_site_fract_z
 _atom_site_occupancy
  Dy  Dy0  1  0.769617  0.760916  0.750000  1
  Dy  Dy1  1  0.230383  0.991300  0.750000  1
  Er  Er2  1  0.670872  0.338094  0.006507  1
  Er  Er3  1  0.329128  0.667223  0.006507  1
  Er  Er4  1  0.329128  0.667223  0.493493  1
  Er  Er5  1  0.670872  0.338094  0.493493  1
  Er  Er6  1  0.000000  0.241670  0.750000  1
  Er  Er7  1  0.236776  0.237485  0.250000  1
  Er  Er8  1  0.763224  0.000709  0.250000  1
  Er  Er9  1  0.000000  0.761323  0.250000  1
  In  In10  1  0.000000  0.597202  0.750000  1
  In  In11  1  0.604900  0.606898  0.250000  1
  In  In12  1  0.395100  0.001998  0.250000  1
  In  In13  1  0.000000  0.395738  0.250000  1
  Bi  Bi14  1  0.395084  0.394605  0.750000  1
  Bi  Bi15  1  0.604916  0.999521  0.750000  1
