# generated using pymatgen
data_ErTm5Th2(MgCo)2
_symmetry_space_group_name_H-M   'P 1'
_cell_length_a   9.54399040
_cell_length_b   9.54399070
_cell_length_c   9.54319500
_cell_angle_alpha   60.00276133
_cell_angle_beta   60.00276030
_cell_angle_gamma   59.99448399
_symmetry_Int_Tables_number   1
_chemical_formula_structural   ErTm5Th2(MgCo)2
_chemical_formula_sum   'Er2 Tm10 Th4 Mg4 Co4'
_cell_volume   614.66546600
_cell_formula_units_Z   2
loop_
 _symmetry_equiv_pos_site_id
 _symmetry_equiv_pos_as_xyz
  1  'x, y, z'
loop_
 _atom_site_type_symbol
 _atom_site_label
 _atom_site_symmetry_multiplicity
 _atom_site_fract_x
 _atom_site_fract_y
 _atom_site_fract_z
 _atom_site_occupancy
  Er  Er0  1  0.815214  0.815214  0.184786  1
  Er  Er1  1  0.184786  0.184786  0.815214  1
  Tm  Tm2  1  0.064005  0.435995  0.435995  1
  Tm  Tm3  1  0.435995  0.064005  0.064005  1
  Tm  Tm4  1  0.435995  0.064005  0.435995  1
  Tm  Tm5  1  0.064005  0.435995  0.064005  1
  Tm  Tm6  1  0.436059  0.436059  0.063941  1
  Tm  Tm7  1  0.063941  0.063941  0.436059  1
  Tm  Tm8  1  0.184898  0.815102  0.815102  1
  Tm  Tm9  1  0.815102  0.184898  0.184898  1
  Tm  Tm10  1  0.815102  0.184898  0.815102  1
  Tm  Tm11  1  0.184898  0.815102  0.184898  1
  Th  Th12  1  0.595115  0.595115  0.595271  1
  Th  Th13  1  0.595115  0.595115  0.214501  1
  Th  Th14  1  0.595271  0.214501  0.595115  1
  Th  Th15  1  0.214501  0.595271  0.595115  1
  Mg  Mg16  1  0.830755  0.830755  0.830737  1
  Mg  Mg17  1  0.830755  0.830755  0.507754  1
  Mg  Mg18  1  0.830737  0.507754  0.830755  1
  Mg  Mg19  1  0.507754  0.830737  0.830755  1
  Co  Co20  1  0.394421  0.394421  0.394278  1
  Co  Co21  1  0.394421  0.394421  0.816880  1
  Co  Co22  1  0.394278  0.816880  0.394421  1
  Co  Co23  1  0.816880  0.394278  0.394421  1
