# generated using pymatgen
data_Dy2Pa2Zn3CuRh4
_symmetry_space_group_name_H-M   'P 1'
_cell_length_a   3.79469400
_cell_length_b   7.15177412
_cell_length_c   8.37823319
_cell_angle_alpha   91.68462385
_cell_angle_beta   90.00000000
_cell_angle_gamma   90.00000000
_symmetry_Int_Tables_number   1
_chemical_formula_structural   Dy2Pa2Zn3CuRh4
_chemical_formula_sum   'Dy2 Pa2 Zn3 Cu1 Rh4'
_cell_volume   227.27687278
_cell_formula_units_Z   1
loop_
 _symmetry_equiv_pos_site_id
 _symmetry_equiv_pos_as_xyz
  1  'x, y, z'
loop_
 _atom_site_type_symbol
 _atom_site_label
 _atom_site_symmetry_multiplicity
 _atom_site_fract_x
 _atom_site_fract_y
 _atom_site_fract_z
 _atom_site_occupancy
  Dy  Dy0  1  0.250000  0.061216  0.312666  1
  Dy  Dy1  1  0.750000  0.941220  0.691881  1
  Pa  Pa2  1  0.250000  0.554906  0.189854  1
  Pa  Pa3  1  0.750000  0.437985  0.812569  1
  Zn  Zn4  1  0.750000  0.892893  0.058588  1
  Zn  Zn5  1  0.250000  0.629064  0.559365  1
  Zn  Zn6  1  0.750000  0.373313  0.441886  1
  Cu  Cu7  1  0.250000  0.109289  0.935420  1
  Rh  Rh8  1  0.750000  0.749385  0.355947  1
  Rh  Rh9  1  0.250000  0.252477  0.638994  1
  Rh  Rh10  1  0.750000  0.287353  0.122571  1
  Rh  Rh11  1  0.250000  0.710897  0.880259  1
