# generated using pymatgen
data_Th3Sn3Os2Pt
_symmetry_space_group_name_H-M   'P 1'
_cell_length_a   7.58038000
_cell_length_b   7.58038117
_cell_length_c   4.16978300
_cell_angle_alpha   90.00000000
_cell_angle_beta   90.00000000
_cell_angle_gamma   119.99999490
_symmetry_Int_Tables_number   1
_chemical_formula_structural   Th3Sn3Os2Pt
_chemical_formula_sum   'Th3 Sn3 Os2 Pt1'
_cell_volume   207.50383597
_cell_formula_units_Z   1
loop_
 _symmetry_equiv_pos_site_id
 _symmetry_equiv_pos_as_xyz
  1  'x, y, z'
loop_
 _atom_site_type_symbol
 _atom_site_label
 _atom_site_symmetry_multiplicity
 _atom_site_fract_x
 _atom_site_fract_y
 _atom_site_fract_z
 _atom_site_occupancy
  Th  Th0  1  0.404883  0.414225  0.000000  1
  Th  Th1  1  0.585775  0.990659  0.000000  1
  Th  Th2  1  0.009341  0.595117  0.000000  1
  Sn  Sn3  1  0.002527  0.250136  0.500000  1
  Sn  Sn4  1  0.749864  0.752391  0.500000  1
  Sn  Sn5  1  0.247609  0.997473  0.500000  1
  Os  Os6  1  0.333333  0.666667  0.500000  1
  Os  Os7  1  0.000000  0.000000  0.000000  1
  Pt  Pt8  1  0.666667  0.333333  0.500000  1
