# generated using pymatgen
data_K2Hf(AsSe3)2
_symmetry_space_group_name_H-M   'P 1'
_cell_length_a   7.09180500
_cell_length_b   7.09180537
_cell_length_c   7.63727200
_cell_angle_alpha   90.00000000
_cell_angle_beta   90.00000000
_cell_angle_gamma   119.99999363
_symmetry_Int_Tables_number   1
_chemical_formula_structural   K2Hf(AsSe3)2
_chemical_formula_sum   'K2 Hf1 As2 Se6'
_cell_volume   332.64615754
_cell_formula_units_Z   1
loop_
 _symmetry_equiv_pos_site_id
 _symmetry_equiv_pos_as_xyz
  1  'x, y, z'
loop_
 _atom_site_type_symbol
 _atom_site_label
 _atom_site_symmetry_multiplicity
 _atom_site_fract_x
 _atom_site_fract_y
 _atom_site_fract_z
 _atom_site_occupancy
  K  K0  1  0.333333  0.666667  0.582325  1
  K  K1  1  0.666667  0.333333  0.417675  1
  Hf  Hf2  1  0.000000  0.000000  0.000000  1
  As  As3  1  0.333333  0.666667  0.055513  1
  As  As4  1  0.666667  0.333333  0.944487  1
  Se  Se5  1  0.250418  0.917150  0.214795  1
  Se  Se6  1  0.917150  0.666733  0.785205  1
  Se  Se7  1  0.749582  0.082850  0.785205  1
  Se  Se8  1  0.333267  0.250418  0.785205  1
  Se  Se9  1  0.666733  0.749582  0.214795  1
  Se  Se10  1  0.082850  0.333267  0.214795  1
