# generated using pymatgen
data_Tb12Co4SnOs
_symmetry_space_group_name_H-M   'P 1'
_cell_length_a   8.34316403
_cell_length_b   8.34248735
_cell_length_c   8.34316229
_cell_angle_alpha   111.49610403
_cell_angle_beta   110.35752380
_cell_angle_gamma   106.60295239
_symmetry_Int_Tables_number   1
_chemical_formula_structural   Tb12Co4SnOs
_chemical_formula_sum   'Tb12 Co4 Sn1 Os1'
_cell_volume   446.12871419
_cell_formula_units_Z   1
loop_
 _symmetry_equiv_pos_site_id
 _symmetry_equiv_pos_as_xyz
  1  'x, y, z'
loop_
 _atom_site_type_symbol
 _atom_site_label
 _atom_site_symmetry_multiplicity
 _atom_site_fract_x
 _atom_site_fract_y
 _atom_site_fract_z
 _atom_site_occupancy
  Tb  Tb0  1  0.410618  0.216934  0.193671  1
  Tb  Tb1  1  0.589382  0.783066  0.806329  1
  Tb  Tb2  1  0.023263  0.216934  0.806315  1
  Tb  Tb3  1  0.976737  0.783066  0.193685  1
  Tb  Tb4  1  0.181397  0.283562  0.464912  1
  Tb  Tb5  1  0.818603  0.716438  0.535088  1
  Tb  Tb6  1  0.181350  0.716438  0.897836  1
  Tb  Tb7  1  0.818650  0.283562  0.102164  1
  Tb  Tb8  1  0.314907  0.621816  0.306908  1
  Tb  Tb9  1  0.685093  0.378184  0.693092  1
  Tb  Tb10  1  0.314927  0.008010  0.693083  1
  Tb  Tb11  1  0.685073  0.991990  0.306917  1
  Co  Co12  1  0.377699  0.000000  0.377699  1
  Co  Co13  1  0.622301  0.000000  0.622301  1
  Co  Co14  1  0.111241  0.611211  0.499970  1
  Co  Co15  1  0.888759  0.388789  0.500030  1
  Sn  Sn16  1  0.500000  0.500000  0.000000  1
  Os  Os17  1  0.000000  0.000000  0.000000  1
