# generated using pymatgen
data_Ca6MoWO12
_symmetry_space_group_name_H-M   'P 1'
_cell_length_a   6.59494648
_cell_length_b   6.59494568
_cell_length_c   6.59494700
_cell_angle_alpha   91.85617588
_cell_angle_beta   91.85617566
_cell_angle_gamma   91.85618526
_symmetry_Int_Tables_number   1
_chemical_formula_structural   Ca6MoWO12
_chemical_formula_sum   'Ca6 Mo1 W1 O12'
_cell_volume   286.37457408
_cell_formula_units_Z   1
loop_
 _symmetry_equiv_pos_site_id
 _symmetry_equiv_pos_as_xyz
  1  'x, y, z'
loop_
 _atom_site_type_symbol
 _atom_site_label
 _atom_site_symmetry_multiplicity
 _atom_site_fract_x
 _atom_site_fract_y
 _atom_site_fract_z
 _atom_site_occupancy
  Ca  Ca0  1  0.931776  0.435914  0.746234  1
  Ca  Ca1  1  0.746234  0.931776  0.435914  1
  Ca  Ca2  1  0.564086  0.253766  0.068224  1
  Ca  Ca3  1  0.435914  0.746234  0.931776  1
  Ca  Ca4  1  0.253766  0.068224  0.564086  1
  Ca  Ca5  1  0.068224  0.564086  0.253766  1
  Mo  Mo6  1  0.500000  0.500000  0.500000  1
  W  W7  1  0.000000  0.000000  0.000000  1
  O  O8  1  0.938568  0.283737  0.068177  1
  O  O9  1  0.931823  0.061432  0.716263  1
  O  O10  1  0.782718  0.578235  0.452556  1
  O  O11  1  0.716263  0.931823  0.061432  1
  O  O12  1  0.578235  0.452556  0.782718  1
  O  O13  1  0.547444  0.217282  0.421765  1
  O  O14  1  0.452556  0.782718  0.578235  1
  O  O15  1  0.421765  0.547444  0.217282  1
  O  O16  1  0.283737  0.068177  0.938568  1
  O  O17  1  0.217282  0.421765  0.547444  1
  O  O18  1  0.068177  0.938568  0.283737  1
  O  O19  1  0.061432  0.716263  0.931823  1
