# generated using pymatgen
data_CeWC2
_symmetry_space_group_name_H-M   'P 1'
_cell_length_a   3.41643100
_cell_length_b   5.80587900
_cell_length_c   10.95958800
_cell_angle_alpha   90.00000000
_cell_angle_beta   90.00000000
_cell_angle_gamma   90.00000000
_symmetry_Int_Tables_number   1
_chemical_formula_structural   CeWC2
_chemical_formula_sum   'Ce4 W4 C8'
_cell_volume   217.38764740
_cell_formula_units_Z   4
loop_
 _symmetry_equiv_pos_site_id
 _symmetry_equiv_pos_as_xyz
  1  'x, y, z'
loop_
 _atom_site_type_symbol
 _atom_site_label
 _atom_site_symmetry_multiplicity
 _atom_site_fract_x
 _atom_site_fract_y
 _atom_site_fract_z
 _atom_site_occupancy
  Ce  Ce0  1  0.250000  0.583582  0.361864  1
  Ce  Ce1  1  0.250000  0.083582  0.138136  1
  Ce  Ce2  1  0.750000  0.416418  0.638136  1
  Ce  Ce3  1  0.750000  0.916418  0.861864  1
  W  W4  1  0.250000  0.912945  0.608200  1
  W  W5  1  0.250000  0.412945  0.891800  1
  W  W6  1  0.750000  0.087055  0.391800  1
  W  W7  1  0.750000  0.587055  0.108200  1
  C  C8  1  0.250000  0.662827  0.747264  1
  C  C9  1  0.250000  0.162827  0.752736  1
  C  C10  1  0.750000  0.337173  0.252736  1
  C  C11  1  0.750000  0.837173  0.247264  1
  C  C12  1  0.250000  0.219239  0.482631  1
  C  C13  1  0.250000  0.719239  0.017369  1
  C  C14  1  0.750000  0.780761  0.517369  1
  C  C15  1  0.750000  0.280761  0.982631  1
