# generated using pymatgen
data_TmLu3Al24Pt7Au2
_symmetry_space_group_name_H-M   'P 1'
_cell_length_a   7.54406223
_cell_length_b   7.55835475
_cell_length_c   13.09931210
_cell_angle_alpha   84.53607473
_cell_angle_beta   78.99396648
_cell_angle_gamma   59.92804883
_symmetry_Int_Tables_number   1
_chemical_formula_structural   TmLu3Al24Pt7Au2
_chemical_formula_sum   'Tm1 Lu3 Al24 Pt7 Au2'
_cell_volume   634.50339166
_cell_formula_units_Z   1
loop_
 _symmetry_equiv_pos_site_id
 _symmetry_equiv_pos_as_xyz
  1  'x, y, z'
loop_
 _atom_site_type_symbol
 _atom_site_label
 _atom_site_symmetry_multiplicity
 _atom_site_fract_x
 _atom_site_fract_y
 _atom_site_fract_z
 _atom_site_occupancy
  Tm  Tm0  1  0.392898  0.169340  0.808912  1
  Lu  Lu1  1  0.607074  0.830624  0.191270  1
  Lu  Lu2  1  0.733565  0.499183  0.809482  1
  Lu  Lu3  1  0.266398  0.500871  0.190509  1
  Al  Al4  1  0.682678  0.833999  0.944272  1
  Al  Al5  1  0.317402  0.165834  0.056002  1
  Al  Al6  1  0.145756  0.839206  0.562671  1
  Al  Al7  1  0.854259  0.160783  0.437310  1
  Al  Al8  1  0.488194  0.159138  0.559558  1
  Al  Al9  1  0.511831  0.840842  0.440386  1
  Al  Al10  1  0.224260  0.160910  0.323353  1
  Al  Al11  1  0.775963  0.838952  0.676469  1
  Al  Al12  1  0.439471  0.506265  0.676626  1
  Al  Al13  1  0.560576  0.493910  0.323190  1
  Al  Al14  1  0.108179  0.155315  0.675086  1
  Al  Al15  1  0.891746  0.844640  0.324747  1
  Al  Al16  1  0.354272  0.498226  0.944135  1
  Al  Al17  1  0.645657  0.501931  0.056082  1
  Al  Al18  1  0.015819  0.168422  0.952045  1
  Al  Al19  1  0.983931  0.831597  0.048156  1
  Al  Al20  1  0.195643  0.499354  0.437419  1
  Al  Al21  1  0.804358  0.500677  0.562533  1
  Al  Al22  1  0.731782  0.164667  0.182697  1
  Al  Al23  1  0.267972  0.835243  0.817291  1
  Al  Al24  1  0.060160  0.633365  0.818039  1
  Al  Al25  1  0.939739  0.366960  0.181971  1
  Al  Al26  1  0.853473  0.043173  0.816583  1
  Al  Al27  1  0.146871  0.956558  0.183409  1
  Pt  Pt28  1  0.657083  0.171586  0.999606  1
  Pt  Pt29  1  0.343016  0.828398  0.000231  1
  Pt  Pt30  1  0.536800  0.167136  0.361278  1
  Pt  Pt31  1  0.463212  0.832689  0.638756  1
  Pt  Pt32  1  0.778693  0.175938  0.637176  1
  Pt  Pt33  1  0.221451  0.824116  0.362827  1
  Pt  Pt34  1  0.999975  0.500025  0.999928  1
  Au  Au35  1  0.119671  0.490235  0.638592  1
  Au  Au36  1  0.880172  0.509894  0.361403  1
