# generated using pymatgen
data_Re5TcPt8
_symmetry_space_group_name_H-M   'P 1'
_cell_length_a   7.45981543
_cell_length_b   7.45369217
_cell_length_c   4.44639800
_cell_angle_alpha   90.00000000
_cell_angle_beta   90.00000000
_cell_angle_gamma   60.04910224
_symmetry_Int_Tables_number   1
_chemical_formula_structural   Re5TcPt8
_chemical_formula_sum   'Re5 Tc1 Pt8'
_cell_volume   214.21662459
_cell_formula_units_Z   1
loop_
 _symmetry_equiv_pos_site_id
 _symmetry_equiv_pos_as_xyz
  1  'x, y, z'
loop_
 _atom_site_type_symbol
 _atom_site_label
 _atom_site_symmetry_multiplicity
 _atom_site_fract_x
 _atom_site_fract_y
 _atom_site_fract_z
 _atom_site_occupancy
  Re  Re0  1  0.703451  0.441796  0.000000  1
  Re  Re1  1  0.298173  0.569658  0.000000  1
  Re  Re2  1  0.425471  0.846810  0.000000  1
  Re  Re3  1  0.525877  0.391101  0.500000  1
  Re  Re4  1  0.654194  0.669315  0.500000  1
  Tc  Tc5  1  0.248948  0.796609  0.500000  1
  Pt  Pt6  1  0.570335  0.150972  0.000000  1
  Pt  Pt7  1  0.142636  0.285209  0.000000  1
  Pt  Pt8  1  0.850498  0.713549  0.000000  1
  Pt  Pt9  1  0.008964  0.991779  0.000000  1
  Pt  Pt10  1  0.381825  0.086326  0.500000  1
  Pt  Pt11  1  0.943986  0.245715  0.500000  1
  Pt  Pt12  1  0.103457  0.524655  0.500000  1
  Pt  Pt13  1  0.808747  0.953068  0.500000  1
