# generated using pymatgen
data_NaTbNiPt3
_symmetry_space_group_name_H-M   'P 1'
_cell_length_a   5.19642169
_cell_length_b   5.19642278
_cell_length_c   5.19642188
_cell_angle_alpha   62.85094640
_cell_angle_beta   62.85092595
_cell_angle_gamma   62.85093398
_symmetry_Int_Tables_number   1
_chemical_formula_structural   NaTbNiPt3
_chemical_formula_sum   'Na1 Tb1 Ni1 Pt3'
_cell_volume   105.50684538
_cell_formula_units_Z   1
loop_
 _symmetry_equiv_pos_site_id
 _symmetry_equiv_pos_as_xyz
  1  'x, y, z'
loop_
 _atom_site_type_symbol
 _atom_site_label
 _atom_site_symmetry_multiplicity
 _atom_site_fract_x
 _atom_site_fract_y
 _atom_site_fract_z
 _atom_site_occupancy
  Na  Na0  1  0.251513  0.251513  0.251513  1
  Tb  Tb1  1  0.000689  0.000689  0.000689  1
  Ni  Ni2  1  0.624454  0.624454  0.624454  1
  Pt  Pt3  1  0.623939  0.623939  0.125466  1
  Pt  Pt4  1  0.623939  0.125466  0.623939  1
  Pt  Pt5  1  0.125466  0.623939  0.623939  1
