# generated using pymatgen
data_Y3Er17(Hg3Os)2
_symmetry_space_group_name_H-M   'P 1'
_cell_length_a   9.51681300
_cell_length_b   9.51641219
_cell_length_c   9.65018600
_cell_angle_alpha   90.00000000
_cell_angle_beta   90.00000000
_cell_angle_gamma   119.99786506
_symmetry_Int_Tables_number   1
_chemical_formula_structural   Y3Er17(Hg3Os)2
_chemical_formula_sum   'Y3 Er17 Hg6 Os2'
_cell_volume   756.90336963
_cell_formula_units_Z   1
loop_
 _symmetry_equiv_pos_site_id
 _symmetry_equiv_pos_as_xyz
  1  'x, y, z'
loop_
 _atom_site_type_symbol
 _atom_site_label
 _atom_site_symmetry_multiplicity
 _atom_site_fract_x
 _atom_site_fract_y
 _atom_site_fract_z
 _atom_site_occupancy
  Y  Y0  1  0.460095  0.539946  0.750000  1
  Y  Y1  1  0.460086  0.920164  0.750000  1
  Y  Y2  1  0.079824  0.539920  0.750000  1
  Er  Er3  1  0.000002  0.000019  0.499850  1
  Er  Er4  1  0.000002  0.000019  0.000150  1
  Er  Er5  1  0.209173  0.790837  0.439795  1
  Er  Er6  1  0.209167  0.418312  0.439775  1
  Er  Er7  1  0.581679  0.790841  0.439773  1
  Er  Er8  1  0.790601  0.209391  0.559098  1
  Er  Er9  1  0.790597  0.581198  0.559097  1
  Er  Er10  1  0.418800  0.209405  0.559107  1
  Er  Er11  1  0.790601  0.209391  0.940902  1
  Er  Er12  1  0.790597  0.581198  0.940903  1
  Er  Er13  1  0.418800  0.209405  0.940893  1
  Er  Er14  1  0.209173  0.790837  0.060205  1
  Er  Er15  1  0.209167  0.418312  0.060225  1
  Er  Er16  1  0.581679  0.790841  0.060227  1
  Er  Er17  1  0.540375  0.459593  0.250000  1
  Er  Er18  1  0.540410  0.080825  0.250000  1
  Er  Er19  1  0.919200  0.459579  0.250000  1
  Hg  Hg20  1  0.881568  0.118433  0.250000  1
  Hg  Hg21  1  0.881568  0.763129  0.250000  1
  Hg  Hg22  1  0.236873  0.118432  0.250000  1
  Hg  Hg23  1  0.117493  0.882483  0.750000  1
  Hg  Hg24  1  0.117506  0.235010  0.750000  1
  Hg  Hg25  1  0.764980  0.882484  0.750000  1
  Os  Os26  1  0.333324  0.666650  0.250000  1
  Os  Os27  1  0.666658  0.333350  0.750000  1
