# generated using pymatgen
data_Tb16TlIn(AgRh2)2
_symmetry_space_group_name_H-M   'P 1'
_cell_length_a   9.65625464
_cell_length_b   9.64642146
_cell_length_c   9.64642168
_cell_angle_alpha   59.89761970
_cell_angle_beta   59.83070412
_cell_angle_gamma   59.83070318
_symmetry_Int_Tables_number   1
_chemical_formula_structural   Tb16TlIn(AgRh2)2
_chemical_formula_sum   'Tb16 Tl1 In1 Ag2 Rh4'
_cell_volume   633.24924872
_cell_formula_units_Z   1
loop_
 _symmetry_equiv_pos_site_id
 _symmetry_equiv_pos_as_xyz
  1  'x, y, z'
loop_
 _atom_site_type_symbol
 _atom_site_label
 _atom_site_symmetry_multiplicity
 _atom_site_fract_x
 _atom_site_fract_y
 _atom_site_fract_z
 _atom_site_occupancy
  Tb  Tb0  1  0.811122  0.810050  0.190636  1
  Tb  Tb1  1  0.811122  0.190636  0.810050  1
  Tb  Tb2  1  0.188254  0.189542  0.812723  1
  Tb  Tb3  1  0.649636  0.052170  0.647993  1
  Tb  Tb4  1  0.066687  0.059536  0.436662  1
  Tb  Tb5  1  0.438285  0.436361  0.057179  1
  Tb  Tb6  1  0.650750  0.649997  0.649997  1
  Tb  Tb7  1  0.809730  0.191210  0.191210  1
  Tb  Tb8  1  0.188767  0.812091  0.812091  1
  Tb  Tb9  1  0.053315  0.648129  0.648129  1
  Tb  Tb10  1  0.438465  0.061629  0.061629  1
  Tb  Tb11  1  0.438285  0.057179  0.436361  1
  Tb  Tb12  1  0.066687  0.436662  0.059536  1
  Tb  Tb13  1  0.649636  0.647993  0.052170  1
  Tb  Tb14  1  0.188254  0.812723  0.189542  1
  Tb  Tb15  1  0.062225  0.435698  0.435698  1
  Tl  Tl16  1  0.414844  0.419258  0.419258  1
  In  In17  1  0.742402  0.421546  0.421546  1
  Ag  Ag18  1  0.416551  0.417412  0.751288  1
  Ag  Ag19  1  0.416551  0.751288  0.417412  1
  Rh  Rh20  1  0.856073  0.428103  0.856894  1
  Rh  Rh21  1  0.857691  0.857677  0.857677  1
  Rh  Rh22  1  0.856073  0.856894  0.428103  1
  Rh  Rh23  1  0.428596  0.856217  0.856217  1
