# generated using pymatgen
data_PrYCu10
_symmetry_space_group_name_H-M   'P 1'
_cell_length_a   4.12674500
_cell_length_b   5.07185700
_cell_length_c   8.75506700
_cell_angle_alpha   90.00000000
_cell_angle_beta   90.00000000
_cell_angle_gamma   90.00000000
_symmetry_Int_Tables_number   1
_chemical_formula_structural   PrYCu10
_chemical_formula_sum   'Pr1 Y1 Cu10'
_cell_volume   183.24583314
_cell_formula_units_Z   1
loop_
 _symmetry_equiv_pos_site_id
 _symmetry_equiv_pos_as_xyz
  1  'x, y, z'
loop_
 _atom_site_type_symbol
 _atom_site_label
 _atom_site_symmetry_multiplicity
 _atom_site_fract_x
 _atom_site_fract_y
 _atom_site_fract_z
 _atom_site_occupancy
  Pr  Pr0  1  0.000000  0.500000  0.000000  1
  Y  Y1  1  0.000000  0.000000  0.500000  1
  Cu  Cu2  1  0.000000  0.500000  0.337032  1
  Cu  Cu3  1  0.000000  0.000000  0.828864  1
  Cu  Cu4  1  0.000000  0.000000  0.171136  1
  Cu  Cu5  1  0.000000  0.500000  0.662968  1
  Cu  Cu6  1  0.500000  0.500000  0.500000  1
  Cu  Cu7  1  0.500000  0.000000  0.000000  1
  Cu  Cu8  1  0.500000  0.752965  0.255445  1
  Cu  Cu9  1  0.500000  0.247035  0.744555  1
  Cu  Cu10  1  0.500000  0.247035  0.255445  1
  Cu  Cu11  1  0.500000  0.752965  0.744555  1
