# generated using pymatgen
data_Zr3Sc2TiP3
_symmetry_space_group_name_H-M   'P 1'
_cell_length_a   7.06063570
_cell_length_b   7.03556938
_cell_length_c   3.70244000
_cell_angle_alpha   90.00000000
_cell_angle_beta   90.00000000
_cell_angle_gamma   119.88264845
_symmetry_Int_Tables_number   1
_chemical_formula_structural   Zr3Sc2TiP3
_chemical_formula_sum   'Zr3 Sc2 Ti1 P3'
_cell_volume   159.46818815
_cell_formula_units_Z   1
loop_
 _symmetry_equiv_pos_site_id
 _symmetry_equiv_pos_as_xyz
  1  'x, y, z'
loop_
 _atom_site_type_symbol
 _atom_site_label
 _atom_site_symmetry_multiplicity
 _atom_site_fract_x
 _atom_site_fract_y
 _atom_site_fract_z
 _atom_site_occupancy
  Zr  Zr0  1  0.401466  0.408583  0.500000  1
  Zr  Zr1  1  0.598534  0.007117  0.500000  1
  Zr  Zr2  1  0.000000  0.582897  0.500000  1
  Sc  Sc3  1  0.747471  0.747924  0.000000  1
  Sc  Sc4  1  0.252529  0.000453  0.000000  1
  Ti  Ti5  1  0.000000  0.249243  0.000000  1
  P  P6  1  0.671189  0.331255  0.000000  1
  P  P7  1  0.328811  0.660067  0.000000  1
  P  P8  1  0.000000  0.012461  0.500000  1
