# generated using pymatgen
data_SmLuCo12SiP6
_symmetry_space_group_name_H-M   'P 1'
_cell_length_a   9.03265200
_cell_length_b   9.03265242
_cell_length_c   3.58826000
_cell_angle_alpha   90.00000000
_cell_angle_beta   90.00000000
_cell_angle_gamma   120.00000580
_symmetry_Int_Tables_number   1
_chemical_formula_structural   SmLuCo12SiP6
_chemical_formula_sum   'Sm1 Lu1 Co12 Si1 P6'
_cell_volume   253.53918346
_cell_formula_units_Z   1
loop_
 _symmetry_equiv_pos_site_id
 _symmetry_equiv_pos_as_xyz
  1  'x, y, z'
loop_
 _atom_site_type_symbol
 _atom_site_label
 _atom_site_symmetry_multiplicity
 _atom_site_fract_x
 _atom_site_fract_y
 _atom_site_fract_z
 _atom_site_occupancy
  Sm  Sm0  1  0.000000  0.000000  0.000000  1
  Lu  Lu1  1  0.333333  0.666667  0.500000  1
  Co  Co2  1  0.100148  0.396762  0.000000  1
  Co  Co3  1  0.603238  0.703384  0.000000  1
  Co  Co4  1  0.296616  0.899852  0.000000  1
  Co  Co5  1  0.055730  0.767428  0.500000  1
  Co  Co6  1  0.232572  0.288302  0.500000  1
  Co  Co7  1  0.711698  0.944270  0.500000  1
  Co  Co8  1  0.826349  0.613866  0.000000  1
  Co  Co9  1  0.386134  0.212484  0.000000  1
  Co  Co10  1  0.787516  0.173651  0.000000  1
  Co  Co11  1  0.894878  0.433821  0.500000  1
  Co  Co12  1  0.566179  0.461057  0.500000  1
  Co  Co13  1  0.538943  0.105122  0.500000  1
  Si  Si14  1  0.666667  0.333333  0.000000  1
  P  P15  1  0.776044  0.731733  0.500000  1
  P  P16  1  0.268267  0.044310  0.500000  1
  P  P17  1  0.955690  0.223956  0.500000  1
  P  P18  1  0.076653  0.629112  0.000000  1
  P  P19  1  0.370888  0.447541  0.000000  1
  P  P20  1  0.552459  0.923347  0.000000  1
