# generated using pymatgen
data_NaSrCu18Si7Ge
_symmetry_space_group_name_H-M   'P 1'
_cell_length_a   8.19645834
_cell_length_b   8.19673272
_cell_length_c   8.21248390
_cell_angle_alpha   120.66136620
_cell_angle_beta   120.67191977
_cell_angle_gamma   88.89160811
_symmetry_Int_Tables_number   1
_chemical_formula_structural   NaSrCu18Si7Ge
_chemical_formula_sum   'Na1 Sr1 Cu18 Si7 Ge1'
_cell_volume   385.98932751
_cell_formula_units_Z   1
loop_
 _symmetry_equiv_pos_site_id
 _symmetry_equiv_pos_as_xyz
  1  'x, y, z'
loop_
 _atom_site_type_symbol
 _atom_site_label
 _atom_site_symmetry_multiplicity
 _atom_site_fract_x
 _atom_site_fract_y
 _atom_site_fract_z
 _atom_site_occupancy
  Na  Na0  1  0.250374  0.249948  0.999943  1
  Sr  Sr1  1  0.750049  0.749885  0.999773  1
  Cu  Cu2  1  0.934194  0.201042  0.139799  1
  Cu  Cu3  1  0.204119  0.065096  0.269147  1
  Cu  Cu4  1  0.795487  0.931618  0.729870  1
  Cu  Cu5  1  0.431004  0.294852  0.730054  1
  Cu  Cu6  1  0.067193  0.797910  0.862864  1
  Cu  Cu7  1  0.806709  0.055834  0.495368  1
  Cu  Cu8  1  0.554107  0.305365  0.492263  1
  Cu  Cu9  1  0.193429  0.943007  0.502879  1
  Cu  Cu10  1  0.441488  0.692002  0.499852  1
  Cu  Cu11  1  0.941765  0.440703  0.738767  1
  Cu  Cu12  1  0.692092  0.193532  0.252066  1
  Cu  Cu13  1  0.066245  0.565248  0.265621  1
  Cu  Cu14  1  0.700083  0.433422  0.139591  1
  Cu  Cu15  1  0.564409  0.703502  0.269148  1
  Cu  Cu16  1  0.498132  0.998233  0.498640  1
  Cu  Cu17  1  0.000511  0.500528  0.499322  1
  Cu  Cu18  1  0.306435  0.807926  0.748357  1
  Cu  Cu19  1  0.297132  0.566481  0.862840  1
  Si  Si20  1  0.557297  0.059129  0.851589  1
  Si  Si21  1  0.060308  0.208342  0.500746  1
  Si  Si22  1  0.291916  0.439389  0.499582  1
  Si  Si23  1  0.941004  0.793544  0.502761  1
  Si  Si24  1  0.439693  0.941331  0.148384  1
  Si  Si25  1  0.206467  0.704681  0.146486  1
  Si  Si26  1  0.706702  0.558708  0.497567  1
  Ge  Ge27  1  0.801653  0.298739  0.856722  1
