# generated using pymatgen
data_Tb2Co2Cl
_symmetry_space_group_name_H-M   'P 1'
_cell_length_a   3.88851400
_cell_length_b   3.88851495
_cell_length_c   16.02187000
_cell_angle_alpha   90.00000000
_cell_angle_beta   90.00000000
_cell_angle_gamma   119.99999195
_symmetry_Int_Tables_number   1
_chemical_formula_structural   Tb2Co2Cl
_chemical_formula_sum   'Tb4 Co4 Cl2'
_cell_volume   209.80281455
_cell_formula_units_Z   2
loop_
 _symmetry_equiv_pos_site_id
 _symmetry_equiv_pos_as_xyz
  1  'x, y, z'
loop_
 _atom_site_type_symbol
 _atom_site_label
 _atom_site_symmetry_multiplicity
 _atom_site_fract_x
 _atom_site_fract_y
 _atom_site_fract_z
 _atom_site_occupancy
  Tb  Tb0  1  0.000000  0.000000  0.111226  1
  Tb  Tb1  1  0.000000  0.000000  0.388774  1
  Tb  Tb2  1  0.000000  0.000000  0.888774  1
  Tb  Tb3  1  0.000000  0.000000  0.611226  1
  Co  Co4  1  0.333333  0.666667  0.001909  1
  Co  Co5  1  0.666667  0.333333  0.998091  1
  Co  Co6  1  0.333333  0.666667  0.498091  1
  Co  Co7  1  0.666667  0.333333  0.501909  1
  Cl  Cl8  1  0.333333  0.666667  0.750000  1
  Cl  Cl9  1  0.666667  0.333333  0.250000  1
