# generated using pymatgen
data_Zr8MnTc4Ir3
_symmetry_space_group_name_H-M   'P 1'
_cell_length_a   6.54920301
_cell_length_b   4.65898300
_cell_length_c   9.29791601
_cell_angle_alpha   90.00000000
_cell_angle_beta   89.99428255
_cell_angle_gamma   90.00000000
_symmetry_Int_Tables_number   1
_chemical_formula_structural   Zr8MnTc4Ir3
_chemical_formula_sum   'Zr8 Mn1 Tc4 Ir3'
_cell_volume   283.70382758
_cell_formula_units_Z   1
loop_
 _symmetry_equiv_pos_site_id
 _symmetry_equiv_pos_as_xyz
  1  'x, y, z'
loop_
 _atom_site_type_symbol
 _atom_site_label
 _atom_site_symmetry_multiplicity
 _atom_site_fract_x
 _atom_site_fract_y
 _atom_site_fract_z
 _atom_site_occupancy
  Zr  Zr0  1  0.493735  0.749999  0.125006  1
  Zr  Zr1  1  0.006252  0.749999  0.125003  1
  Zr  Zr2  1  0.497169  0.250000  0.369813  1
  Zr  Zr3  1  0.002815  0.250000  0.369812  1
  Zr  Zr4  1  0.999785  0.749999  0.625021  1
  Zr  Zr5  1  0.500195  0.749999  0.625027  1
  Zr  Zr6  1  0.002818  0.250000  0.880194  1
  Zr  Zr7  1  0.497153  0.250000  0.880195  1
  Mn  Mn8  1  0.250152  0.250000  0.124914  1
  Tc  Tc9  1  0.749993  0.250000  0.124995  1
  Tc  Tc10  1  0.249988  0.749999  0.376046  1
  Tc  Tc11  1  0.749990  0.250000  0.625001  1
  Tc  Tc12  1  0.249990  0.749999  0.873976  1
  Ir  Ir13  1  0.749988  0.749999  0.375252  1
  Ir  Ir14  1  0.249988  0.250000  0.624994  1
  Ir  Ir15  1  0.749991  0.749999  0.874753  1
