# generated using pymatgen
data_PrNdY(Si3Pd10)2
_symmetry_space_group_name_H-M   'P 1'
_cell_length_a   8.77062830
_cell_length_b   8.77062841
_cell_length_c   8.77062800
_cell_angle_alpha   60.00000155
_cell_angle_beta   60.00000113
_cell_angle_gamma   59.99999681
_symmetry_Int_Tables_number   1
_chemical_formula_structural   PrNdY(Si3Pd10)2
_chemical_formula_sum   'Pr1 Nd1 Y1 Si6 Pd20'
_cell_volume   477.06450928
_cell_formula_units_Z   1
loop_
 _symmetry_equiv_pos_site_id
 _symmetry_equiv_pos_as_xyz
  1  'x, y, z'
loop_
 _atom_site_type_symbol
 _atom_site_label
 _atom_site_symmetry_multiplicity
 _atom_site_fract_x
 _atom_site_fract_y
 _atom_site_fract_z
 _atom_site_occupancy
  Pr  Pr0  1  0.250000  0.250000  0.250000  1
  Nd  Nd1  1  0.750000  0.750000  0.750000  1
  Y  Y2  1  0.000000  0.000000  0.000000  1
  Si  Si3  1  0.733451  0.266549  0.266549  1
  Si  Si4  1  0.266549  0.733451  0.733451  1
  Si  Si5  1  0.266549  0.733451  0.266549  1
  Si  Si6  1  0.733451  0.266549  0.733451  1
  Si  Si7  1  0.266549  0.266549  0.733451  1
  Si  Si8  1  0.733451  0.733451  0.266549  1
  Pd  Pd9  1  0.345519  0.000006  0.000006  1
  Pd  Pd10  1  0.654468  0.000006  0.000006  1
  Pd  Pd11  1  0.000006  0.345519  0.654468  1
  Pd  Pd12  1  0.000006  0.654468  0.345519  1
  Pd  Pd13  1  0.000006  0.345519  0.000006  1
  Pd  Pd14  1  0.654468  0.000006  0.345519  1
  Pd  Pd15  1  0.000006  0.654468  0.000006  1
  Pd  Pd16  1  0.345519  0.000006  0.654468  1
  Pd  Pd17  1  0.000006  0.000006  0.345519  1
  Pd  Pd18  1  0.000006  0.000006  0.654468  1
  Pd  Pd19  1  0.654468  0.345519  0.000006  1
  Pd  Pd20  1  0.345519  0.654468  0.000006  1
  Pd  Pd21  1  0.385313  0.385313  0.385313  1
  Pd  Pd22  1  0.614586  0.614586  0.614586  1
  Pd  Pd23  1  0.385313  0.385313  0.844059  1
  Pd  Pd24  1  0.385313  0.844059  0.385313  1
  Pd  Pd25  1  0.614586  0.614586  0.156242  1
  Pd  Pd26  1  0.614586  0.156242  0.614586  1
  Pd  Pd27  1  0.844059  0.385313  0.385313  1
  Pd  Pd28  1  0.156242  0.614586  0.614586  1
