# generated using pymatgen
data_Li4Nd(ThSi2)2
_symmetry_space_group_name_H-M   'P 1'
_cell_length_a   4.39647325
_cell_length_b   6.79425331
_cell_length_c   8.29027178
_cell_angle_alpha   114.19055173
_cell_angle_beta   105.37637155
_cell_angle_gamma   90.00000938
_symmetry_Int_Tables_number   1
_chemical_formula_structural   Li4Nd(ThSi2)2
_chemical_formula_sum   'Li4 Nd1 Th2 Si4'
_cell_volume   216.13692126
_cell_formula_units_Z   1
loop_
 _symmetry_equiv_pos_site_id
 _symmetry_equiv_pos_as_xyz
  1  'x, y, z'
loop_
 _atom_site_type_symbol
 _atom_site_label
 _atom_site_symmetry_multiplicity
 _atom_site_fract_x
 _atom_site_fract_y
 _atom_site_fract_z
 _atom_site_occupancy
  Li  Li0  1  0.671005  0.985927  0.342009  1
  Li  Li1  1  0.330038  0.019576  0.660079  1
  Li  Li2  1  0.330038  0.640503  0.660079  1
  Li  Li3  1  0.671005  0.356082  0.342009  1
  Nd  Nd4  1  0.870090  0.370090  0.740180  1
  Th  Th5  1  0.999535  0.999535  0.999070  1
  Th  Th6  1  0.129132  0.629132  0.258263  1
  Si  Si7  1  0.501881  0.683813  0.003761  1
  Si  Si8  1  0.501881  0.319948  0.003761  1
  Si  Si9  1  0.784207  0.784207  0.568413  1
  Si  Si10  1  0.211187  0.211187  0.422376  1
