# generated using pymatgen
data_Nb12Ga8Cu3PtN4
_symmetry_space_group_name_H-M   'P 1'
_cell_length_a   8.29015816
_cell_length_b   8.29015903
_cell_length_c   8.29016041
_cell_angle_alpha   59.82976360
_cell_angle_beta   59.82974721
_cell_angle_gamma   59.82976469
_symmetry_Int_Tables_number   1
_chemical_formula_structural   Nb12Ga8Cu3PtN4
_chemical_formula_sum   'Nb12 Ga8 Cu3 Pt1 N4'
_cell_volume   401.32137113
_cell_formula_units_Z   1
loop_
 _symmetry_equiv_pos_site_id
 _symmetry_equiv_pos_as_xyz
  1  'x, y, z'
loop_
 _atom_site_type_symbol
 _atom_site_label
 _atom_site_symmetry_multiplicity
 _atom_site_fract_x
 _atom_site_fract_y
 _atom_site_fract_z
 _atom_site_occupancy
  Nb  Nb0  1  0.434455  0.434455  0.069321  1
  Nb  Nb1  1  0.060721  0.438990  0.060721  1
  Nb  Nb2  1  0.438990  0.060721  0.060721  1
  Nb  Nb3  1  0.060721  0.060721  0.438990  1
  Nb  Nb4  1  0.434455  0.069321  0.434455  1
  Nb  Nb5  1  0.069321  0.434455  0.434455  1
  Nb  Nb6  1  0.815545  0.815545  0.180679  1
  Nb  Nb7  1  0.189279  0.811010  0.189279  1
  Nb  Nb8  1  0.811010  0.189279  0.189279  1
  Nb  Nb9  1  0.189279  0.189279  0.811010  1
  Nb  Nb10  1  0.815545  0.180679  0.815545  1
  Nb  Nb11  1  0.180679  0.815545  0.815545  1
  Ga  Ga12  1  0.838809  0.838809  0.490994  1
  Ga  Ga13  1  0.838809  0.490994  0.838809  1
  Ga  Ga14  1  0.490994  0.838809  0.838809  1
  Ga  Ga15  1  0.834431  0.834431  0.834431  1
  Ga  Ga16  1  0.411191  0.411191  0.759006  1
  Ga  Ga17  1  0.411191  0.759006  0.411191  1
  Ga  Ga18  1  0.759006  0.411191  0.411191  1
  Ga  Ga19  1  0.415569  0.415569  0.415569  1
  Cu  Cu20  1  0.625000  0.625000  0.125000  1
  Cu  Cu21  1  0.625000  0.125000  0.625000  1
  Cu  Cu22  1  0.125000  0.625000  0.625000  1
  Pt  Pt23  1  0.625000  0.625000  0.625000  1
  N  N24  1  0.125000  0.125000  0.625000  1
  N  N25  1  0.125000  0.625000  0.125000  1
  N  N26  1  0.625000  0.125000  0.125000  1
  N  N27  1  0.125000  0.125000  0.125000  1
