# generated using pymatgen
data_Np6(PaSe4)5
_symmetry_space_group_name_H-M   'P 1'
_cell_length_a   10.80014224
_cell_length_b   10.79903578
_cell_length_c   6.70456562
_cell_angle_alpha   89.92459906
_cell_angle_beta   90.15790596
_cell_angle_gamma   89.90919340
_symmetry_Int_Tables_number   1
_chemical_formula_structural   Np6(PaSe4)5
_chemical_formula_sum   'Np6 Pa5 Se20'
_cell_volume   781.95638062
_cell_formula_units_Z   1
loop_
 _symmetry_equiv_pos_site_id
 _symmetry_equiv_pos_as_xyz
  1  'x, y, z'
loop_
 _atom_site_type_symbol
 _atom_site_label
 _atom_site_symmetry_multiplicity
 _atom_site_fract_x
 _atom_site_fract_y
 _atom_site_fract_z
 _atom_site_occupancy
  Np  Np0  1  0.838159  0.646583  0.251590  1
  Np  Np1  1  0.843684  0.350598  0.749564  1
  Np  Np2  1  0.153297  0.650257  0.752283  1
  Np  Np3  1  0.158035  0.351503  0.250259  1
  Np  Np4  1  0.653358  0.841871  0.751912  1
  Np  Np5  1  0.649908  0.163972  0.250667  1
  Pa  Pa6  1  0.352393  0.837275  0.251805  1
  Pa  Pa7  1  0.349532  0.156920  0.751902  1
  Pa  Pa8  1  0.500571  0.502055  0.639940  1
  Pa  Pa9  1  0.999157  0.999583  0.856641  1
  Pa  Pa10  1  0.999521  0.000583  0.356799  1
  Se  Se11  1  0.294937  0.592614  0.388297  1
  Se  Se12  1  0.292306  0.408801  0.871258  1
  Se  Se13  1  0.706699  0.586207  0.872785  1
  Se  Se14  1  0.704770  0.413556  0.388887  1
  Se  Se15  1  0.583913  0.286931  0.867893  1
  Se  Se16  1  0.584525  0.710938  0.386703  1
  Se  Se17  1  0.409213  0.291139  0.396640  1
  Se  Se18  1  0.410143  0.708172  0.885791  1
  Se  Se19  1  0.209748  0.914602  0.612064  1
  Se  Se20  1  0.209884  0.086572  0.113394  1
  Se  Se21  1  0.793394  0.911623  0.118414  1
  Se  Se22  1  0.793394  0.087121  0.616614  1
  Se  Se23  1  0.914211  0.207551  0.117570  1
  Se  Se24  1  0.915202  0.793089  0.616559  1
  Se  Se25  1  0.090541  0.205658  0.616657  1
  Se  Se26  1  0.092733  0.794253  0.118890  1
  Se  Se27  1  0.001167  0.499268  0.501598  1
  Se  Se28  1  0.999663  0.500786  0.004418  1
  Se  Se29  1  0.498104  0.999583  0.004568  1
  Se  Se30  1  0.497837  0.000333  0.501640  1
