# generated using pymatgen
data_Y4Al4Ga14Ir5Pt
_symmetry_space_group_name_H-M   'P 1'
_cell_length_a   7.59551705
_cell_length_b   7.59551917
_cell_length_c   9.50305833
_cell_angle_alpha   90.01499703
_cell_angle_beta   90.01499801
_cell_angle_gamma   119.82875876
_symmetry_Int_Tables_number   1
_chemical_formula_structural   Y4Al4Ga14Ir5Pt
_chemical_formula_sum   'Y4 Al4 Ga14 Ir5 Pt1'
_cell_volume   475.61504511
_cell_formula_units_Z   1
loop_
 _symmetry_equiv_pos_site_id
 _symmetry_equiv_pos_as_xyz
  1  'x, y, z'
loop_
 _atom_site_type_symbol
 _atom_site_label
 _atom_site_symmetry_multiplicity
 _atom_site_fract_x
 _atom_site_fract_y
 _atom_site_fract_z
 _atom_site_occupancy
  Y  Y0  1  0.000758  0.670403  0.250939  1
  Y  Y1  1  0.999242  0.329597  0.749061  1
  Y  Y2  1  0.670403  0.000758  0.250939  1
  Y  Y3  1  0.329597  0.999242  0.749061  1
  Al  Al4  1  0.331899  0.331899  0.553698  1
  Al  Al5  1  0.668101  0.668101  0.446302  1
  Al  Al6  1  0.664927  0.664927  0.055311  1
  Al  Al7  1  0.335073  0.335073  0.944689  1
  Ga  Ga8  1  0.128147  0.128147  0.251927  1
  Ga  Ga9  1  0.871853  0.871853  0.748073  1
  Ga  Ga10  1  0.000080  0.338251  0.081725  1
  Ga  Ga11  1  0.999920  0.661749  0.918275  1
  Ga  Ga12  1  0.999928  0.664914  0.579341  1
  Ga  Ga13  1  0.335086  0.000072  0.420659  1
  Ga  Ga14  1  0.000072  0.335086  0.420659  1
  Ga  Ga15  1  0.664914  0.999928  0.579341  1
  Ga  Ga16  1  0.661749  0.999920  0.918275  1
  Ga  Ga17  1  0.338251  0.000080  0.081725  1
  Ga  Ga18  1  0.348070  0.551278  0.250398  1
  Ga  Ga19  1  0.651930  0.448722  0.749602  1
  Ga  Ga20  1  0.551278  0.348070  0.250398  1
  Ga  Ga21  1  0.448722  0.651930  0.749602  1
  Ir  Ir22  1  0.669240  0.330760  0.000000  1
  Ir  Ir23  1  0.330760  0.669240  0.000000  1
  Ir  Ir24  1  0.330495  0.669505  0.500000  1
  Ir  Ir25  1  0.669505  0.330495  0.500000  1
  Ir  Ir26  1  0.000000  0.000000  0.500000  1
  Pt  Pt27  1  0.000000  0.000000  0.000000  1
