# generated using pymatgen
data_Er3Lu(Pd2Pb)2
_symmetry_space_group_name_H-M   'P 1'
_cell_length_a   7.84107544
_cell_length_b   7.84107544
_cell_length_c   3.61967600
_cell_angle_alpha   90.00000000
_cell_angle_beta   90.00000000
_cell_angle_gamma   90.53180042
_symmetry_Int_Tables_number   1
_chemical_formula_structural   Er3Lu(Pd2Pb)2
_chemical_formula_sum   'Er3 Lu1 Pd4 Pb2'
_cell_volume   222.53701338
_cell_formula_units_Z   1
loop_
 _symmetry_equiv_pos_site_id
 _symmetry_equiv_pos_as_xyz
  1  'x, y, z'
loop_
 _atom_site_type_symbol
 _atom_site_label
 _atom_site_symmetry_multiplicity
 _atom_site_fract_x
 _atom_site_fract_y
 _atom_site_fract_z
 _atom_site_occupancy
  Er  Er0  1  0.170004  0.329533  0.500000  1
  Er  Er1  1  0.829533  0.670004  0.500000  1
  Er  Er2  1  0.329825  0.829825  0.500000  1
  Lu  Lu3  1  0.669886  0.169886  0.500000  1
  Pd  Pd4  1  0.376218  0.127404  0.000000  1
  Pd  Pd5  1  0.125117  0.625117  0.000000  1
  Pd  Pd6  1  0.627404  0.876218  0.000000  1
  Pd  Pd7  1  0.871237  0.371237  0.000000  1
  Pb  Pb8  1  0.999951  0.000824  0.000000  1
  Pb  Pb9  1  0.500824  0.499951  0.000000  1
