# generated using pymatgen
data_RbPa(PO4)2
_symmetry_space_group_name_H-M   'P 1'
_cell_length_a   5.37618156
_cell_length_b   5.37618165
_cell_length_c   8.81875069
_cell_angle_alpha   87.74738171
_cell_angle_beta   87.74738068
_cell_angle_gamma   62.44175583
_symmetry_Int_Tables_number   1
_chemical_formula_structural   RbPa(PO4)2
_chemical_formula_sum   'Rb1 Pa1 P2 O8'
_cell_volume   225.73273081
_cell_formula_units_Z   1
loop_
 _symmetry_equiv_pos_site_id
 _symmetry_equiv_pos_as_xyz
  1  'x, y, z'
loop_
 _atom_site_type_symbol
 _atom_site_label
 _atom_site_symmetry_multiplicity
 _atom_site_fract_x
 _atom_site_fract_y
 _atom_site_fract_z
 _atom_site_occupancy
  Rb  Rb0  1  0.000000  0.000000  0.000000  1
  Pa  Pa1  1  0.000000  0.000000  0.500000  1
  P  P2  1  0.644267  0.644267  0.711623  1
  P  P3  1  0.355733  0.355733  0.288377  1
  O  O4  1  0.316142  0.316142  0.126313  1
  O  O5  1  0.325913  0.777845  0.667243  1
  O  O6  1  0.674087  0.222155  0.332757  1
  O  O7  1  0.777845  0.325913  0.667243  1
  O  O8  1  0.222155  0.674087  0.332757  1
  O  O9  1  0.683858  0.683858  0.873687  1
  O  O10  1  0.219691  0.219691  0.405385  1
  O  O11  1  0.780309  0.780309  0.594615  1
