# generated using pymatgen
data_Pa4Al18Rh5W
_symmetry_space_group_name_H-M   'P 1'
_cell_length_a   7.61573058
_cell_length_b   7.61573091
_cell_length_c   9.35958168
_cell_angle_alpha   89.38861409
_cell_angle_beta   89.38861502
_cell_angle_gamma   118.16802663
_symmetry_Int_Tables_number   1
_chemical_formula_structural   Pa4Al18Rh5W
_chemical_formula_sum   'Pa4 Al18 Rh5 W1'
_cell_volume   478.45516961
_cell_formula_units_Z   1
loop_
 _symmetry_equiv_pos_site_id
 _symmetry_equiv_pos_as_xyz
  1  'x, y, z'
loop_
 _atom_site_type_symbol
 _atom_site_label
 _atom_site_symmetry_multiplicity
 _atom_site_fract_x
 _atom_site_fract_y
 _atom_site_fract_z
 _atom_site_occupancy
  Pa  Pa0  1  0.994280  0.692537  0.743912  1
  Pa  Pa1  1  0.005720  0.307463  0.256088  1
  Pa  Pa2  1  0.692537  0.994280  0.743912  1
  Pa  Pa3  1  0.307463  0.005720  0.256088  1
  Al  Al4  1  0.146644  0.146644  0.753104  1
  Al  Al5  1  0.853356  0.853356  0.246896  1
  Al  Al6  1  0.009225  0.348631  0.582588  1
  Al  Al7  1  0.990775  0.651369  0.417412  1
  Al  Al8  1  0.997783  0.655940  0.078485  1
  Al  Al9  1  0.344060  0.002217  0.921515  1
  Al  Al10  1  0.002217  0.344060  0.921515  1
  Al  Al11  1  0.655940  0.997783  0.078485  1
  Al  Al12  1  0.651369  0.990775  0.417412  1
  Al  Al13  1  0.348631  0.009225  0.582588  1
  Al  Al14  1  0.334561  0.334561  0.046850  1
  Al  Al15  1  0.665439  0.665439  0.953150  1
  Al  Al16  1  0.660215  0.660215  0.545044  1
  Al  Al17  1  0.339785  0.339785  0.454956  1
  Al  Al18  1  0.346658  0.560593  0.751410  1
  Al  Al19  1  0.653342  0.439407  0.248590  1
  Al  Al20  1  0.560593  0.346658  0.751410  1
  Al  Al21  1  0.439407  0.653342  0.248590  1
  Rh  Rh22  1  0.674477  0.325523  0.500000  1
  Rh  Rh23  1  0.325523  0.674477  0.500000  1
  Rh  Rh24  1  0.327351  0.672649  0.000000  1
  Rh  Rh25  1  0.672649  0.327351  0.000000  1
  Rh  Rh26  1  0.000000  0.000000  0.000000  1
  W  W27  1  0.000000  0.000000  0.500000  1
