# generated using pymatgen
data_Sc8Mn(B8Ir)3
_symmetry_space_group_name_H-M   'P 1'
_cell_length_a   3.45408800
_cell_length_b   8.88065772
_cell_length_c   11.19667686
_cell_angle_alpha   89.99432323
_cell_angle_beta   90.00000000
_cell_angle_gamma   90.00000000
_symmetry_Int_Tables_number   1
_chemical_formula_structural   Sc8Mn(B8Ir)3
_chemical_formula_sum   'Sc8 Mn1 B24 Ir3'
_cell_volume   343.45328317
_cell_formula_units_Z   1
loop_
 _symmetry_equiv_pos_site_id
 _symmetry_equiv_pos_as_xyz
  1  'x, y, z'
loop_
 _atom_site_type_symbol
 _atom_site_label
 _atom_site_symmetry_multiplicity
 _atom_site_fract_x
 _atom_site_fract_y
 _atom_site_fract_z
 _atom_site_occupancy
  Sc  Sc0  1  0.500000  0.311941  0.407572  1
  Sc  Sc1  1  0.500000  0.683143  0.585591  1
  Sc  Sc2  1  0.500000  0.180776  0.921129  1
  Sc  Sc3  1  0.500000  0.824503  0.087954  1
  Sc  Sc4  1  0.500000  0.438603  0.125768  1
  Sc  Sc5  1  0.500000  0.555556  0.876014  1
  Sc  Sc6  1  0.500000  0.055974  0.624570  1
  Sc  Sc7  1  0.500000  0.948493  0.370976  1
  Mn  Mn8  1  0.500000  0.139356  0.180333  1
  B  B9  1  0.000000  0.102899  0.471059  1
  B  B10  1  0.000000  0.897981  0.527342  1
  B  B11  1  0.000000  0.396057  0.972638  1
  B  B12  1  0.000000  0.602507  0.028442  1
  B  B13  1  0.000000  0.130473  0.315082  1
  B  B14  1  0.000000  0.869028  0.680565  1
  B  B15  1  0.000000  0.368903  0.819757  1
  B  B16  1  0.000000  0.630569  0.181468  1
  B  B17  1  0.000000  0.054859  0.066856  1
  B  B18  1  0.000000  0.947315  0.937291  1
  B  B19  1  0.000000  0.446349  0.563573  1
  B  B20  1  0.000000  0.553304  0.435465  1
  B  B21  1  0.000000  0.478077  0.286683  1
  B  B22  1  0.000000  0.520670  0.713786  1
  B  B23  1  0.000000  0.021136  0.787372  1
  B  B24  1  0.000000  0.982979  0.211895  1
  B  B25  1  0.000000  0.249939  0.081150  1
  B  B26  1  0.000000  0.747656  0.923471  1
  B  B27  1  0.000000  0.247214  0.576835  1
  B  B28  1  0.000000  0.754063  0.421110  1
  B  B29  1  0.000000  0.292574  0.234756  1
  B  B30  1  0.000000  0.704813  0.763084  1
  B  B31  1  0.000000  0.204973  0.737056  1
  B  B32  1  0.000000  0.796380  0.263012  1
  Ir  Ir33  1  0.500000  0.860901  0.820555  1
  Ir  Ir34  1  0.500000  0.360535  0.679416  1
  Ir  Ir35  1  0.500000  0.639502  0.320371  1
