# generated using pymatgen
data_RbTb(NbBr3)6
_symmetry_space_group_name_H-M   'P 1'
_cell_length_a   10.80686291
_cell_length_b   10.80686280
_cell_length_c   10.80686404
_cell_angle_alpha   55.49558922
_cell_angle_beta   55.49558590
_cell_angle_gamma   55.49559201
_symmetry_Int_Tables_number   1
_chemical_formula_structural   RbTb(NbBr3)6
_chemical_formula_sum   'Rb1 Tb1 Nb6 Br18'
_cell_volume   799.11208276
_cell_formula_units_Z   1
loop_
 _symmetry_equiv_pos_site_id
 _symmetry_equiv_pos_as_xyz
  1  'x, y, z'
loop_
 _atom_site_type_symbol
 _atom_site_label
 _atom_site_symmetry_multiplicity
 _atom_site_fract_x
 _atom_site_fract_y
 _atom_site_fract_z
 _atom_site_occupancy
  Rb  Rb0  1  0.220803  0.220803  0.220803  1
  Tb  Tb1  1  0.498528  0.498528  0.498528  1
  Nb  Nb2  1  0.809306  0.142451  0.916075  1
  Nb  Nb3  1  0.916075  0.809306  0.142451  1
  Nb  Nb4  1  0.142451  0.916075  0.809306  1
  Nb  Nb5  1  0.191717  0.857979  0.083286  1
  Nb  Nb6  1  0.083286  0.191717  0.857979  1
  Nb  Nb7  1  0.857979  0.083286  0.191717  1
  Br  Br8  1  0.865375  0.410424  0.726509  1
  Br  Br9  1  0.726509  0.865375  0.410424  1
  Br  Br10  1  0.410424  0.726509  0.865375  1
  Br  Br11  1  0.134044  0.589758  0.275907  1
  Br  Br12  1  0.275907  0.134044  0.589758  1
  Br  Br13  1  0.589758  0.275907  0.134044  1
  Br  Br14  1  0.532258  0.340952  0.805747  1
  Br  Br15  1  0.805747  0.532258  0.340952  1
  Br  Br16  1  0.340952  0.805747  0.532258  1
  Br  Br17  1  0.464311  0.660846  0.196352  1
  Br  Br18  1  0.196352  0.464311  0.660846  1
  Br  Br19  1  0.660846  0.196352  0.464311  1
  Br  Br20  1  0.663803  0.938599  0.070775  1
  Br  Br21  1  0.070775  0.663803  0.938599  1
  Br  Br22  1  0.938599  0.070775  0.663803  1
  Br  Br23  1  0.339063  0.060182  0.926089  1
  Br  Br24  1  0.926089  0.339063  0.060182  1
  Br  Br25  1  0.060182  0.926089  0.339063  1
