# generated using pymatgen
data_SrCd6O7
_symmetry_space_group_name_H-M   'P 1'
_cell_length_a   5.92667357
_cell_length_b   5.92667286
_cell_length_c   5.92667306
_cell_angle_alpha   99.47001154
_cell_angle_beta   99.46999547
_cell_angle_gamma   99.47002755
_symmetry_Int_Tables_number   1
_chemical_formula_structural   SrCd6O7
_chemical_formula_sum   'Sr1 Cd6 O7'
_cell_volume   198.57523424
_cell_formula_units_Z   1
loop_
 _symmetry_equiv_pos_site_id
 _symmetry_equiv_pos_as_xyz
  1  'x, y, z'
loop_
 _atom_site_type_symbol
 _atom_site_label
 _atom_site_symmetry_multiplicity
 _atom_site_fract_x
 _atom_site_fract_y
 _atom_site_fract_z
 _atom_site_occupancy
  Sr  Sr0  1  0.000000  0.000000  0.000000  1
  Cd  Cd1  1  0.289360  0.145672  0.572958  1
  Cd  Cd2  1  0.145672  0.572958  0.289360  1
  Cd  Cd3  1  0.427042  0.710640  0.854328  1
  Cd  Cd4  1  0.572958  0.289360  0.145672  1
  Cd  Cd5  1  0.710640  0.854328  0.427042  1
  Cd  Cd6  1  0.854328  0.427042  0.710640  1
  O  O7  1  0.069242  0.782560  0.625500  1
  O  O8  1  0.500000  0.500000  0.500000  1
  O  O9  1  0.217440  0.374500  0.930758  1
  O  O10  1  0.930758  0.217440  0.374500  1
  O  O11  1  0.374500  0.930758  0.217440  1
  O  O12  1  0.625500  0.069242  0.782560  1
  O  O13  1  0.782560  0.625500  0.069242  1
