# generated using pymatgen
data_Dy2Y2C7
_symmetry_space_group_name_H-M   'P 1'
_cell_length_a   3.71892075
_cell_length_b   13.77434203
_cell_length_c   6.46991691
_cell_angle_alpha   90.00559363
_cell_angle_beta   104.64742536
_cell_angle_gamma   90.00265310
_symmetry_Int_Tables_number   1
_chemical_formula_structural   Dy2Y2C7
_chemical_formula_sum   'Dy4 Y4 C14'
_cell_volume   320.65465405
_cell_formula_units_Z   2
loop_
 _symmetry_equiv_pos_site_id
 _symmetry_equiv_pos_as_xyz
  1  'x, y, z'
loop_
 _atom_site_type_symbol
 _atom_site_label
 _atom_site_symmetry_multiplicity
 _atom_site_fract_x
 _atom_site_fract_y
 _atom_site_fract_z
 _atom_site_occupancy
  Dy  Dy0  1  0.050785  0.163049  0.159681  1
  Dy  Dy1  1  0.949185  0.662994  0.340286  1
  Dy  Dy2  1  0.949208  0.836974  0.840287  1
  Dy  Dy3  1  0.050797  0.336987  0.659696  1
  Y  Y4  1  0.368436  0.445238  0.239551  1
  Y  Y5  1  0.631612  0.945205  0.260474  1
  Y  Y6  1  0.631565  0.554760  0.760461  1
  Y  Y7  1  0.368401  0.054787  0.739551  1
  C  C8  1  0.464614  0.283544  0.424708  1
  C  C9  1  0.535387  0.783594  0.075294  1
  C  C10  1  0.535387  0.716451  0.575294  1
  C  C11  1  0.464582  0.216415  0.924698  1
  C  C12  1  0.380866  0.696291  0.047180  1
  C  C13  1  0.619200  0.196238  0.452832  1
  C  C14  1  0.619128  0.303725  0.952817  1
  C  C15  1  0.380842  0.803748  0.547170  1
  C  C16  1  0.264933  0.604785  0.049735  1
  C  C17  1  0.735101  0.104738  0.450283  1
  C  C18  1  0.735081  0.395221  0.950279  1
  C  C19  1  0.264892  0.895256  0.549723  1
  C  C20  1  0.999997  0.999996  0.000001  1
  C  C21  1  0.999997  0.500004  0.499999  1
