# generated using pymatgen
data_Ho2B(Pd2Pt)2
_symmetry_space_group_name_H-M   'P 1'
_cell_length_a   5.95324204
_cell_length_b   5.95324245
_cell_length_c   6.00138800
_cell_angle_alpha   59.73211235
_cell_angle_beta   59.73211004
_cell_angle_gamma   58.59901846
_symmetry_Int_Tables_number   1
_chemical_formula_structural   Ho2B(Pd2Pt)2
_chemical_formula_sum   'Ho2 B1 Pd4 Pt2'
_cell_volume   148.14935697
_cell_formula_units_Z   1
loop_
 _symmetry_equiv_pos_site_id
 _symmetry_equiv_pos_as_xyz
  1  'x, y, z'
loop_
 _atom_site_type_symbol
 _atom_site_label
 _atom_site_symmetry_multiplicity
 _atom_site_fract_x
 _atom_site_fract_y
 _atom_site_fract_z
 _atom_site_occupancy
  Ho  Ho0  1  0.248150  0.248150  0.253864  1
  Ho  Ho1  1  0.751850  0.751850  0.750164  1
  B  B2  1  0.499999  0.499999  0.492503  1
  Pd  Pd3  1  0.758212  0.758212  0.244308  1
  Pd  Pd4  1  0.241787  0.241787  0.760733  1
  Pd  Pd5  1  0.751384  0.248615  0.756714  1
  Pd  Pd6  1  0.248615  0.751384  0.756714  1
  Pt  Pt7  1  0.755709  0.244290  0.242498  1
  Pt  Pt8  1  0.244290  0.755709  0.242498  1
