# generated using pymatgen
data_Pr5EuCr(SiSe7)2
_symmetry_space_group_name_H-M   'P 1'
_cell_length_a   10.74024098
_cell_length_b   10.73414779
_cell_length_c   6.08928511
_cell_angle_alpha   89.73514131
_cell_angle_beta   90.15351956
_cell_angle_gamma   120.22464428
_symmetry_Int_Tables_number   1
_chemical_formula_structural   Pr5EuCr(SiSe7)2
_chemical_formula_sum   'Pr5 Eu1 Cr1 Si2 Se14'
_cell_volume   606.57751257
_cell_formula_units_Z   1
loop_
 _symmetry_equiv_pos_site_id
 _symmetry_equiv_pos_as_xyz
  1  'x, y, z'
loop_
 _atom_site_type_symbol
 _atom_site_label
 _atom_site_symmetry_multiplicity
 _atom_site_fract_x
 _atom_site_fract_y
 _atom_site_fract_z
 _atom_site_occupancy
  Pr  Pr0  1  0.025875  0.566336  0.747734  1
  Pr  Pr1  1  0.539229  0.973486  0.746992  1
  Pr  Pr2  1  0.899255  0.208134  0.250198  1
  Pr  Pr3  1  0.311366  0.103732  0.249505  1
  Pr  Pr4  1  0.789771  0.688268  0.250494  1
  Eu  Eu5  1  0.434093  0.460123  0.750538  1
  Cr  Cr6  1  0.666205  0.334161  0.516846  1
  Si  Si7  1  0.332729  0.667391  0.167069  1
  Si  Si8  1  0.999366  0.999403  0.658645  1
  Se  Se9  1  0.331591  0.668984  0.538177  1
  Se  Se10  1  0.999977  0.999361  0.031132  1
  Se  Se11  1  0.515696  0.417021  0.283371  1
  Se  Se12  1  0.904688  0.485814  0.283063  1
  Se  Se13  1  0.582307  0.095923  0.282341  1
  Se  Se14  1  0.824999  0.251281  0.743774  1
  Se  Se15  1  0.429144  0.173746  0.740712  1
  Se  Se16  1  0.750617  0.571246  0.742311  1
  Se  Se17  1  0.559013  0.747979  0.023695  1
  Se  Se18  1  0.184246  0.441821  0.021236  1
  Se  Se19  1  0.254985  0.815218  0.017745  1
  Se  Se20  1  0.773186  0.918670  0.513163  1
  Se  Se21  1  0.145641  0.224326  0.512122  1
  Se  Se22  1  0.079354  0.854245  0.512408  1
