# generated using pymatgen
data_Tm4Al4Ni3Ru
_symmetry_space_group_name_H-M   'P 1'
_cell_length_a   4.11760100
_cell_length_b   6.68455843
_cell_length_c   7.75456116
_cell_angle_alpha   89.39354397
_cell_angle_beta   90.00000000
_cell_angle_gamma   90.00000000
_symmetry_Int_Tables_number   1
_chemical_formula_structural   Tm4Al4Ni3Ru
_chemical_formula_sum   'Tm4 Al4 Ni3 Ru1'
_cell_volume   213.42725619
_cell_formula_units_Z   1
loop_
 _symmetry_equiv_pos_site_id
 _symmetry_equiv_pos_as_xyz
  1  'x, y, z'
loop_
 _atom_site_type_symbol
 _atom_site_label
 _atom_site_symmetry_multiplicity
 _atom_site_fract_x
 _atom_site_fract_y
 _atom_site_fract_z
 _atom_site_occupancy
  Tm  Tm0  1  0.250000  0.968595  0.322030  1
  Tm  Tm1  1  0.750000  0.535214  0.823234  1
  Tm  Tm2  1  0.250000  0.464695  0.177908  1
  Tm  Tm3  1  0.750000  0.033487  0.675868  1
  Al  Al4  1  0.750000  0.634790  0.438601  1
  Al  Al5  1  0.750000  0.136233  0.059068  1
  Al  Al6  1  0.250000  0.359494  0.556800  1
  Al  Al7  1  0.250000  0.863954  0.946700  1
  Ni  Ni8  1  0.750000  0.767429  0.127416  1
  Ni  Ni9  1  0.750000  0.269302  0.369664  1
  Ni  Ni10  1  0.250000  0.228123  0.875826  1
  Ru  Ru11  1  0.250000  0.738683  0.626884  1
