# generated using pymatgen
data_Fe(AsO3)3
_symmetry_space_group_name_H-M   'P 1'
_cell_length_a   6.62251998
_cell_length_b   6.62252031
_cell_length_c   6.62251997
_cell_angle_alpha   105.45632794
_cell_angle_beta   105.45633127
_cell_angle_gamma   105.45632342
_symmetry_Int_Tables_number   1
_chemical_formula_structural   Fe(AsO3)3
_chemical_formula_sum   'Fe1 As3 O9'
_cell_volume   251.38031202
_cell_formula_units_Z   1
loop_
 _symmetry_equiv_pos_site_id
 _symmetry_equiv_pos_as_xyz
  1  'x, y, z'
loop_
 _atom_site_type_symbol
 _atom_site_label
 _atom_site_symmetry_multiplicity
 _atom_site_fract_x
 _atom_site_fract_y
 _atom_site_fract_z
 _atom_site_occupancy
  Fe  Fe0  1  0.005581  0.005581  0.005581  1
  As  As1  1  0.899084  0.485080  0.040278  1
  As  As2  1  0.485080  0.040278  0.899084  1
  As  As3  1  0.040278  0.899084  0.485080  1
  O  O4  1  0.065390  0.335678  0.072552  1
  O  O5  1  0.611676  0.309596  0.884479  1
  O  O6  1  0.072552  0.065390  0.335678  1
  O  O7  1  0.335678  0.072552  0.065390  1
  O  O8  1  0.962374  0.674164  0.920714  1
  O  O9  1  0.920714  0.962374  0.674164  1
  O  O10  1  0.884479  0.611676  0.309596  1
  O  O11  1  0.674164  0.920714  0.962374  1
  O  O12  1  0.309596  0.884479  0.611676  1
