# generated using pymatgen
data_Hf3Ti2Ga2Ge
_symmetry_space_group_name_H-M   'P 1'
_cell_length_a   7.87667800
_cell_length_b   7.85830530
_cell_length_c   5.43585700
_cell_angle_alpha   90.00000000
_cell_angle_beta   90.00000000
_cell_angle_gamma   120.07737055
_symmetry_Int_Tables_number   1
_chemical_formula_structural   Hf3Ti2Ga2Ge
_chemical_formula_sum   'Hf6 Ti4 Ga4 Ge2'
_cell_volume   291.15987462
_cell_formula_units_Z   2
loop_
 _symmetry_equiv_pos_site_id
 _symmetry_equiv_pos_as_xyz
  1  'x, y, z'
loop_
 _atom_site_type_symbol
 _atom_site_label
 _atom_site_symmetry_multiplicity
 _atom_site_fract_x
 _atom_site_fract_y
 _atom_site_fract_z
 _atom_site_occupancy
  Hf  Hf0  1  0.246540  0.000000  0.250000  1
  Hf  Hf1  1  0.753460  0.000000  0.750000  1
  Hf  Hf2  1  0.001709  0.244084  0.250000  1
  Hf  Hf3  1  0.998291  0.755916  0.750000  1
  Hf  Hf4  1  0.757625  0.755916  0.250000  1
  Hf  Hf5  1  0.242375  0.244084  0.750000  1
  Ti  Ti6  1  0.333927  0.667855  0.000000  1
  Ti  Ti7  1  0.666073  0.332145  0.000000  1
  Ti  Ti8  1  0.666073  0.332145  0.500000  1
  Ti  Ti9  1  0.333927  0.667855  0.500000  1
  Ga  Ga10  1  0.999889  0.600566  0.250000  1
  Ga  Ga11  1  0.000111  0.399434  0.750000  1
  Ga  Ga12  1  0.399323  0.399434  0.250000  1
  Ga  Ga13  1  0.600677  0.600566  0.750000  1
  Ge  Ge14  1  0.604839  0.000000  0.250000  1
  Ge  Ge15  1  0.395161  0.000000  0.750000  1
