# generated using pymatgen
data_LiZn2ReN4
_symmetry_space_group_name_H-M   'P 1'
_cell_length_a   6.63649700
_cell_length_b   5.62126300
_cell_length_c   5.34447500
_cell_angle_alpha   90.00000000
_cell_angle_beta   90.00000000
_cell_angle_gamma   90.00000000
_symmetry_Int_Tables_number   1
_chemical_formula_structural   LiZn2ReN4
_chemical_formula_sum   'Li2 Zn4 Re2 N8'
_cell_volume   199.37828558
_cell_formula_units_Z   2
loop_
 _symmetry_equiv_pos_site_id
 _symmetry_equiv_pos_as_xyz
  1  'x, y, z'
loop_
 _atom_site_type_symbol
 _atom_site_label
 _atom_site_symmetry_multiplicity
 _atom_site_fract_x
 _atom_site_fract_y
 _atom_site_fract_z
 _atom_site_occupancy
  Li  Li0  1  0.000000  0.336375  0.725557  1
  Li  Li1  1  0.500000  0.663625  0.225557  1
  Zn  Zn2  1  0.252594  0.829439  0.731290  1
  Zn  Zn3  1  0.247406  0.170561  0.231290  1
  Zn  Zn4  1  0.747406  0.829439  0.731290  1
  Zn  Zn5  1  0.752594  0.170561  0.231290  1
  Re  Re6  1  0.000000  0.673989  0.229656  1
  Re  Re7  1  0.500000  0.326011  0.729656  1
  N  N8  1  0.773153  0.825521  0.112821  1
  N  N9  1  0.726847  0.174479  0.612821  1
  N  N10  1  0.226847  0.825521  0.112821  1
  N  N11  1  0.273153  0.174479  0.612821  1
  N  N12  1  0.000000  0.362274  0.123643  1
  N  N13  1  0.500000  0.637726  0.623643  1
  N  N14  1  0.000000  0.685904  0.572178  1
  N  N15  1  0.500000  0.314096  0.072178  1
