# generated using pymatgen
data_TbYAl9Co2Pt
_symmetry_space_group_name_H-M   'P 1'
_cell_length_a   7.47796106
_cell_length_b   7.47850288
_cell_length_c   9.37110000
_cell_angle_alpha   90.00000000
_cell_angle_beta   90.00000000
_cell_angle_gamma   119.52840587
_symmetry_Int_Tables_number   1
_chemical_formula_structural   TbYAl9Co2Pt
_chemical_formula_sum   'Tb2 Y2 Al18 Co4 Pt2'
_cell_volume   455.99840577
_cell_formula_units_Z   2
loop_
 _symmetry_equiv_pos_site_id
 _symmetry_equiv_pos_as_xyz
  1  'x, y, z'
loop_
 _atom_site_type_symbol
 _atom_site_label
 _atom_site_symmetry_multiplicity
 _atom_site_fract_x
 _atom_site_fract_y
 _atom_site_fract_z
 _atom_site_occupancy
  Tb  Tb0  1  0.993406  0.669608  0.250392  1
  Tb  Tb1  1  0.006594  0.330392  0.750392  1
  Y  Y2  1  0.669623  0.993374  0.249599  1
  Y  Y3  1  0.330377  0.006626  0.749599  1
  Al  Al4  1  0.121739  0.121760  0.250002  1
  Al  Al5  1  0.878261  0.878240  0.750002  1
  Al  Al6  1  0.331148  0.325061  0.545897  1
  Al  Al7  1  0.668852  0.674939  0.045897  1
  Al  Al8  1  0.325123  0.331103  0.954115  1
  Al  Al9  1  0.674877  0.668897  0.454115  1
  Al  Al10  1  0.341138  0.549585  0.241765  1
  Al  Al11  1  0.658862  0.450415  0.741765  1
  Al  Al12  1  0.549528  0.341081  0.258234  1
  Al  Al13  1  0.450472  0.658919  0.758234  1
  Al  Al14  1  0.006279  0.334270  0.073234  1
  Al  Al15  1  0.993721  0.665730  0.573234  1
  Al  Al16  1  0.334365  0.006310  0.426812  1
  Al  Al17  1  0.665635  0.993690  0.926812  1
  Al  Al18  1  0.009838  0.673760  0.926858  1
  Al  Al19  1  0.990162  0.326240  0.426858  1
  Al  Al20  1  0.673624  0.009767  0.573093  1
  Al  Al21  1  0.326376  0.990233  0.073093  1
  Co  Co22  1  0.000126  0.999870  0.000001  1
  Co  Co23  1  0.999874  0.000130  0.500001  1
  Co  Co24  1  0.329211  0.670829  0.000003  1
  Co  Co25  1  0.670789  0.329171  0.500003  1
  Pt  Pt26  1  0.671977  0.327958  0.999995  1
  Pt  Pt27  1  0.328023  0.672042  0.499995  1
