# generated using pymatgen
data_Zr10Ti3Al9(CoOs)4
_symmetry_space_group_name_H-M   'P 1'
_cell_length_a   8.97096972
_cell_length_b   8.97096891
_cell_length_c   8.93462205
_cell_angle_alpha   60.34835876
_cell_angle_beta   60.34836422
_cell_angle_gamma   59.92723526
_symmetry_Int_Tables_number   1
_chemical_formula_structural   Zr10Ti3Al9(CoOs)4
_chemical_formula_sum   'Zr10 Ti3 Al9 Co4 Os4'
_cell_volume   510.81644514
_cell_formula_units_Z   1
loop_
 _symmetry_equiv_pos_site_id
 _symmetry_equiv_pos_as_xyz
  1  'x, y, z'
loop_
 _atom_site_type_symbol
 _atom_site_label
 _atom_site_symmetry_multiplicity
 _atom_site_fract_x
 _atom_site_fract_y
 _atom_site_fract_z
 _atom_site_occupancy
  Zr  Zr0  1  0.200473  0.200473  0.815852  1
  Zr  Zr1  1  0.807849  0.206877  0.198518  1
  Zr  Zr2  1  0.206877  0.807849  0.198518  1
  Zr  Zr3  1  0.803135  0.803135  0.175521  1
  Zr  Zr4  1  0.180599  0.798479  0.806353  1
  Zr  Zr5  1  0.798479  0.180599  0.806353  1
  Zr  Zr6  1  0.378248  0.378248  0.389979  1
  Zr  Zr7  1  0.387925  0.853340  0.388584  1
  Zr  Zr8  1  0.853340  0.387925  0.388584  1
  Zr  Zr9  1  0.384005  0.384005  0.852472  1
  Ti  Ti10  1  0.837461  0.496472  0.822588  1
  Ti  Ti11  1  0.496472  0.837461  0.822588  1
  Ti  Ti12  1  0.832252  0.832252  0.488178  1
  Al  Al13  1  0.168261  0.168261  0.172719  1
  Al  Al14  1  0.163399  0.509327  0.169247  1
  Al  Al15  1  0.509327  0.163399  0.169247  1
  Al  Al16  1  0.163788  0.163788  0.517846  1
  Al  Al17  1  0.617849  0.617849  0.622138  1
  Al  Al18  1  0.622632  0.139989  0.615794  1
  Al  Al19  1  0.139989  0.622632  0.615794  1
  Al  Al20  1  0.618017  0.618017  0.138662  1
  Al  Al21  1  0.824531  0.824531  0.821888  1
  Co  Co22  1  0.997954  0.504658  0.502603  1
  Co  Co23  1  0.504658  0.997954  0.502603  1
  Co  Co24  1  0.500279  0.500279  0.498790  1
  Co  Co25  1  0.001798  0.001798  0.003821  1
  Os  Os26  1  0.999411  0.999411  0.499747  1
  Os  Os27  1  0.498671  0.998863  0.999364  1
  Os  Os28  1  0.998863  0.498671  0.999364  1
  Os  Os29  1  0.503455  0.503455  0.996286  1
