# generated using pymatgen
data_Lu2Ga9Tc2Ru3
_symmetry_space_group_name_H-M   'P 1'
_cell_length_a   7.93964330
_cell_length_b   7.93964282
_cell_length_c   7.93964138
_cell_angle_alpha   133.96865128
_cell_angle_beta   133.96863241
_cell_angle_gamma   67.13698942
_symmetry_Int_Tables_number   1
_chemical_formula_structural   Lu2Ga9Tc2Ru3
_chemical_formula_sum   'Lu2 Ga9 Tc2 Ru3'
_cell_volume   255.00054830
_cell_formula_units_Z   1
loop_
 _symmetry_equiv_pos_site_id
 _symmetry_equiv_pos_as_xyz
  1  'x, y, z'
loop_
 _atom_site_type_symbol
 _atom_site_label
 _atom_site_symmetry_multiplicity
 _atom_site_fract_x
 _atom_site_fract_y
 _atom_site_fract_z
 _atom_site_occupancy
  Lu  Lu0  1  0.000000  0.500000  0.500000  1
  Lu  Lu1  1  0.500000  0.000000  0.500000  1
  Ga  Ga2  1  0.435264  0.857740  0.000000  1
  Ga  Ga3  1  0.142260  0.142260  0.577524  1
  Ga  Ga4  1  0.857740  0.435264  0.000000  1
  Ga  Ga5  1  0.857740  0.857740  0.422476  1
  Ga  Ga6  1  0.564736  0.142260  0.000000  1
  Ga  Ga7  1  0.142260  0.564736  0.000000  1
  Ga  Ga8  1  0.564736  0.564736  0.422476  1
  Ga  Ga9  1  0.000000  0.000000  0.000000  1
  Ga  Ga10  1  0.435264  0.435264  0.577524  1
  Tc  Tc11  1  0.184404  0.184404  0.000000  1
  Tc  Tc12  1  0.815596  0.815596  0.000000  1
  Ru  Ru13  1  0.250000  0.750000  0.500000  1
  Ru  Ru14  1  0.750000  0.250000  0.500000  1
  Ru  Ru15  1  0.500000  0.500000  0.000000  1
