# generated using pymatgen
data_PaB4Ru
_symmetry_space_group_name_H-M   'P 1'
_cell_length_a   3.60731700
_cell_length_b   5.98547700
_cell_length_c   11.61197500
_cell_angle_alpha   90.00000000
_cell_angle_beta   90.00000000
_cell_angle_gamma   90.00000000
_symmetry_Int_Tables_number   1
_chemical_formula_structural   PaB4Ru
_chemical_formula_sum   'Pa4 B16 Ru4'
_cell_volume   250.72010842
_cell_formula_units_Z   4
loop_
 _symmetry_equiv_pos_site_id
 _symmetry_equiv_pos_as_xyz
  1  'x, y, z'
loop_
 _atom_site_type_symbol
 _atom_site_label
 _atom_site_symmetry_multiplicity
 _atom_site_fract_x
 _atom_site_fract_y
 _atom_site_fract_z
 _atom_site_occupancy
  Pa  Pa0  1  0.000000  0.629285  0.350137  1
  Pa  Pa1  1  0.000000  0.370715  0.649863  1
  Pa  Pa2  1  0.000000  0.129285  0.149863  1
  Pa  Pa3  1  0.000000  0.870715  0.850137  1
  B  B4  1  0.500000  0.789500  0.188331  1
  B  B5  1  0.500000  0.210500  0.811669  1
  B  B6  1  0.500000  0.289500  0.311669  1
  B  B7  1  0.500000  0.710500  0.688331  1
  B  B8  1  0.500000  0.865926  0.032390  1
  B  B9  1  0.500000  0.134074  0.967610  1
  B  B10  1  0.500000  0.365926  0.467610  1
  B  B11  1  0.500000  0.634074  0.532390  1
  B  B12  1  0.500000  0.886907  0.454184  1
  B  B13  1  0.500000  0.113093  0.545816  1
  B  B14  1  0.500000  0.386907  0.045816  1
  B  B15  1  0.500000  0.613093  0.954184  1
  B  B16  1  0.500000  0.975077  0.308471  1
  B  B17  1  0.500000  0.024923  0.691529  1
  B  B18  1  0.500000  0.475077  0.191529  1
  B  B19  1  0.500000  0.524923  0.808471  1
  Ru  Ru20  1  0.000000  0.642419  0.093884  1
  Ru  Ru21  1  0.000000  0.357581  0.906116  1
  Ru  Ru22  1  0.000000  0.142419  0.406116  1
  Ru  Ru23  1  0.000000  0.857581  0.593884  1
