# generated using pymatgen
data_Al5Fe8SiB4
_symmetry_space_group_name_H-M   'P 1'
_cell_length_a   8.04296100
_cell_length_b   8.04296100
_cell_length_c   2.77202300
_cell_angle_alpha   90.00000000
_cell_angle_beta   90.00000000
_cell_angle_gamma   90.00000000
_symmetry_Int_Tables_number   1
_chemical_formula_structural   Al5Fe8SiB4
_chemical_formula_sum   'Al5 Fe8 Si1 B4'
_cell_volume   179.32001026
_cell_formula_units_Z   1
loop_
 _symmetry_equiv_pos_site_id
 _symmetry_equiv_pos_as_xyz
  1  'x, y, z'
loop_
 _atom_site_type_symbol
 _atom_site_label
 _atom_site_symmetry_multiplicity
 _atom_site_fract_x
 _atom_site_fract_y
 _atom_site_fract_z
 _atom_site_occupancy
  Al  Al0  1  0.500000  0.500000  0.500000  1
  Al  Al1  1  0.000000  0.345744  0.500000  1
  Al  Al2  1  0.345744  0.000000  0.500000  1
  Al  Al3  1  0.654256  0.000000  0.500000  1
  Al  Al4  1  0.000000  0.654256  0.500000  1
  Fe  Fe5  1  0.827389  0.827389  0.000000  1
  Fe  Fe6  1  0.827389  0.172611  0.000000  1
  Fe  Fe7  1  0.172611  0.827389  0.000000  1
  Fe  Fe8  1  0.172611  0.172611  0.000000  1
  Fe  Fe9  1  0.500000  0.756879  0.000000  1
  Fe  Fe10  1  0.756879  0.500000  0.000000  1
  Fe  Fe11  1  0.243121  0.500000  0.000000  1
  Fe  Fe12  1  0.500000  0.243121  0.000000  1
  Si  Si13  1  0.000000  0.000000  0.500000  1
  B  B14  1  0.302689  0.302689  0.500000  1
  B  B15  1  0.302689  0.697311  0.500000  1
  B  B16  1  0.697311  0.302689  0.500000  1
  B  B17  1  0.697311  0.697311  0.500000  1
