# generated using pymatgen
data_DyTmFe3P7Ru9
_symmetry_space_group_name_H-M   'P 1'
_cell_length_a   9.30201300
_cell_length_b   9.30201363
_cell_length_c   3.85377800
_cell_angle_alpha   90.00000000
_cell_angle_beta   90.00000000
_cell_angle_gamma   120.00000133
_symmetry_Int_Tables_number   1
_chemical_formula_structural   DyTmFe3P7Ru9
_chemical_formula_sum   'Dy1 Tm1 Fe3 P7 Ru9'
_cell_volume   288.78273992
_cell_formula_units_Z   1
loop_
 _symmetry_equiv_pos_site_id
 _symmetry_equiv_pos_as_xyz
  1  'x, y, z'
loop_
 _atom_site_type_symbol
 _atom_site_label
 _atom_site_symmetry_multiplicity
 _atom_site_fract_x
 _atom_site_fract_y
 _atom_site_fract_z
 _atom_site_occupancy
  Dy  Dy0  1  0.333333  0.666667  0.000000  1
  Tm  Tm1  1  0.000000  0.000000  0.500000  1
  Fe  Fe2  1  0.934552  0.443751  0.000000  1
  Fe  Fe3  1  0.509200  0.065448  0.000000  1
  Fe  Fe4  1  0.556249  0.490800  0.000000  1
  P  P5  1  0.970627  0.224139  0.000000  1
  P  P6  1  0.253512  0.029373  0.000000  1
  P  P7  1  0.775861  0.746488  0.000000  1
  P  P8  1  0.063017  0.613788  0.500000  1
  P  P9  1  0.550771  0.936983  0.500000  1
  P  P10  1  0.386212  0.449229  0.500000  1
  P  P11  1  0.666667  0.333333  0.000000  1
  Ru  Ru12  1  0.727995  0.972571  0.000000  1
  Ru  Ru13  1  0.244577  0.272005  0.000000  1
  Ru  Ru14  1  0.027429  0.755423  0.000000  1
  Ru  Ru15  1  0.104484  0.385155  0.500000  1
  Ru  Ru16  1  0.280672  0.895516  0.500000  1
  Ru  Ru17  1  0.614845  0.719328  0.500000  1
  Ru  Ru18  1  0.754720  0.216846  0.500000  1
  Ru  Ru19  1  0.462127  0.245280  0.500000  1
  Ru  Ru20  1  0.783154  0.537873  0.500000  1
