# generated using pymatgen
data_NdInGa3Co
_symmetry_space_group_name_H-M   'P 1'
_cell_length_a   8.38521295
_cell_length_b   8.38521250
_cell_length_c   6.60083500
_cell_angle_alpha   90.00000000
_cell_angle_beta   90.00000000
_cell_angle_gamma   150.18084175
_symmetry_Int_Tables_number   1
_chemical_formula_structural   NdInGa3Co
_chemical_formula_sum   'Nd2 In2 Ga6 Co2'
_cell_volume   230.78849007
_cell_formula_units_Z   2
loop_
 _symmetry_equiv_pos_site_id
 _symmetry_equiv_pos_as_xyz
  1  'x, y, z'
loop_
 _atom_site_type_symbol
 _atom_site_label
 _atom_site_symmetry_multiplicity
 _atom_site_fract_x
 _atom_site_fract_y
 _atom_site_fract_z
 _atom_site_occupancy
  Nd  Nd0  1  0.376804  0.623196  0.750000  1
  Nd  Nd1  1  0.623196  0.376804  0.250000  1
  In  In2  1  0.000000  0.000000  0.000000  1
  In  In3  1  0.000000  0.000000  0.500000  1
  Ga  Ga4  1  0.807358  0.192642  0.053802  1
  Ga  Ga5  1  0.192642  0.807358  0.946198  1
  Ga  Ga6  1  0.192642  0.807358  0.553802  1
  Ga  Ga7  1  0.807358  0.192642  0.446198  1
  Ga  Ga8  1  0.419757  0.580243  0.250000  1
  Ga  Ga9  1  0.580243  0.419757  0.750000  1
  Co  Co10  1  0.723868  0.276132  0.750000  1
  Co  Co11  1  0.276132  0.723868  0.250000  1
