# generated using pymatgen
data_Zr10Tl4Ga2Se
_symmetry_space_group_name_H-M   'P 1'
_cell_length_a   8.58299975
_cell_length_b   8.61356877
_cell_length_c   5.83165600
_cell_angle_alpha   90.07285059
_cell_angle_beta   89.96344498
_cell_angle_gamma   120.11788441
_symmetry_Int_Tables_number   1
_chemical_formula_structural   Zr10Tl4Ga2Se
_chemical_formula_sum   'Zr10 Tl4 Ga2 Se1'
_cell_volume   372.92997032
_cell_formula_units_Z   1
loop_
 _symmetry_equiv_pos_site_id
 _symmetry_equiv_pos_as_xyz
  1  'x, y, z'
loop_
 _atom_site_type_symbol
 _atom_site_label
 _atom_site_symmetry_multiplicity
 _atom_site_fract_x
 _atom_site_fract_y
 _atom_site_fract_z
 _atom_site_occupancy
  Zr  Zr0  1  0.000000  0.749564  0.236155  1
  Zr  Zr1  1  0.250439  0.249462  0.228598  1
  Zr  Zr2  1  0.749561  0.999022  0.228598  1
  Zr  Zr3  1  0.000000  0.247609  0.768491  1
  Zr  Zr4  1  0.733167  0.749119  0.761190  1
  Zr  Zr5  1  0.266833  0.015953  0.761190  1
  Zr  Zr6  1  0.342771  0.668638  0.507629  1
  Zr  Zr7  1  0.657229  0.325866  0.507629  1
  Zr  Zr8  1  0.659146  0.326758  0.993410  1
  Zr  Zr9  1  0.340854  0.667613  0.993410  1
  Tl  Tl10  1  0.000000  0.393945  0.256690  1
  Tl  Tl11  1  0.608866  0.603732  0.252463  1
  Tl  Tl12  1  0.391134  0.994866  0.252463  1
  Tl  Tl13  1  0.000000  0.614447  0.748027  1
  Ga  Ga14  1  0.387195  0.391134  0.750684  1
  Ga  Ga15  1  0.612805  0.003939  0.750684  1
  Se  Se16  1  0.000000  0.998329  0.502691  1
