# generated using pymatgen
data_Er8AlPd19Pt5
_symmetry_space_group_name_H-M   'P 1'
_cell_length_a   8.30646300
_cell_length_b   8.29945500
_cell_length_c   8.30025200
_cell_angle_alpha   90.00000000
_cell_angle_beta   90.00000000
_cell_angle_gamma   90.00000000
_symmetry_Int_Tables_number   1
_chemical_formula_structural   Er8AlPd19Pt5
_chemical_formula_sum   'Er8 Al1 Pd19 Pt5'
_cell_volume   572.21203444
_cell_formula_units_Z   1
loop_
 _symmetry_equiv_pos_site_id
 _symmetry_equiv_pos_as_xyz
  1  'x, y, z'
loop_
 _atom_site_type_symbol
 _atom_site_label
 _atom_site_symmetry_multiplicity
 _atom_site_fract_x
 _atom_site_fract_y
 _atom_site_fract_z
 _atom_site_occupancy
  Er  Er0  1  0.250646  0.250926  0.250465  1
  Er  Er1  1  0.748198  0.748510  0.748250  1
  Er  Er2  1  0.748198  0.748510  0.251750  1
  Er  Er3  1  0.749354  0.250926  0.749535  1
  Er  Er4  1  0.250646  0.250926  0.749535  1
  Er  Er5  1  0.251802  0.748510  0.251750  1
  Er  Er6  1  0.251802  0.748510  0.748250  1
  Er  Er7  1  0.749354  0.250926  0.250465  1
  Al  Al8  1  0.000000  0.003304  0.000000  1
  Pd  Pd9  1  0.259743  0.500641  0.000000  1
  Pd  Pd10  1  0.740257  0.500641  0.000000  1
  Pd  Pd11  1  0.000000  0.259120  0.500000  1
  Pd  Pd12  1  0.500000  0.259180  0.000000  1
  Pd  Pd13  1  0.000000  0.739927  0.500000  1
  Pd  Pd14  1  0.500000  0.739333  0.000000  1
  Pd  Pd15  1  0.500000  0.999892  0.260209  1
  Pd  Pd16  1  0.259540  0.999897  0.500000  1
  Pd  Pd17  1  0.500000  0.999892  0.739791  1
  Pd  Pd18  1  0.740460  0.999897  0.500000  1
  Pd  Pd19  1  0.000000  0.500574  0.259963  1
  Pd  Pd20  1  0.000000  0.500574  0.740037  1
  Pd  Pd21  1  0.500000  0.252617  0.500000  1
  Pd  Pd22  1  0.500000  0.747385  0.500000  1
  Pd  Pd23  1  0.500000  0.499672  0.252735  1
  Pd  Pd24  1  0.500000  0.499672  0.747265  1
  Pd  Pd25  1  0.000000  0.713766  0.000000  1
  Pd  Pd26  1  0.000000  0.998897  0.289796  1
  Pd  Pd27  1  0.000000  0.998897  0.710204  1
  Pt  Pt28  1  0.252486  0.499542  0.500000  1
  Pt  Pt29  1  0.747514  0.499542  0.500000  1
  Pt  Pt30  1  0.288898  0.998502  0.000000  1
  Pt  Pt31  1  0.711102  0.998502  0.000000  1
  Pt  Pt32  1  0.000000  0.292393  0.000000  1
