# generated using pymatgen
data_Li2Co3GeO8
_symmetry_space_group_name_H-M   'P 1'
_cell_length_a   5.73279498
_cell_length_b   5.73279531
_cell_length_c   5.73279545
_cell_angle_alpha   60.04865125
_cell_angle_beta   60.04864890
_cell_angle_gamma   60.04864286
_symmetry_Int_Tables_number   1
_chemical_formula_structural   Li2Co3GeO8
_chemical_formula_sum   'Li2 Co3 Ge1 O8'
_cell_volume   133.37145666
_cell_formula_units_Z   1
loop_
 _symmetry_equiv_pos_site_id
 _symmetry_equiv_pos_as_xyz
  1  'x, y, z'
loop_
 _atom_site_type_symbol
 _atom_site_label
 _atom_site_symmetry_multiplicity
 _atom_site_fract_x
 _atom_site_fract_y
 _atom_site_fract_z
 _atom_site_occupancy
  Li  Li0  1  0.876900  0.876900  0.876900  1
  Li  Li1  1  0.123100  0.123100  0.123100  1
  Co  Co2  1  0.500000  0.000000  0.500000  1
  Co  Co3  1  0.000000  0.500000  0.500000  1
  Co  Co4  1  0.500000  0.500000  0.000000  1
  Ge  Ge5  1  0.500000  0.500000  0.500000  1
  O  O6  1  0.288036  0.736545  0.736545  1
  O  O7  1  0.736545  0.288036  0.736545  1
  O  O8  1  0.268415  0.268415  0.268415  1
  O  O9  1  0.736545  0.736545  0.288036  1
  O  O10  1  0.263455  0.263455  0.711964  1
  O  O11  1  0.731585  0.731585  0.731585  1
  O  O12  1  0.263455  0.711964  0.263455  1
  O  O13  1  0.711964  0.263455  0.263455  1
