# generated using pymatgen
data_Yb2Ta7SbO22
_symmetry_space_group_name_H-M   'P 1'
_cell_length_a   6.26858100
_cell_length_b   6.26858178
_cell_length_c   12.30044800
_cell_angle_alpha   90.00000000
_cell_angle_beta   90.00000000
_cell_angle_gamma   120.00000118
_symmetry_Int_Tables_number   1
_chemical_formula_structural   Yb2Ta7SbO22
_chemical_formula_sum   'Yb2 Ta7 Sb1 O22'
_cell_volume   418.59119977
_cell_formula_units_Z   1
loop_
 _symmetry_equiv_pos_site_id
 _symmetry_equiv_pos_as_xyz
  1  'x, y, z'
loop_
 _atom_site_type_symbol
 _atom_site_label
 _atom_site_symmetry_multiplicity
 _atom_site_fract_x
 _atom_site_fract_y
 _atom_site_fract_z
 _atom_site_occupancy
  Yb  Yb0  1  0.333333  0.666667  0.750000  1
  Yb  Yb1  1  0.666667  0.333333  0.250000  1
  Ta  Ta2  1  0.333333  0.666667  0.250000  1
  Ta  Ta3  1  0.642559  0.000023  0.500670  1
  Ta  Ta4  1  0.642559  0.642536  0.999330  1
  Ta  Ta5  1  0.999977  0.357441  0.999330  1
  Ta  Ta6  1  0.999977  0.642536  0.500670  1
  Ta  Ta7  1  0.357464  0.357441  0.500670  1
  Ta  Ta8  1  0.357464  0.000023  0.999330  1
  Sb  Sb9  1  0.666667  0.333333  0.750000  1
  O  O10  1  0.333333  0.666667  0.537911  1
  O  O11  1  0.666667  0.333333  0.032397  1
  O  O12  1  0.666667  0.333333  0.467603  1
  O  O13  1  0.333333  0.666667  0.962089  1
  O  O14  1  0.244739  0.999654  0.498923  1
  O  O15  1  0.244739  0.245085  0.001077  1
  O  O16  1  0.000346  0.755261  0.001077  1
  O  O17  1  0.000346  0.245085  0.498923  1
  O  O18  1  0.754915  0.755261  0.498923  1
  O  O19  1  0.754915  0.999654  0.001077  1
  O  O20  1  0.382358  0.948440  0.156209  1
  O  O21  1  0.425553  0.375319  0.658211  1
  O  O22  1  0.949766  0.574447  0.658211  1
  O  O23  1  0.051560  0.433919  0.156209  1
  O  O24  1  0.566081  0.617642  0.156209  1
  O  O25  1  0.425553  0.050234  0.841789  1
  O  O26  1  0.624681  0.574447  0.841789  1
  O  O27  1  0.624681  0.050234  0.658211  1
  O  O28  1  0.949766  0.375319  0.841789  1
  O  O29  1  0.051560  0.617642  0.343791  1
  O  O30  1  0.566081  0.948440  0.343791  1
  O  O31  1  0.382358  0.433919  0.343791  1
