# generated using pymatgen
data_Li4B4IrOsRu2
_symmetry_space_group_name_H-M   'P 1'
_cell_length_a   6.79666497
_cell_length_b   6.03052533
_cell_length_c   5.52289336
_cell_angle_alpha   71.91791369
_cell_angle_beta   57.50699499
_cell_angle_gamma   50.89837147
_symmetry_Int_Tables_number   1
_chemical_formula_structural   Li4B4IrOsRu2
_chemical_formula_sum   'Li4 B4 Ir1 Os1 Ru2'
_cell_volume   148.02949420
_cell_formula_units_Z   1
loop_
 _symmetry_equiv_pos_site_id
 _symmetry_equiv_pos_as_xyz
  1  'x, y, z'
loop_
 _atom_site_type_symbol
 _atom_site_label
 _atom_site_symmetry_multiplicity
 _atom_site_fract_x
 _atom_site_fract_y
 _atom_site_fract_z
 _atom_site_occupancy
  Li  Li0  1  0.125840  0.628589  0.626684  1
  Li  Li1  1  0.627112  0.623291  0.624837  1
  Li  Li2  1  0.623291  0.627112  0.124760  1
  Li  Li3  1  0.628589  0.125840  0.618888  1
  B  B4  1  0.432005  0.067659  0.429205  1
  B  B5  1  0.182572  0.815447  0.179621  1
  B  B6  1  0.067659  0.432005  0.071130  1
  B  B7  1  0.815447  0.182572  0.822360  1
  Ir  Ir8  1  0.112525  0.112525  0.387475  1
  Os  Os9  1  0.384627  0.384627  0.115373  1
  Ru  Ru10  1  0.864087  0.864087  0.135913  1
  Ru  Ru11  1  0.136246  0.136246  0.863754  1
