# generated using pymatgen
data_Er16CdCo(NiAg)3
_symmetry_space_group_name_H-M   'P 1'
_cell_length_a   9.38143870
_cell_length_b   9.39905942
_cell_length_c   9.39906012
_cell_angle_alpha   59.94833817
_cell_angle_beta   59.90007065
_cell_angle_gamma   59.90007271
_symmetry_Int_Tables_number   1
_chemical_formula_structural   Er16CdCo(NiAg)3
_chemical_formula_sum   'Er16 Cd1 Co1 Ni3 Ag3'
_cell_volume   584.91978859
_cell_formula_units_Z   1
loop_
 _symmetry_equiv_pos_site_id
 _symmetry_equiv_pos_as_xyz
  1  'x, y, z'
loop_
 _atom_site_type_symbol
 _atom_site_label
 _atom_site_symmetry_multiplicity
 _atom_site_fract_x
 _atom_site_fract_y
 _atom_site_fract_z
 _atom_site_occupancy
  Er  Er0  1  0.349141  0.349571  0.349571  1
  Er  Er1  1  0.347859  0.347835  0.953461  1
  Er  Er2  1  0.347859  0.953461  0.347835  1
  Er  Er3  1  0.951743  0.348632  0.348632  1
  Er  Er4  1  0.814783  0.187999  0.187999  1
  Er  Er5  1  0.189396  0.810933  0.810933  1
  Er  Er6  1  0.188721  0.814399  0.187713  1
  Er  Er7  1  0.811541  0.188698  0.810754  1
  Er  Er8  1  0.188721  0.187713  0.814399  1
  Er  Er9  1  0.811541  0.810754  0.188698  1
  Er  Er10  1  0.933270  0.564398  0.564398  1
  Er  Er11  1  0.561285  0.937198  0.937198  1
  Er  Er12  1  0.563045  0.936519  0.564069  1
  Er  Er13  1  0.933851  0.562463  0.939115  1
  Er  Er14  1  0.563045  0.564069  0.936519  1
  Er  Er15  1  0.933851  0.939115  0.562463  1
  Cd  Cd16  1  0.260921  0.579579  0.579579  1
  Co  Co17  1  0.142739  0.142615  0.142615  1
  Ni  Ni18  1  0.142664  0.142586  0.571934  1
  Ni  Ni19  1  0.142664  0.571934  0.142586  1
  Ni  Ni20  1  0.571895  0.142787  0.142787  1
  Ag  Ag21  1  0.583166  0.582264  0.582264  1
  Ag  Ag22  1  0.583149  0.582544  0.251935  1
  Ag  Ag23  1  0.583149  0.251935  0.582544  1
