# generated using pymatgen
data_Er16Mg(ZrIr4)3
_symmetry_space_group_name_H-M   'P 1'
_cell_length_a   10.74846100
_cell_length_b   10.74846100
_cell_length_c   6.20574400
_cell_angle_alpha   90.00000000
_cell_angle_beta   90.00000000
_cell_angle_gamma   90.00000000
_symmetry_Int_Tables_number   1
_chemical_formula_structural   Er16Mg(ZrIr4)3
_chemical_formula_sum   'Er16 Mg1 Zr3 Ir12'
_cell_volume   716.94596694
_cell_formula_units_Z   1
loop_
 _symmetry_equiv_pos_site_id
 _symmetry_equiv_pos_as_xyz
  1  'x, y, z'
loop_
 _atom_site_type_symbol
 _atom_site_label
 _atom_site_symmetry_multiplicity
 _atom_site_fract_x
 _atom_site_fract_y
 _atom_site_fract_z
 _atom_site_occupancy
  Er  Er0  1  0.283224  0.082459  0.373885  1
  Er  Er1  1  0.290181  0.911876  0.874741  1
  Er  Er2  1  0.709819  0.088124  0.874741  1
  Er  Er3  1  0.716776  0.917541  0.373885  1
  Er  Er4  1  0.588229  0.789987  0.873972  1
  Er  Er5  1  0.584625  0.208908  0.371113  1
  Er  Er6  1  0.415375  0.791092  0.371113  1
  Er  Er7  1  0.411771  0.210013  0.873972  1
  Er  Er8  1  0.208908  0.415375  0.628887  1
  Er  Er9  1  0.210013  0.588229  0.126028  1
  Er  Er10  1  0.789987  0.411771  0.126028  1
  Er  Er11  1  0.791092  0.584625  0.628887  1
  Er  Er12  1  0.911876  0.709819  0.125259  1
  Er  Er13  1  0.917541  0.283224  0.626115  1
  Er  Er14  1  0.082459  0.716776  0.626115  1
  Er  Er15  1  0.088124  0.290181  0.125259  1
  Mg  Mg16  1  0.000000  0.000000  0.500000  1
  Zr  Zr17  1  0.000000  0.000000  0.000000  1
  Zr  Zr18  1  0.500000  0.500000  0.000000  1
  Zr  Zr19  1  0.500000  0.500000  0.500000  1
  Ir  Ir20  1  0.851240  0.152933  0.239174  1
  Ir  Ir21  1  0.847067  0.851240  0.760826  1
  Ir  Ir22  1  0.152933  0.148760  0.760826  1
  Ir  Ir23  1  0.148760  0.847067  0.239174  1
  Ir  Ir24  1  0.646693  0.353704  0.746548  1
  Ir  Ir25  1  0.646296  0.646693  0.253452  1
  Ir  Ir26  1  0.353704  0.353307  0.253452  1
  Ir  Ir27  1  0.353307  0.646296  0.746548  1
  Ir  Ir28  1  0.500000  0.000000  0.121110  1
  Ir  Ir29  1  0.500000  0.000000  0.618597  1
  Ir  Ir30  1  0.000000  0.500000  0.878890  1
  Ir  Ir31  1  0.000000  0.500000  0.381403  1
