# generated using pymatgen
data_Sm5Th3(Nb3Ge4)4
_symmetry_space_group_name_H-M   'P 1'
_cell_length_a   7.13394884
_cell_length_b   7.29971604
_cell_length_c   13.76608454
_cell_angle_alpha   90.01048786
_cell_angle_beta   89.91819196
_cell_angle_gamma   89.99356470
_symmetry_Int_Tables_number   1
_chemical_formula_structural   Sm5Th3(Nb3Ge4)4
_chemical_formula_sum   'Sm5 Th3 Nb12 Ge16'
_cell_volume   716.87912915
_cell_formula_units_Z   1
loop_
 _symmetry_equiv_pos_site_id
 _symmetry_equiv_pos_as_xyz
  1  'x, y, z'
loop_
 _atom_site_type_symbol
 _atom_site_label
 _atom_site_symmetry_multiplicity
 _atom_site_fract_x
 _atom_site_fract_y
 _atom_site_fract_z
 _atom_site_occupancy
  Sm  Sm0  1  0.495908  0.328453  0.094818  1
  Sm  Sm1  1  0.995627  0.171607  0.404593  1
  Sm  Sm2  1  0.504250  0.671623  0.595604  1
  Sm  Sm3  1  0.003256  0.827795  0.904571  1
  Sm  Sm4  1  0.503296  0.671706  0.904963  1
  Th  Th5  1  0.003531  0.828825  0.595016  1
  Th  Th6  1  0.496396  0.328988  0.405898  1
  Th  Th7  1  0.996865  0.171153  0.093555  1
  Nb  Nb8  1  0.666882  0.012471  0.749745  1
  Nb  Nb9  1  0.165640  0.488858  0.749581  1
  Nb  Nb10  1  0.333346  0.988996  0.250527  1
  Nb  Nb11  1  0.832979  0.510723  0.249237  1
  Nb  Nb12  1  0.838675  0.331833  0.626586  1
  Nb  Nb13  1  0.338990  0.169041  0.873325  1
  Nb  Nb14  1  0.160412  0.668799  0.126815  1
  Nb  Nb15  1  0.661013  0.831415  0.373325  1
  Nb  Nb16  1  0.162703  0.667454  0.373904  1
  Nb  Nb17  1  0.663530  0.833242  0.126619  1
  Nb  Nb18  1  0.838529  0.331183  0.873858  1
  Nb  Nb19  1  0.337937  0.167845  0.626414  1
  Ge  Ge20  1  0.805428  0.630532  0.751651  1
  Ge  Ge21  1  0.309770  0.867884  0.751260  1
  Ge  Ge22  1  0.191735  0.369665  0.250291  1
  Ge  Ge23  1  0.691743  0.130393  0.249380  1
  Ge  Ge24  1  0.538174  0.370816  0.750081  1
  Ge  Ge25  1  0.038454  0.130412  0.750962  1
  Ge  Ge26  1  0.461922  0.630966  0.248855  1
  Ge  Ge27  1  0.961936  0.869106  0.250942  1
  Ge  Ge28  1  0.668916  0.043456  0.544638  1
  Ge  Ge29  1  0.171922  0.459039  0.955015  1
  Ge  Ge30  1  0.332368  0.955132  0.043474  1
  Ge  Ge31  1  0.831045  0.543556  0.455588  1
  Ge  Ge32  1  0.328249  0.954911  0.455414  1
  Ge  Ge33  1  0.827316  0.545227  0.043638  1
  Ge  Ge34  1  0.669586  0.042084  0.955046  1
  Ge  Ge35  1  0.171672  0.454812  0.544811  1
