# generated using pymatgen
data_Al11GeIr6
_symmetry_space_group_name_H-M   'P 1'
_cell_length_a   6.82548685
_cell_length_b   6.82548607
_cell_length_c   10.77110626
_cell_angle_alpha   90.00021911
_cell_angle_beta   89.99977915
_cell_angle_gamma   146.28314469
_symmetry_Int_Tables_number   1
_chemical_formula_structural   Al11GeIr6
_chemical_formula_sum   'Al11 Ge1 Ir6'
_cell_volume   278.54172867
_cell_formula_units_Z   1
loop_
 _symmetry_equiv_pos_site_id
 _symmetry_equiv_pos_as_xyz
  1  'x, y, z'
loop_
 _atom_site_type_symbol
 _atom_site_label
 _atom_site_symmetry_multiplicity
 _atom_site_fract_x
 _atom_site_fract_y
 _atom_site_fract_z
 _atom_site_occupancy
  Al  Al0  1  0.560038  0.439962  0.607608  1
  Al  Al1  1  0.440359  0.559641  0.394120  1
  Al  Al2  1  0.443426  0.556574  0.107734  1
  Al  Al3  1  0.559899  0.440101  0.888749  1
  Al  Al4  1  0.178263  0.821737  0.516416  1
  Al  Al5  1  0.820578  0.179422  0.484066  1
  Al  Al6  1  0.759175  0.240825  0.748974  1
  Al  Al7  1  0.239857  0.760143  0.254292  1
  Al  Al8  1  0.955811  0.044189  0.749601  1
  Al  Al9  1  0.044248  0.955752  0.252445  1
  Al  Al10  1  0.176184  0.823816  0.982817  1
  Ge  Ge11  1  0.821387  0.178613  0.016036  1
  Ir  Ir12  1  0.359369  0.640631  0.621795  1
  Ir  Ir13  1  0.640321  0.359679  0.377669  1
  Ir  Ir14  1  0.641200  0.358800  0.121401  1
  Ir  Ir15  1  0.359676  0.640324  0.877199  1
  Ir  Ir16  1  0.856961  0.143039  0.249105  1
  Ir  Ir17  1  0.143248  0.856752  0.749971  1
