# generated using pymatgen
data_Yb9HoPb6F2
_symmetry_space_group_name_H-M   'P 1'
_cell_length_a   9.39519247
_cell_length_b   9.39519178
_cell_length_c   9.39519222
_cell_angle_alpha   127.98675703
_cell_angle_beta   127.98675996
_cell_angle_gamma   76.64648491
_symmetry_Int_Tables_number   1
_chemical_formula_structural   Yb9HoPb6F2
_chemical_formula_sum   'Yb9 Ho1 Pb6 F2'
_cell_volume   500.34941622
_cell_formula_units_Z   1
loop_
 _symmetry_equiv_pos_site_id
 _symmetry_equiv_pos_as_xyz
  1  'x, y, z'
loop_
 _atom_site_type_symbol
 _atom_site_label
 _atom_site_symmetry_multiplicity
 _atom_site_fract_x
 _atom_site_fract_y
 _atom_site_fract_z
 _atom_site_occupancy
  Yb  Yb0  1  0.000000  0.000000  0.000000  1
  Yb  Yb1  1  0.502859  0.002779  0.813128  1
  Yb  Yb2  1  0.189650  0.689731  0.186872  1
  Yb  Yb3  1  0.002779  0.189650  0.499920  1
  Yb  Yb4  1  0.689731  0.502859  0.500080  1
  Yb  Yb5  1  0.497141  0.997221  0.186872  1
  Yb  Yb6  1  0.810350  0.310269  0.813128  1
  Yb  Yb7  1  0.997221  0.810350  0.500080  1
  Yb  Yb8  1  0.310269  0.497141  0.499920  1
  Ho  Ho9  1  0.500000  0.500000  0.000000  1
  Pb  Pb10  1  0.250937  0.250937  0.000000  1
  Pb  Pb11  1  0.749063  0.749063  0.000000  1
  Pb  Pb12  1  0.862949  0.366136  0.229086  1
  Pb  Pb13  1  0.137051  0.633864  0.770915  1
  Pb  Pb14  1  0.366136  0.137051  0.503187  1
  Pb  Pb15  1  0.633864  0.862949  0.496813  1
  F  F16  1  0.250000  0.750000  0.500000  1
  F  F17  1  0.750000  0.250000  0.500000  1
