# generated using pymatgen
data_La2SmAlC3
_symmetry_space_group_name_H-M   'P 1'
_cell_length_a   3.80881700
_cell_length_b   7.60970811
_cell_length_c   10.23083840
_cell_angle_alpha   88.89767606
_cell_angle_beta   90.00000000
_cell_angle_gamma   90.00000000
_symmetry_Int_Tables_number   1
_chemical_formula_structural   La2SmAlC3
_chemical_formula_sum   'La4 Sm2 Al2 C6'
_cell_volume   296.47559468
_cell_formula_units_Z   2
loop_
 _symmetry_equiv_pos_site_id
 _symmetry_equiv_pos_as_xyz
  1  'x, y, z'
loop_
 _atom_site_type_symbol
 _atom_site_label
 _atom_site_symmetry_multiplicity
 _atom_site_fract_x
 _atom_site_fract_y
 _atom_site_fract_z
 _atom_site_occupancy
  La  La0  1  0.500000  0.517701  0.189159  1
  La  La1  1  0.500000  0.482299  0.810841  1
  La  La2  1  0.000000  0.750489  0.463952  1
  La  La3  1  0.000000  0.249511  0.536048  1
  Sm  Sm4  1  0.500000  0.986649  0.198022  1
  Sm  Sm5  1  0.500000  0.013351  0.801978  1
  Al  Al6  1  0.000000  0.779454  0.009419  1
  Al  Al7  1  0.000000  0.220546  0.990581  1
  C  C8  1  0.500000  0.504693  0.564292  1
  C  C9  1  0.500000  0.495307  0.435708  1
  C  C10  1  0.500000  0.992791  0.564237  1
  C  C11  1  0.500000  0.007209  0.435763  1
  C  C12  1  0.000000  0.759544  0.207264  1
  C  C13  1  0.000000  0.240456  0.792736  1
