# generated using pymatgen
data_Y4HoIr2Rh
_symmetry_space_group_name_H-M   'P 1'
_cell_length_a   10.90404800
_cell_length_b   10.90404800
_cell_length_c   6.38978000
_cell_angle_alpha   90.00000000
_cell_angle_beta   90.00000000
_cell_angle_gamma   90.00000000
_symmetry_Int_Tables_number   1
_chemical_formula_structural   Y4HoIr2Rh
_chemical_formula_sum   'Y16 Ho4 Ir8 Rh4'
_cell_volume   759.73374159
_cell_formula_units_Z   4
loop_
 _symmetry_equiv_pos_site_id
 _symmetry_equiv_pos_as_xyz
  1  'x, y, z'
loop_
 _atom_site_type_symbol
 _atom_site_label
 _atom_site_symmetry_multiplicity
 _atom_site_fract_x
 _atom_site_fract_y
 _atom_site_fract_z
 _atom_site_occupancy
  Y  Y0  1  0.290096  0.088624  0.378535  1
  Y  Y1  1  0.290096  0.911376  0.878535  1
  Y  Y2  1  0.709904  0.088624  0.878535  1
  Y  Y3  1  0.709904  0.911376  0.378535  1
  Y  Y4  1  0.588624  0.790096  0.878535  1
  Y  Y5  1  0.588624  0.209904  0.378535  1
  Y  Y6  1  0.411376  0.790096  0.378535  1
  Y  Y7  1  0.411376  0.209904  0.878535  1
  Y  Y8  1  0.209904  0.411376  0.621465  1
  Y  Y9  1  0.209904  0.588624  0.121465  1
  Y  Y10  1  0.790096  0.411376  0.121465  1
  Y  Y11  1  0.790096  0.588624  0.621465  1
  Y  Y12  1  0.911376  0.709904  0.121465  1
  Y  Y13  1  0.911376  0.290096  0.621465  1
  Y  Y14  1  0.088624  0.709904  0.621465  1
  Y  Y15  1  0.088624  0.290096  0.121465  1
  Ho  Ho16  1  0.000000  0.000000  0.500000  1
  Ho  Ho17  1  0.000000  0.000000  0.000000  1
  Ho  Ho18  1  0.500000  0.500000  0.000000  1
  Ho  Ho19  1  0.500000  0.500000  0.500000  1
  Ir  Ir20  1  0.847198  0.152802  0.250000  1
  Ir  Ir21  1  0.847198  0.847198  0.750000  1
  Ir  Ir22  1  0.152802  0.152802  0.750000  1
  Ir  Ir23  1  0.152802  0.847198  0.250000  1
  Ir  Ir24  1  0.652802  0.347198  0.750000  1
  Ir  Ir25  1  0.652802  0.652802  0.250000  1
  Ir  Ir26  1  0.347198  0.347198  0.250000  1
  Ir  Ir27  1  0.347198  0.652802  0.750000  1
  Rh  Rh28  1  0.500000  0.000000  0.122884  1
  Rh  Rh29  1  0.500000  0.000000  0.622884  1
  Rh  Rh30  1  0.000000  0.500000  0.877116  1
  Rh  Rh31  1  0.000000  0.500000  0.377116  1
