# generated using pymatgen
data_Tb2Fe7Co5P7
_symmetry_space_group_name_H-M   'P 1'
_cell_length_a   3.61677400
_cell_length_b   8.98328417
_cell_length_c   8.98993922
_cell_angle_alpha   119.97586490
_cell_angle_beta   90.00000000
_cell_angle_gamma   90.00000000
_symmetry_Int_Tables_number   1
_chemical_formula_structural   Tb2Fe7Co5P7
_chemical_formula_sum   'Tb2 Fe7 Co5 P7'
_cell_volume   253.01686318
_cell_formula_units_Z   1
loop_
 _symmetry_equiv_pos_site_id
 _symmetry_equiv_pos_as_xyz
  1  'x, y, z'
loop_
 _atom_site_type_symbol
 _atom_site_label
 _atom_site_symmetry_multiplicity
 _atom_site_fract_x
 _atom_site_fract_y
 _atom_site_fract_z
 _atom_site_occupancy
  Tb  Tb0  1  0.000000  0.666581  0.333557  1
  Tb  Tb1  1  0.500000  0.333865  0.666757  1
  Fe  Fe2  1  0.000000  0.568545  0.626598  1
  Fe  Fe3  1  0.000000  0.881043  0.727661  1
  Fe  Fe4  1  0.000000  0.272602  0.153350  1
  Fe  Fe5  1  0.000000  0.845986  0.120328  1
  Fe  Fe6  1  0.500000  0.128257  0.897130  1
  Fe  Fe7  1  0.500000  0.101684  0.229942  1
  Fe  Fe8  1  0.500000  0.772380  0.873963  1
  Co  Co9  1  0.000000  0.372945  0.940623  1
  Co  Co10  1  0.000000  0.059287  0.432449  1
  Co  Co11  1  0.500000  0.948268  0.563990  1
  Co  Co12  1  0.500000  0.435293  0.382853  1
  Co  Co13  1  0.500000  0.614418  0.050592  1
  P  P14  1  0.000000  0.111064  0.705025  1
  P  P15  1  0.000000  0.296778  0.407211  1
  P  P16  1  0.000000  0.594693  0.887171  1
  P  P17  1  0.500000  0.709598  0.601111  1
  P  P18  1  0.500000  0.399645  0.111546  1
  P  P19  1  0.500000  0.887729  0.287892  1
  P  P20  1  0.000000  0.999340  0.000250  1
