# generated using pymatgen
data_Tb8Lu12Ga7Si9
_symmetry_space_group_name_H-M   'P 1'
_cell_length_a   7.36412868
_cell_length_b   7.61111215
_cell_length_c   14.64345400
_cell_angle_alpha   89.99478316
_cell_angle_beta   89.93543055
_cell_angle_gamma   90.03112202
_symmetry_Int_Tables_number   1
_chemical_formula_structural   Tb8Lu12Ga7Si9
_chemical_formula_sum   'Tb8 Lu12 Ga7 Si9'
_cell_volume   820.75337208
_cell_formula_units_Z   1
loop_
 _symmetry_equiv_pos_site_id
 _symmetry_equiv_pos_as_xyz
  1  'x, y, z'
loop_
 _atom_site_type_symbol
 _atom_site_label
 _atom_site_symmetry_multiplicity
 _atom_site_fract_x
 _atom_site_fract_y
 _atom_site_fract_z
 _atom_site_occupancy
  Tb  Tb0  1  0.014137  0.174837  0.099080  1
  Tb  Tb1  1  0.987619  0.822038  0.901238  1
  Tb  Tb2  1  0.486531  0.677723  0.901354  1
  Tb  Tb3  1  0.987653  0.822615  0.600068  1
  Tb  Tb4  1  0.512359  0.321634  0.099221  1
  Tb  Tb5  1  0.012023  0.176957  0.399637  1
  Tb  Tb6  1  0.512355  0.322248  0.399446  1
  Tb  Tb7  1  0.487780  0.677354  0.599819  1
  Lu  Lu8  1  0.164569  0.506093  0.750005  1
  Lu  Lu9  1  0.836203  0.494893  0.249645  1
  Lu  Lu10  1  0.335423  0.005795  0.249242  1
  Lu  Lu11  1  0.664033  0.994684  0.749754  1
  Lu  Lu12  1  0.329650  0.173410  0.624379  1
  Lu  Lu13  1  0.669647  0.826894  0.375245  1
  Lu  Lu14  1  0.169914  0.673593  0.375242  1
  Lu  Lu15  1  0.669159  0.824982  0.124721  1
  Lu  Lu16  1  0.829718  0.326666  0.624546  1
  Lu  Lu17  1  0.329265  0.174270  0.876589  1
  Lu  Lu18  1  0.828583  0.326841  0.875995  1
  Lu  Lu19  1  0.172160  0.675440  0.123552  1
  Ga  Ga20  1  0.159769  0.465430  0.539184  1
  Ga  Ga21  1  0.839993  0.534616  0.460588  1
  Ga  Ga22  1  0.339668  0.965221  0.460738  1
  Ga  Ga23  1  0.840352  0.535709  0.039938  1
  Ga  Ga24  1  0.660037  0.034534  0.539035  1
  Ga  Ga25  1  0.159109  0.464581  0.961120  1
  Ga  Ga26  1  0.658950  0.035635  0.961588  1
  Si  Si27  1  0.033051  0.108276  0.751066  1
  Si  Si28  1  0.966615  0.890713  0.249331  1
  Si  Si29  1  0.465968  0.607990  0.249180  1
  Si  Si30  1  0.533505  0.391367  0.750335  1
  Si  Si31  1  0.281573  0.874183  0.750984  1
  Si  Si32  1  0.718711  0.126325  0.248790  1
  Si  Si33  1  0.217812  0.372991  0.249143  1
  Si  Si34  1  0.781580  0.626902  0.750672  1
  Si  Si35  1  0.344530  0.966556  0.039524  1
