# generated using pymatgen
data_Pr3Pa(InRh2)2
_symmetry_space_group_name_H-M   'P 1'
_cell_length_a   7.81172379
_cell_length_b   7.81172488
_cell_length_c   3.79103400
_cell_angle_alpha   90.00000000
_cell_angle_beta   90.00000000
_cell_angle_gamma   92.29684226
_symmetry_Int_Tables_number   1
_chemical_formula_structural   Pr3Pa(InRh2)2
_chemical_formula_sum   'Pr3 Pa1 In2 Rh4'
_cell_volume   231.15455070
_cell_formula_units_Z   1
loop_
 _symmetry_equiv_pos_site_id
 _symmetry_equiv_pos_as_xyz
  1  'x, y, z'
loop_
 _atom_site_type_symbol
 _atom_site_label
 _atom_site_symmetry_multiplicity
 _atom_site_fract_x
 _atom_site_fract_y
 _atom_site_fract_z
 _atom_site_occupancy
  Pr  Pr0  1  0.327199  0.827199  0.500000  1
  Pr  Pr1  1  0.168039  0.332819  0.500000  1
  Pr  Pr2  1  0.832819  0.668039  0.500000  1
  Pa  Pa3  1  0.662580  0.162580  0.500000  1
  In  In4  1  0.005011  0.999401  0.000000  1
  In  In5  1  0.499401  0.505011  0.000000  1
  Rh  Rh6  1  0.123191  0.623191  0.000000  1
  Rh  Rh7  1  0.839071  0.339071  0.000000  1
  Rh  Rh8  1  0.647218  0.895471  0.000000  1
  Rh  Rh9  1  0.395471  0.147218  0.000000  1
