# generated using pymatgen
data_HfZrV3Os
_symmetry_space_group_name_H-M   'P 1'
_cell_length_a   5.19888210
_cell_length_b   5.19888252
_cell_length_c   5.19420705
_cell_angle_alpha   59.97022459
_cell_angle_beta   59.97021997
_cell_angle_gamma   60.00000309
_symmetry_Int_Tables_number   1
_chemical_formula_structural   HfZrV3Os
_chemical_formula_sum   'Hf1 Zr1 V3 Os1'
_cell_volume   99.22671730
_cell_formula_units_Z   1
loop_
 _symmetry_equiv_pos_site_id
 _symmetry_equiv_pos_as_xyz
  1  'x, y, z'
loop_
 _atom_site_type_symbol
 _atom_site_label
 _atom_site_symmetry_multiplicity
 _atom_site_fract_x
 _atom_site_fract_y
 _atom_site_fract_z
 _atom_site_occupancy
  Hf  Hf0  1  0.250008  0.250008  0.249977  1
  Zr  Zr1  1  0.999973  0.999973  0.000082  1
  V  V2  1  0.624942  0.125241  0.624876  1
  V  V3  1  0.125241  0.624942  0.624876  1
  V  V4  1  0.624942  0.624942  0.624876  1
  Os  Os5  1  0.624896  0.624896  0.125313  1
