# generated using pymatgen
data_Tb11Y(AlAu5)4
_symmetry_space_group_name_H-M   'P 1'
_cell_length_a   8.52121426
_cell_length_b   8.52121571
_cell_length_c   13.54407900
_cell_angle_alpha   90.00006793
_cell_angle_beta   89.99993253
_cell_angle_gamma   128.52601928
_symmetry_Int_Tables_number   1
_chemical_formula_structural   Tb11Y(AlAu5)4
_chemical_formula_sum   'Tb11 Y1 Al4 Au20'
_cell_volume   769.37831606
_cell_formula_units_Z   1
loop_
 _symmetry_equiv_pos_site_id
 _symmetry_equiv_pos_as_xyz
  1  'x, y, z'
loop_
 _atom_site_type_symbol
 _atom_site_label
 _atom_site_symmetry_multiplicity
 _atom_site_fract_x
 _atom_site_fract_y
 _atom_site_fract_z
 _atom_site_occupancy
  Tb  Tb0  1  0.927638  0.072362  0.250012  1
  Tb  Tb1  1  0.072304  0.927696  0.749998  1
  Tb  Tb2  1  0.320476  0.679524  0.250013  1
  Tb  Tb3  1  0.679538  0.320462  0.749965  1
  Tb  Tb4  1  0.369315  0.630685  0.535267  1
  Tb  Tb5  1  0.630722  0.369278  0.035325  1
  Tb  Tb6  1  0.369264  0.630736  0.964711  1
  Tb  Tb7  1  0.881570  0.118430  0.951382  1
  Tb  Tb8  1  0.118433  0.881567  0.048655  1
  Tb  Tb9  1  0.881542  0.118458  0.548589  1
  Tb  Tb10  1  0.118420  0.881580  0.451386  1
  Y  Y11  1  0.630743  0.369257  0.464626  1
  Al  Al12  1  0.720247  0.279753  0.250072  1
  Al  Al13  1  0.279733  0.720267  0.749982  1
  Al  Al14  1  0.532706  0.467294  0.250053  1
  Al  Al15  1  0.467294  0.532706  0.749992  1
  Au  Au16  1  0.323366  0.069409  0.249994  1
  Au  Au17  1  0.069406  0.323316  0.749988  1
  Au  Au18  1  0.676684  0.930594  0.749988  1
  Au  Au19  1  0.930591  0.676634  0.249994  1
  Au  Au20  1  0.570402  0.003997  0.396604  1
  Au  Au21  1  0.004043  0.570385  0.603410  1
  Au  Au22  1  0.570357  0.004003  0.103394  1
  Au  Au23  1  0.004027  0.570362  0.896584  1
  Au  Au24  1  0.429615  0.995957  0.603410  1
  Au  Au25  1  0.996003  0.429598  0.396604  1
  Au  Au26  1  0.429638  0.995973  0.896584  1
  Au  Au27  1  0.995997  0.429643  0.103394  1
  Au  Au28  1  0.685983  0.741313  0.394682  1
  Au  Au29  1  0.741247  0.686014  0.605346  1
  Au  Au30  1  0.686030  0.741321  0.105321  1
  Au  Au31  1  0.741318  0.686002  0.894662  1
  Au  Au32  1  0.313986  0.258753  0.605346  1
  Au  Au33  1  0.258687  0.314017  0.394682  1
  Au  Au34  1  0.313998  0.258682  0.894662  1
  Au  Au35  1  0.258679  0.313970  0.105321  1
