# generated using pymatgen
data_LaLu3Sb10
_symmetry_space_group_name_H-M   'P 1'
_cell_length_a   4.28747900
_cell_length_b   13.23946700
_cell_length_c   14.54779900
_cell_angle_alpha   78.24738491
_cell_angle_beta   90.00000000
_cell_angle_gamma   90.00000000
_symmetry_Int_Tables_number   1
_chemical_formula_structural   LaLu3Sb10
_chemical_formula_sum   'La2 Lu6 Sb20'
_cell_volume   808.47861912
_cell_formula_units_Z   2
loop_
 _symmetry_equiv_pos_site_id
 _symmetry_equiv_pos_as_xyz
  1  'x, y, z'
loop_
 _atom_site_type_symbol
 _atom_site_label
 _atom_site_symmetry_multiplicity
 _atom_site_fract_x
 _atom_site_fract_y
 _atom_site_fract_z
 _atom_site_occupancy
  La  La0  1  0.250000  0.952618  0.360701  1
  La  La1  1  0.750000  0.047382  0.639299  1
  Lu  Lu2  1  0.250000  0.400711  0.772894  1
  Lu  Lu3  1  0.750000  0.599289  0.227106  1
  Lu  Lu4  1  0.250000  0.660844  0.857322  1
  Lu  Lu5  1  0.750000  0.339156  0.142678  1
  Lu  Lu6  1  0.250000  0.663795  0.578049  1
  Lu  Lu7  1  0.750000  0.336205  0.421951  1
  Sb  Sb8  1  0.250000  0.149075  0.784228  1
  Sb  Sb9  1  0.750000  0.850925  0.215772  1
  Sb  Sb10  1  0.250000  0.156765  0.475575  1
  Sb  Sb11  1  0.750000  0.843235  0.524425  1
  Sb  Sb12  1  0.250000  0.158790  0.169903  1
  Sb  Sb13  1  0.750000  0.841210  0.830097  1
  Sb  Sb14  1  0.250000  0.421259  0.976264  1
  Sb  Sb15  1  0.750000  0.578741  0.023736  1
  Sb  Sb16  1  0.750000  0.032799  0.898508  1
  Sb  Sb17  1  0.250000  0.967201  0.101492  1
  Sb  Sb18  1  0.750000  0.148961  0.319541  1
  Sb  Sb19  1  0.250000  0.851039  0.680459  1
  Sb  Sb20  1  0.750000  0.283987  0.936928  1
  Sb  Sb21  1  0.250000  0.716013  0.063072  1
  Sb  Sb22  1  0.750000  0.296727  0.650669  1
  Sb  Sb23  1  0.250000  0.703273  0.349331  1
  Sb  Sb24  1  0.750000  0.576955  0.736321  1
  Sb  Sb25  1  0.250000  0.423045  0.263679  1
  Sb  Sb26  1  0.750000  0.573252  0.443999  1
  Sb  Sb27  1  0.250000  0.426748  0.556001  1
