# generated using pymatgen
data_Tb5Dy3(AsI6)2
_symmetry_space_group_name_H-M   'P 1'
_cell_length_a   4.25423600
_cell_length_b   13.93324608
_cell_length_c   14.73715508
_cell_angle_alpha   89.98784186
_cell_angle_beta   90.00000000
_cell_angle_gamma   90.00000000
_symmetry_Int_Tables_number   1
_chemical_formula_structural   Tb5Dy3(AsI6)2
_chemical_formula_sum   'Tb5 Dy3 As2 I12'
_cell_volume   873.54952049
_cell_formula_units_Z   1
loop_
 _symmetry_equiv_pos_site_id
 _symmetry_equiv_pos_as_xyz
  1  'x, y, z'
loop_
 _atom_site_type_symbol
 _atom_site_label
 _atom_site_symmetry_multiplicity
 _atom_site_fract_x
 _atom_site_fract_y
 _atom_site_fract_z
 _atom_site_occupancy
  Tb  Tb0  1  0.500000  0.385128  0.847203  1
  Tb  Tb1  1  0.000000  0.109973  0.573177  1
  Tb  Tb2  1  0.000000  0.890022  0.426816  1
  Tb  Tb3  1  0.000000  0.609951  0.926730  1
  Tb  Tb4  1  0.000000  0.389942  0.073120  1
  Dy  Dy5  1  0.500000  0.114741  0.347355  1
  Dy  Dy6  1  0.500000  0.885255  0.652636  1
  Dy  Dy7  1  0.500000  0.614875  0.152805  1
  As  As8  1  0.500000  0.999985  0.499990  1
  As  As9  1  0.500000  0.500340  0.000380  1
  I  I10  1  0.500000  0.245389  0.160866  1
  I  I11  1  0.500000  0.754631  0.839187  1
  I  I12  1  0.500000  0.745410  0.339201  1
  I  I13  1  0.500000  0.254397  0.660559  1
  I  I14  1  0.000000  0.258476  0.413742  1
  I  I15  1  0.000000  0.741531  0.586247  1
  I  I16  1  0.000000  0.758480  0.086243  1
  I  I17  1  0.000000  0.240924  0.914141  1
  I  I18  1  0.000000  0.000117  0.240921  1
  I  I19  1  0.000000  0.999874  0.759071  1
  I  I20  1  0.000000  0.500109  0.259076  1
  I  I21  1  0.000000  0.500449  0.740536  1
