# generated using pymatgen
data_La3Mg3Si2Hg
_symmetry_space_group_name_H-M   'P 1'
_cell_length_a   7.51330400
_cell_length_b   7.51330439
_cell_length_c   4.61667200
_cell_angle_alpha   90.00000000
_cell_angle_beta   90.00000000
_cell_angle_gamma   120.00000710
_symmetry_Int_Tables_number   1
_chemical_formula_structural   La3Mg3Si2Hg
_chemical_formula_sum   'La3 Mg3 Si2 Hg1'
_cell_volume   225.69480685
_cell_formula_units_Z   1
loop_
 _symmetry_equiv_pos_site_id
 _symmetry_equiv_pos_as_xyz
  1  'x, y, z'
loop_
 _atom_site_type_symbol
 _atom_site_label
 _atom_site_symmetry_multiplicity
 _atom_site_fract_x
 _atom_site_fract_y
 _atom_site_fract_z
 _atom_site_occupancy
  La  La0  1  0.573811  0.000000  0.000000  1
  La  La1  1  0.000000  0.573811  0.000000  1
  La  La2  1  0.426189  0.426189  0.000000  1
  Mg  Mg3  1  0.247825  0.000000  0.500000  1
  Mg  Mg4  1  0.000000  0.247825  0.500000  1
  Mg  Mg5  1  0.752175  0.752175  0.500000  1
  Si  Si6  1  0.333333  0.666667  0.500000  1
  Si  Si7  1  0.666667  0.333333  0.500000  1
  Hg  Hg8  1  0.000000  0.000000  0.000000  1
