# generated using pymatgen
data_Pa5TaCo16Si6Ge
_symmetry_space_group_name_H-M   'P 1'
_cell_length_a   8.23758435
_cell_length_b   8.26478917
_cell_length_c   8.19343091
_cell_angle_alpha   60.05806777
_cell_angle_beta   59.96189319
_cell_angle_gamma   59.55905898
_symmetry_Int_Tables_number   1
_chemical_formula_structural   Pa5TaCo16Si6Ge
_chemical_formula_sum   'Pa5 Ta1 Co16 Si6 Ge1'
_cell_volume   393.16850657
_cell_formula_units_Z   1
loop_
 _symmetry_equiv_pos_site_id
 _symmetry_equiv_pos_as_xyz
  1  'x, y, z'
loop_
 _atom_site_type_symbol
 _atom_site_label
 _atom_site_symmetry_multiplicity
 _atom_site_fract_x
 _atom_site_fract_y
 _atom_site_fract_z
 _atom_site_occupancy
  Pa  Pa0  1  0.712413  0.290757  0.287611  1
  Pa  Pa1  1  0.712361  0.293842  0.706376  1
  Pa  Pa2  1  0.294010  0.714931  0.706020  1
  Pa  Pa3  1  0.293556  0.712588  0.287623  1
  Pa  Pa4  1  0.280802  0.278349  0.719210  1
  Ta  Ta5  1  0.717624  0.721440  0.282363  1
  Co  Co6  1  0.875429  0.882713  0.882028  1
  Co  Co7  1  0.998161  0.329423  0.340766  1
  Co  Co8  1  0.121382  0.119252  0.637833  1
  Co  Co9  1  0.659212  0.668324  0.001923  1
  Co  Co10  1  0.338687  0.329991  0.998820  1
  Co  Co11  1  0.664462  0.666342  0.666480  1
  Co  Co12  1  0.333683  0.331534  0.335923  1
  Co  Co13  1  0.876665  0.877742  0.360517  1
  Co  Co14  1  0.333515  0.997319  0.335532  1
  Co  Co15  1  0.122384  0.115212  0.124234  1
  Co  Co16  1  0.875744  0.361884  0.877600  1
  Co  Co17  1  0.639513  0.114927  0.123320  1
  Co  Co18  1  0.117943  0.640283  0.124526  1
  Co  Co19  1  0.664071  0.001233  0.666285  1
  Co  Co20  1  0.362171  0.878490  0.878611  1
  Co  Co21  1  0.001303  0.667443  0.661287  1
  Si  Si22  1  0.497614  0.498250  0.002153  1
  Si  Si23  1  0.999187  0.999083  0.000895  1
  Si  Si24  1  0.511775  0.993406  0.488168  1
  Si  Si25  1  0.997970  0.998109  0.502244  1
  Si  Si26  1  0.992979  0.512316  0.487871  1
  Si  Si27  1  0.511971  0.993296  0.007092  1
  Ge  Ge28  1  0.993417  0.511524  0.006686  1
