# generated using pymatgen
data_Hf2Sc2Si6Ir5Rh2
_symmetry_space_group_name_H-M   'P 1'
_cell_length_a   6.99030202
_cell_length_b   6.97674577
_cell_length_c   6.97674600
_cell_angle_alpha   109.39577128
_cell_angle_beta   109.46959723
_cell_angle_gamma   109.46959259
_symmetry_Int_Tables_number   1
_chemical_formula_structural   Hf2Sc2Si6Ir5Rh2
_chemical_formula_sum   'Hf2 Sc2 Si6 Ir5 Rh2'
_cell_volume   262.18073826
_cell_formula_units_Z   1
loop_
 _symmetry_equiv_pos_site_id
 _symmetry_equiv_pos_as_xyz
  1  'x, y, z'
loop_
 _atom_site_type_symbol
 _atom_site_label
 _atom_site_symmetry_multiplicity
 _atom_site_fract_x
 _atom_site_fract_y
 _atom_site_fract_z
 _atom_site_occupancy
  Hf  Hf0  1  0.000179  0.000089  0.500089  1
  Hf  Hf1  1  0.000179  0.500089  0.000089  1
  Sc  Sc2  1  0.499984  0.999866  0.999866  1
  Sc  Sc3  1  0.499984  0.500118  0.500118  1
  Si  Si4  1  0.678761  0.681964  0.996798  1
  Si  Si5  1  0.321402  0.003366  0.318035  1
  Si  Si6  1  0.999752  0.318363  0.318363  1
  Si  Si7  1  0.321402  0.318035  0.003366  1
  Si  Si8  1  0.678761  0.996798  0.681964  1
  Si  Si9  1  0.999752  0.681388  0.681388  1
  Ir  Ir10  1  0.500526  0.250263  0.750263  1
  Ir  Ir11  1  0.248137  0.498458  0.749679  1
  Ir  Ir12  1  0.248137  0.749679  0.498458  1
  Ir  Ir13  1  0.500526  0.750263  0.250263  1
  Ir  Ir14  1  0.999953  0.999976  0.999976  1
  Rh  Rh15  1  0.751283  0.250102  0.501181  1
  Rh  Rh16  1  0.751283  0.501181  0.250102  1
