# generated using pymatgen
data_Dy2Ho3Tl2Ir
_symmetry_space_group_name_H-M   'P 1'
_cell_length_a   7.99713900
_cell_length_b   9.00671300
_cell_length_c   12.48578500
_cell_angle_alpha   90.00000000
_cell_angle_beta   90.00000000
_cell_angle_gamma   90.00000000
_symmetry_Int_Tables_number   1
_chemical_formula_structural   Dy2Ho3Tl2Ir
_chemical_formula_sum   'Dy8 Ho12 Tl8 Ir4'
_cell_volume   899.32532032
_cell_formula_units_Z   4
loop_
 _symmetry_equiv_pos_site_id
 _symmetry_equiv_pos_as_xyz
  1  'x, y, z'
loop_
 _atom_site_type_symbol
 _atom_site_label
 _atom_site_symmetry_multiplicity
 _atom_site_fract_x
 _atom_site_fract_y
 _atom_site_fract_z
 _atom_site_occupancy
  Dy  Dy0  1  0.345608  0.750000  0.714624  1
  Dy  Dy1  1  0.654392  0.250000  0.285376  1
  Dy  Dy2  1  0.845608  0.250000  0.785376  1
  Dy  Dy3  1  0.154392  0.750000  0.214624  1
  Dy  Dy4  1  0.882094  0.750000  0.805498  1
  Dy  Dy5  1  0.117906  0.250000  0.194502  1
  Dy  Dy6  1  0.382094  0.250000  0.694502  1
  Dy  Dy7  1  0.617906  0.750000  0.305498  1
  Ho  Ho8  1  0.675578  0.538531  0.571459  1
  Ho  Ho9  1  0.324422  0.461469  0.428541  1
  Ho  Ho10  1  0.175578  0.461469  0.928541  1
  Ho  Ho11  1  0.324422  0.038531  0.428541  1
  Ho  Ho12  1  0.824422  0.538531  0.071459  1
  Ho  Ho13  1  0.675578  0.961469  0.571459  1
  Ho  Ho14  1  0.824422  0.961469  0.071459  1
  Ho  Ho15  1  0.175578  0.038531  0.928541  1
  Ho  Ho16  1  0.048684  0.750000  0.498116  1
  Ho  Ho17  1  0.951316  0.250000  0.501884  1
  Ho  Ho18  1  0.548684  0.250000  0.001884  1
  Ho  Ho19  1  0.451316  0.750000  0.998116  1
  Tl  Tl20  1  0.575833  0.507261  0.831457  1
  Tl  Tl21  1  0.424167  0.492739  0.168543  1
  Tl  Tl22  1  0.075833  0.492739  0.668543  1
  Tl  Tl23  1  0.424167  0.007261  0.168543  1
  Tl  Tl24  1  0.924167  0.507261  0.331457  1
  Tl  Tl25  1  0.575833  0.992739  0.831457  1
  Tl  Tl26  1  0.924167  0.992739  0.331457  1
  Tl  Tl27  1  0.075833  0.007261  0.668543  1
  Ir  Ir28  1  0.073864  0.750000  0.994387  1
  Ir  Ir29  1  0.926136  0.250000  0.005613  1
  Ir  Ir30  1  0.573864  0.250000  0.505613  1
  Ir  Ir31  1  0.426136  0.750000  0.494387  1
