# generated using pymatgen
data_Er2Tm3In2Bi
_symmetry_space_group_name_H-M   'P 1'
_cell_length_a   6.55276300
_cell_length_b   8.93609476
_cell_length_c   8.90854185
_cell_angle_alpha   119.78951744
_cell_angle_beta   89.99947299
_cell_angle_gamma   89.99954794
_symmetry_Int_Tables_number   1
_chemical_formula_structural   Er2Tm3In2Bi
_chemical_formula_sum   'Er4 Tm6 In4 Bi2'
_cell_volume   452.71689556
_cell_formula_units_Z   2
loop_
 _symmetry_equiv_pos_site_id
 _symmetry_equiv_pos_as_xyz
  1  'x, y, z'
loop_
 _atom_site_type_symbol
 _atom_site_label
 _atom_site_symmetry_multiplicity
 _atom_site_fract_x
 _atom_site_fract_y
 _atom_site_fract_z
 _atom_site_occupancy
  Er  Er0  1  0.749999  0.228132  0.990899  1
  Er  Er1  1  0.749973  0.771161  0.761191  1
  Er  Er2  1  0.749999  0.999966  0.238076  1
  Er  Er3  1  0.250034  0.765497  0.000731  1
  Tm  Tm4  1  0.492511  0.328567  0.667343  1
  Tm  Tm5  1  0.492677  0.671449  0.338979  1
  Tm  Tm6  1  0.007324  0.671443  0.338968  1
  Tm  Tm7  1  0.007458  0.328581  0.667322  1
  Tm  Tm8  1  0.249996  0.234079  0.234642  1
  Tm  Tm9  1  0.249998  0.000406  0.763698  1
  In  In10  1  0.749996  0.000371  0.595379  1
  In  In11  1  0.250031  0.398074  0.003803  1
  In  In12  1  0.250001  0.601036  0.604072  1
  In  In13  1  0.250007  0.000559  0.398196  1
  Bi  Bi14  1  0.749995  0.603805  0.999988  1
  Bi  Bi15  1  0.750000  0.396873  0.396714  1
