# generated using pymatgen
data_Hf6Al4Ga2Pd5Pt
_symmetry_space_group_name_H-M   'P 1'
_cell_length_a   7.14721074
_cell_length_b   7.18398461
_cell_length_c   7.07046320
_cell_angle_alpha   89.88334897
_cell_angle_beta   89.95462256
_cell_angle_gamma   119.80507513
_symmetry_Int_Tables_number   1
_chemical_formula_structural   Hf6Al4Ga2Pd5Pt
_chemical_formula_sum   'Hf6 Al4 Ga2 Pd5 Pt1'
_cell_volume   315.01289473
_cell_formula_units_Z   1
loop_
 _symmetry_equiv_pos_site_id
 _symmetry_equiv_pos_as_xyz
  1  'x, y, z'
loop_
 _atom_site_type_symbol
 _atom_site_label
 _atom_site_symmetry_multiplicity
 _atom_site_fract_x
 _atom_site_fract_y
 _atom_site_fract_z
 _atom_site_occupancy
  Hf  Hf0  1  0.607444  0.587292  0.250421  1
  Hf  Hf1  1  0.022962  0.414999  0.749102  1
  Hf  Hf2  1  0.411793  0.020711  0.250629  1
  Hf  Hf3  1  0.980677  0.393605  0.249966  1
  Hf  Hf4  1  0.390106  0.975572  0.749341  1
  Hf  Hf5  1  0.584701  0.607402  0.749628  1
  Al  Al6  1  0.253040  0.253081  0.499497  1
  Al  Al7  1  0.747304  0.001555  0.499137  1
  Al  Al8  1  0.997684  0.745635  0.498930  1
  Al  Al9  1  0.734967  0.000710  0.999348  1
  Ga  Ga10  1  0.270517  0.274322  0.999319  1
  Ga  Ga11  1  0.994773  0.724919  0.998763  1
  Pd  Pd12  1  0.999810  0.999716  0.758410  1
  Pd  Pd13  1  0.000217  0.000274  0.239840  1
  Pd  Pd14  1  0.338470  0.672869  0.036878  1
  Pd  Pd15  1  0.666593  0.333714  0.529719  1
  Pd  Pd16  1  0.665662  0.327373  0.968151  1
  Pt  Pt17  1  0.333280  0.666250  0.472917  1
