# generated using pymatgen
data_Lu3Mg2Ga3Pt
_symmetry_space_group_name_H-M   'P 1'
_cell_length_a   7.07970449
_cell_length_b   7.07970421
_cell_length_c   4.29585000
_cell_angle_alpha   90.00000000
_cell_angle_beta   90.00000000
_cell_angle_gamma   120.87095846
_symmetry_Int_Tables_number   1
_chemical_formula_structural   Lu3Mg2Ga3Pt
_chemical_formula_sum   'Lu3 Mg2 Ga3 Pt1'
_cell_volume   184.81242352
_cell_formula_units_Z   1
loop_
 _symmetry_equiv_pos_site_id
 _symmetry_equiv_pos_as_xyz
  1  'x, y, z'
loop_
 _atom_site_type_symbol
 _atom_site_label
 _atom_site_symmetry_multiplicity
 _atom_site_fract_x
 _atom_site_fract_y
 _atom_site_fract_z
 _atom_site_occupancy
  Lu  Lu0  1  0.589759  0.000933  0.500000  1
  Lu  Lu1  1  0.419331  0.419331  0.500000  1
  Lu  Lu2  1  0.000933  0.589759  0.500000  1
  Mg  Mg3  1  0.235856  0.000014  0.000000  1
  Mg  Mg4  1  0.000014  0.235856  0.000000  1
  Ga  Ga5  1  0.669686  0.340024  0.000000  1
  Ga  Ga6  1  0.340024  0.669686  0.000000  1
  Ga  Ga7  1  0.753193  0.753193  0.000000  1
  Pt  Pt8  1  0.991204  0.991204  0.500000  1
