# generated using pymatgen
data_Nd20Ga(Sn2Sb3)3
_symmetry_space_group_name_H-M   'P 1'
_cell_length_a   8.34757568
_cell_length_b   8.39356835
_cell_length_c   15.96708200
_cell_angle_alpha   90.00000000
_cell_angle_beta   90.00000000
_cell_angle_gamma   90.52251377
_symmetry_Int_Tables_number   1
_chemical_formula_structural   Nd20Ga(Sn2Sb3)3
_chemical_formula_sum   'Nd20 Ga1 Sn6 Sb9'
_cell_volume   1118.70220168
_cell_formula_units_Z   1
loop_
 _symmetry_equiv_pos_site_id
 _symmetry_equiv_pos_as_xyz
  1  'x, y, z'
loop_
 _atom_site_type_symbol
 _atom_site_label
 _atom_site_symmetry_multiplicity
 _atom_site_fract_x
 _atom_site_fract_y
 _atom_site_fract_z
 _atom_site_occupancy
  Nd  Nd0  1  0.065336  0.169306  0.391454  1
  Nd  Nd1  1  0.402879  0.835047  0.115225  1
  Nd  Nd2  1  0.094984  0.334326  0.616054  1
  Nd  Nd3  1  0.442426  0.676638  0.888558  1
  Nd  Nd4  1  0.902762  0.664802  0.115907  1
  Nd  Nd5  1  0.094984  0.334326  0.883946  1
  Nd  Nd6  1  0.232624  0.496777  0.250000  1
  Nd  Nd7  1  0.733801  0.002435  0.250000  1
  Nd  Nd8  1  0.442426  0.676638  0.611442  1
  Nd  Nd9  1  0.270170  0.995750  0.750000  1
  Nd  Nd10  1  0.596660  0.161116  0.617773  1
  Nd  Nd11  1  0.765246  0.508018  0.750000  1
  Nd  Nd12  1  0.902762  0.664802  0.384093  1
  Nd  Nd13  1  0.065336  0.169306  0.108546  1
  Nd  Nd14  1  0.933634  0.829537  0.889700  1
  Nd  Nd15  1  0.596660  0.161116  0.882227  1
  Nd  Nd16  1  0.563844  0.330100  0.109627  1
  Nd  Nd17  1  0.402879  0.835047  0.384775  1
  Nd  Nd18  1  0.933634  0.829537  0.610300  1
  Nd  Nd19  1  0.563844  0.330100  0.390373  1
  Ga  Ga20  1  0.636064  0.868635  0.750000  1
  Sn  Sn21  1  0.599917  0.630443  0.250000  1
  Sn  Sn22  1  0.396002  0.374224  0.750000  1
  Sn  Sn23  1  0.135774  0.633095  0.750000  1
  Sn  Sn24  1  0.891266  0.120462  0.750000  1
  Sn  Sn25  1  0.364785  0.133500  0.250000  1
  Sn  Sn26  1  0.104049  0.873885  0.250000  1
  Sb  Sb27  1  0.759398  0.487871  0.547447  1
  Sb  Sb28  1  0.740386  0.988553  0.452343  1
  Sb  Sb29  1  0.240935  0.510652  0.452239  1
  Sb  Sb30  1  0.258389  0.011128  0.952537  1
  Sb  Sb31  1  0.867035  0.364626  0.250000  1
  Sb  Sb32  1  0.759398  0.487871  0.952553  1
  Sb  Sb33  1  0.240935  0.510652  0.047761  1
  Sb  Sb34  1  0.258389  0.011128  0.547463  1
  Sb  Sb35  1  0.740386  0.988553  0.047657  1
