# generated using pymatgen
data_YTm2Lu7Cd3Ru
_symmetry_space_group_name_H-M   'P 1'
_cell_length_a   9.41268803
_cell_length_b   9.41268812
_cell_length_c   9.69110400
_cell_angle_alpha   90.00000000
_cell_angle_beta   90.00000000
_cell_angle_gamma   119.96733730
_symmetry_Int_Tables_number   1
_chemical_formula_structural   YTm2Lu7Cd3Ru
_chemical_formula_sum   'Y2 Tm4 Lu14 Cd6 Ru2'
_cell_volume   743.83064244
_cell_formula_units_Z   2
loop_
 _symmetry_equiv_pos_site_id
 _symmetry_equiv_pos_as_xyz
  1  'x, y, z'
loop_
 _atom_site_type_symbol
 _atom_site_label
 _atom_site_symmetry_multiplicity
 _atom_site_fract_x
 _atom_site_fract_y
 _atom_site_fract_z
 _atom_site_occupancy
  Y  Y0  1  0.460278  0.919392  0.750000  1
  Y  Y1  1  0.080608  0.539722  0.750000  1
  Tm  Tm2  1  0.541093  0.458907  0.250000  1
  Tm  Tm3  1  0.540625  0.080505  0.250000  1
  Tm  Tm4  1  0.919495  0.459375  0.250000  1
  Tm  Tm5  1  0.461207  0.538793  0.750000  1
  Lu  Lu6  1  0.999743  0.000257  0.499721  1
  Lu  Lu7  1  0.999743  0.000257  0.000279  1
  Lu  Lu8  1  0.209759  0.790241  0.440317  1
  Lu  Lu9  1  0.211087  0.420235  0.440685  1
  Lu  Lu10  1  0.579765  0.788913  0.440685  1
  Lu  Lu11  1  0.789222  0.210778  0.557567  1
  Lu  Lu12  1  0.788754  0.579439  0.557618  1
  Lu  Lu13  1  0.420561  0.211246  0.557618  1
  Lu  Lu14  1  0.789222  0.210778  0.942433  1
  Lu  Lu15  1  0.788754  0.579439  0.942382  1
  Lu  Lu16  1  0.420561  0.211246  0.942382  1
  Lu  Lu17  1  0.209759  0.790241  0.059683  1
  Lu  Lu18  1  0.211087  0.420235  0.059315  1
  Lu  Lu19  1  0.579765  0.788913  0.059315  1
  Cd  Cd20  1  0.886360  0.113640  0.250000  1
  Cd  Cd21  1  0.885730  0.772695  0.250000  1
  Cd  Cd22  1  0.227305  0.114270  0.250000  1
  Cd  Cd23  1  0.112672  0.887328  0.750000  1
  Cd  Cd24  1  0.114829  0.226304  0.750000  1
  Cd  Cd25  1  0.773696  0.885171  0.750000  1
  Ru  Ru26  1  0.332498  0.667502  0.250000  1
  Ru  Ru27  1  0.665821  0.334179  0.750000  1
