# generated using pymatgen
data_Pr2CoAs4Ir3
_symmetry_space_group_name_H-M   'P 1'
_cell_length_a   4.26808700
_cell_length_b   4.26808700
_cell_length_c   10.01041500
_cell_angle_alpha   90.00000000
_cell_angle_beta   90.00000000
_cell_angle_gamma   90.00000000
_symmetry_Int_Tables_number   1
_chemical_formula_structural   Pr2CoAs4Ir3
_chemical_formula_sum   'Pr2 Co1 As4 Ir3'
_cell_volume   182.35539194
_cell_formula_units_Z   1
loop_
 _symmetry_equiv_pos_site_id
 _symmetry_equiv_pos_as_xyz
  1  'x, y, z'
loop_
 _atom_site_type_symbol
 _atom_site_label
 _atom_site_symmetry_multiplicity
 _atom_site_fract_x
 _atom_site_fract_y
 _atom_site_fract_z
 _atom_site_occupancy
  Pr  Pr0  1  0.000000  0.500000  0.756473  1
  Pr  Pr1  1  0.500000  0.000000  0.243606  1
  Co  Co2  1  0.500000  0.000000  0.884665  1
  As  As3  1  0.000000  0.500000  0.361954  1
  As  As4  1  0.000000  0.000000  0.989384  1
  As  As5  1  0.500000  0.000000  0.649711  1
  As  As6  1  0.500000  0.500000  0.989384  1
  Ir  Ir7  1  0.000000  0.500000  0.116205  1
  Ir  Ir8  1  0.000000  0.000000  0.504309  1
  Ir  Ir9  1  0.500000  0.500000  0.504309  1
