# generated using pymatgen
data_YbInPdPtO7
_symmetry_space_group_name_H-M   'P 1'
_cell_length_a   7.11271266
_cell_length_b   7.19857272
_cell_length_c   7.19857242
_cell_angle_alpha   60.54482373
_cell_angle_beta   60.39377280
_cell_angle_gamma   60.39377535
_symmetry_Int_Tables_number   1
_chemical_formula_structural   YbInPdPtO7
_chemical_formula_sum   'Yb2 In2 Pd2 Pt2 O14'
_cell_volume   263.23884380
_cell_formula_units_Z   2
loop_
 _symmetry_equiv_pos_site_id
 _symmetry_equiv_pos_as_xyz
  1  'x, y, z'
loop_
 _atom_site_type_symbol
 _atom_site_label
 _atom_site_symmetry_multiplicity
 _atom_site_fract_x
 _atom_site_fract_y
 _atom_site_fract_z
 _atom_site_occupancy
  Yb  Yb0  1  0.125000  0.625000  0.125000  1
  Yb  Yb1  1  0.125000  0.125000  0.625000  1
  In  In2  1  0.125000  0.125000  0.125000  1
  In  In3  1  0.625000  0.125000  0.125000  1
  Pd  Pd4  1  0.625000  0.625000  0.125000  1
  Pd  Pd5  1  0.625000  0.125000  0.625000  1
  Pt  Pt6  1  0.125000  0.625000  0.625000  1
  Pt  Pt7  1  0.625000  0.625000  0.625000  1
  O  O8  1  0.262338  0.237662  0.237662  1
  O  O9  1  0.710766  0.289234  0.289234  1
  O  O10  1  0.704975  0.290282  0.717641  1
  O  O11  1  0.287103  0.717641  0.290282  1
  O  O12  1  0.704975  0.717641  0.290282  1
  O  O13  1  0.287103  0.290282  0.717641  1
  O  O14  1  0.961606  0.538394  0.538394  1
  O  O15  1  0.288394  0.711606  0.711606  1
  O  O16  1  0.962897  0.959718  0.532359  1
  O  O17  1  0.545025  0.959718  0.532359  1
  O  O18  1  0.545025  0.532359  0.959718  1
  O  O19  1  0.962897  0.532359  0.959718  1
  O  O20  1  0.539234  0.960766  0.960766  1
  O  O21  1  0.987662  0.012338  0.012338  1
