# generated using pymatgen
data_Nd3Th5(ReC2)4
_symmetry_space_group_name_H-M   'P 1'
_cell_length_a   5.37909700
_cell_length_b   6.67894659
_cell_length_c   10.11594961
_cell_angle_alpha   89.88024142
_cell_angle_beta   90.00000000
_cell_angle_gamma   90.00000000
_symmetry_Int_Tables_number   1
_chemical_formula_structural   Nd3Th5(ReC2)4
_chemical_formula_sum   'Nd3 Th5 Re4 C8'
_cell_volume   363.43190887
_cell_formula_units_Z   1
loop_
 _symmetry_equiv_pos_site_id
 _symmetry_equiv_pos_as_xyz
  1  'x, y, z'
loop_
 _atom_site_type_symbol
 _atom_site_label
 _atom_site_symmetry_multiplicity
 _atom_site_fract_x
 _atom_site_fract_y
 _atom_site_fract_z
 _atom_site_occupancy
  Nd  Nd0  1  0.750000  0.690023  0.547791  1
  Nd  Nd1  1  0.250000  0.311104  0.451427  1
  Nd  Nd2  1  0.750000  0.191767  0.951674  1
  Th  Th3  1  0.250000  0.474770  0.778781  1
  Th  Th4  1  0.750000  0.023752  0.280817  1
  Th  Th5  1  0.250000  0.977142  0.719587  1
  Th  Th6  1  0.750000  0.521455  0.223228  1
  Th  Th7  1  0.250000  0.810766  0.047029  1
  Re  Re8  1  0.250000  0.271998  0.137388  1
  Re  Re9  1  0.750000  0.230628  0.639104  1
  Re  Re10  1  0.250000  0.770872  0.362372  1
  Re  Re11  1  0.750000  0.730390  0.861087  1
  C  C12  1  0.250000  0.682933  0.549213  1
  C  C13  1  0.750000  0.820241  0.051262  1
  C  C14  1  0.250000  0.172651  0.950355  1
  C  C15  1  0.750000  0.317661  0.451297  1
  C  C16  1  0.250000  0.034034  0.256746  1
  C  C17  1  0.750000  0.467284  0.757576  1
  C  C18  1  0.250000  0.534114  0.241721  1
  C  C19  1  0.750000  0.966414  0.741545  1
