# generated using pymatgen
data_ThAsPRh2
_symmetry_space_group_name_H-M   'P 1'
_cell_length_a   4.27821500
_cell_length_b   4.27821500
_cell_length_c   9.70953500
_cell_angle_alpha   90.00000000
_cell_angle_beta   90.00000000
_cell_angle_gamma   90.00000000
_symmetry_Int_Tables_number   1
_chemical_formula_structural   ThAsPRh2
_chemical_formula_sum   'Th2 As2 P2 Rh4'
_cell_volume   177.71481907
_cell_formula_units_Z   2
loop_
 _symmetry_equiv_pos_site_id
 _symmetry_equiv_pos_as_xyz
  1  'x, y, z'
loop_
 _atom_site_type_symbol
 _atom_site_label
 _atom_site_symmetry_multiplicity
 _atom_site_fract_x
 _atom_site_fract_y
 _atom_site_fract_z
 _atom_site_occupancy
  Th  Th0  1  0.000000  0.500000  0.259030  1
  Th  Th1  1  0.500000  0.000000  0.740970  1
  As  As2  1  0.000000  0.500000  0.858613  1
  As  As3  1  0.500000  0.000000  0.141387  1
  P  P4  1  0.000000  0.000000  0.500000  1
  P  P5  1  0.500000  0.500000  0.500000  1
  Rh  Rh6  1  0.000000  0.000000  0.000000  1
  Rh  Rh7  1  0.500000  0.500000  0.000000  1
  Rh  Rh8  1  0.000000  0.500000  0.603478  1
  Rh  Rh9  1  0.500000  0.000000  0.396522  1
