# generated using pymatgen
data_Y4Er5Tm11(Cd3Ni)2
_symmetry_space_group_name_H-M   'P 1'
_cell_length_a   9.52685904
_cell_length_b   9.52283985
_cell_length_c   9.64438400
_cell_angle_alpha   90.00009371
_cell_angle_beta   89.99940224
_cell_angle_gamma   119.98667704
_symmetry_Int_Tables_number   1
_chemical_formula_structural   Y4Er5Tm11(Cd3Ni)2
_chemical_formula_sum   'Y4 Er5 Tm11 Cd6 Ni2'
_cell_volume   757.84368246
_cell_formula_units_Z   1
loop_
 _symmetry_equiv_pos_site_id
 _symmetry_equiv_pos_as_xyz
  1  'x, y, z'
loop_
 _atom_site_type_symbol
 _atom_site_label
 _atom_site_symmetry_multiplicity
 _atom_site_fract_x
 _atom_site_fract_y
 _atom_site_fract_z
 _atom_site_occupancy
  Y  Y0  1  0.912811  0.456410  0.250185  1
  Y  Y1  1  0.457158  0.542664  0.749692  1
  Y  Y2  1  0.457151  0.914499  0.749690  1
  Y  Y3  1  0.085224  0.542613  0.749699  1
  Er  Er4  1  0.542801  0.456672  0.250324  1
  Er  Er5  1  0.542727  0.086078  0.250320  1
  Er  Er6  1  0.211196  0.790233  0.062647  1
  Er  Er7  1  0.211229  0.420966  0.062655  1
  Er  Er8  1  0.579343  0.789656  0.062914  1
  Tm  Tm9  1  0.000115  0.000059  0.499818  1
  Tm  Tm10  1  0.000128  0.000065  0.000004  1
  Tm  Tm11  1  0.211561  0.789826  0.437165  1
  Tm  Tm12  1  0.211560  0.421742  0.437165  1
  Tm  Tm13  1  0.578497  0.789250  0.436934  1
  Tm  Tm14  1  0.788611  0.210401  0.562171  1
  Tm  Tm15  1  0.788611  0.578206  0.562173  1
  Tm  Tm16  1  0.422080  0.211040  0.561674  1
  Tm  Tm17  1  0.788534  0.210490  0.937829  1
  Tm  Tm18  1  0.788539  0.578048  0.937825  1
  Tm  Tm19  1  0.422246  0.211124  0.938318  1
  Cd  Cd20  1  0.884431  0.113926  0.250115  1
  Cd  Cd21  1  0.884433  0.770513  0.250118  1
  Cd  Cd22  1  0.230402  0.115202  0.250104  1
  Cd  Cd23  1  0.114270  0.886021  0.749886  1
  Cd  Cd24  1  0.114266  0.228258  0.749884  1
  Cd  Cd25  1  0.771535  0.885770  0.749897  1
  Ni  Ni26  1  0.333749  0.666877  0.250867  1
  Ni  Ni27  1  0.666789  0.333393  0.749927  1
