# generated using pymatgen
data_YbSc2B4Ru10W3
_symmetry_space_group_name_H-M   'P 1'
_cell_length_a   9.50001082
_cell_length_b   9.49743939
_cell_length_c   3.02132500
_cell_angle_alpha   90.00000000
_cell_angle_beta   90.00000000
_cell_angle_gamma   90.02702432
_symmetry_Int_Tables_number   1
_chemical_formula_structural   YbSc2B4Ru10W3
_chemical_formula_sum   'Yb1 Sc2 B4 Ru10 W3'
_cell_volume   272.60136551
_cell_formula_units_Z   1
loop_
 _symmetry_equiv_pos_site_id
 _symmetry_equiv_pos_as_xyz
  1  'x, y, z'
loop_
 _atom_site_type_symbol
 _atom_site_label
 _atom_site_symmetry_multiplicity
 _atom_site_fract_x
 _atom_site_fract_y
 _atom_site_fract_z
 _atom_site_occupancy
  Yb  Yb0  1  0.325729  0.325671  0.000000  1
  Sc  Sc1  1  0.175800  0.824064  0.000000  1
  Sc  Sc2  1  0.674479  0.675850  0.000000  1
  B  B3  1  0.622710  0.379969  0.000000  1
  B  B4  1  0.382499  0.619959  0.000000  1
  B  B5  1  0.119434  0.119992  0.000000  1
  B  B6  1  0.876142  0.876888  0.000000  1
  Ru  Ru7  1  0.508312  0.503072  0.500000  1
  Ru  Ru8  1  0.991862  0.003522  0.500000  1
  Ru  Ru9  1  0.585365  0.212230  0.500000  1
  Ru  Ru10  1  0.432009  0.784634  0.500000  1
  Ru  Ru11  1  0.054981  0.279157  0.500000  1
  Ru  Ru12  1  0.926816  0.717079  0.500000  1
  Ru  Ru13  1  0.278867  0.065224  0.500000  1
  Ru  Ru14  1  0.716855  0.938937  0.500000  1
  Ru  Ru15  1  0.216444  0.575220  0.500000  1
  Ru  Ru16  1  0.789096  0.419894  0.500000  1
  W  W17  1  0.493721  0.998613  0.000000  1
  W  W18  1  0.004250  0.504455  0.000000  1
  W  W19  1  0.824629  0.175569  0.000000  1
