# generated using pymatgen
data_ZrTa5(AlRu2)6
_symmetry_space_group_name_H-M   'P 1'
_cell_length_a   4.39194100
_cell_length_b   6.22270800
_cell_length_c   13.15736600
_cell_angle_alpha   90.00000000
_cell_angle_beta   89.99995215
_cell_angle_gamma   90.00000000
_symmetry_Int_Tables_number   1
_chemical_formula_structural   ZrTa5(AlRu2)6
_chemical_formula_sum   'Zr1 Ta5 Al6 Ru12'
_cell_volume   359.58773917
_cell_formula_units_Z   1
loop_
 _symmetry_equiv_pos_site_id
 _symmetry_equiv_pos_as_xyz
  1  'x, y, z'
loop_
 _atom_site_type_symbol
 _atom_site_label
 _atom_site_symmetry_multiplicity
 _atom_site_fract_x
 _atom_site_fract_y
 _atom_site_fract_z
 _atom_site_occupancy
  Zr  Zr0  1  0.500003  0.000000  0.833338  1
  Ta  Ta1  1  0.999999  0.500001  0.000473  1
  Ta  Ta2  1  0.499993  0.000000  0.167034  1
  Ta  Ta3  1  0.999999  0.500001  0.333339  1
  Ta  Ta4  1  0.500006  0.000000  0.499697  1
  Ta  Ta5  1  0.000009  0.500001  0.666154  1
  Al  Al6  1  0.000001  0.000000  0.000557  1
  Al  Al7  1  0.499992  0.500001  0.167628  1
  Al  Al8  1  0.999997  0.000000  0.333360  1
  Al  Al9  1  0.500006  0.500001  0.499094  1
  Al  Al10  1  0.000011  0.000000  0.666066  1
  Al  Al11  1  0.500005  0.500001  0.833355  1
  Ru  Ru12  1  0.499997  0.253453  0.004292  1
  Ru  Ru13  1  0.499997  0.746546  0.004292  1
  Ru  Ru14  1  0.999993  0.249369  0.168211  1
  Ru  Ru15  1  0.999993  0.750631  0.168211  1
  Ru  Ru16  1  0.499996  0.250357  0.333388  1
  Ru  Ru17  1  0.499996  0.749643  0.333388  1
  Ru  Ru18  1  0.000002  0.249426  0.498431  1
  Ru  Ru19  1  0.000002  0.750574  0.498431  1
  Ru  Ru20  1  0.500002  0.253410  0.662389  1
  Ru  Ru21  1  0.500002  0.746590  0.662389  1
  Ru  Ru22  1  0.999998  0.257697  0.833242  1
  Ru  Ru23  1  0.999998  0.742303  0.833242  1
