# generated using pymatgen
data_Li11Ge4Ir4Pd
_symmetry_space_group_name_H-M   'P 1'
_cell_length_a   6.62960349
_cell_length_b   6.65792169
_cell_length_c   6.69883794
_cell_angle_alpha   90.14315309
_cell_angle_beta   88.95082425
_cell_angle_gamma   90.24164577
_symmetry_Int_Tables_number   1
_chemical_formula_structural   Li11Ge4Ir4Pd
_chemical_formula_sum   'Li11 Ge4 Ir4 Pd1'
_cell_volume   295.62949149
_cell_formula_units_Z   1
loop_
 _symmetry_equiv_pos_site_id
 _symmetry_equiv_pos_as_xyz
  1  'x, y, z'
loop_
 _atom_site_type_symbol
 _atom_site_label
 _atom_site_symmetry_multiplicity
 _atom_site_fract_x
 _atom_site_fract_y
 _atom_site_fract_z
 _atom_site_occupancy
  Li  Li0  1  0.453055  0.135320  0.205762  1
  Li  Li1  1  0.200862  0.452711  0.135035  1
  Li  Li2  1  0.300196  0.534474  0.624538  1
  Li  Li3  1  0.961414  0.368048  0.795469  1
  Li  Li4  1  0.810279  0.963520  0.378227  1
  Li  Li5  1  0.038849  0.883411  0.691260  1
  Li  Li6  1  0.540330  0.626031  0.301892  1
  Li  Li7  1  0.695947  0.040860  0.871960  1
  Li  Li8  1  0.629323  0.299983  0.537984  1
  Li  Li9  1  0.875591  0.695687  0.039911  1
  Li  Li10  1  0.368957  0.800779  0.959856  1
  Ge  Ge11  1  0.934455  0.558742  0.431870  1
  Ge  Ge12  1  0.571972  0.429804  0.929284  1
  Ge  Ge13  1  0.427991  0.927641  0.570521  1
  Ge  Ge14  1  0.073411  0.069640  0.077429  1
  Ir  Ir15  1  0.317848  0.183219  0.819004  1
  Ir  Ir16  1  0.183558  0.813172  0.318747  1
  Ir  Ir17  1  0.813009  0.316630  0.175941  1
  Ir  Ir18  1  0.682267  0.682732  0.681016  1
  Pd  Pd19  1  0.120687  0.217596  0.454293  1
