# generated using pymatgen
data_Yb2Ho2TmIr2
_symmetry_space_group_name_H-M   'P 1'
_cell_length_a   6.49243340
_cell_length_b   7.26803595
_cell_length_c   8.45211084
_cell_angle_alpha   97.22360971
_cell_angle_beta   112.58612727
_cell_angle_gamma   89.99999521
_symmetry_Int_Tables_number   1
_chemical_formula_structural   Yb2Ho2TmIr2
_chemical_formula_sum   'Yb4 Ho4 Tm2 Ir4'
_cell_volume   364.81180265
_cell_formula_units_Z   2
loop_
 _symmetry_equiv_pos_site_id
 _symmetry_equiv_pos_as_xyz
  1  'x, y, z'
loop_
 _atom_site_type_symbol
 _atom_site_label
 _atom_site_symmetry_multiplicity
 _atom_site_fract_x
 _atom_site_fract_y
 _atom_site_fract_z
 _atom_site_occupancy
  Yb  Yb0  1  0.974041  0.920823  0.182913  1
  Yb  Yb1  1  0.791128  0.579177  0.817087  1
  Yb  Yb2  1  0.025959  0.079177  0.817087  1
  Yb  Yb3  1  0.208872  0.420823  0.182913  1
  Ho  Ho4  1  0.647468  0.818426  0.439629  1
  Ho  Ho5  1  0.207839  0.681574  0.560371  1
  Ho  Ho6  1  0.352532  0.181574  0.560371  1
  Ho  Ho7  1  0.792161  0.318426  0.439629  1
  Tm  Tm8  1  0.431807  0.750000  0.000000  1
  Tm  Tm9  1  0.568193  0.250000  0.000000  1
  Ir  Ir10  1  0.812369  0.573169  0.226820  1
  Ir  Ir11  1  0.585549  0.926831  0.773180  1
  Ir  Ir12  1  0.187632  0.426831  0.773180  1
  Ir  Ir13  1  0.414451  0.073169  0.226820  1
