# generated using pymatgen
data_Sr2Ir2Rh
_symmetry_space_group_name_H-M   'P 1'
_cell_length_a   5.96973846
_cell_length_b   5.96973980
_cell_length_c   5.96974054
_cell_angle_alpha   133.03096785
_cell_angle_beta   130.52663555
_cell_angle_gamma   70.59794159
_symmetry_Int_Tables_number   1
_chemical_formula_structural   Sr2Ir2Rh
_chemical_formula_sum   'Sr2 Ir2 Rh1'
_cell_volume   115.81555063
_cell_formula_units_Z   1
loop_
 _symmetry_equiv_pos_site_id
 _symmetry_equiv_pos_as_xyz
  1  'x, y, z'
loop_
 _atom_site_type_symbol
 _atom_site_label
 _atom_site_symmetry_multiplicity
 _atom_site_fract_x
 _atom_site_fract_y
 _atom_site_fract_z
 _atom_site_occupancy
  Sr  Sr0  1  0.692867  0.192867  0.499999  1
  Sr  Sr1  1  0.307132  0.807133  0.500001  1
  Ir  Ir2  1  0.747075  0.500000  0.247075  1
  Ir  Ir3  1  0.252924  0.500001  0.752925  1
  Rh  Rh4  1  0.000000  0.000000  0.000000  1
