# generated using pymatgen
data_Sc3BP2Ir2Ru
_symmetry_space_group_name_H-M   'P 1'
_cell_length_a   6.45347368
_cell_length_b   6.45347438
_cell_length_c   3.61177500
_cell_angle_alpha   90.00000000
_cell_angle_beta   90.00000000
_cell_angle_gamma   119.64668254
_symmetry_Int_Tables_number   1
_chemical_formula_structural   Sc3BP2Ir2Ru
_chemical_formula_sum   'Sc3 B1 P2 Ir2 Ru1'
_cell_volume   130.72952104
_cell_formula_units_Z   1
loop_
 _symmetry_equiv_pos_site_id
 _symmetry_equiv_pos_as_xyz
  1  'x, y, z'
loop_
 _atom_site_type_symbol
 _atom_site_label
 _atom_site_symmetry_multiplicity
 _atom_site_fract_x
 _atom_site_fract_y
 _atom_site_fract_z
 _atom_site_occupancy
  Sc  Sc0  1  0.400374  0.400374  0.500000  1
  Sc  Sc1  1  0.600187  0.998129  0.500000  1
  Sc  Sc2  1  0.998129  0.600187  0.500000  1
  B  B3  1  0.001801  0.001801  0.500000  1
  P  P4  1  0.666831  0.333688  0.000000  1
  P  P5  1  0.333688  0.666831  0.000000  1
  Ir  Ir6  1  0.999014  0.238525  0.000000  1
  Ir  Ir7  1  0.238525  0.999014  0.000000  1
  Ru  Ru8  1  0.761451  0.761451  0.000000  1
