# generated using pymatgen
data_Sc6Ti4Al12IrRu6
_symmetry_space_group_name_H-M   'P 1'
_cell_length_a   8.82741593
_cell_length_b   8.82741566
_cell_length_c   8.82741600
_cell_angle_alpha   60.00000621
_cell_angle_beta   60.00000723
_cell_angle_gamma   60.00000164
_symmetry_Int_Tables_number   1
_chemical_formula_structural   Sc6Ti4Al12IrRu6
_chemical_formula_sum   'Sc6 Ti4 Al12 Ir1 Ru6'
_cell_volume   486.39131556
_cell_formula_units_Z   1
loop_
 _symmetry_equiv_pos_site_id
 _symmetry_equiv_pos_as_xyz
  1  'x, y, z'
loop_
 _atom_site_type_symbol
 _atom_site_label
 _atom_site_symmetry_multiplicity
 _atom_site_fract_x
 _atom_site_fract_y
 _atom_site_fract_z
 _atom_site_occupancy
  Sc  Sc0  1  0.708906  0.708906  0.291094  1
  Sc  Sc1  1  0.291094  0.708906  0.291094  1
  Sc  Sc2  1  0.708906  0.291094  0.291094  1
  Sc  Sc3  1  0.291094  0.291094  0.708906  1
  Sc  Sc4  1  0.708906  0.291094  0.708906  1
  Sc  Sc5  1  0.291094  0.708906  0.708906  1
  Ti  Ti6  1  0.879825  0.879825  0.360524  1
  Ti  Ti7  1  0.879825  0.360524  0.879825  1
  Ti  Ti8  1  0.360524  0.879825  0.879825  1
  Ti  Ti9  1  0.879825  0.879825  0.879825  1
  Al  Al10  1  0.120176  0.120176  0.639471  1
  Al  Al11  1  0.120176  0.639471  0.120176  1
  Al  Al12  1  0.639471  0.120176  0.120176  1
  Al  Al13  1  0.120176  0.120176  0.120176  1
  Al  Al14  1  0.666335  0.666335  0.000996  1
  Al  Al15  1  0.666335  0.000996  0.666335  1
  Al  Al16  1  0.000996  0.666335  0.666335  1
  Al  Al17  1  0.666335  0.666335  0.666335  1
  Al  Al18  1  0.334530  0.334530  0.996408  1
  Al  Al19  1  0.334530  0.996408  0.334530  1
  Al  Al20  1  0.996408  0.334530  0.334530  1
  Al  Al21  1  0.334530  0.334530  0.334530  1
  Ir  Ir22  1  0.000000  0.000000  0.000000  1
  Ru  Ru23  1  0.998469  0.998469  0.501531  1
  Ru  Ru24  1  0.501531  0.998469  0.501531  1
  Ru  Ru25  1  0.998469  0.501531  0.501531  1
  Ru  Ru26  1  0.501531  0.501531  0.998469  1
  Ru  Ru27  1  0.998469  0.501531  0.998469  1
  Ru  Ru28  1  0.501531  0.998469  0.998469  1
