# generated using pymatgen
data_Pr3Y(Ga3Ir)6
_symmetry_space_group_name_H-M   'P 1'
_cell_length_a   7.65326139
_cell_length_b   7.66411976
_cell_length_c   9.64233500
_cell_angle_alpha   90.00000000
_cell_angle_beta   90.00000000
_cell_angle_gamma   119.63477064
_symmetry_Int_Tables_number   1
_chemical_formula_structural   Pr3Y(Ga3Ir)6
_chemical_formula_sum   'Pr3 Y1 Ga18 Ir6'
_cell_volume   491.59592171
_cell_formula_units_Z   1
loop_
 _symmetry_equiv_pos_site_id
 _symmetry_equiv_pos_as_xyz
  1  'x, y, z'
loop_
 _atom_site_type_symbol
 _atom_site_label
 _atom_site_symmetry_multiplicity
 _atom_site_fract_x
 _atom_site_fract_y
 _atom_site_fract_z
 _atom_site_occupancy
  Pr  Pr0  1  0.997187  0.669568  0.250000  1
  Pr  Pr1  1  0.002415  0.329902  0.750000  1
  Pr  Pr2  1  0.670147  0.997340  0.250000  1
  Y  Y3  1  0.329129  0.002299  0.750000  1
  Ga  Ga4  1  0.131613  0.130342  0.250000  1
  Ga  Ga5  1  0.871208  0.869989  0.750000  1
  Ga  Ga6  1  0.002434  0.335260  0.077826  1
  Ga  Ga7  1  0.000528  0.667143  0.919765  1
  Ga  Ga8  1  0.000528  0.667143  0.580235  1
  Ga  Ga9  1  0.335287  0.001540  0.425026  1
  Ga  Ga10  1  0.002434  0.335260  0.422174  1
  Ga  Ga11  1  0.661842  0.998450  0.580221  1
  Ga  Ga12  1  0.661842  0.998450  0.919779  1
  Ga  Ga13  1  0.335287  0.001540  0.074974  1
  Ga  Ga14  1  0.333432  0.331685  0.559513  1
  Ga  Ga15  1  0.666705  0.666624  0.444659  1
  Ga  Ga16  1  0.666705  0.666624  0.055341  1
  Ga  Ga17  1  0.333432  0.331685  0.940487  1
  Ga  Ga18  1  0.340902  0.545575  0.250000  1
  Ga  Ga19  1  0.656993  0.451392  0.750000  1
  Ga  Ga20  1  0.544843  0.339405  0.250000  1
  Ga  Ga21  1  0.454206  0.661677  0.750000  1
  Ir  Ir22  1  0.670900  0.329152  0.999055  1
  Ir  Ir23  1  0.328908  0.670876  0.998922  1
  Ir  Ir24  1  0.328908  0.670876  0.501078  1
  Ir  Ir25  1  0.670900  0.329152  0.500945  1
  Ir  Ir26  1  0.000641  0.000525  0.998661  1
  Ir  Ir27  1  0.000641  0.000525  0.501339  1
