# generated using pymatgen
data_TbYb2UO6
_symmetry_space_group_name_H-M   'P 1'
_cell_length_a   6.74307909
_cell_length_b   6.74847440
_cell_length_c   6.72340281
_cell_angle_alpha   91.66975544
_cell_angle_beta   91.37663440
_cell_angle_gamma   91.29177855
_symmetry_Int_Tables_number   1
_chemical_formula_structural   TbYb2UO6
_chemical_formula_sum   'Tb2 Yb4 U2 O12'
_cell_volume   305.65088148
_cell_formula_units_Z   2
loop_
 _symmetry_equiv_pos_site_id
 _symmetry_equiv_pos_as_xyz
  1  'x, y, z'
loop_
 _atom_site_type_symbol
 _atom_site_label
 _atom_site_symmetry_multiplicity
 _atom_site_fract_x
 _atom_site_fract_y
 _atom_site_fract_z
 _atom_site_occupancy
  Tb  Tb0  1  0.938169  0.443297  0.749834  1
  Tb  Tb1  1  0.748108  0.938419  0.440939  1
  Yb  Yb2  1  0.553444  0.250316  0.059537  1
  Yb  Yb3  1  0.252620  0.060046  0.558261  1
  Yb  Yb4  1  0.064095  0.557008  0.249844  1
  Yb  Yb5  1  0.443767  0.749528  0.940481  1
  U  U6  1  0.001003  0.998982  0.000634  1
  U  U7  1  0.496268  0.498813  0.498850  1
  O  O8  1  0.296079  0.063454  0.919534  1
  O  O9  1  0.062028  0.918499  0.304290  1
  O  O10  1  0.920680  0.303243  0.060213  1
  O  O11  1  0.701032  0.934611  0.089840  1
  O  O12  1  0.927293  0.088073  0.692065  1
  O  O13  1  0.079785  0.693645  0.928778  1
  O  O14  1  0.191811  0.405993  0.541163  1
  O  O15  1  0.409214  0.537811  0.200066  1
  O  O16  1  0.469624  0.805787  0.590560  1
  O  O17  1  0.597513  0.461077  0.799921  1
  O  O18  1  0.806827  0.597248  0.467552  1
  O  O19  1  0.540639  0.194151  0.407638  1
