# generated using pymatgen
data_Te(OF3)2
_symmetry_space_group_name_H-M   'P 1'
_cell_length_a   5.55726480
_cell_length_b   5.73542063
_cell_length_c   5.75063072
_cell_angle_alpha   92.26357214
_cell_angle_beta   101.02288292
_cell_angle_gamma   100.18703895
_symmetry_Int_Tables_number   1
_chemical_formula_structural   Te(OF3)2
_chemical_formula_sum   'Te1 O2 F6'
_cell_volume   176.56297063
_cell_formula_units_Z   1
loop_
 _symmetry_equiv_pos_site_id
 _symmetry_equiv_pos_as_xyz
  1  'x, y, z'
loop_
 _atom_site_type_symbol
 _atom_site_label
 _atom_site_symmetry_multiplicity
 _atom_site_fract_x
 _atom_site_fract_y
 _atom_site_fract_z
 _atom_site_occupancy
  Te  Te0  1  0.000000  0.000000  0.000000  1
  O  O1  1  0.418073  0.543455  0.534574  1
  O  O2  1  0.581927  0.456545  0.465426  1
  F  F3  1  0.807886  0.720986  0.071488  1
  F  F4  1  0.717635  0.075302  0.808125  1
  F  F5  1  0.282365  0.924698  0.191875  1
  F  F6  1  0.063645  0.836826  0.738123  1
  F  F7  1  0.936355  0.163174  0.261877  1
  F  F8  1  0.192114  0.279014  0.928512  1
