# generated using pymatgen
data_SmY2Ga8Ag3
_symmetry_space_group_name_H-M   'P 1'
_cell_length_a   4.38258873
_cell_length_b   8.36919931
_cell_length_c   8.36919950
_cell_angle_alpha   69.70397312
_cell_angle_beta   74.82141114
_cell_angle_gamma   74.82141808
_symmetry_Int_Tables_number   1
_chemical_formula_structural   SmY2Ga8Ag3
_chemical_formula_sum   'Sm1 Y2 Ga8 Ag3'
_cell_volume   272.86522183
_cell_formula_units_Z   1
loop_
 _symmetry_equiv_pos_site_id
 _symmetry_equiv_pos_as_xyz
  1  'x, y, z'
loop_
 _atom_site_type_symbol
 _atom_site_label
 _atom_site_symmetry_multiplicity
 _atom_site_fract_x
 _atom_site_fract_y
 _atom_site_fract_z
 _atom_site_occupancy
  Sm  Sm0  1  0.000000  0.000000  0.000000  1
  Y  Y1  1  0.299536  0.700464  0.700464  1
  Y  Y2  1  0.700464  0.299536  0.299536  1
  Ga  Ga3  1  0.340234  0.291153  0.028378  1
  Ga  Ga4  1  0.659766  0.708847  0.971622  1
  Ga  Ga5  1  0.340234  0.028378  0.291153  1
  Ga  Ga6  1  0.659766  0.971622  0.708847  1
  Ga  Ga7  1  0.143096  0.575120  0.138688  1
  Ga  Ga8  1  0.856904  0.424880  0.861312  1
  Ga  Ga9  1  0.143096  0.138688  0.575120  1
  Ga  Ga10  1  0.856904  0.861312  0.424880  1
  Ag  Ag11  1  0.500000  0.306802  0.693198  1
  Ag  Ag12  1  0.500000  0.693198  0.306802  1
  Ag  Ag13  1  0.000000  0.500000  0.500000  1
