# generated using pymatgen
data_Tm8ReB24RhW2
_symmetry_space_group_name_H-M   'P 1'
_cell_length_a   3.61598800
_cell_length_b   9.16140655
_cell_length_c   11.53405600
_cell_angle_alpha   90.15788588
_cell_angle_beta   90.00000000
_cell_angle_gamma   90.00000000
_symmetry_Int_Tables_number   1
_chemical_formula_structural   Tm8ReB24RhW2
_chemical_formula_sum   'Tm8 Re1 B24 Rh1 W2'
_cell_volume   382.09340654
_cell_formula_units_Z   1
loop_
 _symmetry_equiv_pos_site_id
 _symmetry_equiv_pos_as_xyz
  1  'x, y, z'
loop_
 _atom_site_type_symbol
 _atom_site_label
 _atom_site_symmetry_multiplicity
 _atom_site_fract_x
 _atom_site_fract_y
 _atom_site_fract_z
 _atom_site_occupancy
  Tm  Tm0  1  0.000000  0.317648  0.415024  1
  Tm  Tm1  1  0.000000  0.680468  0.590754  1
  Tm  Tm2  1  0.000000  0.824267  0.080726  1
  Tm  Tm3  1  0.000000  0.176770  0.912744  1
  Tm  Tm4  1  0.000000  0.941645  0.371593  1
  Tm  Tm5  1  0.000000  0.053282  0.628688  1
  Tm  Tm6  1  0.000000  0.444310  0.128765  1
  Tm  Tm7  1  0.000000  0.558595  0.872740  1
  Re  Re8  1  0.000000  0.860854  0.820363  1
  B  B9  1  0.500000  0.554359  0.433350  1
  B  B10  1  0.500000  0.449467  0.563537  1
  B  B11  1  0.500000  0.051220  0.063959  1
  B  B12  1  0.500000  0.947112  0.932155  1
  B  B13  1  0.500000  0.749089  0.420371  1
  B  B14  1  0.500000  0.247076  0.577925  1
  B  B15  1  0.500000  0.252568  0.078556  1
  B  B16  1  0.500000  0.752005  0.918961  1
  B  B17  1  0.500000  0.791224  0.264647  1
  B  B18  1  0.500000  0.204672  0.736024  1
  B  B19  1  0.500000  0.295678  0.237244  1
  B  B20  1  0.500000  0.708350  0.766080  1
  B  B21  1  0.500000  0.632246  0.183657  1
  B  B22  1  0.500000  0.369372  0.817305  1
  B  B23  1  0.500000  0.130796  0.318034  1
  B  B24  1  0.500000  0.868660  0.685329  1
  B  B25  1  0.500000  0.977215  0.212182  1
  B  B26  1  0.500000  0.017266  0.787108  1
  B  B27  1  0.500000  0.483419  0.288129  1
  B  B28  1  0.500000  0.523450  0.712792  1
  B  B29  1  0.500000  0.604003  0.029764  1
  B  B30  1  0.500000  0.399117  0.972436  1
  B  B31  1  0.500000  0.099375  0.471576  1
  B  B32  1  0.500000  0.895013  0.528328  1
  Rh  Rh33  1  0.000000  0.638489  0.321126  1
  W  W34  1  0.000000  0.362414  0.677960  1
  W  W35  1  0.000000  0.138507  0.180070  1
