# generated using pymatgen
data_Er3Tm17FeCo3Sb8
_symmetry_space_group_name_H-M   'P 1'
_cell_length_a   7.76552691
_cell_length_b   8.72272000
_cell_length_c   12.05743250
_cell_angle_alpha   90.00000000
_cell_angle_beta   90.12833816
_cell_angle_gamma   90.00000000
_symmetry_Int_Tables_number   1
_chemical_formula_structural   Er3Tm17FeCo3Sb8
_chemical_formula_sum   'Er3 Tm17 Fe1 Co3 Sb8'
_cell_volume   816.72643133
_cell_formula_units_Z   1
loop_
 _symmetry_equiv_pos_site_id
 _symmetry_equiv_pos_as_xyz
  1  'x, y, z'
loop_
 _atom_site_type_symbol
 _atom_site_label
 _atom_site_symmetry_multiplicity
 _atom_site_fract_x
 _atom_site_fract_y
 _atom_site_fract_z
 _atom_site_occupancy
  Er  Er0  1  0.123577  0.250000  0.191364  1
  Er  Er1  1  0.377025  0.250000  0.692185  1
  Er  Er2  1  0.877336  0.750000  0.808384  1
  Tm  Tm3  1  0.158176  0.750000  0.205452  1
  Tm  Tm4  1  0.656765  0.250000  0.295108  1
  Tm  Tm5  1  0.843212  0.250000  0.796412  1
  Tm  Tm6  1  0.343881  0.750000  0.704139  1
  Tm  Tm7  1  0.449970  0.750000  0.997369  1
  Tm  Tm8  1  0.947973  0.250000  0.502669  1
  Tm  Tm9  1  0.549045  0.250000  0.002549  1
  Tm  Tm10  1  0.050599  0.750000  0.496855  1
  Tm  Tm11  1  0.621502  0.750000  0.308300  1
  Tm  Tm12  1  0.823205  0.962610  0.065613  1
  Tm  Tm13  1  0.325529  0.033240  0.435693  1
  Tm  Tm14  1  0.176332  0.462582  0.934531  1
  Tm  Tm15  1  0.677176  0.539239  0.565142  1
  Tm  Tm16  1  0.176332  0.037418  0.934531  1
  Tm  Tm17  1  0.677176  0.960761  0.565142  1
  Tm  Tm18  1  0.823205  0.537390  0.065613  1
  Tm  Tm19  1  0.325529  0.466760  0.435693  1
  Fe  Fe20  1  0.428913  0.750000  0.489522  1
  Co  Co21  1  0.932553  0.250000  0.009184  1
  Co  Co22  1  0.568491  0.250000  0.508778  1
  Co  Co23  1  0.067840  0.750000  0.991341  1
  Sb  Sb24  1  0.930348  0.992145  0.327514  1
  Sb  Sb25  1  0.431267  0.007960  0.171941  1
  Sb  Sb26  1  0.068551  0.491558  0.671927  1
  Sb  Sb27  1  0.569164  0.507918  0.827832  1
  Sb  Sb28  1  0.068551  0.008442  0.671927  1
  Sb  Sb29  1  0.569164  0.992082  0.827832  1
  Sb  Sb30  1  0.930348  0.507855  0.327514  1
  Sb  Sb31  1  0.431267  0.492040  0.171941  1
