# generated using pymatgen
data_Ho9Er3InCo4Au
_symmetry_space_group_name_H-M   'P 1'
_cell_length_a   8.30345885
_cell_length_b   8.30219346
_cell_length_c   8.30345809
_cell_angle_alpha   111.22525977
_cell_angle_beta   110.47411341
_cell_angle_gamma   106.75497453
_symmetry_Int_Tables_number   1
_chemical_formula_structural   Ho9Er3InCo4Au
_chemical_formula_sum   'Ho9 Er3 In1 Co4 Au1'
_cell_volume   439.85309819
_cell_formula_units_Z   1
loop_
 _symmetry_equiv_pos_site_id
 _symmetry_equiv_pos_as_xyz
  1  'x, y, z'
loop_
 _atom_site_type_symbol
 _atom_site_label
 _atom_site_symmetry_multiplicity
 _atom_site_fract_x
 _atom_site_fract_y
 _atom_site_fract_z
 _atom_site_occupancy
  Ho  Ho0  1  0.684010  0.988015  0.304003  1
  Ho  Ho1  1  0.187136  0.292504  0.479327  1
  Ho  Ho2  1  0.813113  0.707416  0.521109  1
  Ho  Ho3  1  0.186306  0.707416  0.894303  1
  Ho  Ho4  1  0.813177  0.292504  0.105368  1
  Ho  Ho5  1  0.424610  0.220420  0.204367  1
  Ho  Ho6  1  0.574840  0.779452  0.795178  1
  Ho  Ho7  1  0.016052  0.220420  0.795810  1
  Ho  Ho8  1  0.984275  0.779452  0.204612  1
  Er  Er9  1  0.316240  0.620683  0.304443  1
  Er  Er10  1  0.683744  0.379285  0.695541  1
  Er  Er11  1  0.316130  0.011703  0.695575  1
  In  In12  1  0.499933  0.499927  0.999994  1
  Co  Co13  1  0.112996  0.612987  0.499992  1
  Co  Co14  1  0.887156  0.387301  0.500146  1
  Co  Co15  1  0.378348  0.999999  0.378757  1
  Co  Co16  1  0.621242  0.999999  0.621651  1
  Au  Au17  1  0.000693  0.000517  0.999824  1
