# generated using pymatgen
data_PuPa(PS3)4
_symmetry_space_group_name_H-M   'P 1'
_cell_length_a   7.08078200
_cell_length_b   7.08078200
_cell_length_c   9.74227300
_cell_angle_alpha   90.00000000
_cell_angle_beta   90.00000000
_cell_angle_gamma   90.00000000
_symmetry_Int_Tables_number   1
_chemical_formula_structural   PuPa(PS3)4
_chemical_formula_sum   'Pu1 Pa1 P4 S12'
_cell_volume   488.45295662
_cell_formula_units_Z   1
loop_
 _symmetry_equiv_pos_site_id
 _symmetry_equiv_pos_as_xyz
  1  'x, y, z'
loop_
 _atom_site_type_symbol
 _atom_site_label
 _atom_site_symmetry_multiplicity
 _atom_site_fract_x
 _atom_site_fract_y
 _atom_site_fract_z
 _atom_site_occupancy
  Pu  Pu0  1  0.000000  0.000000  0.250000  1
  Pa  Pa1  1  0.000000  0.000000  0.750000  1
  P  P2  1  0.057499  0.347621  0.499003  1
  P  P3  1  0.942501  0.652379  0.499003  1
  P  P4  1  0.347621  0.942501  0.000997  1
  P  P5  1  0.652379  0.057499  0.000997  1
  S  S6  1  0.205187  0.310990  0.676963  1
  S  S7  1  0.679538  0.209315  0.173115  1
  S  S8  1  0.172783  0.173671  0.993346  1
  S  S9  1  0.826329  0.172783  0.506654  1
  S  S10  1  0.173671  0.827217  0.506654  1
  S  S11  1  0.827217  0.826329  0.993346  1
  S  S12  1  0.209315  0.320462  0.326885  1
  S  S13  1  0.689010  0.205187  0.823037  1
  S  S14  1  0.310990  0.794813  0.823037  1
  S  S15  1  0.790685  0.679538  0.326885  1
  S  S16  1  0.794813  0.689010  0.676963  1
  S  S17  1  0.320462  0.790685  0.173115  1
