# generated using pymatgen
data_Tb2Th2B3C4
_symmetry_space_group_name_H-M   'P 1'
_cell_length_a   3.62854649
_cell_length_b   3.76668503
_cell_length_c   11.95146219
_cell_angle_alpha   93.78010573
_cell_angle_beta   97.27923649
_cell_angle_gamma   90.22903011
_symmetry_Int_Tables_number   1
_chemical_formula_structural   Tb2Th2B3C4
_chemical_formula_sum   'Tb2 Th2 B3 C4'
_cell_volume   161.66609330
_cell_formula_units_Z   1
loop_
 _symmetry_equiv_pos_site_id
 _symmetry_equiv_pos_as_xyz
  1  'x, y, z'
loop_
 _atom_site_type_symbol
 _atom_site_label
 _atom_site_symmetry_multiplicity
 _atom_site_fract_x
 _atom_site_fract_y
 _atom_site_fract_z
 _atom_site_occupancy
  Tb  Tb0  1  0.393956  0.573561  0.864103  1
  Tb  Tb1  1  0.606044  0.426439  0.135897  1
  Th  Th2  1  0.802881  0.031042  0.647549  1
  Th  Th3  1  0.197119  0.968958  0.352451  1
  B  B4  1  0.000000  0.000000  0.000000  1
  B  B5  1  0.248205  0.508701  0.539324  1
  B  B6  1  0.751795  0.491299  0.460676  1
  C  C7  1  0.896314  0.077398  0.881011  1
  C  C8  1  0.103686  0.922602  0.118989  1
  C  C9  1  0.312496  0.535345  0.671137  1
  C  C10  1  0.687504  0.464655  0.328863  1
