# generated using pymatgen
data_OsBrF4
_symmetry_space_group_name_H-M   'P 1'
_cell_length_a   9.72159500
_cell_length_b   6.98761011
_cell_length_c   9.80893300
_cell_angle_alpha   46.71953627
_cell_angle_beta   89.99976425
_cell_angle_gamma   90.00004337
_symmetry_Int_Tables_number   1
_chemical_formula_structural   OsBrF4
_chemical_formula_sum   'Os4 Br4 F16'
_cell_volume   485.09103660
_cell_formula_units_Z   4
loop_
 _symmetry_equiv_pos_site_id
 _symmetry_equiv_pos_as_xyz
  1  'x, y, z'
loop_
 _atom_site_type_symbol
 _atom_site_label
 _atom_site_symmetry_multiplicity
 _atom_site_fract_x
 _atom_site_fract_y
 _atom_site_fract_z
 _atom_site_occupancy
  Os  Os0  1  0.877050  0.804418  0.153664  1
  Os  Os1  1  0.622953  0.804423  0.653661  1
  Os  Os2  1  0.377047  0.195577  0.346339  1
  Os  Os3  1  0.122950  0.195582  0.846336  1
  Br  Br4  1  0.362335  0.176980  0.852236  1
  Br  Br5  1  0.862335  0.823031  0.647756  1
  Br  Br6  1  0.137665  0.176969  0.352244  1
  Br  Br7  1  0.637665  0.823020  0.147764  1
  F  F8  1  0.096298  0.845883  0.116130  1
  F  F9  1  0.109446  0.521128  0.598288  1
  F  F10  1  0.886293  0.633459  0.065046  1
  F  F11  1  0.609448  0.478870  0.901708  1
  F  F12  1  0.613709  0.633462  0.565045  1
  F  F13  1  0.890554  0.478872  0.401712  1
  F  F14  1  0.605453  0.989342  0.730867  1
  F  F15  1  0.403702  0.845880  0.616131  1
  F  F16  1  0.390552  0.521130  0.098292  1
  F  F17  1  0.903702  0.154117  0.883870  1
  F  F18  1  0.394547  0.010658  0.269133  1
  F  F19  1  0.596298  0.154120  0.383869  1
  F  F20  1  0.113707  0.366541  0.934954  1
  F  F21  1  0.386291  0.366538  0.434955  1
  F  F22  1  0.894549  0.989345  0.230864  1
  F  F23  1  0.105451  0.010655  0.769136  1
