# generated using pymatgen
data_Pr8Ho8Sc4Si15As
_symmetry_space_group_name_H-M   'P 1'
_cell_length_a   7.43441528
_cell_length_b   7.73911856
_cell_length_c   14.67273335
_cell_angle_alpha   90.18274696
_cell_angle_beta   88.86353442
_cell_angle_gamma   90.31938195
_symmetry_Int_Tables_number   1
_chemical_formula_structural   Pr8Ho8Sc4Si15As
_chemical_formula_sum   'Pr8 Ho8 Sc4 Si15 As1'
_cell_volume   844.02458449
_cell_formula_units_Z   1
loop_
 _symmetry_equiv_pos_site_id
 _symmetry_equiv_pos_as_xyz
  1  'x, y, z'
loop_
 _atom_site_type_symbol
 _atom_site_label
 _atom_site_symmetry_multiplicity
 _atom_site_fract_x
 _atom_site_fract_y
 _atom_site_fract_z
 _atom_site_occupancy
  Pr  Pr0  1  0.015856  0.181698  0.402885  1
  Pr  Pr1  1  0.511546  0.319983  0.399706  1
  Pr  Pr2  1  0.479391  0.678997  0.899961  1
  Pr  Pr3  1  0.491819  0.677743  0.599258  1
  Pr  Pr4  1  0.983411  0.818268  0.596568  1
  Pr  Pr5  1  0.978559  0.820229  0.900322  1
  Pr  Pr6  1  0.521588  0.321896  0.100373  1
  Pr  Pr7  1  0.022005  0.180617  0.099731  1
  Ho  Ho8  1  0.328936  0.172840  0.627009  1
  Ho  Ho9  1  0.672282  0.826617  0.373121  1
  Ho  Ho10  1  0.167530  0.671963  0.379293  1
  Ho  Ho11  1  0.822905  0.322250  0.874879  1
  Ho  Ho12  1  0.829898  0.327599  0.620690  1
  Ho  Ho13  1  0.320153  0.175812  0.874732  1
  Ho  Ho14  1  0.177469  0.677373  0.124445  1
  Ho  Ho15  1  0.680394  0.824610  0.124871  1
  Sc  Sc16  1  0.655270  0.991873  0.748993  1
  Sc  Sc17  1  0.842162  0.491721  0.254739  1
  Sc  Sc18  1  0.345136  0.006678  0.251200  1
  Sc  Sc19  1  0.157693  0.510513  0.749104  1
  Si  Si20  1  0.279675  0.871516  0.749748  1
  Si  Si21  1  0.469846  0.612615  0.248531  1
  Si  Si22  1  0.021310  0.107404  0.748139  1
  Si  Si23  1  0.529406  0.388704  0.751017  1
  Si  Si24  1  0.979645  0.891744  0.250956  1
  Si  Si25  1  0.721086  0.128376  0.249742  1
  Si  Si26  1  0.854623  0.531959  0.040463  1
  Si  Si27  1  0.356048  0.969353  0.041035  1
  Si  Si28  1  0.144984  0.468958  0.958471  1
  Si  Si29  1  0.651045  0.033417  0.539604  1
  Si  Si30  1  0.348537  0.965370  0.461382  1
  Si  Si31  1  0.818828  0.535136  0.453000  1
  Si  Si32  1  0.781834  0.624297  0.749274  1
  Si  Si33  1  0.218772  0.376023  0.250670  1
  Si  Si34  1  0.644046  0.031547  0.958841  1
  As  As35  1  0.176312  0.464304  0.547246  1
