# generated using pymatgen
data_Lu(Ga3Pt)3
_symmetry_space_group_name_H-M   'P 1'
_cell_length_a   10.44833566
_cell_length_b   10.44833575
_cell_length_c   10.44833749
_cell_angle_alpha   42.48603907
_cell_angle_beta   42.48604088
_cell_angle_gamma   42.48603976
_symmetry_Int_Tables_number   1
_chemical_formula_structural   Lu(Ga3Pt)3
_chemical_formula_sum   'Lu2 Ga18 Pt6'
_cell_volume   471.13375682
_cell_formula_units_Z   2
loop_
 _symmetry_equiv_pos_site_id
 _symmetry_equiv_pos_as_xyz
  1  'x, y, z'
loop_
 _atom_site_type_symbol
 _atom_site_label
 _atom_site_symmetry_multiplicity
 _atom_site_fract_x
 _atom_site_fract_y
 _atom_site_fract_z
 _atom_site_occupancy
  Lu  Lu0  1  0.166883  0.166883  0.166883  1
  Lu  Lu1  1  0.833117  0.833117  0.833117  1
  Ga  Ga2  1  0.107723  0.439658  0.771446  1
  Ga  Ga3  1  0.439658  0.771446  0.107723  1
  Ga  Ga4  1  0.560342  0.892277  0.228554  1
  Ga  Ga5  1  0.950930  0.950930  0.950930  1
  Ga  Ga6  1  0.049070  0.049070  0.049070  1
  Ga  Ga7  1  0.295889  0.704111  0.500000  1
  Ga  Ga8  1  0.892277  0.228554  0.560342  1
  Ga  Ga9  1  0.384358  0.384358  0.384358  1
  Ga  Ga10  1  0.500000  0.295889  0.704111  1
  Ga  Ga11  1  0.228554  0.560342  0.892277  1
  Ga  Ga12  1  0.714959  0.714959  0.714959  1
  Ga  Ga13  1  0.615642  0.615642  0.615642  1
  Ga  Ga14  1  0.334204  0.000000  0.665796  1
  Ga  Ga15  1  0.704111  0.500000  0.295889  1
  Ga  Ga16  1  0.665796  0.334204  0.000000  1
  Ga  Ga17  1  0.285041  0.285041  0.285041  1
  Ga  Ga18  1  0.000000  0.665796  0.334204  1
  Ga  Ga19  1  0.771446  0.107723  0.439658  1
  Pt  Pt20  1  0.418897  0.078389  0.760302  1
  Pt  Pt21  1  0.581103  0.239698  0.921611  1
  Pt  Pt22  1  0.078389  0.760302  0.418897  1
  Pt  Pt23  1  0.760302  0.418897  0.078389  1
  Pt  Pt24  1  0.921611  0.581103  0.239698  1
  Pt  Pt25  1  0.239698  0.921611  0.581103  1
