# generated using pymatgen
data_Pr5SnRuO12
_symmetry_space_group_name_H-M   'P 1'
_cell_length_a   7.18037563
_cell_length_b   7.18037582
_cell_length_c   7.68421931
_cell_angle_alpha   74.44907025
_cell_angle_beta   74.44907233
_cell_angle_gamma   50.91450107
_symmetry_Int_Tables_number   1
_chemical_formula_structural   Pr5SnRuO12
_chemical_formula_sum   'Pr5 Sn1 Ru1 O12'
_cell_volume   293.64961983
_cell_formula_units_Z   1
loop_
 _symmetry_equiv_pos_site_id
 _symmetry_equiv_pos_as_xyz
  1  'x, y, z'
loop_
 _atom_site_type_symbol
 _atom_site_label
 _atom_site_symmetry_multiplicity
 _atom_site_fract_x
 _atom_site_fract_y
 _atom_site_fract_z
 _atom_site_occupancy
  Pr  Pr0  1  0.299719  0.306223  0.359827  1
  Pr  Pr1  1  0.693777  0.700281  0.640173  1
  Pr  Pr2  1  0.690767  0.698651  0.166812  1
  Pr  Pr3  1  0.301349  0.309233  0.833188  1
  Pr  Pr4  1  0.006025  0.993975  0.500000  1
  Sn  Sn5  1  0.761717  0.238283  0.000000  1
  Ru  Ru6  1  0.248664  0.751336  0.000000  1
  O  O7  1  0.094059  0.597063  0.576290  1
  O  O8  1  0.017074  0.981197  0.180077  1
  O  O9  1  0.402937  0.905941  0.423710  1
  O  O10  1  0.489888  0.510912  0.178099  1
  O  O11  1  0.100403  0.581800  0.079533  1
  O  O12  1  0.903475  0.403964  0.422981  1
  O  O13  1  0.018803  0.982926  0.819923  1
  O  O14  1  0.596036  0.096524  0.577019  1
  O  O15  1  0.489088  0.510112  0.821901  1
  O  O16  1  0.570524  0.102505  0.080751  1
  O  O17  1  0.418200  0.899597  0.920467  1
  O  O18  1  0.897495  0.429476  0.919249  1
