# generated using pymatgen
data_Ba2DyC2(O2F)3
_symmetry_space_group_name_H-M   'P 1'
_cell_length_a   9.58950900
_cell_length_b   7.05762900
_cell_length_c   11.90665200
_cell_angle_alpha   90.00000000
_cell_angle_beta   90.00000000
_cell_angle_gamma   90.00000000
_symmetry_Int_Tables_number   1
_chemical_formula_structural   Ba2DyC2(O2F)3
_chemical_formula_sum   'Ba8 Dy4 C8 O24 F12'
_cell_volume   805.83264411
_cell_formula_units_Z   4
loop_
 _symmetry_equiv_pos_site_id
 _symmetry_equiv_pos_as_xyz
  1  'x, y, z'
loop_
 _atom_site_type_symbol
 _atom_site_label
 _atom_site_symmetry_multiplicity
 _atom_site_fract_x
 _atom_site_fract_y
 _atom_site_fract_z
 _atom_site_occupancy
  Ba  Ba0  1  0.380514  0.238100  0.071496  1
  Ba  Ba1  1  0.119486  0.738100  0.071496  1
  Ba  Ba2  1  0.619486  0.238100  0.428505  1
  Ba  Ba3  1  0.880514  0.738100  0.428505  1
  Ba  Ba4  1  0.119486  0.261900  0.571496  1
  Ba  Ba5  1  0.380514  0.761900  0.571496  1
  Ba  Ba6  1  0.880514  0.261900  0.928504  1
  Ba  Ba7  1  0.619486  0.761900  0.928504  1
  Dy  Dy8  1  0.000000  0.270628  0.250000  1
  Dy  Dy9  1  0.500000  0.770628  0.250000  1
  Dy  Dy10  1  0.500000  0.229372  0.750000  1
  Dy  Dy11  1  0.000000  0.729372  0.750000  1
  C  C12  1  0.694420  0.479531  0.179466  1
  C  C13  1  0.805581  0.979531  0.179466  1
  C  C14  1  0.305581  0.479531  0.320533  1
  C  C15  1  0.194419  0.979531  0.320533  1
  C  C16  1  0.805581  0.020469  0.679467  1
  C  C17  1  0.694420  0.520469  0.679467  1
  C  C18  1  0.194419  0.020469  0.820533  1
  C  C19  1  0.305581  0.520469  0.820533  1
  O  O20  1  0.909693  0.020467  0.113019  1
  O  O21  1  0.590307  0.520467  0.113019  1
  O  O22  1  0.798097  0.380506  0.145358  1
  O  O23  1  0.701903  0.880506  0.145358  1
  O  O24  1  0.186086  0.043707  0.217433  1
  O  O25  1  0.313915  0.543707  0.217433  1
  O  O26  1  0.813915  0.043707  0.282566  1
  O  O27  1  0.686086  0.543707  0.282566  1
  O  O28  1  0.201903  0.380506  0.354642  1
  O  O29  1  0.298097  0.880506  0.354642  1
  O  O30  1  0.090307  0.020467  0.386981  1
  O  O31  1  0.409693  0.520467  0.386981  1
  O  O32  1  0.590307  0.479533  0.613019  1
  O  O33  1  0.909693  0.979533  0.613019  1
  O  O34  1  0.701903  0.119494  0.645358  1
  O  O35  1  0.798097  0.619494  0.645358  1
  O  O36  1  0.313915  0.456293  0.717434  1
  O  O37  1  0.186086  0.956293  0.717434  1
  O  O38  1  0.686086  0.456293  0.782567  1
  O  O39  1  0.813915  0.956293  0.782567  1
  O  O40  1  0.298097  0.119494  0.854642  1
  O  O41  1  0.201903  0.619494  0.854642  1
  O  O42  1  0.409693  0.479533  0.886981  1
  O  O43  1  0.090307  0.979533  0.886981  1
  F  F44  1  0.093625  0.348943  0.079383  1
  F  F45  1  0.406375  0.848941  0.079383  1
  F  F46  1  0.500000  0.096938  0.250000  1
  F  F47  1  0.000000  0.596938  0.250000  1
  F  F48  1  0.906375  0.348943  0.420617  1
  F  F49  1  0.593625  0.848941  0.420617  1
  F  F50  1  0.406375  0.151057  0.579383  1
  F  F51  1  0.093625  0.651057  0.579383  1
  F  F52  1  0.000000  0.403060  0.750000  1
  F  F53  1  0.500000  0.903060  0.750000  1
  F  F54  1  0.593625  0.151057  0.920617  1
  F  F55  1  0.906375  0.651057  0.920617  1
