# generated using pymatgen
data_Pr7SmSc11Si16Ag
_symmetry_space_group_name_H-M   'P 1'
_cell_length_a   7.18952948
_cell_length_b   7.54855278
_cell_length_c   14.25170261
_cell_angle_alpha   90.06427314
_cell_angle_beta   90.02600453
_cell_angle_gamma   90.16454294
_symmetry_Int_Tables_number   1
_chemical_formula_structural   Pr7SmSc11Si16Ag
_chemical_formula_sum   'Pr7 Sm1 Sc11 Si16 Ag1'
_cell_volume   773.44387880
_cell_formula_units_Z   1
loop_
 _symmetry_equiv_pos_site_id
 _symmetry_equiv_pos_as_xyz
  1  'x, y, z'
loop_
 _atom_site_type_symbol
 _atom_site_label
 _atom_site_symmetry_multiplicity
 _atom_site_fract_x
 _atom_site_fract_y
 _atom_site_fract_z
 _atom_site_occupancy
  Pr  Pr0  1  0.511572  0.329223  0.402111  1
  Pr  Pr1  1  0.490859  0.681559  0.898770  1
  Pr  Pr2  1  0.490438  0.681579  0.600759  1
  Pr  Pr3  1  0.980403  0.827251  0.601087  1
  Pr  Pr4  1  0.980287  0.827515  0.898357  1
  Pr  Pr5  1  0.511279  0.329331  0.098231  1
  Pr  Pr6  1  0.012382  0.173218  0.097507  1
  Sm  Sm7  1  0.012138  0.174743  0.401569  1
  Sc  Sc8  1  0.334666  0.172632  0.625152  1
  Sc  Sc9  1  0.672027  0.822513  0.374296  1
  Sc  Sc10  1  0.171245  0.677240  0.375652  1
  Sc  Sc11  1  0.827093  0.315502  0.874539  1
  Sc  Sc12  1  0.827844  0.315041  0.625279  1
  Sc  Sc13  1  0.840916  0.501554  0.250439  1
  Sc  Sc14  1  0.340067  0.998606  0.250388  1
  Sc  Sc15  1  0.335313  0.172664  0.874601  1
  Sc  Sc16  1  0.171455  0.676866  0.124790  1
  Sc  Sc17  1  0.672014  0.822293  0.126291  1
  Sc  Sc18  1  0.158180  0.494810  0.749888  1
  Si  Si19  1  0.278413  0.883680  0.749876  1
  Si  Si20  1  0.467177  0.623812  0.250185  1
  Si  Si21  1  0.042927  0.124074  0.749922  1
  Si  Si22  1  0.531327  0.385306  0.749840  1
  Si  Si23  1  0.152491  0.463104  0.539984  1
  Si  Si24  1  0.967604  0.876023  0.250781  1
  Si  Si25  1  0.712168  0.117509  0.251044  1
  Si  Si26  1  0.849925  0.536656  0.037935  1
  Si  Si27  1  0.349197  0.963205  0.039324  1
  Si  Si28  1  0.152849  0.465083  0.959285  1
  Si  Si29  1  0.654161  0.041452  0.531302  1
  Si  Si30  1  0.346710  0.964721  0.460234  1
  Si  Si31  1  0.850745  0.534479  0.461526  1
  Si  Si32  1  0.791256  0.595546  0.749840  1
  Si  Si33  1  0.209016  0.383581  0.250880  1
  Si  Si34  1  0.653207  0.041031  0.968384  1
  Ag  Ag35  1  0.650650  0.006601  0.749954  1
