# generated using pymatgen
data_Pr4Ho4S11Cl
_symmetry_space_group_name_H-M   'P 1'
_cell_length_a   3.98162100
_cell_length_b   10.59256300
_cell_length_c   10.96154300
_cell_angle_alpha   90.00052468
_cell_angle_beta   90.00000000
_cell_angle_gamma   90.00000000
_symmetry_Int_Tables_number   1
_chemical_formula_structural   Pr4Ho4S11Cl
_chemical_formula_sum   'Pr4 Ho4 S11 Cl1'
_cell_volume   462.30933819
_cell_formula_units_Z   1
loop_
 _symmetry_equiv_pos_site_id
 _symmetry_equiv_pos_as_xyz
  1  'x, y, z'
loop_
 _atom_site_type_symbol
 _atom_site_label
 _atom_site_symmetry_multiplicity
 _atom_site_fract_x
 _atom_site_fract_y
 _atom_site_fract_z
 _atom_site_occupancy
  Pr  Pr0  1  0.250000  0.988198  0.806621  1
  Pr  Pr1  1  0.750000  0.997867  0.190833  1
  Pr  Pr2  1  0.750000  0.516627  0.692360  1
  Pr  Pr3  1  0.250000  0.502653  0.309426  1
  Ho  Ho4  1  0.250000  0.182472  0.481656  1
  Ho  Ho5  1  0.750000  0.817593  0.506138  1
  Ho  Ho6  1  0.750000  0.683292  0.012509  1
  Ho  Ho7  1  0.250000  0.309457  0.004958  1
  S  S8  1  0.750000  0.704329  0.269912  1
  S  S9  1  0.750000  0.791213  0.768633  1
  S  S10  1  0.250000  0.202098  0.230847  1
  S  S11  1  0.250000  0.946749  0.383794  1
  S  S12  1  0.750000  0.056922  0.614939  1
  S  S13  1  0.750000  0.445462  0.118413  1
  S  S14  1  0.250000  0.545947  0.889861  1
  S  S15  1  0.250000  0.862351  0.042210  1
  S  S16  1  0.750000  0.137586  0.949643  1
  S  S17  1  0.750000  0.365718  0.461401  1
  S  S18  1  0.250000  0.639841  0.543465  1
  Cl  Cl19  1  0.250000  0.303627  0.722383  1
