# generated using pymatgen
data_Tm4Tc5Ir2Os
_symmetry_space_group_name_H-M   'P 1'
_cell_length_a   5.24010170
_cell_length_b   5.24010165
_cell_length_c   9.17293500
_cell_angle_alpha   90.00000000
_cell_angle_beta   90.00000000
_cell_angle_gamma   120.80934764
_symmetry_Int_Tables_number   1
_chemical_formula_structural   Tm4Tc5Ir2Os
_chemical_formula_sum   'Tm4 Tc5 Ir2 Os1'
_cell_volume   216.33081488
_cell_formula_units_Z   1
loop_
 _symmetry_equiv_pos_site_id
 _symmetry_equiv_pos_as_xyz
  1  'x, y, z'
loop_
 _atom_site_type_symbol
 _atom_site_label
 _atom_site_symmetry_multiplicity
 _atom_site_fract_x
 _atom_site_fract_y
 _atom_site_fract_z
 _atom_site_occupancy
  Tm  Tm0  1  0.333942  0.666058  0.433742  1
  Tm  Tm1  1  0.666505  0.333495  0.565448  1
  Tm  Tm2  1  0.666505  0.333495  0.934552  1
  Tm  Tm3  1  0.333942  0.666058  0.066258  1
  Tc  Tc4  1  0.829229  0.659902  0.250000  1
  Tc  Tc5  1  0.340098  0.170771  0.250000  1
  Tc  Tc6  1  0.169301  0.830699  0.750000  1
  Tc  Tc7  1  0.170694  0.341005  0.750000  1
  Tc  Tc8  1  0.658995  0.829306  0.750000  1
  Ir  Ir9  1  0.000932  0.999068  0.499066  1
  Ir  Ir10  1  0.000932  0.999068  0.000934  1
  Os  Os11  1  0.828924  0.171076  0.250000  1
