# generated using pymatgen
data_LiY2ZnPd2
_symmetry_space_group_name_H-M   'P 1'
_cell_length_a   4.06257400
_cell_length_b   7.09970100
_cell_length_c   8.30857800
_cell_angle_alpha   90.00000000
_cell_angle_beta   90.00000000
_cell_angle_gamma   90.00000000
_symmetry_Int_Tables_number   1
_chemical_formula_structural   LiY2ZnPd2
_chemical_formula_sum   'Li2 Y4 Zn2 Pd4'
_cell_volume   239.64481950
_cell_formula_units_Z   2
loop_
 _symmetry_equiv_pos_site_id
 _symmetry_equiv_pos_as_xyz
  1  'x, y, z'
loop_
 _atom_site_type_symbol
 _atom_site_label
 _atom_site_symmetry_multiplicity
 _atom_site_fract_x
 _atom_site_fract_y
 _atom_site_fract_z
 _atom_site_occupancy
  Li  Li0  1  0.250000  0.630007  0.560488  1
  Li  Li1  1  0.250000  0.130007  0.939512  1
  Y  Y2  1  0.250000  0.045793  0.313101  1
  Y  Y3  1  0.250000  0.545793  0.186899  1
  Y  Y4  1  0.750000  0.958206  0.688195  1
  Y  Y5  1  0.750000  0.458206  0.811805  1
  Zn  Zn6  1  0.750000  0.367309  0.435893  1
  Zn  Zn7  1  0.750000  0.867309  0.064107  1
  Pd  Pd8  1  0.250000  0.250092  0.617594  1
  Pd  Pd9  1  0.250000  0.750092  0.882406  1
  Pd  Pd10  1  0.750000  0.748594  0.382163  1
  Pd  Pd11  1  0.750000  0.248594  0.117837  1
