# generated using pymatgen
data_Hf5Sn2BSb
_symmetry_space_group_name_H-M   'P 1'
_cell_length_a   8.47403993
_cell_length_b   8.48048225
_cell_length_c   5.74162400
_cell_angle_alpha   90.00000000
_cell_angle_beta   90.00000000
_cell_angle_gamma   120.02515572
_symmetry_Int_Tables_number   1
_chemical_formula_structural   Hf5Sn2BSb
_chemical_formula_sum   'Hf10 Sn4 B2 Sb2'
_cell_volume   357.24510961
_cell_formula_units_Z   2
loop_
 _symmetry_equiv_pos_site_id
 _symmetry_equiv_pos_as_xyz
  1  'x, y, z'
loop_
 _atom_site_type_symbol
 _atom_site_label
 _atom_site_symmetry_multiplicity
 _atom_site_fract_x
 _atom_site_fract_y
 _atom_site_fract_z
 _atom_site_occupancy
  Hf  Hf0  1  0.665283  0.332049  0.999723  1
  Hf  Hf1  1  0.334717  0.666767  0.999723  1
  Hf  Hf2  1  0.334717  0.666767  0.500277  1
  Hf  Hf3  1  0.665283  0.332049  0.500277  1
  Hf  Hf4  1  0.770767  0.771039  0.750000  1
  Hf  Hf5  1  0.229233  0.000272  0.750000  1
  Hf  Hf6  1  0.000000  0.229194  0.750000  1
  Hf  Hf7  1  0.230413  0.229911  0.250000  1
  Hf  Hf8  1  0.769587  0.999499  0.250000  1
  Hf  Hf9  1  0.000000  0.771231  0.250000  1
  Sn  Sn10  1  0.000000  0.599979  0.750000  1
  Sn  Sn11  1  0.601314  0.600718  0.250000  1
  Sn  Sn12  1  0.398686  0.999404  0.250000  1
  Sn  Sn13  1  0.000000  0.400041  0.250000  1
  B  B14  1  0.000000  0.000253  0.000645  1
  B  B15  1  0.000000  0.000253  0.499355  1
  Sb  Sb16  1  0.400737  0.400655  0.750000  1
  Sb  Sb17  1  0.599263  0.999918  0.750000  1
