# generated using pymatgen
data_Li12La11Nd(TeO6)8
_symmetry_space_group_name_H-M   'P 1'
_cell_length_a   11.12646509
_cell_length_b   11.11694211
_cell_length_c   11.12646302
_cell_angle_alpha   109.49180853
_cell_angle_beta   109.46497752
_cell_angle_gamma   109.49181688
_symmetry_Int_Tables_number   1
_chemical_formula_structural   Li12La11Nd(TeO6)8
_chemical_formula_sum   'Li12 La11 Nd1 Te8 O48'
_cell_volume   1058.98632173
_cell_formula_units_Z   1
loop_
 _symmetry_equiv_pos_site_id
 _symmetry_equiv_pos_as_xyz
  1  'x, y, z'
loop_
 _atom_site_type_symbol
 _atom_site_label
 _atom_site_symmetry_multiplicity
 _atom_site_fract_x
 _atom_site_fract_y
 _atom_site_fract_z
 _atom_site_occupancy
  Li  Li0  1  0.875024  0.750000  0.125024  1
  Li  Li1  1  0.749860  0.374937  0.125007  1
  Li  Li2  1  0.125075  0.374937  0.249931  1
  Li  Li3  1  0.624977  0.874980  0.249995  1
  Li  Li4  1  0.250070  0.125064  0.374925  1
  Li  Li5  1  0.624677  0.250000  0.374678  1
  Li  Li6  1  0.374975  0.750001  0.624975  1
  Li  Li7  1  0.750003  0.874980  0.624986  1
  Li  Li8  1  0.374994  0.125062  0.750137  1
  Li  Li9  1  0.875014  0.625021  0.749997  1
  Li  Li10  1  0.250006  0.625020  0.875023  1
  Li  Li11  1  0.125319  0.250001  0.875320  1
  La  La12  1  0.250202  0.875499  0.125045  1
  La  La13  1  0.875059  0.125123  0.250061  1
  La  La14  1  0.374961  0.624497  0.249804  1
  La  La15  1  0.749533  0.624488  0.374694  1
  La  La16  1  0.125005  0.749997  0.374999  1
  La  La17  1  0.875002  0.250005  0.625005  1
  La  La18  1  0.249926  0.374876  0.624936  1
  La  La19  1  0.624947  0.374882  0.749938  1
  La  La20  1  0.125305  0.875500  0.750460  1
  La  La21  1  0.750068  0.125125  0.875057  1
  La  La22  1  0.624999  0.750000  0.874994  1
  Nd  Nd23  1  0.375001  0.250001  0.125001  1
  Te  Te24  1  0.001053  0.000912  0.000572  1
  Te  Te25  1  0.499860  0.000913  0.000341  1
  Te  Te26  1  0.000067  0.500068  0.000036  1
  Te  Te27  1  0.499660  0.499087  0.000140  1
  Te  Te28  1  0.999968  0.999932  0.499999  1
  Te  Te29  1  0.499964  0.999933  0.499933  1
  Te  Te30  1  0.999998  0.500065  0.500031  1
  Te  Te31  1  0.499427  0.499087  0.498948  1
  O  O32  1  0.191102  0.614939  0.021225  1
  O  O33  1  0.330708  0.404238  0.022066  1
  O  O34  1  0.885522  0.906446  0.076118  1
  O  O35  1  0.691265  0.170005  0.076107  1
  O  O36  1  0.614622  0.924331  0.093933  1
  O  O37  1  0.978742  0.170006  0.093900  1
  O  O38  1  0.592267  0.422212  0.115164  1
  O  O39  1  0.021299  0.691169  0.115007  1
  O  O40  1  0.192952  0.077788  0.170055  1
  O  O41  1  0.477934  0.095763  0.169292  1
  O  O42  1  0.114990  0.521241  0.191007  1
  O  O43  1  0.575920  0.669562  0.190893  1
  O  O44  1  0.478775  0.885061  0.308899  1
  O  O45  1  0.329945  0.422212  0.307048  1
  O  O46  1  0.906250  0.521241  0.330234  1
  O  O47  1  0.923838  0.808833  0.330131  1
  O  O48  1  0.308994  0.978759  0.385010  1
  O  O49  1  0.573530  0.404238  0.382172  1
  O  O50  1  0.076083  0.385066  0.406237  1
  O  O51  1  0.830216  0.021193  0.406234  1
  O  O52  1  0.093761  0.114933  0.423918  1
  O  O53  1  0.830124  0.308883  0.423905  1
  O  O54  1  0.593642  0.669563  0.478670  1
  O  O55  1  0.384994  0.808832  0.478701  1
  O  O56  1  0.406102  0.329996  0.521258  1
  O  O57  1  0.615022  0.191116  0.521242  1
  O  O58  1  0.169868  0.691166  0.576161  1
  O  O59  1  0.906287  0.885063  0.576163  1
  O  O60  1  0.923837  0.614937  0.593713  1
  O  O61  1  0.169766  0.978759  0.593749  1
  O  O62  1  0.690977  0.021193  0.614960  1
  O  O63  1  0.423883  0.593554  0.614478  1
  O  O64  1  0.093767  0.478807  0.669784  1
  O  O65  1  0.076095  0.191118  0.669876  1
  O  O66  1  0.521171  0.114933  0.691016  1
  O  O67  1  0.669603  0.575671  0.690292  1
  O  O68  1  0.423894  0.329997  0.808737  1
  O  O69  1  0.885040  0.478807  0.809023  1
  O  O70  1  0.809708  0.924330  0.830397  1
  O  O71  1  0.520923  0.906446  0.830328  1
  O  O72  1  0.406068  0.575669  0.885379  1
  O  O73  1  0.978759  0.308883  0.884978  1
  O  O74  1  0.021330  0.830437  0.906358  1
  O  O75  1  0.384836  0.077788  0.907733  1
  O  O76  1  0.309107  0.830438  0.924080  1
  O  O77  1  0.117829  0.095762  0.926471  1
  O  O78  1  0.669671  0.593554  0.979077  1
  O  O79  1  0.808984  0.385067  0.978829  1
