# generated using pymatgen
data_LiNd8CdCoIr
_symmetry_space_group_name_H-M   'P 1'
_cell_length_a   9.89999624
_cell_length_b   9.89999612
_cell_length_c   9.82812700
_cell_angle_alpha   60.23985017
_cell_angle_beta   60.23985055
_cell_angle_gamma   60.51818434
_symmetry_Int_Tables_number   1
_chemical_formula_structural   LiNd8CdCoIr
_chemical_formula_sum   'Li2 Nd16 Cd2 Co2 Ir2'
_cell_volume   686.23853504
_cell_formula_units_Z   2
loop_
 _symmetry_equiv_pos_site_id
 _symmetry_equiv_pos_as_xyz
  1  'x, y, z'
loop_
 _atom_site_type_symbol
 _atom_site_label
 _atom_site_symmetry_multiplicity
 _atom_site_fract_x
 _atom_site_fract_y
 _atom_site_fract_z
 _atom_site_occupancy
  Li  Li0  1  0.571209  0.571209  0.576053  1
  Li  Li1  1  0.571209  0.571209  0.281529  1
  Nd  Nd2  1  0.344398  0.344398  0.354242  1
  Nd  Nd3  1  0.344398  0.344398  0.956963  1
  Nd  Nd4  1  0.339519  0.964597  0.347941  1
  Nd  Nd5  1  0.964597  0.339519  0.347941  1
  Nd  Nd6  1  0.817651  0.189389  0.187579  1
  Nd  Nd7  1  0.189389  0.817651  0.805381  1
  Nd  Nd8  1  0.189389  0.817651  0.187579  1
  Nd  Nd9  1  0.817651  0.189389  0.805381  1
  Nd  Nd10  1  0.191306  0.191306  0.808694  1
  Nd  Nd11  1  0.814787  0.814787  0.185213  1
  Nd  Nd12  1  0.937744  0.563971  0.560087  1
  Nd  Nd13  1  0.563971  0.937744  0.938197  1
  Nd  Nd14  1  0.563971  0.937744  0.560087  1
  Nd  Nd15  1  0.937744  0.563971  0.938197  1
  Nd  Nd16  1  0.560239  0.560239  0.939761  1
  Nd  Nd17  1  0.936477  0.936477  0.563523  1
  Cd  Cd18  1  0.583801  0.256991  0.579604  1
  Cd  Cd19  1  0.256991  0.583801  0.579604  1
  Co  Co20  1  0.141650  0.141650  0.140674  1
  Co  Co21  1  0.141650  0.141650  0.576024  1
  Ir  Ir22  1  0.143404  0.576853  0.139871  1
  Ir  Ir23  1  0.576853  0.143404  0.139871  1
