# generated using pymatgen
data_K2Si3WO9
_symmetry_space_group_name_H-M   'P 1'
_cell_length_a   6.95827500
_cell_length_b   6.95827370
_cell_length_c   10.30842100
_cell_angle_alpha   90.00000000
_cell_angle_beta   90.00000000
_cell_angle_gamma   119.99998829
_symmetry_Int_Tables_number   1
_chemical_formula_structural   K2Si3WO9
_chemical_formula_sum   'K4 Si6 W2 O18'
_cell_volume   432.24096682
_cell_formula_units_Z   2
loop_
 _symmetry_equiv_pos_site_id
 _symmetry_equiv_pos_as_xyz
  1  'x, y, z'
loop_
 _atom_site_type_symbol
 _atom_site_label
 _atom_site_symmetry_multiplicity
 _atom_site_fract_x
 _atom_site_fract_y
 _atom_site_fract_z
 _atom_site_occupancy
  K  K0  1  0.333333  0.666667  0.057125  1
  K  K1  1  0.666667  0.333333  0.557125  1
  K  K2  1  0.333333  0.666667  0.442875  1
  K  K3  1  0.666667  0.333333  0.942875  1
  Si  Si4  1  0.616957  0.745020  0.750000  1
  Si  Si5  1  0.871937  0.616957  0.250000  1
  Si  Si6  1  0.745020  0.128063  0.250000  1
  Si  Si7  1  0.254980  0.871937  0.750000  1
  Si  Si8  1  0.128063  0.383043  0.750000  1
  Si  Si9  1  0.383043  0.254980  0.250000  1
  W  W10  1  0.000000  0.000000  0.000000  1
  W  W11  1  0.000000  0.000000  0.500000  1
  O  O12  1  0.252119  0.233943  0.383453  1
  O  O13  1  0.018176  0.252119  0.883453  1
  O  O14  1  0.233943  0.981824  0.883453  1
  O  O15  1  0.766057  0.018176  0.383453  1
  O  O16  1  0.981824  0.747881  0.383453  1
  O  O17  1  0.747881  0.766057  0.883453  1
  O  O18  1  0.747881  0.766057  0.616547  1
  O  O19  1  0.981824  0.747881  0.116547  1
  O  O20  1  0.766057  0.018176  0.116547  1
  O  O21  1  0.233943  0.981824  0.616547  1
  O  O22  1  0.018176  0.252119  0.616547  1
  O  O23  1  0.252119  0.233943  0.116547  1
  O  O24  1  0.486940  0.085975  0.250000  1
  O  O25  1  0.400964  0.486940  0.750000  1
  O  O26  1  0.085975  0.599036  0.750000  1
  O  O27  1  0.914025  0.400964  0.250000  1
  O  O28  1  0.599036  0.513060  0.250000  1
  O  O29  1  0.513060  0.914025  0.750000  1
