# generated using pymatgen
data_Hg7SbS6Cl5
_symmetry_space_group_name_H-M   'P 1'
_cell_length_a   7.77549141
_cell_length_b   11.13572560
_cell_length_c   14.26945677
_cell_angle_alpha   110.20165742
_cell_angle_beta   106.36261464
_cell_angle_gamma   89.68032036
_symmetry_Int_Tables_number   1
_chemical_formula_structural   Hg7SbS6Cl5
_chemical_formula_sum   'Hg14 Sb2 S12 Cl10'
_cell_volume   1106.77777883
_cell_formula_units_Z   2
loop_
 _symmetry_equiv_pos_site_id
 _symmetry_equiv_pos_as_xyz
  1  'x, y, z'
loop_
 _atom_site_type_symbol
 _atom_site_label
 _atom_site_symmetry_multiplicity
 _atom_site_fract_x
 _atom_site_fract_y
 _atom_site_fract_z
 _atom_site_occupancy
  Hg  Hg0  1  0.000000  0.000000  0.000000  1
  Hg  Hg1  1  0.352591  0.940895  0.224085  1
  Hg  Hg2  1  0.647409  0.059105  0.775915  1
  Hg  Hg3  1  0.619555  0.543616  0.771105  1
  Hg  Hg4  1  0.380445  0.456384  0.228895  1
  Hg  Hg5  1  0.714286  0.881276  0.428534  1
  Hg  Hg6  1  0.285714  0.118724  0.571466  1
  Hg  Hg7  1  0.307040  0.704084  0.942693  1
  Hg  Hg8  1  0.692960  0.295916  0.057307  1
  Hg  Hg9  1  0.233911  0.382198  0.947697  1
  Hg  Hg10  1  0.766089  0.617802  0.052303  1
  Hg  Hg11  1  0.046250  0.390728  0.672449  1
  Hg  Hg12  1  0.953750  0.609272  0.327551  1
  Hg  Hg13  1  0.500000  0.500000  0.500000  1
  Sb  Sb14  1  0.880644  0.133262  0.316470  1
  Sb  Sb15  1  0.119356  0.866738  0.683530  1
  S  S16  1  0.054994  0.505327  0.854911  1
  S  S17  1  0.945006  0.494673  0.145089  1
  S  S18  1  0.654995  0.394141  0.613157  1
  S  S19  1  0.345005  0.605859  0.386843  1
  S  S20  1  0.618317  0.719200  0.929827  1
  S  S21  1  0.381683  0.280800  0.070173  1
  S  S22  1  0.122988  0.832164  0.059735  1
  S  S23  1  0.877012  0.167836  0.940265  1
  S  S24  1  0.856379  0.714356  0.478853  1
  S  S25  1  0.143621  0.285644  0.521147  1
  S  S26  1  0.576673  0.054688  0.385331  1
  S  S27  1  0.423327  0.945312  0.614669  1
  Cl  Cl28  1  0.515742  0.341710  0.848166  1
  Cl  Cl29  1  0.484258  0.658290  0.151834  1
  Cl  Cl30  1  0.685174  0.030681  0.128395  1
  Cl  Cl31  1  0.314826  0.969319  0.871605  1
  Cl  Cl32  1  0.121301  0.195877  0.246586  1
  Cl  Cl33  1  0.878699  0.804123  0.753414  1
  Cl  Cl34  1  0.037432  0.914209  0.322556  1
  Cl  Cl35  1  0.962568  0.085791  0.677444  1
  Cl  Cl36  1  0.748780  0.352921  0.327550  1
  Cl  Cl37  1  0.251220  0.647079  0.672450  1
