# generated using pymatgen
data_Mo6PdPt3N2
_symmetry_space_group_name_H-M   'P 1'
_cell_length_a   6.89930400
_cell_length_b   6.89684208
_cell_length_c   6.89698260
_cell_angle_alpha   89.98067354
_cell_angle_beta   90.00000000
_cell_angle_gamma   90.00000000
_symmetry_Int_Tables_number   1
_chemical_formula_structural   Mo6PdPt3N2
_chemical_formula_sum   'Mo12 Pd2 Pt6 N4'
_cell_volume   328.18193343
_cell_formula_units_Z   2
loop_
 _symmetry_equiv_pos_site_id
 _symmetry_equiv_pos_as_xyz
  1  'x, y, z'
loop_
 _atom_site_type_symbol
 _atom_site_label
 _atom_site_symmetry_multiplicity
 _atom_site_fract_x
 _atom_site_fract_y
 _atom_site_fract_z
 _atom_site_occupancy
  Mo  Mo0  1  0.623621  0.049071  0.549472  1
  Mo  Mo1  1  0.123621  0.950929  0.450528  1
  Mo  Mo2  1  0.874808  0.548337  0.948831  1
  Mo  Mo3  1  0.374808  0.451663  0.051169  1
  Mo  Mo4  1  0.200272  0.624220  0.699350  1
  Mo  Mo5  1  0.300504  0.124110  0.797759  1
  Mo  Mo6  1  0.800504  0.875890  0.202241  1
  Mo  Mo7  1  0.700272  0.375780  0.300650  1
  Mo  Mo8  1  0.049916  0.201114  0.125740  1
  Mo  Mo9  1  0.951601  0.300812  0.625329  1
  Mo  Mo10  1  0.549916  0.798886  0.874260  1
  Mo  Mo11  1  0.451601  0.699188  0.374671  1
  Pd  Pd12  1  0.693249  0.192118  0.944195  1
  Pd  Pd13  1  0.193249  0.807882  0.055805  1
  Pt  Pt14  1  0.806927  0.692670  0.558485  1
  Pt  Pt15  1  0.306927  0.307330  0.441515  1
  Pt  Pt16  1  0.057523  0.560288  0.306085  1
  Pt  Pt17  1  0.441853  0.056746  0.190770  1
  Pt  Pt18  1  0.557523  0.439712  0.693915  1
  Pt  Pt19  1  0.941853  0.943254  0.809230  1
  N  N20  1  0.374661  0.874479  0.625262  1
  N  N21  1  0.874661  0.125521  0.374738  1
  N  N22  1  0.125062  0.375501  0.874846  1
  N  N23  1  0.625062  0.624499  0.125154  1
