# generated using pymatgen
data_Mn2InSb11Pt2
_symmetry_space_group_name_H-M   'P 1'
_cell_length_a   8.19087353
_cell_length_b   8.19087456
_cell_length_c   8.18356300
_cell_angle_alpha   109.74130857
_cell_angle_beta   109.88707217
_cell_angle_gamma   108.82409180
_symmetry_Int_Tables_number   1
_chemical_formula_structural   Mn2InSb11Pt2
_chemical_formula_sum   'Mn2 In1 Sb11 Pt2'
_cell_volume   422.41563333
_cell_formula_units_Z   1
loop_
 _symmetry_equiv_pos_site_id
 _symmetry_equiv_pos_as_xyz
  1  'x, y, z'
loop_
 _atom_site_type_symbol
 _atom_site_label
 _atom_site_symmetry_multiplicity
 _atom_site_fract_x
 _atom_site_fract_y
 _atom_site_fract_z
 _atom_site_occupancy
  Mn  Mn0  1  0.003019  0.498465  0.000290  1
  Mn  Mn1  1  0.501825  0.997272  0.000290  1
  In  In2  1  0.843914  0.661209  0.505124  1
  Sb  Sb3  1  0.838327  0.335839  0.174168  1
  Sb  Sb4  1  0.157472  0.666529  0.823999  1
  Sb  Sb5  1  0.338841  0.495155  0.151641  1
  Sb  Sb6  1  0.145875  0.348508  0.494383  1
  Sb  Sb7  1  0.656486  0.812799  0.151641  1
  Sb  Sb8  1  0.184963  0.839794  0.335795  1
  Sb  Sb9  1  0.665977  0.503130  0.848530  1
  Sb  Sb10  1  0.817607  0.158063  0.666000  1
  Sb  Sb11  1  0.345399  0.182555  0.848530  1
  Sb  Sb12  1  0.507939  0.848393  0.666000  1
  Sb  Sb13  1  0.496000  0.150832  0.335795  1
  Pt  Pt14  1  0.003871  0.006420  0.498905  1
  Pt  Pt15  1  0.492485  0.495034  0.498905  1
