# generated using pymatgen
data_LiDyZnCu3
_symmetry_space_group_name_H-M   'P 1'
_cell_length_a   5.09974272
_cell_length_b   5.09974306
_cell_length_c   5.08415600
_cell_angle_alpha   59.89853124
_cell_angle_beta   59.89852907
_cell_angle_gamma   60.00000113
_symmetry_Int_Tables_number   1
_chemical_formula_structural   LiDyZnCu3
_chemical_formula_sum   'Li1 Dy1 Zn1 Cu3'
_cell_volume   93.35393867
_cell_formula_units_Z   1
loop_
 _symmetry_equiv_pos_site_id
 _symmetry_equiv_pos_as_xyz
  1  'x, y, z'
loop_
 _atom_site_type_symbol
 _atom_site_label
 _atom_site_symmetry_multiplicity
 _atom_site_fract_x
 _atom_site_fract_y
 _atom_site_fract_z
 _atom_site_occupancy
  Li  Li0  1  0.250824  0.250824  0.247530  1
  Dy  Dy1  1  0.002579  0.002579  0.992264  1
  Zn  Zn2  1  0.621599  0.621599  0.135205  1
  Cu  Cu3  1  0.623436  0.128126  0.625000  1
  Cu  Cu4  1  0.128126  0.623436  0.625000  1
  Cu  Cu5  1  0.623436  0.623436  0.625000  1
