# generated using pymatgen
data_TbDy2Mg3Sn2Au
_symmetry_space_group_name_H-M   'P 1'
_cell_length_a   7.55143800
_cell_length_b   7.55764343
_cell_length_c   4.44156100
_cell_angle_alpha   90.00000000
_cell_angle_beta   90.00000000
_cell_angle_gamma   119.97285136
_symmetry_Int_Tables_number   1
_chemical_formula_structural   TbDy2Mg3Sn2Au
_chemical_formula_sum   'Tb1 Dy2 Mg3 Sn2 Au1'
_cell_volume   219.58418898
_cell_formula_units_Z   1
loop_
 _symmetry_equiv_pos_site_id
 _symmetry_equiv_pos_as_xyz
  1  'x, y, z'
loop_
 _atom_site_type_symbol
 _atom_site_label
 _atom_site_symmetry_multiplicity
 _atom_site_fract_x
 _atom_site_fract_y
 _atom_site_fract_z
 _atom_site_occupancy
  Tb  Tb0  1  0.594718  0.000000  0.000000  1
  Dy  Dy1  1  0.999832  0.594890  0.000000  1
  Dy  Dy2  1  0.404942  0.405110  0.000000  1
  Mg  Mg3  1  0.237425  0.000000  0.500000  1
  Mg  Mg4  1  0.000139  0.237590  0.500000  1
  Mg  Mg5  1  0.762549  0.762410  0.500000  1
  Sn  Sn6  1  0.333027  0.666107  0.500000  1
  Sn  Sn7  1  0.666921  0.333893  0.500000  1
  Au  Au8  1  0.000447  0.000000  0.000000  1
