# generated using pymatgen
data_Ba6CeYAl4O15
_symmetry_space_group_name_H-M   'P 1'
_cell_length_a   6.00880734
_cell_length_b   7.99700854
_cell_length_c   18.66767809
_cell_angle_alpha   88.46668080
_cell_angle_beta   89.86606404
_cell_angle_gamma   89.96496709
_symmetry_Int_Tables_number   1
_chemical_formula_structural   Ba6CeYAl4O15
_chemical_formula_sum   'Ba12 Ce2 Y2 Al8 O30'
_cell_volume   896.70451497
_cell_formula_units_Z   2
loop_
 _symmetry_equiv_pos_site_id
 _symmetry_equiv_pos_as_xyz
  1  'x, y, z'
loop_
 _atom_site_type_symbol
 _atom_site_label
 _atom_site_symmetry_multiplicity
 _atom_site_fract_x
 _atom_site_fract_y
 _atom_site_fract_z
 _atom_site_occupancy
  Ba  Ba0  1  0.756927  0.502463  0.084528  1
  Ba  Ba1  1  0.243073  0.497537  0.915472  1
  Ba  Ba2  1  0.756707  0.499018  0.417945  1
  Ba  Ba3  1  0.243293  0.500982  0.582055  1
  Ba  Ba4  1  0.748121  0.967152  0.092731  1
  Ba  Ba5  1  0.251879  0.032848  0.907269  1
  Ba  Ba6  1  0.747004  0.029683  0.411354  1
  Ba  Ba7  1  0.252996  0.970317  0.588646  1
  Ba  Ba8  1  0.728576  0.999640  0.747162  1
  Ba  Ba9  1  0.271424  0.000360  0.252838  1
  Ba  Ba10  1  0.673073  0.498544  0.748379  1
  Ba  Ba11  1  0.326927  0.501456  0.251621  1
  Ce  Ce12  1  0.749068  0.754619  0.909640  1
  Ce  Ce13  1  0.250932  0.245381  0.090360  1
  Y  Y14  1  0.747748  0.248300  0.588650  1
  Y  Y15  1  0.252252  0.751700  0.411350  1
  Al  Al16  1  0.747945  0.751930  0.555337  1
  Al  Al17  1  0.252055  0.248070  0.444663  1
  Al  Al18  1  0.747900  0.247329  0.941196  1
  Al  Al19  1  0.252100  0.752671  0.058804  1
  Al  Al20  1  0.769867  0.779945  0.269140  1
  Al  Al21  1  0.230133  0.220055  0.730860  1
  Al  Al22  1  0.770972  0.220101  0.235685  1
  Al  Al23  1  0.229028  0.779899  0.764315  1
  O  O24  1  0.208799  0.000464  0.748608  1
  O  O25  1  0.791201  0.999536  0.251392  1
  O  O26  1  0.500130  0.765667  0.005436  1
  O  O27  1  0.499870  0.234333  0.994564  1
  O  O28  1  0.499404  0.236367  0.498854  1
  O  O29  1  0.500596  0.763633  0.501146  1
  O  O30  1  0.760832  0.943513  0.604373  1
  O  O31  1  0.239168  0.056487  0.395627  1
  O  O32  1  0.763344  0.062696  0.889005  1
  O  O33  1  0.236656  0.937304  0.110995  1
  O  O34  1  0.019653  0.764062  0.998149  1
  O  O35  1  0.980347  0.235938  0.001851  1
  O  O36  1  0.015155  0.237764  0.504873  1
  O  O37  1  0.984845  0.762236  0.495127  1
  O  O38  1  0.321914  0.694705  0.684479  1
  O  O39  1  0.678086  0.305295  0.315521  1
  O  O40  1  0.311536  0.307958  0.811479  1
  O  O41  1  0.688464  0.692042  0.188521  1
  O  O42  1  0.440308  0.753270  0.831590  1
  O  O43  1  0.559692  0.246730  0.168410  1
  O  O44  1  0.452310  0.245269  0.666402  1
  O  O45  1  0.547690  0.754731  0.333598  1
  O  O46  1  0.969422  0.726821  0.804180  1
  O  O47  1  0.030578  0.273179  0.195820  1
  O  O48  1  0.973970  0.269332  0.687101  1
  O  O49  1  0.026030  0.730668  0.312899  1
  O  O50  1  0.753541  0.539845  0.591026  1
  O  O51  1  0.246459  0.460155  0.408974  1
  O  O52  1  0.753875  0.456111  0.904333  1
  O  O53  1  0.246125  0.543889  0.095667  1
