# generated using pymatgen
data_Ta2CrCo3
_symmetry_space_group_name_H-M   'P 1'
_cell_length_a   4.83521800
_cell_length_b   4.83521746
_cell_length_c   7.68419700
_cell_angle_alpha   90.00000000
_cell_angle_beta   90.00000000
_cell_angle_gamma   120.00000368
_symmetry_Int_Tables_number   1
_chemical_formula_structural   Ta2CrCo3
_chemical_formula_sum   'Ta4 Cr2 Co6'
_cell_volume   155.58265431
_cell_formula_units_Z   2
loop_
 _symmetry_equiv_pos_site_id
 _symmetry_equiv_pos_as_xyz
  1  'x, y, z'
loop_
 _atom_site_type_symbol
 _atom_site_label
 _atom_site_symmetry_multiplicity
 _atom_site_fract_x
 _atom_site_fract_y
 _atom_site_fract_z
 _atom_site_occupancy
  Ta  Ta0  1  0.333333  0.666667  0.436436  1
  Ta  Ta1  1  0.666667  0.333333  0.563564  1
  Ta  Ta2  1  0.666667  0.333333  0.936436  1
  Ta  Ta3  1  0.333333  0.666667  0.063564  1
  Cr  Cr4  1  0.000000  0.000000  0.500000  1
  Cr  Cr5  1  0.000000  0.000000  0.000000  1
  Co  Co6  1  0.829643  0.170357  0.250000  1
  Co  Co7  1  0.829643  0.659286  0.250000  1
  Co  Co8  1  0.340714  0.170357  0.250000  1
  Co  Co9  1  0.170357  0.829643  0.750000  1
  Co  Co10  1  0.170357  0.340714  0.750000  1
  Co  Co11  1  0.659286  0.829643  0.750000  1
