# generated using pymatgen
data_PrTh3(WN3)4
_symmetry_space_group_name_H-M   'P 1'
_cell_length_a   5.61015818
_cell_length_b   5.66639758
_cell_length_c   8.01184700
_cell_angle_alpha   90.00000000
_cell_angle_beta   90.00000000
_cell_angle_gamma   90.28450930
_symmetry_Int_Tables_number   1
_chemical_formula_structural   PrTh3(WN3)4
_chemical_formula_sum   'Pr1 Th3 W4 N12'
_cell_volume   254.68856263
_cell_formula_units_Z   1
loop_
 _symmetry_equiv_pos_site_id
 _symmetry_equiv_pos_as_xyz
  1  'x, y, z'
loop_
 _atom_site_type_symbol
 _atom_site_label
 _atom_site_symmetry_multiplicity
 _atom_site_fract_x
 _atom_site_fract_y
 _atom_site_fract_z
 _atom_site_occupancy
  Pr  Pr0  1  0.504165  0.540988  0.250000  1
  Th  Th1  1  0.996976  0.042866  0.250000  1
  Th  Th2  1  0.497078  0.456600  0.750000  1
  Th  Th3  1  0.001652  0.955839  0.750000  1
  W  W4  1  0.998511  0.500184  0.001967  1
  W  W5  1  0.500710  0.999653  0.498781  1
  W  W6  1  0.998511  0.500184  0.498033  1
  W  W7  1  0.500710  0.999653  0.001219  1
  N  N8  1  0.430134  0.989110  0.250000  1
  N  N9  1  0.063406  0.487195  0.250000  1
  N  N10  1  0.572559  0.017159  0.750000  1
  N  N11  1  0.924781  0.518063  0.750000  1
  N  N12  1  0.798529  0.797227  0.034249  1
  N  N13  1  0.708016  0.290545  0.467667  1
  N  N14  1  0.203396  0.203421  0.537238  1
  N  N15  1  0.295463  0.705060  0.959304  1
  N  N16  1  0.203396  0.203421  0.962762  1
  N  N17  1  0.295463  0.705060  0.540696  1
  N  N18  1  0.798529  0.797227  0.465751  1
  N  N19  1  0.708016  0.290545  0.032333  1
