# generated using pymatgen
data_Lu3Zr7In8(PtRh)2
_symmetry_space_group_name_H-M   'P 1'
_cell_length_a   3.47051000
_cell_length_b   7.75145650
_cell_length_c   17.73587993
_cell_angle_alpha   90.04013507
_cell_angle_beta   90.00000000
_cell_angle_gamma   90.00000000
_symmetry_Int_Tables_number   1
_chemical_formula_structural   Lu3Zr7In8(PtRh)2
_chemical_formula_sum   'Lu3 Zr7 In8 Pt2 Rh2'
_cell_volume   477.12178647
_cell_formula_units_Z   1
loop_
 _symmetry_equiv_pos_site_id
 _symmetry_equiv_pos_as_xyz
  1  'x, y, z'
loop_
 _atom_site_type_symbol
 _atom_site_label
 _atom_site_symmetry_multiplicity
 _atom_site_fract_x
 _atom_site_fract_y
 _atom_site_fract_z
 _atom_site_occupancy
  Lu  Lu0  1  0.000000  0.749909  0.777936  1
  Lu  Lu1  1  0.000000  0.243337  0.719604  1
  Lu  Lu2  1  0.000000  0.754090  0.280408  1
  Zr  Zr3  1  0.000000  0.131274  0.418223  1
  Zr  Zr4  1  0.000000  0.869369  0.580095  1
  Zr  Zr5  1  0.000000  0.367168  0.922776  1
  Zr  Zr6  1  0.000000  0.634112  0.079500  1
  Zr  Zr7  1  0.000000  0.245140  0.223139  1
  Zr  Zr8  1  0.000000  0.001865  0.001523  1
  Zr  Zr9  1  0.000000  0.499648  0.498702  1
  In  In10  1  0.500000  0.427363  0.351189  1
  In  In11  1  0.500000  0.570301  0.646253  1
  In  In12  1  0.500000  0.067133  0.852226  1
  In  In13  1  0.500000  0.934805  0.148598  1
  In  In14  1  0.500000  0.297063  0.066502  1
  In  In15  1  0.500000  0.704245  0.936179  1
  In  In16  1  0.500000  0.201189  0.564002  1
  In  In17  1  0.500000  0.799827  0.434821  1
  Pt  Pt18  1  0.500000  0.459400  0.808820  1
  Pt  Pt19  1  0.500000  0.536648  0.192780  1
  Rh  Rh20  1  0.500000  0.047929  0.306330  1
  Rh  Rh21  1  0.500000  0.958187  0.690393  1
