# generated using pymatgen
data_Yb2Ga10Cu
_symmetry_space_group_name_H-M   'P 1'
_cell_length_a   4.25841742
_cell_length_b   4.25841730
_cell_length_c   13.58010400
_cell_angle_alpha   99.02055366
_cell_angle_beta   99.02055340
_cell_angle_gamma   90.00000813
_symmetry_Int_Tables_number   1
_chemical_formula_structural   Yb2Ga10Cu
_chemical_formula_sum   'Yb2 Ga10 Cu1'
_cell_volume   240.13309757
_cell_formula_units_Z   1
loop_
 _symmetry_equiv_pos_site_id
 _symmetry_equiv_pos_as_xyz
  1  'x, y, z'
loop_
 _atom_site_type_symbol
 _atom_site_label
 _atom_site_symmetry_multiplicity
 _atom_site_fract_x
 _atom_site_fract_y
 _atom_site_fract_z
 _atom_site_occupancy
  Yb  Yb0  1  0.645917  0.645917  0.291835  1
  Yb  Yb1  1  0.354083  0.354083  0.708165  1
  Ga  Ga2  1  0.550588  0.050588  0.101176  1
  Ga  Ga3  1  0.050588  0.550588  0.101176  1
  Ga  Ga4  1  0.103989  0.103989  0.207977  1
  Ga  Ga5  1  0.195254  0.195254  0.390508  1
  Ga  Ga6  1  0.750000  0.250000  0.500000  1
  Ga  Ga7  1  0.250000  0.750000  0.500000  1
  Ga  Ga8  1  0.804746  0.804746  0.609492  1
  Ga  Ga9  1  0.896011  0.896011  0.792022  1
  Ga  Ga10  1  0.949412  0.449412  0.898823  1
  Ga  Ga11  1  0.449412  0.949412  0.898823  1
  Cu  Cu12  1  0.500000  0.500000  0.000000  1
