# generated using pymatgen
data_Rb7NaS24
_symmetry_space_group_name_H-M   'P 1'
_cell_length_a   12.50104717
_cell_length_b   6.83510889
_cell_length_c   12.88386170
_cell_angle_alpha   73.15204792
_cell_angle_beta   89.30964943
_cell_angle_gamma   90.08350825
_symmetry_Int_Tables_number   1
_chemical_formula_structural   Rb7NaS24
_chemical_formula_sum   'Rb7 Na1 S24'
_cell_volume   1053.53156535
_cell_formula_units_Z   1
loop_
 _symmetry_equiv_pos_site_id
 _symmetry_equiv_pos_as_xyz
  1  'x, y, z'
loop_
 _atom_site_type_symbol
 _atom_site_label
 _atom_site_symmetry_multiplicity
 _atom_site_fract_x
 _atom_site_fract_y
 _atom_site_fract_z
 _atom_site_occupancy
  Rb  Rb0  1  0.639903  0.220117  0.983131  1
  Rb  Rb1  1  0.862976  0.215963  0.491468  1
  Rb  Rb2  1  0.358306  0.782635  0.014732  1
  Rb  Rb3  1  0.137773  0.782126  0.521511  1
  Rb  Rb4  1  0.608002  0.693403  0.591094  1
  Rb  Rb5  1  0.894087  0.690961  0.080818  1
  Rb  Rb6  1  0.392268  0.309955  0.409145  1
  Na  Na7  1  0.122403  0.325426  0.954111  1
  S  S8  1  0.348091  0.289680  0.997662  1
  S  S9  1  0.131331  0.300324  0.493680  1
  S  S10  1  0.628458  0.702892  0.004479  1
  S  S11  1  0.867490  0.709546  0.501092  1
  S  S12  1  0.404269  0.449935  0.845980  1
  S  S13  1  0.086309  0.461393  0.340322  1
  S  S14  1  0.583970  0.542082  0.159810  1
  S  S15  1  0.912520  0.549870  0.655443  1
  S  S16  1  0.327184  0.370079  0.726192  1
  S  S17  1  0.170050  0.376498  0.223229  1
  S  S18  1  0.668802  0.626928  0.273924  1
  S  S19  1  0.828548  0.629703  0.772804  1
  S  S20  1  0.386879  0.068874  0.727240  1
  S  S21  1  0.111334  0.074219  0.223286  1
  S  S22  1  0.610116  0.931284  0.272691  1
  S  S23  1  0.893100  0.926879  0.781152  1
  S  S24  1  0.549763  0.080489  0.722655  1
  S  S25  1  0.950117  0.089913  0.204387  1
  S  S26  1  0.447582  0.920028  0.278059  1
  S  S27  1  0.054781  0.910375  0.778422  1
  S  S28  1  0.606656  0.210430  0.568156  1
  S  S29  1  0.912512  0.214427  0.043439  1
  S  S30  1  0.391725  0.792713  0.433055  1
  S  S31  1  0.112697  0.750857  0.926834  1
