# generated using pymatgen
data_Tb2Zr3Ge4
_symmetry_space_group_name_H-M   'P 1'
_cell_length_a   7.47950100
_cell_length_b   7.47950100
_cell_length_c   13.68940600
_cell_angle_alpha   90.00000000
_cell_angle_beta   90.00000000
_cell_angle_gamma   90.00000000
_symmetry_Int_Tables_number   1
_chemical_formula_structural   Tb2Zr3Ge4
_chemical_formula_sum   'Tb8 Zr12 Ge16'
_cell_volume   765.82555291
_cell_formula_units_Z   4
loop_
 _symmetry_equiv_pos_site_id
 _symmetry_equiv_pos_as_xyz
  1  'x, y, z'
loop_
 _atom_site_type_symbol
 _atom_site_label
 _atom_site_symmetry_multiplicity
 _atom_site_fract_x
 _atom_site_fract_y
 _atom_site_fract_z
 _atom_site_occupancy
  Tb  Tb0  1  0.999621  0.343138  0.532353  1
  Tb  Tb1  1  0.000379  0.656862  0.032353  1
  Tb  Tb2  1  0.843138  0.500379  0.282353  1
  Tb  Tb3  1  0.156862  0.499621  0.782353  1
  Tb  Tb4  1  0.656862  0.000379  0.967647  1
  Tb  Tb5  1  0.343138  0.999621  0.467647  1
  Tb  Tb6  1  0.500379  0.843138  0.717647  1
  Tb  Tb7  1  0.499621  0.156862  0.217647  1
  Zr  Zr8  1  0.827061  0.172939  0.750000  1
  Zr  Zr9  1  0.172939  0.827061  0.250000  1
  Zr  Zr10  1  0.672939  0.672939  0.500000  1
  Zr  Zr11  1  0.327061  0.327061  0.000000  1
  Zr  Zr12  1  0.504905  0.344093  0.623124  1
  Zr  Zr13  1  0.495095  0.655907  0.123124  1
  Zr  Zr14  1  0.844093  0.995095  0.373124  1
  Zr  Zr15  1  0.155907  0.004905  0.873124  1
  Zr  Zr16  1  0.655907  0.495095  0.876876  1
  Zr  Zr17  1  0.344093  0.504905  0.376876  1
  Zr  Zr18  1  0.995095  0.844093  0.626876  1
  Zr  Zr19  1  0.004905  0.155907  0.126876  1
  Ge  Ge20  1  0.634008  0.299001  0.425929  1
  Ge  Ge21  1  0.365992  0.700999  0.925929  1
  Ge  Ge22  1  0.799001  0.865992  0.175929  1
  Ge  Ge23  1  0.200999  0.134008  0.675929  1
  Ge  Ge24  1  0.700999  0.365992  0.074071  1
  Ge  Ge25  1  0.299001  0.634008  0.574071  1
  Ge  Ge26  1  0.865992  0.799001  0.824071  1
  Ge  Ge27  1  0.134008  0.200999  0.324071  1
  Ge  Ge28  1  0.703837  0.038673  0.566988  1
  Ge  Ge29  1  0.296163  0.961327  0.066988  1
  Ge  Ge30  1  0.538673  0.796163  0.316988  1
  Ge  Ge31  1  0.461327  0.203837  0.816988  1
  Ge  Ge32  1  0.961327  0.296163  0.933012  1
  Ge  Ge33  1  0.038673  0.703837  0.433012  1
  Ge  Ge34  1  0.796163  0.538673  0.683012  1
  Ge  Ge35  1  0.203837  0.461327  0.183012  1
