# generated using pymatgen
data_Ce3Th(Re3Os)2
_symmetry_space_group_name_H-M   'P 1'
_cell_length_a   5.28017100
_cell_length_b   5.28017056
_cell_length_c   9.54869300
_cell_angle_alpha   90.00000000
_cell_angle_beta   90.00000000
_cell_angle_gamma   119.99999651
_symmetry_Int_Tables_number   1
_chemical_formula_structural   Ce3Th(Re3Os)2
_chemical_formula_sum   'Ce3 Th1 Re6 Os2'
_cell_volume   230.55286117
_cell_formula_units_Z   1
loop_
 _symmetry_equiv_pos_site_id
 _symmetry_equiv_pos_as_xyz
  1  'x, y, z'
loop_
 _atom_site_type_symbol
 _atom_site_label
 _atom_site_symmetry_multiplicity
 _atom_site_fract_x
 _atom_site_fract_y
 _atom_site_fract_z
 _atom_site_occupancy
  Ce  Ce0  1  0.666667  0.333333  0.561398  1
  Ce  Ce1  1  0.666667  0.333333  0.941290  1
  Ce  Ce2  1  0.333333  0.666667  0.056767  1
  Th  Th3  1  0.333333  0.666667  0.440774  1
  Re  Re4  1  0.830763  0.169237  0.248586  1
  Re  Re5  1  0.830763  0.661526  0.248586  1
  Re  Re6  1  0.338474  0.169237  0.248586  1
  Re  Re7  1  0.169185  0.830815  0.751177  1
  Re  Re8  1  0.169185  0.338370  0.751177  1
  Re  Re9  1  0.661630  0.830815  0.751177  1
  Os  Os10  1  0.000000  0.000000  0.500913  1
  Os  Os11  1  0.000000  0.000000  0.999572  1
