# generated using pymatgen
data_Th2OsBr2
_symmetry_space_group_name_H-M   'P 1'
_cell_length_a   4.13247400
_cell_length_b   4.13247273
_cell_length_c   15.11794900
_cell_angle_alpha   90.00000000
_cell_angle_beta   90.00000000
_cell_angle_gamma   120.00001015
_symmetry_Int_Tables_number   1
_chemical_formula_structural   Th2OsBr2
_chemical_formula_sum   'Th2 Os1 Br2'
_cell_volume   223.58547651
_cell_formula_units_Z   1
loop_
 _symmetry_equiv_pos_site_id
 _symmetry_equiv_pos_as_xyz
  1  'x, y, z'
loop_
 _atom_site_type_symbol
 _atom_site_label
 _atom_site_symmetry_multiplicity
 _atom_site_fract_x
 _atom_site_fract_y
 _atom_site_fract_z
 _atom_site_occupancy
  Th  Th0  1  0.333333  0.666667  0.896443  1
  Th  Th1  1  0.666667  0.333333  0.103557  1
  Os  Os2  1  0.000000  0.000000  0.000000  1
  Br  Br3  1  0.666667  0.333333  0.758666  1
  Br  Br4  1  0.333333  0.666667  0.241334  1
