# generated using pymatgen
data_LiHo19(Cd3Ni)2
_symmetry_space_group_name_H-M   'P 1'
_cell_length_a   9.51617000
_cell_length_b   9.51616953
_cell_length_c   9.62202500
_cell_angle_alpha   90.00000000
_cell_angle_beta   90.00000000
_cell_angle_gamma   119.99999469
_symmetry_Int_Tables_number   1
_chemical_formula_structural   LiHo19(Cd3Ni)2
_chemical_formula_sum   'Li1 Ho19 Cd6 Ni2'
_cell_volume   754.60816152
_cell_formula_units_Z   1
loop_
 _symmetry_equiv_pos_site_id
 _symmetry_equiv_pos_as_xyz
  1  'x, y, z'
loop_
 _atom_site_type_symbol
 _atom_site_label
 _atom_site_symmetry_multiplicity
 _atom_site_fract_x
 _atom_site_fract_y
 _atom_site_fract_z
 _atom_site_occupancy
  Li  Li0  1  0.000000  0.000000  0.500000  1
  Ho  Ho1  1  0.000000  0.000000  0.000000  1
  Ho  Ho2  1  0.543480  0.456520  0.253844  1
  Ho  Ho3  1  0.543480  0.086959  0.253844  1
  Ho  Ho4  1  0.913041  0.456520  0.253844  1
  Ho  Ho5  1  0.456520  0.543480  0.746156  1
  Ho  Ho6  1  0.456520  0.913041  0.746156  1
  Ho  Ho7  1  0.086959  0.543480  0.746156  1
  Ho  Ho8  1  0.208302  0.791698  0.434449  1
  Ho  Ho9  1  0.208302  0.416605  0.434449  1
  Ho  Ho10  1  0.583395  0.791698  0.434449  1
  Ho  Ho11  1  0.791698  0.208302  0.565551  1
  Ho  Ho12  1  0.791698  0.583395  0.565551  1
  Ho  Ho13  1  0.416605  0.208302  0.565551  1
  Ho  Ho14  1  0.788813  0.211187  0.941995  1
  Ho  Ho15  1  0.788813  0.577625  0.941995  1
  Ho  Ho16  1  0.422375  0.211187  0.941995  1
  Ho  Ho17  1  0.211187  0.788813  0.058005  1
  Ho  Ho18  1  0.211187  0.422375  0.058005  1
  Ho  Ho19  1  0.577625  0.788813  0.058005  1
  Cd  Cd20  1  0.888441  0.111559  0.259662  1
  Cd  Cd21  1  0.888441  0.776881  0.259662  1
  Cd  Cd22  1  0.223119  0.111559  0.259662  1
  Cd  Cd23  1  0.111559  0.888441  0.740338  1
  Cd  Cd24  1  0.111559  0.223119  0.740338  1
  Cd  Cd25  1  0.776881  0.888441  0.740338  1
  Ni  Ni26  1  0.333333  0.666667  0.249600  1
  Ni  Ni27  1  0.666667  0.333333  0.750400  1
