# generated using pymatgen
data_HfMg(Si7Ir3)2
_symmetry_space_group_name_H-M   'P 1'
_cell_length_a   7.98650753
_cell_length_b   7.98650807
_cell_length_c   7.98650770
_cell_angle_alpha   56.46087925
_cell_angle_beta   56.46087891
_cell_angle_gamma   56.46087518
_symmetry_Int_Tables_number   1
_chemical_formula_structural   HfMg(Si7Ir3)2
_chemical_formula_sum   'Hf1 Mg1 Si14 Ir6'
_cell_volume   330.73874458
_cell_formula_units_Z   1
loop_
 _symmetry_equiv_pos_site_id
 _symmetry_equiv_pos_as_xyz
  1  'x, y, z'
loop_
 _atom_site_type_symbol
 _atom_site_label
 _atom_site_symmetry_multiplicity
 _atom_site_fract_x
 _atom_site_fract_y
 _atom_site_fract_z
 _atom_site_occupancy
  Hf  Hf0  1  0.500000  0.500000  0.500000  1
  Mg  Mg1  1  0.000000  0.000000  0.000000  1
  Si  Si2  1  0.749752  0.749752  0.749752  1
  Si  Si3  1  0.250248  0.250248  0.250248  1
  Si  Si4  1  0.852342  0.064124  0.673202  1
  Si  Si5  1  0.673202  0.852342  0.064124  1
  Si  Si6  1  0.064124  0.673202  0.852342  1
  Si  Si7  1  0.651414  0.828006  0.435506  1
  Si  Si8  1  0.435506  0.651414  0.828006  1
  Si  Si9  1  0.828006  0.435506  0.651414  1
  Si  Si10  1  0.171994  0.564494  0.348586  1
  Si  Si11  1  0.564494  0.348586  0.171994  1
  Si  Si12  1  0.348586  0.171994  0.564494  1
  Si  Si13  1  0.935876  0.326798  0.147658  1
  Si  Si14  1  0.326798  0.147658  0.935876  1
  Si  Si15  1  0.147658  0.935876  0.326798  1
  Ir  Ir16  1  0.077216  0.429167  0.746476  1
  Ir  Ir17  1  0.253524  0.922784  0.570833  1
  Ir  Ir18  1  0.570833  0.253524  0.922784  1
  Ir  Ir19  1  0.922784  0.570833  0.253524  1
  Ir  Ir20  1  0.429167  0.746476  0.077216  1
  Ir  Ir21  1  0.746476  0.077216  0.429167  1
