# generated using pymatgen
data_SmSc19Bi12
_symmetry_space_group_name_H-M   'P 1'
_cell_length_a   7.83675106
_cell_length_b   9.02923600
_cell_length_c   11.46501514
_cell_angle_alpha   90.00000000
_cell_angle_beta   90.00162473
_cell_angle_gamma   90.00000000
_symmetry_Int_Tables_number   1
_chemical_formula_structural   SmSc19Bi12
_chemical_formula_sum   'Sm1 Sc19 Bi12'
_cell_volume   811.26303552
_cell_formula_units_Z   1
loop_
 _symmetry_equiv_pos_site_id
 _symmetry_equiv_pos_as_xyz
  1  'x, y, z'
loop_
 _atom_site_type_symbol
 _atom_site_label
 _atom_site_symmetry_multiplicity
 _atom_site_fract_x
 _atom_site_fract_y
 _atom_site_fract_z
 _atom_site_occupancy
  Sm  Sm0  1  0.684174  0.250000  0.720042  1
  Sc  Sc1  1  0.021473  0.250000  0.510295  1
  Sc  Sc2  1  0.978573  0.750000  0.486911  1
  Sc  Sc3  1  0.476736  0.750000  0.012555  1
  Sc  Sc4  1  0.521234  0.250000  0.990315  1
  Sc  Sc5  1  0.352807  0.250000  0.279420  1
  Sc  Sc6  1  0.646726  0.750000  0.718543  1
  Sc  Sc7  1  0.148793  0.750000  0.782588  1
  Sc  Sc8  1  0.853296  0.250000  0.219346  1
  Sc  Sc9  1  0.186123  0.250000  0.781708  1
  Sc  Sc10  1  0.813277  0.750000  0.218690  1
  Sc  Sc11  1  0.313643  0.750000  0.281533  1
  Sc  Sc12  1  0.195924  0.066661  0.061364  1
  Sc  Sc13  1  0.804394  0.932316  0.940017  1
  Sc  Sc14  1  0.306472  0.932384  0.560658  1
  Sc  Sc15  1  0.804394  0.567684  0.940017  1
  Sc  Sc16  1  0.694592  0.067173  0.437910  1
  Sc  Sc17  1  0.195924  0.433339  0.061364  1
  Sc  Sc18  1  0.694592  0.432827  0.437910  1
  Sc  Sc19  1  0.306472  0.567616  0.560658  1
  Bi  Bi20  1  0.399586  0.250000  0.533818  1
  Bi  Bi21  1  0.593308  0.750000  0.459879  1
  Bi  Bi22  1  0.092038  0.750000  0.040544  1
  Bi  Bi23  1  0.910276  0.250000  0.963269  1
  Bi  Bi24  1  0.066576  0.003821  0.325467  1
  Bi  Bi25  1  0.940236  0.990033  0.672567  1
  Bi  Bi26  1  0.428541  0.992253  0.828389  1
  Bi  Bi27  1  0.940236  0.509967  0.672567  1
  Bi  Bi28  1  0.567232  0.004045  0.173900  1
  Bi  Bi29  1  0.066576  0.496179  0.325467  1
  Bi  Bi30  1  0.567232  0.495955  0.173900  1
  Bi  Bi31  1  0.428541  0.507747  0.828389  1
