# generated using pymatgen
data_PrNdTi2CrRhO10
_symmetry_space_group_name_H-M   'P 1'
_cell_length_a   7.66515000
_cell_length_b   8.75986000
_cell_length_c   5.90212600
_cell_angle_alpha   90.00000000
_cell_angle_beta   90.00000000
_cell_angle_gamma   90.00000000
_symmetry_Int_Tables_number   1
_chemical_formula_structural   PrNdTi2CrRhO10
_chemical_formula_sum   'Pr2 Nd2 Ti4 Cr2 Rh2 O20'
_cell_volume   396.30203282
_cell_formula_units_Z   2
loop_
 _symmetry_equiv_pos_site_id
 _symmetry_equiv_pos_as_xyz
  1  'x, y, z'
loop_
 _atom_site_type_symbol
 _atom_site_label
 _atom_site_symmetry_multiplicity
 _atom_site_fract_x
 _atom_site_fract_y
 _atom_site_fract_z
 _atom_site_occupancy
  Pr  Pr0  1  0.139374  0.171512  0.001452  1
  Pr  Pr1  1  0.639373  0.328488  0.001452  1
  Nd  Nd2  1  0.360070  0.671922  0.001370  1
  Nd  Nd3  1  0.860070  0.828078  0.001370  1
  Ti  Ti4  1  0.882782  0.142839  0.502165  1
  Ti  Ti5  1  0.382782  0.357162  0.502165  1
  Ti  Ti6  1  0.616922  0.643730  0.502110  1
  Ti  Ti7  1  0.116923  0.856271  0.502110  1
  Cr  Cr8  1  0.500277  0.999560  0.749526  1
  Cr  Cr9  1  0.000277  0.500440  0.749526  1
  Rh  Rh10  1  0.500183  0.999686  0.250285  1
  Rh  Rh11  1  0.000183  0.500314  0.250285  1
  O  O12  1  0.667249  0.055101  0.992774  1
  O  O13  1  0.167249  0.444899  0.992774  1
  O  O14  1  0.833948  0.557401  0.992693  1
  O  O15  1  0.333948  0.942598  0.992693  1
  O  O16  1  0.395543  0.216275  0.253345  1
  O  O17  1  0.895543  0.283725  0.253345  1
  O  O18  1  0.105345  0.716396  0.251734  1
  O  O19  1  0.605345  0.783604  0.251734  1
  O  O20  1  0.998817  0.998996  0.286348  1
  O  O21  1  0.498817  0.501004  0.286348  1
  O  O22  1  0.662881  0.073133  0.504229  1
  O  O23  1  0.162880  0.426867  0.504229  1
  O  O24  1  0.836738  0.573269  0.504269  1
  O  O25  1  0.336738  0.926731  0.504269  1
  O  O26  1  0.998839  0.999023  0.717065  1
  O  O27  1  0.498839  0.500977  0.717065  1
  O  O28  1  0.397696  0.212730  0.744802  1
  O  O29  1  0.897696  0.287270  0.744802  1
  O  O30  1  0.103333  0.712951  0.745827  1
  O  O31  1  0.603333  0.787049  0.745827  1
