# generated using pymatgen
data_Lu3ThNiAg
_symmetry_space_group_name_H-M   'P 1'
_cell_length_a   9.38525007
_cell_length_b   9.38525029
_cell_length_c   9.38525200
_cell_angle_alpha   60.00000102
_cell_angle_beta   60.00000024
_cell_angle_gamma   60.00000298
_symmetry_Int_Tables_number   1
_chemical_formula_structural   Lu3ThNiAg
_chemical_formula_sum   'Lu12 Th4 Ni4 Ag4'
_cell_volume   584.55134239
_cell_formula_units_Z   4
loop_
 _symmetry_equiv_pos_site_id
 _symmetry_equiv_pos_as_xyz
  1  'x, y, z'
loop_
 _atom_site_type_symbol
 _atom_site_label
 _atom_site_symmetry_multiplicity
 _atom_site_fract_x
 _atom_site_fract_y
 _atom_site_fract_z
 _atom_site_occupancy
  Lu  Lu0  1  0.813215  0.186785  0.186785  1
  Lu  Lu1  1  0.186785  0.813215  0.813215  1
  Lu  Lu2  1  0.186785  0.813215  0.186785  1
  Lu  Lu3  1  0.813215  0.186785  0.813215  1
  Lu  Lu4  1  0.186785  0.186785  0.813215  1
  Lu  Lu5  1  0.813215  0.813215  0.186785  1
  Lu  Lu6  1  0.933341  0.566659  0.566659  1
  Lu  Lu7  1  0.566659  0.933341  0.933341  1
  Lu  Lu8  1  0.566659  0.933341  0.566659  1
  Lu  Lu9  1  0.933341  0.566659  0.933341  1
  Lu  Lu10  1  0.566659  0.566659  0.933341  1
  Lu  Lu11  1  0.933341  0.933341  0.566659  1
  Th  Th12  1  0.352514  0.352514  0.352514  1
  Th  Th13  1  0.352514  0.352514  0.942455  1
  Th  Th14  1  0.352514  0.942455  0.352514  1
  Th  Th15  1  0.942455  0.352514  0.352514  1
  Ni  Ni16  1  0.143564  0.143564  0.143564  1
  Ni  Ni17  1  0.143564  0.143564  0.569309  1
  Ni  Ni18  1  0.143564  0.569309  0.143564  1
  Ni  Ni19  1  0.569309  0.143564  0.143564  1
  Ag  Ag20  1  0.586081  0.586081  0.586081  1
  Ag  Ag21  1  0.586081  0.586081  0.241757  1
  Ag  Ag22  1  0.586081  0.241757  0.586081  1
  Ag  Ag23  1  0.241757  0.586081  0.586081  1
