# generated using pymatgen
data_Dy2Ti3P7Rh9
_symmetry_space_group_name_H-M   'P 1'
_cell_length_a   3.83428800
_cell_length_b   9.67663584
_cell_length_c   9.67584410
_cell_angle_alpha   119.99359818
_cell_angle_beta   89.99970288
_cell_angle_gamma   90.00056197
_symmetry_Int_Tables_number   1
_chemical_formula_structural   Dy2Ti3P7Rh9
_chemical_formula_sum   'Dy2 Ti3 P7 Rh9'
_cell_volume   310.92570949
_cell_formula_units_Z   1
loop_
 _symmetry_equiv_pos_site_id
 _symmetry_equiv_pos_as_xyz
  1  'x, y, z'
loop_
 _atom_site_type_symbol
 _atom_site_label
 _atom_site_symmetry_multiplicity
 _atom_site_fract_x
 _atom_site_fract_y
 _atom_site_fract_z
 _atom_site_occupancy
  Dy  Dy0  1  0.261737  0.666635  0.333323  1
  Dy  Dy1  1  0.761788  0.333407  0.666671  1
  Ti  Ti2  1  0.762038  0.100062  0.878627  1
  Ti  Ti3  1  0.762045  0.121254  0.221378  1
  Ti  Ti4  1  0.762035  0.778566  0.899944  1
  P  P5  1  0.262345  0.999888  0.999983  1
  P  P6  1  0.761838  0.876144  0.588553  1
  P  P7  1  0.761835  0.411338  0.287550  1
  P  P8  1  0.761797  0.712417  0.123880  1
  P  P9  1  0.261851  0.116242  0.416832  1
  P  P10  1  0.261891  0.583243  0.699385  1
  P  P11  1  0.261859  0.300682  0.883850  1
  Rh  Rh12  1  0.261829  0.883828  0.159655  1
  Rh  Rh13  1  0.261912  0.840377  0.724203  1
  Rh  Rh14  1  0.261865  0.275640  0.116077  1
  Rh  Rh15  1  0.761921  0.610104  0.558140  1
  Rh  Rh16  1  0.761880  0.441853  0.051964  1
  Rh  Rh17  1  0.761839  0.948125  0.389980  1
  Rh  Rh18  1  0.261947  0.365159  0.436500  1
  Rh  Rh19  1  0.261908  0.563463  0.928567  1
  Rh  Rh20  1  0.261838  0.071569  0.634941  1
