# generated using pymatgen
data_Pr5Nd(HoAu2)2
_symmetry_space_group_name_H-M   'P 1'
_cell_length_a   5.04385100
_cell_length_b   7.36475422
_cell_length_c   9.28922759
_cell_angle_alpha   90.00652598
_cell_angle_beta   90.00000000
_cell_angle_gamma   90.00000000
_symmetry_Int_Tables_number   1
_chemical_formula_structural   Pr5Nd(HoAu2)2
_chemical_formula_sum   'Pr5 Nd1 Ho2 Au4'
_cell_volume   345.06436122
_cell_formula_units_Z   1
loop_
 _symmetry_equiv_pos_site_id
 _symmetry_equiv_pos_as_xyz
  1  'x, y, z'
loop_
 _atom_site_type_symbol
 _atom_site_label
 _atom_site_symmetry_multiplicity
 _atom_site_fract_x
 _atom_site_fract_y
 _atom_site_fract_z
 _atom_site_occupancy
  Pr  Pr0  1  0.250000  0.489211  0.176313  1
  Pr  Pr1  1  0.750000  0.510357  0.823824  1
  Pr  Pr2  1  0.250000  0.991736  0.323561  1
  Pr  Pr3  1  0.750000  0.009189  0.676529  1
  Pr  Pr4  1  0.750000  0.651660  0.412270  1
  Nd  Nd5  1  0.250000  0.348481  0.587836  1
  Ho  Ho6  1  0.750000  0.148299  0.077870  1
  Ho  Ho7  1  0.250000  0.851958  0.922059  1
  Au  Au8  1  0.250000  0.242932  0.910957  1
  Au  Au9  1  0.750000  0.757433  0.087732  1
  Au  Au10  1  0.250000  0.755780  0.610362  1
  Au  Au11  1  0.750000  0.242964  0.390687  1
