# generated using pymatgen
data_Dy4Al23Ni6
_symmetry_space_group_name_H-M   'P 1'
_cell_length_a   8.24451177
_cell_length_b   8.24451247
_cell_length_c   18.34699891
_cell_angle_alpha   67.90838700
_cell_angle_beta   67.90838436
_cell_angle_gamma   28.68441864
_symmetry_Int_Tables_number   1
_chemical_formula_structural   Dy4Al23Ni6
_chemical_formula_sum   'Dy4 Al23 Ni6'
_cell_volume   551.64017983
_cell_formula_units_Z   1
loop_
 _symmetry_equiv_pos_site_id
 _symmetry_equiv_pos_as_xyz
  1  'x, y, z'
loop_
 _atom_site_type_symbol
 _atom_site_label
 _atom_site_symmetry_multiplicity
 _atom_site_fract_x
 _atom_site_fract_y
 _atom_site_fract_z
 _atom_site_occupancy
  Dy  Dy0  1  0.734557  0.734557  0.219031  1
  Dy  Dy1  1  0.571050  0.571050  0.593191  1
  Dy  Dy2  1  0.428950  0.428950  0.406809  1
  Dy  Dy3  1  0.265443  0.265443  0.780969  1
  Al  Al4  1  0.000000  0.000000  0.500000  1
  Al  Al5  1  0.855364  0.855364  0.856867  1
  Al  Al6  1  0.918026  0.918026  0.686327  1
  Al  Al7  1  0.081974  0.081974  0.313673  1
  Al  Al8  1  0.909759  0.909759  0.051356  1
  Al  Al9  1  0.090241  0.090241  0.948644  1
  Al  Al10  1  0.909478  0.909478  0.281116  1
  Al  Al11  1  0.090522  0.090522  0.718884  1
  Al  Al12  1  0.798311  0.798311  0.520414  1
  Al  Al13  1  0.201689  0.201689  0.479586  1
  Al  Al14  1  0.144636  0.144636  0.143133  1
  Al  Al15  1  0.609519  0.609519  0.837061  1
  Al  Al16  1  0.743958  0.743958  0.046478  1
  Al  Al17  1  0.256042  0.256042  0.953522  1
  Al  Al18  1  0.390481  0.390481  0.162939  1
  Al  Al19  1  0.467926  0.467926  0.780206  1
  Al  Al20  1  0.725481  0.725481  0.675628  1
  Al  Al21  1  0.274519  0.274519  0.324372  1
  Al  Al22  1  0.623346  0.623346  0.404122  1
  Al  Al23  1  0.376654  0.376654  0.595878  1
  Al  Al24  1  0.568231  0.568231  0.060474  1
  Al  Al25  1  0.431769  0.431769  0.939526  1
  Al  Al26  1  0.532074  0.532074  0.219794  1
  Ni  Ni27  1  0.992319  0.992319  0.137286  1
  Ni  Ni28  1  0.007681  0.007681  0.862714  1
  Ni  Ni29  1  0.772989  0.772989  0.398766  1
  Ni  Ni30  1  0.689180  0.689180  0.931703  1
  Ni  Ni31  1  0.227011  0.227011  0.601234  1
  Ni  Ni32  1  0.310820  0.310820  0.068297  1
