# generated using pymatgen
data_Dy3Tm2Mn2P12Ir17
_symmetry_space_group_name_H-M   'P 1'
_cell_length_a   12.62755000
_cell_length_b   12.72395259
_cell_length_c   3.96207000
_cell_angle_alpha   90.00000000
_cell_angle_beta   90.00000000
_cell_angle_gamma   119.74968742
_symmetry_Int_Tables_number   1
_chemical_formula_structural   Dy3Tm2Mn2P12Ir17
_chemical_formula_sum   'Dy3 Tm2 Mn2 P12 Ir17'
_cell_volume   552.69282405
_cell_formula_units_Z   1
loop_
 _symmetry_equiv_pos_site_id
 _symmetry_equiv_pos_as_xyz
  1  'x, y, z'
loop_
 _atom_site_type_symbol
 _atom_site_label
 _atom_site_symmetry_multiplicity
 _atom_site_fract_x
 _atom_site_fract_y
 _atom_site_fract_z
 _atom_site_occupancy
  Dy  Dy0  1  0.000466  0.811579  0.000000  1
  Dy  Dy1  1  0.188887  0.188421  0.000000  1
  Dy  Dy2  1  0.813498  0.000000  0.000000  1
  Tm  Tm3  1  0.332174  0.663024  0.500000  1
  Tm  Tm4  1  0.669150  0.336976  0.500000  1
  Mn  Mn5  1  0.998644  0.457153  0.500000  1
  Mn  Mn6  1  0.541491  0.542847  0.500000  1
  P  P7  1  0.999691  0.634819  0.500000  1
  P  P8  1  0.364872  0.365181  0.500000  1
  P  P9  1  0.643562  0.000000  0.500000  1
  P  P10  1  0.515166  0.684193  0.000000  1
  P  P11  1  0.308674  0.823105  0.000000  1
  P  P12  1  0.166705  0.481204  0.000000  1
  P  P13  1  0.485569  0.176895  0.000000  1
  P  P14  1  0.685500  0.518796  0.000000  1
  P  P15  1  0.830973  0.315807  0.000000  1
  P  P16  1  0.999806  0.177837  0.500000  1
  P  P17  1  0.821969  0.822163  0.500000  1
  P  P18  1  0.179844  0.000000  0.500000  1
  Ir  Ir19  1  0.504823  0.865004  0.000000  1
  Ir  Ir20  1  0.129271  0.637711  0.000000  1
  Ir  Ir21  1  0.358235  0.492831  0.000000  1
  Ir  Ir22  1  0.491561  0.362289  0.000000  1
  Ir  Ir23  1  0.865405  0.507169  0.000000  1
  Ir  Ir24  1  0.639819  0.134996  0.000000  1
  Ir  Ir25  1  0.462294  0.000000  0.500000  1
  Ir  Ir26  1  0.998000  0.282420  0.000000  1
  Ir  Ir27  1  0.715580  0.717580  0.000000  1
  Ir  Ir28  1  0.288309  0.000000  0.000000  1
  Ir  Ir29  1  0.621589  0.803939  0.500000  1
  Ir  Ir30  1  0.199080  0.821095  0.500000  1
  Ir  Ir31  1  0.178153  0.373623  0.500000  1
  Ir  Ir32  1  0.377985  0.178905  0.500000  1
  Ir  Ir33  1  0.804530  0.626377  0.500000  1
  Ir  Ir34  1  0.817649  0.196061  0.500000  1
  Ir  Ir35  1  0.001075  0.000000  0.500000  1
