# generated using pymatgen
data_Nb2As2RuRh
_symmetry_space_group_name_H-M   'P 1'
_cell_length_a   3.88774600
_cell_length_b   6.52793143
_cell_length_c   7.44712013
_cell_angle_alpha   89.27323624
_cell_angle_beta   90.00000000
_cell_angle_gamma   90.00000000
_symmetry_Int_Tables_number   1
_chemical_formula_structural   Nb2As2RuRh
_chemical_formula_sum   'Nb4 As4 Ru2 Rh2'
_cell_volume   188.98480568
_cell_formula_units_Z   2
loop_
 _symmetry_equiv_pos_site_id
 _symmetry_equiv_pos_as_xyz
  1  'x, y, z'
loop_
 _atom_site_type_symbol
 _atom_site_label
 _atom_site_symmetry_multiplicity
 _atom_site_fract_x
 _atom_site_fract_y
 _atom_site_fract_z
 _atom_site_occupancy
  Nb  Nb0  1  0.250000  0.524711  0.676432  1
  Nb  Nb1  1  0.750000  0.475289  0.323568  1
  Nb  Nb2  1  0.250000  0.029508  0.833985  1
  Nb  Nb3  1  0.750000  0.970492  0.166015  1
  As  As4  1  0.250000  0.264947  0.124489  1
  As  As5  1  0.750000  0.735053  0.875511  1
  As  As6  1  0.250000  0.761366  0.372832  1
  As  As7  1  0.750000  0.238634  0.627168  1
  Ru  Ru8  1  0.750000  0.356502  0.939344  1
  Ru  Ru9  1  0.250000  0.643498  0.060656  1
  Rh  Rh10  1  0.750000  0.853386  0.562100  1
  Rh  Rh11  1  0.250000  0.146614  0.437900  1
