# generated using pymatgen
data_Yb3ScTc4(B4Ru3)2
_symmetry_space_group_name_H-M   'P 1'
_cell_length_a   3.01543600
_cell_length_b   8.70487231
_cell_length_c   10.13100580
_cell_angle_alpha   90.12970240
_cell_angle_beta   90.00000000
_cell_angle_gamma   90.00000000
_symmetry_Int_Tables_number   1
_chemical_formula_structural   Yb3ScTc4(B4Ru3)2
_chemical_formula_sum   'Yb3 Sc1 Tc4 B8 Ru6'
_cell_volume   265.92794151
_cell_formula_units_Z   1
loop_
 _symmetry_equiv_pos_site_id
 _symmetry_equiv_pos_as_xyz
  1  'x, y, z'
loop_
 _atom_site_type_symbol
 _atom_site_label
 _atom_site_symmetry_multiplicity
 _atom_site_fract_x
 _atom_site_fract_y
 _atom_site_fract_z
 _atom_site_occupancy
  Yb  Yb0  1  0.500000  0.838089  0.182303  1
  Yb  Yb1  1  0.500000  0.162575  0.817945  1
  Yb  Yb2  1  0.500000  0.662226  0.681329  1
  Sc  Sc3  1  0.500000  0.338541  0.318586  1
  Tc  Tc4  1  0.000000  0.657854  0.955085  1
  Tc  Tc5  1  0.000000  0.341880  0.048170  1
  Tc  Tc6  1  0.000000  0.840475  0.453359  1
  Tc  Tc7  1  0.000000  0.159028  0.543047  1
  B  B8  1  0.500000  0.967386  0.587442  1
  B  B9  1  0.500000  0.032581  0.412187  1
  B  B10  1  0.500000  0.851464  0.902026  1
  B  B11  1  0.500000  0.150941  0.099996  1
  B  B12  1  0.500000  0.648106  0.401115  1
  B  B13  1  0.500000  0.349601  0.597922  1
  B  B14  1  0.500000  0.466759  0.912178  1
  B  B15  1  0.500000  0.532890  0.087270  1
  Ru  Ru16  1  0.000000  0.001628  0.001225  1
  Ru  Ru17  1  0.000000  0.410713  0.758957  1
  Ru  Ru18  1  0.000000  0.584191  0.240799  1
  Ru  Ru19  1  0.000000  0.495926  0.497265  1
  Ru  Ru20  1  0.000000  0.910466  0.740250  1
  Ru  Ru21  1  0.000000  0.096684  0.261544  1
