# generated using pymatgen
data_Tb4Pr(MnB3)2
_symmetry_space_group_name_H-M   'P 1'
_cell_length_a   5.44575104
_cell_length_b   5.44575080
_cell_length_c   8.40637562
_cell_angle_alpha   71.10068817
_cell_angle_beta   71.10068914
_cell_angle_gamma   60.00002375
_symmetry_Int_Tables_number   1
_chemical_formula_structural   Tb4Pr(MnB3)2
_chemical_formula_sum   'Tb4 Pr1 Mn2 B6'
_cell_volume   200.23171298
_cell_formula_units_Z   1
loop_
 _symmetry_equiv_pos_site_id
 _symmetry_equiv_pos_as_xyz
  1  'x, y, z'
loop_
 _atom_site_type_symbol
 _atom_site_label
 _atom_site_symmetry_multiplicity
 _atom_site_fract_x
 _atom_site_fract_y
 _atom_site_fract_z
 _atom_site_occupancy
  Tb  Tb0  1  0.249900  0.249900  0.250299  1
  Tb  Tb1  1  0.750100  0.750100  0.749701  1
  Tb  Tb2  1  0.417528  0.417528  0.747416  1
  Tb  Tb3  1  0.582472  0.582472  0.252584  1
  Pr  Pr4  1  0.000000  0.000000  0.000000  1
  Mn  Mn5  1  0.115868  0.115868  0.652394  1
  Mn  Mn6  1  0.884132  0.884132  0.347606  1
  B  B7  1  0.165795  0.834205  0.500000  1
  B  B8  1  0.834205  0.500000  0.500000  1
  B  B9  1  0.500000  0.165795  0.500000  1
  B  B10  1  0.165795  0.500000  0.500000  1
  B  B11  1  0.500000  0.834205  0.500000  1
  B  B12  1  0.834205  0.165795  0.500000  1
