# generated using pymatgen
data_Dy3HfAl15(GaIr2)3
_symmetry_space_group_name_H-M   'P 1'
_cell_length_a   7.52797871
_cell_length_b   7.52100556
_cell_length_c   9.46261900
_cell_angle_alpha   90.00000000
_cell_angle_beta   90.00000000
_cell_angle_gamma   119.67064710
_symmetry_Int_Tables_number   1
_chemical_formula_structural   Dy3HfAl15(GaIr2)3
_chemical_formula_sum   'Dy3 Hf1 Al15 Ga3 Ir6'
_cell_volume   465.50897522
_cell_formula_units_Z   1
loop_
 _symmetry_equiv_pos_site_id
 _symmetry_equiv_pos_as_xyz
  1  'x, y, z'
loop_
 _atom_site_type_symbol
 _atom_site_label
 _atom_site_symmetry_multiplicity
 _atom_site_fract_x
 _atom_site_fract_y
 _atom_site_fract_z
 _atom_site_occupancy
  Dy  Dy0  1  0.005423  0.328438  0.250000  1
  Dy  Dy1  1  0.671138  0.997928  0.750000  1
  Dy  Dy2  1  0.330214  0.006858  0.250000  1
  Hf  Hf3  1  0.999347  0.672433  0.750000  1
  Al  Al4  1  0.126802  0.123825  0.750000  1
  Al  Al5  1  0.999806  0.337852  0.578769  1
  Al  Al6  1  0.997959  0.665358  0.431456  1
  Al  Al7  1  0.997959  0.665358  0.068544  1
  Al  Al8  1  0.332293  0.997747  0.921335  1
  Al  Al9  1  0.999806  0.337852  0.921231  1
  Al  Al10  1  0.664895  0.996745  0.073253  1
  Al  Al11  1  0.664895  0.996745  0.426747  1
  Al  Al12  1  0.332293  0.997747  0.578665  1
  Al  Al13  1  0.334529  0.334821  0.044991  1
  Al  Al14  1  0.669755  0.667342  0.935007  1
  Al  Al15  1  0.669755  0.667342  0.564993  1
  Al  Al16  1  0.334529  0.334821  0.455009  1
  Al  Al17  1  0.334087  0.548870  0.750000  1
  Al  Al18  1  0.554703  0.342736  0.750000  1
  Ga  Ga19  1  0.871416  0.869239  0.250000  1
  Ga  Ga20  1  0.659551  0.452935  0.250000  1
  Ga  Ga21  1  0.450488  0.657467  0.250000  1
  Ir  Ir22  1  0.672279  0.328333  0.503039  1
  Ir  Ir23  1  0.327542  0.672292  0.503644  1
  Ir  Ir24  1  0.327542  0.672292  0.996356  1
  Ir  Ir25  1  0.672279  0.328333  0.996961  1
  Ir  Ir26  1  0.999358  0.999146  0.503821  1
  Ir  Ir27  1  0.999358  0.999146  0.996179  1
