# generated using pymatgen
data_Na3NdSn12
_symmetry_space_group_name_H-M   'P 1'
_cell_length_a   11.78072751
_cell_length_b   11.78016596
_cell_length_c   11.77853948
_cell_angle_alpha   33.04743924
_cell_angle_beta   33.04291495
_cell_angle_gamma   33.02379947
_symmetry_Int_Tables_number   1
_chemical_formula_structural   Na3NdSn12
_chemical_formula_sum   'Na3 Nd1 Sn12'
_cell_volume   432.40896546
_cell_formula_units_Z   1
loop_
 _symmetry_equiv_pos_site_id
 _symmetry_equiv_pos_as_xyz
  1  'x, y, z'
loop_
 _atom_site_type_symbol
 _atom_site_label
 _atom_site_symmetry_multiplicity
 _atom_site_fract_x
 _atom_site_fract_y
 _atom_site_fract_z
 _atom_site_occupancy
  Na  Na0  1  0.875250  0.875265  0.875306  1
  Na  Na1  1  0.124715  0.124710  0.124704  1
  Na  Na2  1  0.708442  0.708436  0.708440  1
  Nd  Nd3  1  0.290890  0.290854  0.290780  1
  Sn  Sn4  1  0.290244  0.793118  0.793162  1
  Sn  Sn5  1  0.793133  0.793152  0.290234  1
  Sn  Sn6  1  0.855938  0.384180  0.384258  1
  Sn  Sn7  1  0.384232  0.384217  0.855940  1
  Sn  Sn8  1  0.384176  0.855958  0.384247  1
  Sn  Sn9  1  0.620858  0.133686  0.620809  1
  Sn  Sn10  1  0.133673  0.620862  0.620808  1
  Sn  Sn11  1  0.620823  0.620832  0.133697  1
  Sn  Sn12  1  0.793112  0.290244  0.793168  1
  Sn  Sn13  1  0.205453  0.713624  0.205409  1
  Sn  Sn14  1  0.205430  0.205424  0.713625  1
  Sn  Sn15  1  0.713632  0.205436  0.205415  1
