# generated using pymatgen
data_NdHo2Th(AsPt)4
_symmetry_space_group_name_H-M   'P 1'
_cell_length_a   4.30365700
_cell_length_b   4.30365786
_cell_length_c   15.72312900
_cell_angle_alpha   90.00000000
_cell_angle_beta   90.00000000
_cell_angle_gamma   120.00000105
_symmetry_Int_Tables_number   1
_chemical_formula_structural   NdHo2Th(AsPt)4
_chemical_formula_sum   'Nd1 Ho2 Th1 As4 Pt4'
_cell_volume   252.19994859
_cell_formula_units_Z   1
loop_
 _symmetry_equiv_pos_site_id
 _symmetry_equiv_pos_as_xyz
  1  'x, y, z'
loop_
 _atom_site_type_symbol
 _atom_site_label
 _atom_site_symmetry_multiplicity
 _atom_site_fract_x
 _atom_site_fract_y
 _atom_site_fract_z
 _atom_site_occupancy
  Nd  Nd0  1  0.000000  0.000000  0.500000  1
  Ho  Ho1  1  0.000000  0.000000  0.252921  1
  Ho  Ho2  1  0.000000  0.000000  0.747079  1
  Th  Th3  1  0.000000  0.000000  0.000000  1
  As  As4  1  0.333333  0.666667  0.882639  1
  As  As5  1  0.666667  0.333333  0.117361  1
  As  As6  1  0.666667  0.333333  0.381643  1
  As  As7  1  0.333333  0.666667  0.618357  1
  Pt  Pt8  1  0.333333  0.666667  0.355346  1
  Pt  Pt9  1  0.666667  0.333333  0.644654  1
  Pt  Pt10  1  0.666667  0.333333  0.859186  1
  Pt  Pt11  1  0.333333  0.666667  0.140814  1
