# generated using pymatgen
data_Ce3TiSn5
_symmetry_space_group_name_H-M   'P 1'
_cell_length_a   9.32990900
_cell_length_b   9.32991030
_cell_length_c   6.21125200
_cell_angle_alpha   90.00000000
_cell_angle_beta   90.00000000
_cell_angle_gamma   119.99999184
_symmetry_Int_Tables_number   1
_chemical_formula_structural   Ce3TiSn5
_chemical_formula_sum   'Ce6 Ti2 Sn10'
_cell_volume   468.23588374
_cell_formula_units_Z   2
loop_
 _symmetry_equiv_pos_site_id
 _symmetry_equiv_pos_as_xyz
  1  'x, y, z'
loop_
 _atom_site_type_symbol
 _atom_site_label
 _atom_site_symmetry_multiplicity
 _atom_site_fract_x
 _atom_site_fract_y
 _atom_site_fract_z
 _atom_site_occupancy
  Ce  Ce0  1  0.615064  0.000000  0.250000  1
  Ce  Ce1  1  0.384936  0.000000  0.750000  1
  Ce  Ce2  1  0.000000  0.615064  0.250000  1
  Ce  Ce3  1  0.000000  0.384936  0.750000  1
  Ce  Ce4  1  0.384936  0.384936  0.250000  1
  Ce  Ce5  1  0.615064  0.615064  0.750000  1
  Ti  Ti6  1  0.000000  0.000000  0.000000  1
  Ti  Ti7  1  0.000000  0.000000  0.500000  1
  Sn  Sn8  1  0.259009  0.000000  0.250000  1
  Sn  Sn9  1  0.740991  0.000000  0.750000  1
  Sn  Sn10  1  0.000000  0.259009  0.250000  1
  Sn  Sn11  1  0.000000  0.740991  0.750000  1
  Sn  Sn12  1  0.740991  0.740991  0.250000  1
  Sn  Sn13  1  0.259009  0.259009  0.750000  1
  Sn  Sn14  1  0.333333  0.666667  0.000000  1
  Sn  Sn15  1  0.666667  0.333333  0.000000  1
  Sn  Sn16  1  0.666667  0.333333  0.500000  1
  Sn  Sn17  1  0.333333  0.666667  0.500000  1
