# generated using pymatgen
data_Tb3Tm2Sc(AlAu)6
_symmetry_space_group_name_H-M   'P 1'
_cell_length_a   7.35981509
_cell_length_b   7.35942645
_cell_length_c   7.92928200
_cell_angle_alpha   90.00000000
_cell_angle_beta   90.00000000
_cell_angle_gamma   119.97879049
_symmetry_Int_Tables_number   1
_chemical_formula_structural   Tb3Tm2Sc(AlAu)6
_chemical_formula_sum   'Tb3 Tm2 Sc1 Al6 Au6'
_cell_volume   372.02159104
_cell_formula_units_Z   1
loop_
 _symmetry_equiv_pos_site_id
 _symmetry_equiv_pos_as_xyz
  1  'x, y, z'
loop_
 _atom_site_type_symbol
 _atom_site_label
 _atom_site_symmetry_multiplicity
 _atom_site_fract_x
 _atom_site_fract_y
 _atom_site_fract_z
 _atom_site_occupancy
  Tb  Tb0  1  0.584807  0.998358  0.750000  1
  Tb  Tb1  1  0.001543  0.586318  0.750000  1
  Tb  Tb2  1  0.414228  0.415879  0.750000  1
  Tm  Tm3  1  0.997844  0.589291  0.250000  1
  Tm  Tm4  1  0.591272  0.001918  0.250000  1
  Sc  Sc5  1  0.407059  0.405017  0.250000  1
  Al  Al6  1  0.750206  0.750515  0.007146  1
  Al  Al7  1  0.249187  0.002094  0.003973  1
  Al  Al8  1  0.002404  0.249237  0.003942  1
  Al  Al9  1  0.750206  0.750515  0.492854  1
  Al  Al10  1  0.249187  0.002094  0.496027  1
  Al  Al11  1  0.002404  0.249237  0.496058  1
  Au  Au12  1  0.999051  0.999014  0.750000  1
  Au  Au13  1  0.004411  0.004397  0.250000  1
  Au  Au14  1  0.663439  0.334715  0.010668  1
  Au  Au15  1  0.663439  0.334715  0.489332  1
  Au  Au16  1  0.334656  0.663343  0.484826  1
  Au  Au17  1  0.334656  0.663343  0.015174  1
