# generated using pymatgen
data_CeDy11(Si3Ir)4
_symmetry_space_group_name_H-M   'P 1'
_cell_length_a   4.25578500
_cell_length_b   10.63100271
_cell_length_c   12.35242411
_cell_angle_alpha   90.16092098
_cell_angle_beta   90.00000000
_cell_angle_gamma   90.00000000
_symmetry_Int_Tables_number   1
_chemical_formula_structural   CeDy11(Si3Ir)4
_chemical_formula_sum   'Ce1 Dy11 Si12 Ir4'
_cell_volume   558.86175456
_cell_formula_units_Z   1
loop_
 _symmetry_equiv_pos_site_id
 _symmetry_equiv_pos_as_xyz
  1  'x, y, z'
loop_
 _atom_site_type_symbol
 _atom_site_label
 _atom_site_symmetry_multiplicity
 _atom_site_fract_x
 _atom_site_fract_y
 _atom_site_fract_z
 _atom_site_occupancy
  Ce  Ce0  1  0.750000  0.158309  0.696864  1
  Dy  Dy1  1  0.250000  0.880438  0.022207  1
  Dy  Dy2  1  0.250000  0.619199  0.522798  1
  Dy  Dy3  1  0.750000  0.119285  0.979301  1
  Dy  Dy4  1  0.750000  0.382906  0.476993  1
  Dy  Dy5  1  0.250000  0.917990  0.602964  1
  Dy  Dy6  1  0.250000  0.582148  0.103460  1
  Dy  Dy7  1  0.750000  0.082895  0.395689  1
  Dy  Dy8  1  0.750000  0.418067  0.897802  1
  Dy  Dy9  1  0.250000  0.659068  0.801962  1
  Dy  Dy10  1  0.250000  0.840764  0.301496  1
  Dy  Dy11  1  0.750000  0.344062  0.198495  1
  Si  Si12  1  0.250000  0.006024  0.819863  1
  Si  Si13  1  0.250000  0.493142  0.320857  1
  Si  Si14  1  0.750000  0.991544  0.178478  1
  Si  Si15  1  0.750000  0.506842  0.680212  1
  Si  Si16  1  0.250000  0.244273  0.842417  1
  Si  Si17  1  0.250000  0.255868  0.338017  1
  Si  Si18  1  0.750000  0.754684  0.159549  1
  Si  Si19  1  0.750000  0.745640  0.659992  1
  Si  Si20  1  0.250000  0.204275  0.539085  1
  Si  Si21  1  0.250000  0.298111  0.045101  1
  Si  Si22  1  0.750000  0.797953  0.456095  1
  Si  Si23  1  0.750000  0.700216  0.957549  1
  Ir  Ir24  1  0.250000  0.386291  0.682237  1
  Ir  Ir25  1  0.250000  0.111730  0.180870  1
  Ir  Ir26  1  0.750000  0.611697  0.318459  1
  Ir  Ir27  1  0.750000  0.886580  0.821188  1
