# generated using pymatgen
data_Eu2Fe3B4C
_symmetry_space_group_name_H-M   'P 1'
_cell_length_a   5.44137329
_cell_length_b   5.44137440
_cell_length_c   7.65928738
_cell_angle_alpha   57.60202391
_cell_angle_beta   57.60201775
_cell_angle_gamma   40.96418173
_symmetry_Int_Tables_number   1
_chemical_formula_structural   Eu2Fe3B4C
_chemical_formula_sum   'Eu2 Fe3 B4 C1'
_cell_volume   121.95528501
_cell_formula_units_Z   1
loop_
 _symmetry_equiv_pos_site_id
 _symmetry_equiv_pos_as_xyz
  1  'x, y, z'
loop_
 _atom_site_type_symbol
 _atom_site_label
 _atom_site_symmetry_multiplicity
 _atom_site_fract_x
 _atom_site_fract_y
 _atom_site_fract_z
 _atom_site_occupancy
  Eu  Eu0  1  0.385131  0.954618  0.238365  1
  Eu  Eu1  1  0.045382  0.614869  0.761635  1
  Fe  Fe2  1  0.857821  0.403301  0.587091  1
  Fe  Fe3  1  0.012588  0.987412  0.000000  1
  Fe  Fe4  1  0.596699  0.142179  0.412909  1
  B  B5  1  0.069268  0.643970  0.317677  1
  B  B6  1  0.532560  0.515140  0.877787  1
  B  B7  1  0.356030  0.930732  0.682323  1
  B  B8  1  0.484860  0.467440  0.122213  1
  C  C9  1  0.724662  0.275338  0.500000  1
