# generated using pymatgen
data_Pr16Sm4Si15Au
_symmetry_space_group_name_H-M   'P 1'
_cell_length_a   7.87743112
_cell_length_b   7.85049584
_cell_length_c   15.39969400
_cell_angle_alpha   90.00266390
_cell_angle_beta   89.67449864
_cell_angle_gamma   90.04869444
_symmetry_Int_Tables_number   1
_chemical_formula_structural   Pr16Sm4Si15Au
_chemical_formula_sum   'Pr16 Sm4 Si15 Au1'
_cell_volume   952.32816337
_cell_formula_units_Z   1
loop_
 _symmetry_equiv_pos_site_id
 _symmetry_equiv_pos_as_xyz
  1  'x, y, z'
loop_
 _atom_site_type_symbol
 _atom_site_label
 _atom_site_symmetry_multiplicity
 _atom_site_fract_x
 _atom_site_fract_y
 _atom_site_fract_z
 _atom_site_occupancy
  Pr  Pr0  1  0.377139  0.013846  0.446066  1
  Pr  Pr1  1  0.489003  0.874347  0.696570  1
  Pr  Pr2  1  0.512975  0.119887  0.195343  1
  Pr  Pr3  1  0.880549  0.486662  0.303453  1
  Pr  Pr4  1  0.117712  0.519505  0.804567  1
  Pr  Pr5  1  0.623261  0.985362  0.947848  1
  Pr  Pr6  1  0.005818  0.382063  0.550729  1
  Pr  Pr7  1  0.987111  0.623011  0.055162  1
  Pr  Pr8  1  0.129909  0.979230  0.879915  1
  Pr  Pr9  1  0.522724  0.627285  0.128190  1
  Pr  Pr10  1  0.476270  0.373939  0.628024  1
  Pr  Pr11  1  0.625024  0.523716  0.873651  1
  Pr  Pr12  1  0.374785  0.477927  0.370865  1
  Pr  Pr13  1  0.875625  0.024405  0.377251  1
  Pr  Pr14  1  0.977844  0.124958  0.122682  1
  Pr  Pr15  1  0.019528  0.870015  0.620387  1
  Sm  Sm16  1  0.306341  0.306345  0.999681  1
  Sm  Sm17  1  0.194171  0.807586  0.249913  1
  Sm  Sm18  1  0.804688  0.189567  0.751209  1
  Sm  Sm19  1  0.693447  0.690703  0.498747  1
  Si  Si20  1  0.329263  0.689685  0.957377  1
  Si  Si21  1  0.666350  0.308988  0.456462  1
  Si  Si22  1  0.691918  0.330984  0.043976  1
  Si  Si23  1  0.310696  0.671628  0.541696  1
  Si  Si24  1  0.811946  0.828969  0.208316  1
  Si  Si25  1  0.172037  0.190309  0.292934  1
  Si  Si26  1  0.831834  0.809658  0.792975  1
  Si  Si27  1  0.285832  0.920101  0.062596  1
  Si  Si28  1  0.581179  0.785577  0.312352  1
  Si  Si29  1  0.431178  0.209931  0.816427  1
  Si  Si30  1  0.783727  0.580428  0.688327  1
  Si  Si31  1  0.213898  0.421140  0.187853  1
  Si  Si32  1  0.709436  0.078129  0.560571  1
  Si  Si33  1  0.920900  0.287822  0.938981  1
  Si  Si34  1  0.080838  0.714822  0.437351  1
  Au  Au35  1  0.185046  0.171471  0.701557  1
