# generated using pymatgen
data_TbHo3B10
_symmetry_space_group_name_H-M   'P 1'
_cell_length_a   7.08876900
_cell_length_b   7.08407718
_cell_length_c   7.11273945
_cell_angle_alpha   76.68980516
_cell_angle_beta   90.00000000
_cell_angle_gamma   90.00000000
_symmetry_Int_Tables_number   1
_chemical_formula_structural   TbHo3B10
_chemical_formula_sum   'Tb2 Ho6 B20'
_cell_volume   347.58850562
_cell_formula_units_Z   2
loop_
 _symmetry_equiv_pos_site_id
 _symmetry_equiv_pos_as_xyz
  1  'x, y, z'
loop_
 _atom_site_type_symbol
 _atom_site_label
 _atom_site_symmetry_multiplicity
 _atom_site_fract_x
 _atom_site_fract_y
 _atom_site_fract_z
 _atom_site_occupancy
  Tb  Tb0  1  0.307999  0.229283  0.373947  1
  Tb  Tb1  1  0.807999  0.770717  0.126053  1
  Ho  Ho2  1  0.315006  0.756260  0.252488  1
  Ho  Ho3  1  0.815006  0.243740  0.247512  1
  Ho  Ho4  1  0.685201  0.243219  0.747115  1
  Ho  Ho5  1  0.185201  0.756781  0.752885  1
  Ho  Ho6  1  0.693347  0.766226  0.627744  1
  Ho  Ho7  1  0.193347  0.233774  0.872256  1
  B  B8  1  0.502255  0.313816  0.040658  1
  B  B9  1  0.002255  0.686184  0.459342  1
  B  B10  1  0.497556  0.686756  0.957999  1
  B  B11  1  0.997556  0.313244  0.542001  1
  B  B12  1  0.488270  0.927127  0.922050  1
  B  B13  1  0.988270  0.072873  0.577950  1
  B  B14  1  0.509050  0.074075  0.073958  1
  B  B15  1  0.009050  0.925925  0.426042  1
  B  B16  1  0.326110  0.496742  0.039564  1
  B  B17  1  0.826110  0.503258  0.460436  1
  B  B18  1  0.674281  0.503499  0.960147  1
  B  B19  1  0.174281  0.496501  0.539853  1
  B  B20  1  0.911192  0.498346  0.911079  1
  B  B21  1  0.411192  0.501654  0.588921  1
  B  B22  1  0.089284  0.501110  0.089003  1
  B  B23  1  0.589284  0.498890  0.410997  1
  B  B24  1  0.961975  0.496319  0.674852  1
  B  B25  1  0.461975  0.503681  0.825148  1
  B  B26  1  0.038471  0.503129  0.325666  1
  B  B27  1  0.538471  0.496871  0.174334  1
