# generated using pymatgen
data_LaPa3(GeIr)4
_symmetry_space_group_name_H-M   'P 1'
_cell_length_a   4.35981100
_cell_length_b   7.09948491
_cell_length_c   7.69311704
_cell_angle_alpha   90.29895696
_cell_angle_beta   90.00000000
_cell_angle_gamma   90.00000000
_symmetry_Int_Tables_number   1
_chemical_formula_structural   LaPa3(GeIr)4
_chemical_formula_sum   'La1 Pa3 Ge4 Ir4'
_cell_volume   238.11729001
_cell_formula_units_Z   1
loop_
 _symmetry_equiv_pos_site_id
 _symmetry_equiv_pos_as_xyz
  1  'x, y, z'
loop_
 _atom_site_type_symbol
 _atom_site_label
 _atom_site_symmetry_multiplicity
 _atom_site_fract_x
 _atom_site_fract_y
 _atom_site_fract_z
 _atom_site_occupancy
  La  La0  1  0.750000  0.511432  0.295556  1
  Pa  Pa1  1  0.250000  0.991962  0.796406  1
  Pa  Pa2  1  0.250000  0.491615  0.710308  1
  Pa  Pa3  1  0.750000  0.008024  0.199250  1
  Ge  Ge4  1  0.250000  0.820494  0.417285  1
  Ge  Ge5  1  0.250000  0.306800  0.087101  1
  Ge  Ge6  1  0.750000  0.187831  0.581184  1
  Ge  Ge7  1  0.750000  0.679174  0.915060  1
  Ir  Ir8  1  0.250000  0.203326  0.416039  1
  Ir  Ir9  1  0.250000  0.747364  0.076845  1
  Ir  Ir10  1  0.750000  0.785576  0.596703  1
  Ir  Ir11  1  0.750000  0.266402  0.908263  1
