# generated using pymatgen
data_HfTi5(MnGa3)4
_symmetry_space_group_name_H-M   'P 1'
_cell_length_a   5.28443400
_cell_length_b   7.50572613
_cell_length_c   8.54736288
_cell_angle_alpha   90.40458278
_cell_angle_beta   90.00000000
_cell_angle_gamma   90.00000000
_symmetry_Int_Tables_number   1
_chemical_formula_structural   HfTi5(MnGa3)4
_chemical_formula_sum   'Hf1 Ti5 Mn4 Ga12'
_cell_volume   339.00999818
_cell_formula_units_Z   1
loop_
 _symmetry_equiv_pos_site_id
 _symmetry_equiv_pos_as_xyz
  1  'x, y, z'
loop_
 _atom_site_type_symbol
 _atom_site_label
 _atom_site_symmetry_multiplicity
 _atom_site_fract_x
 _atom_site_fract_y
 _atom_site_fract_z
 _atom_site_occupancy
  Hf  Hf0  1  0.500000  0.155873  0.777904  1
  Ti  Ti1  1  0.000000  0.844687  0.724093  1
  Ti  Ti2  1  0.500000  0.161103  0.220860  1
  Ti  Ti3  1  0.000000  0.290740  0.996526  1
  Ti  Ti4  1  0.000000  0.837799  0.277210  1
  Ti  Ti5  1  0.500000  0.708932  0.503164  1
  Mn  Mn6  1  0.751352  0.500443  0.250540  1
  Mn  Mn7  1  0.750674  0.501296  0.749577  1
  Mn  Mn8  1  0.249326  0.501296  0.749577  1
  Mn  Mn9  1  0.248648  0.500443  0.250540  1
  Ga  Ga10  1  0.000000  0.573510  0.500837  1
  Ga  Ga11  1  0.000000  0.635627  0.999862  1
  Ga  Ga12  1  0.761950  0.969839  0.006386  1
  Ga  Ga13  1  0.000000  0.224055  0.300278  1
  Ga  Ga14  1  0.500000  0.434642  0.002068  1
  Ga  Ga15  1  0.500000  0.775537  0.200582  1
  Ga  Ga16  1  0.257489  0.024111  0.495031  1
  Ga  Ga17  1  0.500000  0.365148  0.496245  1
  Ga  Ga18  1  0.000000  0.228111  0.690947  1
  Ga  Ga19  1  0.500000  0.772861  0.806358  1
  Ga  Ga20  1  0.742511  0.024111  0.495031  1
  Ga  Ga21  1  0.238050  0.969839  0.006386  1
