# generated using pymatgen
data_HoEr9Sn5Sb
_symmetry_space_group_name_H-M   'P 1'
_cell_length_a   8.89165151
_cell_length_b   8.88696571
_cell_length_c   6.46062400
_cell_angle_alpha   90.00000000
_cell_angle_beta   90.00000000
_cell_angle_gamma   119.85902416
_symmetry_Int_Tables_number   1
_chemical_formula_structural   HoEr9Sn5Sb
_chemical_formula_sum   'Ho1 Er9 Sn5 Sb1'
_cell_volume   442.74761307
_cell_formula_units_Z   1
loop_
 _symmetry_equiv_pos_site_id
 _symmetry_equiv_pos_as_xyz
  1  'x, y, z'
loop_
 _atom_site_type_symbol
 _atom_site_label
 _atom_site_symmetry_multiplicity
 _atom_site_fract_x
 _atom_site_fract_y
 _atom_site_fract_z
 _atom_site_occupancy
  Ho  Ho0  1  0.997446  0.760589  0.750000  1
  Er  Er1  1  0.001108  0.238610  0.250000  1
  Er  Er2  1  0.762289  0.761386  0.250000  1
  Er  Er3  1  0.762137  0.999874  0.750000  1
  Er  Er4  1  0.237235  0.239976  0.750000  1
  Er  Er5  1  0.238766  0.000160  0.250000  1
  Er  Er6  1  0.333049  0.665814  0.499777  1
  Er  Er7  1  0.667813  0.334081  0.000278  1
  Er  Er8  1  0.667813  0.334081  0.499722  1
  Er  Er9  1  0.333049  0.665814  0.000223  1
  Sn  Sn10  1  0.395145  0.394088  0.250000  1
  Sn  Sn11  1  0.001193  0.605401  0.250000  1
  Sn  Sn12  1  0.999535  0.395412  0.750000  1
  Sn  Sn13  1  0.604356  0.604766  0.750000  1
  Sn  Sn14  1  0.605942  0.000133  0.250000  1
  Sb  Sb15  1  0.393123  0.999815  0.750000  1
