# generated using pymatgen
data_Nd8Hg2RuPt
_symmetry_space_group_name_H-M   'P 1'
_cell_length_a   9.95392883
_cell_length_b   9.95392768
_cell_length_c   10.00047900
_cell_angle_alpha   59.84517243
_cell_angle_beta   59.84517629
_cell_angle_gamma   59.88331140
_symmetry_Int_Tables_number   1
_chemical_formula_structural   Nd8Hg2RuPt
_chemical_formula_sum   'Nd16 Hg4 Ru2 Pt2'
_cell_volume   698.38009767
_cell_formula_units_Z   2
loop_
 _symmetry_equiv_pos_site_id
 _symmetry_equiv_pos_as_xyz
  1  'x, y, z'
loop_
 _atom_site_type_symbol
 _atom_site_label
 _atom_site_symmetry_multiplicity
 _atom_site_fract_x
 _atom_site_fract_y
 _atom_site_fract_z
 _atom_site_occupancy
  Nd  Nd0  1  0.349651  0.349651  0.355779  1
  Nd  Nd1  1  0.349651  0.349651  0.944921  1
  Nd  Nd2  1  0.345342  0.952045  0.351306  1
  Nd  Nd3  1  0.952045  0.345342  0.351306  1
  Nd  Nd4  1  0.814422  0.189200  0.192053  1
  Nd  Nd5  1  0.189200  0.814422  0.804325  1
  Nd  Nd6  1  0.189200  0.814422  0.192053  1
  Nd  Nd7  1  0.814422  0.189200  0.804325  1
  Nd  Nd8  1  0.189908  0.189908  0.810092  1
  Nd  Nd9  1  0.805974  0.805974  0.194026  1
  Nd  Nd10  1  0.938348  0.558092  0.564347  1
  Nd  Nd11  1  0.558092  0.938348  0.939213  1
  Nd  Nd12  1  0.558092  0.938348  0.564347  1
  Nd  Nd13  1  0.938348  0.558092  0.939213  1
  Nd  Nd14  1  0.561626  0.561626  0.938374  1
  Nd  Nd15  1  0.937655  0.937655  0.562345  1
  Hg  Hg16  1  0.584369  0.584369  0.583239  1
  Hg  Hg17  1  0.584369  0.584369  0.248025  1
  Hg  Hg18  1  0.585641  0.246156  0.584102  1
  Hg  Hg19  1  0.246156  0.585641  0.584102  1
  Ru  Ru20  1  0.144070  0.144070  0.136097  1
  Ru  Ru21  1  0.144070  0.144070  0.575764  1
  Pt  Pt22  1  0.146798  0.572554  0.140324  1
  Pt  Pt23  1  0.572554  0.146798  0.140324  1
