# generated using pymatgen
data_Ho3Co7P6RuRh
_symmetry_space_group_name_H-M   'P 1'
_cell_length_a   3.70365900
_cell_length_b   10.61532400
_cell_length_c   12.38588400
_cell_angle_alpha   90.00000000
_cell_angle_beta   90.00000000
_cell_angle_gamma   90.00000000
_symmetry_Int_Tables_number   1
_chemical_formula_structural   Ho3Co7P6RuRh
_chemical_formula_sum   'Ho6 Co14 P12 Ru2 Rh2'
_cell_volume   486.95772119
_cell_formula_units_Z   2
loop_
 _symmetry_equiv_pos_site_id
 _symmetry_equiv_pos_as_xyz
  1  'x, y, z'
loop_
 _atom_site_type_symbol
 _atom_site_label
 _atom_site_symmetry_multiplicity
 _atom_site_fract_x
 _atom_site_fract_y
 _atom_site_fract_z
 _atom_site_occupancy
  Ho  Ho0  1  0.000000  0.500000  0.519754  1
  Ho  Ho1  1  0.500000  0.000000  0.480246  1
  Ho  Ho2  1  0.500000  0.813754  0.205603  1
  Ho  Ho3  1  0.500000  0.186246  0.205603  1
  Ho  Ho4  1  0.000000  0.686246  0.794397  1
  Ho  Ho5  1  0.000000  0.313754  0.794397  1
  Co  Co6  1  0.000000  0.500000  0.988547  1
  Co  Co7  1  0.500000  0.000000  0.011453  1
  Co  Co8  1  0.500000  0.299864  0.429565  1
  Co  Co9  1  0.500000  0.700136  0.429565  1
  Co  Co10  1  0.000000  0.200136  0.570435  1
  Co  Co11  1  0.000000  0.799864  0.570435  1
  Co  Co12  1  0.500000  0.880607  0.709774  1
  Co  Co13  1  0.500000  0.119393  0.709774  1
  Co  Co14  1  0.000000  0.619393  0.290226  1
  Co  Co15  1  0.000000  0.380607  0.290226  1
  Co  Co16  1  0.500000  0.331542  0.992184  1
  Co  Co17  1  0.500000  0.668458  0.992184  1
  Co  Co18  1  0.000000  0.168458  0.007816  1
  Co  Co19  1  0.000000  0.831542  0.007816  1
  P  P20  1  0.500000  0.303156  0.613564  1
  P  P21  1  0.500000  0.696844  0.613564  1
  P  P22  1  0.000000  0.196844  0.386436  1
  P  P23  1  0.000000  0.803156  0.386436  1
  P  P24  1  0.500000  0.500000  0.889482  1
  P  P25  1  0.000000  0.000000  0.110518  1
  P  P26  1  0.500000  0.846373  0.893420  1
  P  P27  1  0.500000  0.153627  0.893420  1
  P  P28  1  0.000000  0.653627  0.106580  1
  P  P29  1  0.000000  0.346373  0.106580  1
  P  P30  1  0.500000  0.500000  0.348771  1
  P  P31  1  0.000000  0.000000  0.651229  1
  Ru  Ru32  1  0.500000  0.500000  0.159039  1
  Ru  Ru33  1  0.000000  0.000000  0.840961  1
  Rh  Rh34  1  0.500000  0.500000  0.703386  1
  Rh  Rh35  1  0.000000  0.000000  0.296614  1
