# generated using pymatgen
data_Ce2YHf3F22
_symmetry_space_group_name_H-M   'P 1'
_cell_length_a   8.47042559
_cell_length_b   8.47042713
_cell_length_c   8.47411523
_cell_angle_alpha   124.80527898
_cell_angle_beta   106.32839120
_cell_angle_gamma   98.49350715
_symmetry_Int_Tables_number   1
_chemical_formula_structural   Ce2YHf3F22
_chemical_formula_sum   'Ce2 Y1 Hf3 F22'
_cell_volume   440.93396419
_cell_formula_units_Z   1
loop_
 _symmetry_equiv_pos_site_id
 _symmetry_equiv_pos_as_xyz
  1  'x, y, z'
loop_
 _atom_site_type_symbol
 _atom_site_label
 _atom_site_symmetry_multiplicity
 _atom_site_fract_x
 _atom_site_fract_y
 _atom_site_fract_z
 _atom_site_occupancy
  Ce  Ce0  1  0.748925  0.250215  0.501664  1
  Ce  Ce1  1  0.251449  0.752739  0.501664  1
  Y  Y2  1  0.679634  0.634651  0.314285  1
  Hf  Hf3  1  0.315989  0.364237  0.680226  1
  Hf  Hf4  1  0.180853  0.865702  0.046556  1
  Hf  Hf5  1  0.821046  0.135714  0.956759  1
  F  F6  1  0.706801  0.918672  0.346188  1
  F  F7  1  0.292463  0.101136  0.650794  1
  F  F8  1  0.549657  0.358332  0.650794  1
  F  F9  1  0.948033  0.605785  0.814655  1
  F  F10  1  0.427515  0.639386  0.346188  1
  F  F11  1  0.056097  0.393040  0.187903  1
  F  F12  1  0.794862  0.131805  0.187903  1
  F  F13  1  0.208869  0.866622  0.814655  1
  F  F14  1  0.488473  0.491425  0.979899  1
  F  F15  1  0.004919  0.001264  0.006183  1
  F  F16  1  0.785703  0.881397  0.667101  1
  F  F17  1  0.220602  0.128925  0.349526  1
  F  F18  1  0.275562  0.629219  0.904782  1
  F  F19  1  0.720895  0.358192  0.079086  1
  F  F20  1  0.974403  0.741913  0.424991  1
  F  F21  1  0.046996  0.262600  0.581936  1
  F  F22  1  0.319336  0.534940  0.581936  1
  F  F23  1  0.177181  0.762872  0.212623  1
  F  F24  1  0.683077  0.450588  0.424991  1
  F  F25  1  0.824301  0.240439  0.787046  1
  F  F26  1  0.546607  0.962745  0.787046  1
  F  F27  1  0.449752  0.035442  0.212623  1
