# generated using pymatgen
data_Nd3Hg5Ir
_symmetry_space_group_name_H-M   'P 1'
_cell_length_a   8.29965900
_cell_length_b   8.29966052
_cell_length_c   3.84709700
_cell_angle_alpha   90.00000000
_cell_angle_beta   90.00000000
_cell_angle_gamma   119.99999794
_symmetry_Int_Tables_number   1
_chemical_formula_structural   Nd3Hg5Ir
_chemical_formula_sum   'Nd3 Hg5 Ir1'
_cell_volume   229.50088013
_cell_formula_units_Z   1
loop_
 _symmetry_equiv_pos_site_id
 _symmetry_equiv_pos_as_xyz
  1  'x, y, z'
loop_
 _atom_site_type_symbol
 _atom_site_label
 _atom_site_symmetry_multiplicity
 _atom_site_fract_x
 _atom_site_fract_y
 _atom_site_fract_z
 _atom_site_occupancy
  Nd  Nd0  1  0.615207  0.037012  0.000000  1
  Nd  Nd1  1  0.962988  0.578195  0.000000  1
  Nd  Nd2  1  0.421805  0.384793  0.000000  1
  Hg  Hg3  1  0.279843  0.998408  0.500000  1
  Hg  Hg4  1  0.001592  0.281433  0.500000  1
  Hg  Hg5  1  0.718567  0.720157  0.500000  1
  Hg  Hg6  1  0.333333  0.666667  0.500000  1
  Hg  Hg7  1  0.000000  0.000000  0.000000  1
  Ir  Ir8  1  0.666667  0.333333  0.500000  1
