# generated using pymatgen
data_Cs2(NbCl3)3
_symmetry_space_group_name_H-M   'P 1'
_cell_length_a   10.49269847
_cell_length_b   10.49269837
_cell_length_c   10.28433426
_cell_angle_alpha   76.17543649
_cell_angle_beta   76.17543686
_cell_angle_gamma   115.79117037
_symmetry_Int_Tables_number   1
_chemical_formula_structural   Cs2(NbCl3)3
_chemical_formula_sum   'Cs4 Nb6 Cl18'
_cell_volume   910.62768848
_cell_formula_units_Z   2
loop_
 _symmetry_equiv_pos_site_id
 _symmetry_equiv_pos_as_xyz
  1  'x, y, z'
loop_
 _atom_site_type_symbol
 _atom_site_label
 _atom_site_symmetry_multiplicity
 _atom_site_fract_x
 _atom_site_fract_y
 _atom_site_fract_z
 _atom_site_occupancy
  Cs  Cs0  1  0.050897  0.736304  0.816902  1
  Cs  Cs1  1  0.263696  0.949103  0.183098  1
  Cs  Cs2  1  0.949103  0.263696  0.183098  1
  Cs  Cs3  1  0.736304  0.050897  0.816902  1
  Nb  Nb4  1  0.603378  0.603378  0.627293  1
  Nb  Nb5  1  0.396622  0.396622  0.372707  1
  Nb  Nb6  1  0.454364  0.288406  0.633972  1
  Nb  Nb7  1  0.711594  0.545636  0.366028  1
  Nb  Nb8  1  0.545636  0.711594  0.366028  1
  Nb  Nb9  1  0.288406  0.454364  0.633972  1
  Cl  Cl10  1  0.732691  0.732691  0.783736  1
  Cl  Cl11  1  0.267309  0.267309  0.216264  1
  Cl  Cl12  1  0.804827  0.804827  0.185227  1
  Cl  Cl13  1  0.195173  0.195173  0.814773  1
  Cl  Cl14  1  0.129051  0.326154  0.508067  1
  Cl  Cl15  1  0.673846  0.870949  0.491933  1
  Cl  Cl16  1  0.870949  0.673846  0.491933  1
  Cl  Cl17  1  0.326154  0.129051  0.508067  1
  Cl  Cl18  1  0.304297  0.695703  0.500000  1
  Cl  Cl19  1  0.695703  0.304297  0.500000  1
  Cl  Cl20  1  0.431947  0.627966  0.194813  1
  Cl  Cl21  1  0.372034  0.568053  0.805187  1
  Cl  Cl22  1  0.568053  0.372034  0.805187  1
  Cl  Cl23  1  0.627966  0.431947  0.194813  1
  Cl  Cl24  1  0.396191  0.020430  0.804448  1
  Cl  Cl25  1  0.979570  0.603809  0.195552  1
  Cl  Cl26  1  0.603809  0.979570  0.195552  1
  Cl  Cl27  1  0.020430  0.396191  0.804448  1
