# generated using pymatgen
data_TbSm2Ho3NiBr10
_symmetry_space_group_name_H-M   'P 1'
_cell_length_a   7.35483463
_cell_length_b   9.18860196
_cell_length_c   9.32377609
_cell_angle_alpha   108.08439495
_cell_angle_beta   96.60553923
_cell_angle_gamma   105.98150061
_symmetry_Int_Tables_number   1
_chemical_formula_structural   TbSm2Ho3NiBr10
_chemical_formula_sum   'Tb1 Sm2 Ho3 Ni1 Br10'
_cell_volume   561.79967677
_cell_formula_units_Z   1
loop_
 _symmetry_equiv_pos_site_id
 _symmetry_equiv_pos_as_xyz
  1  'x, y, z'
loop_
 _atom_site_type_symbol
 _atom_site_label
 _atom_site_symmetry_multiplicity
 _atom_site_fract_x
 _atom_site_fract_y
 _atom_site_fract_z
 _atom_site_occupancy
  Tb  Tb0  1  0.643757  0.866160  0.825778  1
  Sm  Sm1  1  0.126560  0.046581  0.755523  1
  Sm  Sm2  1  0.875276  0.954272  0.245217  1
  Ho  Ho3  1  0.974397  0.293425  0.092792  1
  Ho  Ho4  1  0.026556  0.706775  0.907809  1
  Ho  Ho5  1  0.353524  0.132976  0.173020  1
  Ni  Ni6  1  0.999457  0.999797  0.999646  1
  Br  Br7  1  0.553702  0.180376  0.919431  1
  Br  Br8  1  0.446276  0.822140  0.083393  1
  Br  Br9  1  0.355335  0.454038  0.270723  1
  Br  Br10  1  0.646591  0.543613  0.729446  1
  Br  Br11  1  0.262328  0.085942  0.454057  1
  Br  Br12  1  0.739904  0.914998  0.544688  1
  Br  Br13  1  0.782152  0.262304  0.343033  1
  Br  Br14  1  0.213885  0.736601  0.655240  1
  Br  Br15  1  0.083074  0.375242  0.831441  1
  Br  Br16  1  0.917226  0.624761  0.168765  1
