# generated using pymatgen
data_CaLa3(USe5)2
_symmetry_space_group_name_H-M   'P 1'
_cell_length_a   7.91960721
_cell_length_b   8.52241111
_cell_length_c   12.46754600
_cell_angle_alpha   90.00000000
_cell_angle_beta   90.00000000
_cell_angle_gamma   89.95673886
_symmetry_Int_Tables_number   1
_chemical_formula_structural   CaLa3(USe5)2
_chemical_formula_sum   'Ca2 La6 U4 Se20'
_cell_volume   841.48616083
_cell_formula_units_Z   2
loop_
 _symmetry_equiv_pos_site_id
 _symmetry_equiv_pos_as_xyz
  1  'x, y, z'
loop_
 _atom_site_type_symbol
 _atom_site_label
 _atom_site_symmetry_multiplicity
 _atom_site_fract_x
 _atom_site_fract_y
 _atom_site_fract_z
 _atom_site_occupancy
  Ca  Ca0  1  0.527989  0.498900  0.321709  1
  Ca  Ca1  1  0.972011  0.001100  0.821709  1
  La  La2  1  0.471107  0.001018  0.677208  1
  La  La3  1  0.028893  0.498982  0.177208  1
  La  La4  1  0.468429  0.499214  0.674861  1
  La  La5  1  0.031571  0.000786  0.174861  1
  La  La6  1  0.531858  0.998436  0.324124  1
  La  La7  1  0.968142  0.501564  0.824124  1
  U  U8  1  0.071312  0.750239  0.491596  1
  U  U9  1  0.428688  0.749761  0.991596  1
  U  U10  1  0.929992  0.250425  0.509001  1
  U  U11  1  0.570008  0.249575  0.009001  1
  Se  Se12  1  0.834858  0.958411  0.589049  1
  Se  Se13  1  0.665142  0.541589  0.089049  1
  Se  Se14  1  0.163842  0.456166  0.410587  1
  Se  Se15  1  0.336158  0.043834  0.910587  1
  Se  Se16  1  0.166659  0.044446  0.409920  1
  Se  Se17  1  0.333341  0.455554  0.909920  1
  Se  Se18  1  0.835432  0.543037  0.592120  1
  Se  Se19  1  0.664568  0.956963  0.092120  1
  Se  Se20  1  0.841318  0.750801  0.314105  1
  Se  Se21  1  0.658682  0.749199  0.814105  1
  Se  Se22  1  0.163036  0.252203  0.685297  1
  Se  Se23  1  0.336964  0.247797  0.185297  1
  Se  Se24  1  0.452371  0.750204  0.498060  1
  Se  Se25  1  0.047629  0.749796  0.998060  1
  Se  Se26  1  0.549251  0.251046  0.501864  1
  Se  Se27  1  0.950749  0.248954  0.001864  1
  Se  Se28  1  0.187525  0.750884  0.712949  1
  Se  Se29  1  0.312475  0.749116  0.212949  1
  Se  Se30  1  0.811445  0.248416  0.287551  1
  Se  Se31  1  0.688555  0.251584  0.787551  1
