# generated using pymatgen
data_U2Si5Ni2Ru
_symmetry_space_group_name_H-M   'P 1'
_cell_length_a   7.92340452
_cell_length_b   7.92340465
_cell_length_c   5.76595218
_cell_angle_alpha   68.60389604
_cell_angle_beta   68.60390201
_cell_angle_gamma   90.33299952
_symmetry_Int_Tables_number   1
_chemical_formula_structural   U2Si5Ni2Ru
_chemical_formula_sum   'U4 Si10 Ni4 Ru2'
_cell_volume   309.75753994
_cell_formula_units_Z   2
loop_
 _symmetry_equiv_pos_site_id
 _symmetry_equiv_pos_as_xyz
  1  'x, y, z'
loop_
 _atom_site_type_symbol
 _atom_site_label
 _atom_site_symmetry_multiplicity
 _atom_site_fract_x
 _atom_site_fract_y
 _atom_site_fract_z
 _atom_site_occupancy
  U  U0  1  0.866001  0.601686  0.767097  1
  U  U1  1  0.398314  0.133999  0.732903  1
  U  U2  1  0.133999  0.398314  0.232903  1
  U  U3  1  0.601686  0.866001  0.267097  1
  Si  Si4  1  0.052157  0.269430  0.837739  1
  Si  Si5  1  0.730570  0.947843  0.662261  1
  Si  Si6  1  0.947843  0.730570  0.162261  1
  Si  Si7  1  0.269430  0.052157  0.337739  1
  Si  Si8  1  0.228225  0.771775  0.750000  1
  Si  Si9  1  0.771775  0.228225  0.250000  1
  Si  Si10  1  0.501148  0.498852  0.750000  1
  Si  Si11  1  0.498852  0.501148  0.250000  1
  Si  Si12  1  0.770306  0.229694  0.750000  1
  Si  Si13  1  0.229694  0.770306  0.250000  1
  Ni  Ni14  1  0.257705  0.532737  0.606814  1
  Ni  Ni15  1  0.467263  0.742295  0.893186  1
  Ni  Ni16  1  0.742295  0.467263  0.393186  1
  Ni  Ni17  1  0.532737  0.257705  0.106814  1
  Ru  Ru18  1  0.000259  0.999741  0.750000  1
  Ru  Ru19  1  0.999741  0.000259  0.250000  1
