# generated using pymatgen
data_Pr4ZnCuSi6
_symmetry_space_group_name_H-M   'P 1'
_cell_length_a   8.29287728
_cell_length_b   8.16647492
_cell_length_c   5.94959527
_cell_angle_alpha   69.94880639
_cell_angle_beta   67.67866203
_cell_angle_gamma   42.37253662
_symmetry_Int_Tables_number   1
_chemical_formula_structural   Pr4ZnCuSi6
_chemical_formula_sum   'Pr4 Zn1 Cu1 Si6'
_cell_volume   249.94848641
_cell_formula_units_Z   1
loop_
 _symmetry_equiv_pos_site_id
 _symmetry_equiv_pos_as_xyz
  1  'x, y, z'
loop_
 _atom_site_type_symbol
 _atom_site_label
 _atom_site_symmetry_multiplicity
 _atom_site_fract_x
 _atom_site_fract_y
 _atom_site_fract_z
 _atom_site_occupancy
  Pr  Pr0  1  0.750303  0.750303  0.749697  1
  Pr  Pr1  1  0.754962  0.244656  0.755344  1
  Pr  Pr2  1  0.250303  0.250303  0.249697  1
  Pr  Pr3  1  0.244656  0.754962  0.245038  1
  Zn  Zn4  1  0.666330  0.666330  0.333670  1
  Cu  Cu5  1  0.333485  0.333485  0.666515  1
  Si  Si6  1  0.833212  0.331233  0.166788  1
  Si  Si7  1  0.657948  0.172376  0.342052  1
  Si  Si8  1  0.172376  0.657948  0.827624  1
  Si  Si9  1  0.331233  0.833212  0.668767  1
  Si  Si10  1  0.170299  0.170299  0.829701  1
  Si  Si11  1  0.834894  0.834894  0.165106  1
