# generated using pymatgen
data_Ho5Er11In6CoAu
_symmetry_space_group_name_H-M   'P 1'
_cell_length_a   10.44137209
_cell_length_b   10.44140653
_cell_length_c   6.89315900
_cell_angle_alpha   90.00363472
_cell_angle_beta   89.99632465
_cell_angle_gamma   120.01434660
_symmetry_Int_Tables_number   1
_chemical_formula_structural   Ho5Er11In6CoAu
_chemical_formula_sum   'Ho5 Er11 In6 Co1 Au1'
_cell_volume   650.73280705
_cell_formula_units_Z   1
loop_
 _symmetry_equiv_pos_site_id
 _symmetry_equiv_pos_as_xyz
  1  'x, y, z'
loop_
 _atom_site_type_symbol
 _atom_site_label
 _atom_site_symmetry_multiplicity
 _atom_site_fract_x
 _atom_site_fract_y
 _atom_site_fract_z
 _atom_site_occupancy
  Ho  Ho0  1  0.525534  0.051127  0.797067  1
  Ho  Ho1  1  0.948873  0.474465  0.797068  1
  Ho  Ho2  1  0.525540  0.474461  0.797186  1
  Ho  Ho3  1  0.465068  0.930081  0.294159  1
  Ho  Ho4  1  0.069920  0.534932  0.294161  1
  Er  Er5  1  0.465024  0.534977  0.294294  1
  Er  Er6  1  0.826798  0.653690  0.501018  1
  Er  Er7  1  0.346309  0.173200  0.501017  1
  Er  Er8  1  0.826866  0.173132  0.501092  1
  Er  Er9  1  0.177700  0.355311  0.005910  1
  Er  Er10  1  0.644686  0.822298  0.005911  1
  Er  Er11  1  0.177624  0.822378  0.005848  1
  Er  Er12  1  0.666632  0.333367  0.155323  1
  Er  Er13  1  0.333394  0.666607  0.684396  1
  Er  Er14  1  0.999992  0.000010  0.776983  1
  Er  Er15  1  0.999976  0.000025  0.276824  1
  In  In16  1  0.837248  0.674507  0.031715  1
  In  In17  1  0.325494  0.162752  0.031716  1
  In  In18  1  0.837256  0.162742  0.031644  1
  In  In19  1  0.163171  0.326271  0.538553  1
  In  In20  1  0.673728  0.836827  0.538553  1
  In  In21  1  0.163115  0.836888  0.538594  1
  Co  Co22  1  0.333371  0.666629  0.070428  1
  Au  Au23  1  0.666675  0.333325  0.566445  1
