# generated using pymatgen
data_Tm7ScTi8(Si4Mo)4
_symmetry_space_group_name_H-M   'P 1'
_cell_length_a   6.73832540
_cell_length_b   6.90987499
_cell_length_c   13.18582134
_cell_angle_alpha   89.93564685
_cell_angle_beta   89.97506778
_cell_angle_gamma   90.00385763
_symmetry_Int_Tables_number   1
_chemical_formula_structural   Tm7ScTi8(Si4Mo)4
_chemical_formula_sum   'Tm7 Sc1 Ti8 Si16 Mo4'
_cell_volume   613.94439779
_cell_formula_units_Z   1
loop_
 _symmetry_equiv_pos_site_id
 _symmetry_equiv_pos_as_xyz
  1  'x, y, z'
loop_
 _atom_site_type_symbol
 _atom_site_label
 _atom_site_symmetry_multiplicity
 _atom_site_fract_x
 _atom_site_fract_y
 _atom_site_fract_z
 _atom_site_occupancy
  Tm  Tm0  1  0.501834  0.327248  0.096184  1
  Tm  Tm1  1  0.002762  0.172380  0.403601  1
  Tm  Tm2  1  0.497895  0.672159  0.596444  1
  Tm  Tm3  1  0.997451  0.828026  0.905495  1
  Tm  Tm4  1  0.496763  0.672281  0.904784  1
  Tm  Tm5  1  0.997759  0.827457  0.596407  1
  Tm  Tm6  1  0.502232  0.327353  0.402430  1
  Sc  Sc7  1  0.001722  0.174509  0.097893  1
  Ti  Ti8  1  0.833274  0.327773  0.627165  1
  Ti  Ti9  1  0.333235  0.172496  0.873296  1
  Ti  Ti10  1  0.167188  0.672565  0.126544  1
  Ti  Ti11  1  0.668164  0.828454  0.372116  1
  Ti  Ti12  1  0.166216  0.672427  0.371835  1
  Ti  Ti13  1  0.667700  0.828224  0.125974  1
  Ti  Ti14  1  0.833463  0.326236  0.873928  1
  Ti  Ti15  1  0.333188  0.172381  0.626876  1
  Si  Si16  1  0.660685  0.040208  0.542043  1
  Si  Si17  1  0.160197  0.456713  0.959712  1
  Si  Si18  1  0.333392  0.963411  0.043066  1
  Si  Si19  1  0.839068  0.540396  0.457526  1
  Si  Si20  1  0.339618  0.959310  0.457405  1
  Si  Si21  1  0.841085  0.535473  0.043560  1
  Si  Si22  1  0.660843  0.040136  0.958996  1
  Si  Si23  1  0.161079  0.460077  0.541912  1
  Si  Si24  1  0.535296  0.376167  0.750407  1
  Si  Si25  1  0.035360  0.123466  0.750282  1
  Si  Si26  1  0.464682  0.624170  0.249218  1
  Si  Si27  1  0.966139  0.879164  0.247923  1
  Si  Si28  1  0.796722  0.629199  0.750892  1
  Si  Si29  1  0.296306  0.870452  0.750499  1
  Si  Si30  1  0.201105  0.368529  0.247887  1
  Si  Si31  1  0.706831  0.130336  0.248140  1
  Mo  Mo32  1  0.660883  0.009825  0.750609  1
  Mo  Mo33  1  0.160802  0.489845  0.750524  1
  Mo  Mo34  1  0.339232  0.991203  0.249059  1
  Mo  Mo35  1  0.839825  0.509948  0.249367  1
