# generated using pymatgen
data_Dy4ErReOsC7
_symmetry_space_group_name_H-M   'P 1'
_cell_length_a   8.25900439
_cell_length_b   8.24582289
_cell_length_c   3.47168900
_cell_angle_alpha   90.00000000
_cell_angle_beta   90.00000000
_cell_angle_gamma   122.43589312
_symmetry_Int_Tables_number   1
_chemical_formula_structural   Dy4ErReOsC7
_chemical_formula_sum   'Dy4 Er1 Re1 Os1 C7'
_cell_volume   199.54501779
_cell_formula_units_Z   1
loop_
 _symmetry_equiv_pos_site_id
 _symmetry_equiv_pos_as_xyz
  1  'x, y, z'
loop_
 _atom_site_type_symbol
 _atom_site_label
 _atom_site_symmetry_multiplicity
 _atom_site_fract_x
 _atom_site_fract_y
 _atom_site_fract_z
 _atom_site_occupancy
  Dy  Dy0  1  0.500068  0.498976  0.000000  1
  Dy  Dy1  1  0.074847  0.334998  0.500000  1
  Dy  Dy2  1  0.923504  0.664282  0.500000  1
  Dy  Dy3  1  0.663860  0.926023  0.500000  1
  Er  Er4  1  0.338841  0.077552  0.500000  1
  Re  Re5  1  0.284572  0.714949  0.000000  1
  Os  Os6  1  0.713030  0.287266  0.000000  1
  C  C7  1  0.631560  0.367952  0.500000  1
  C  C8  1  0.372969  0.626838  0.500000  1
  C  C9  1  0.000074  0.999904  0.000000  1
  C  C10  1  0.172203  0.169182  0.000000  1
  C  C11  1  0.828595  0.830008  0.000000  1
  C  C12  1  0.998897  0.500954  0.000000  1
  C  C13  1  0.496982  0.001113  0.000000  1
