# generated using pymatgen
data_Y4Lu4Re3TcB24
_symmetry_space_group_name_H-M   'P 1'
_cell_length_a   3.64469100
_cell_length_b   9.10850988
_cell_length_c   11.49764600
_cell_angle_alpha   90.02388016
_cell_angle_beta   90.00000000
_cell_angle_gamma   90.00000000
_symmetry_Int_Tables_number   1
_chemical_formula_structural   Y4Lu4Re3TcB24
_chemical_formula_sum   'Y4 Lu4 Re3 Tc1 B24'
_cell_volume   381.69541549
_cell_formula_units_Z   1
loop_
 _symmetry_equiv_pos_site_id
 _symmetry_equiv_pos_as_xyz
  1  'x, y, z'
loop_
 _atom_site_type_symbol
 _atom_site_label
 _atom_site_symmetry_multiplicity
 _atom_site_fract_x
 _atom_site_fract_y
 _atom_site_fract_z
 _atom_site_occupancy
  Y  Y0  1  0.000000  0.323107  0.414218  1
  Y  Y1  1  0.000000  0.677177  0.585562  1
  Y  Y2  1  0.000000  0.822811  0.085825  1
  Y  Y3  1  0.000000  0.177405  0.914255  1
  Lu  Lu4  1  0.000000  0.942393  0.369924  1
  Lu  Lu5  1  0.000000  0.056513  0.629582  1
  Lu  Lu6  1  0.000000  0.444045  0.130441  1
  Lu  Lu7  1  0.000000  0.556498  0.870398  1
  Re  Re8  1  0.000000  0.360447  0.680457  1
  Re  Re9  1  0.000000  0.139591  0.180579  1
  Re  Re10  1  0.000000  0.860630  0.819493  1
  Tc  Tc11  1  0.000000  0.639742  0.319448  1
  B  B12  1  0.500000  0.553916  0.432208  1
  B  B13  1  0.500000  0.446283  0.567465  1
  B  B14  1  0.500000  0.053893  0.067570  1
  B  B15  1  0.500000  0.946333  0.932399  1
  B  B16  1  0.500000  0.750635  0.417976  1
  B  B17  1  0.500000  0.248902  0.581750  1
  B  B18  1  0.500000  0.251232  0.081880  1
  B  B19  1  0.500000  0.748981  0.918192  1
  B  B20  1  0.500000  0.792833  0.265052  1
  B  B21  1  0.500000  0.206738  0.734806  1
  B  B22  1  0.500000  0.293292  0.235080  1
  B  B23  1  0.500000  0.706742  0.765111  1
  B  B24  1  0.500000  0.630065  0.184726  1
  B  B25  1  0.500000  0.370112  0.815446  1
  B  B26  1  0.500000  0.129741  0.315544  1
  B  B27  1  0.500000  0.870029  0.684447  1
  B  B28  1  0.500000  0.981568  0.212676  1
  B  B29  1  0.500000  0.018315  0.787180  1
  B  B30  1  0.500000  0.482010  0.287395  1
  B  B31  1  0.500000  0.518299  0.712766  1
  B  B32  1  0.500000  0.597841  0.027110  1
  B  B33  1  0.500000  0.402416  0.973271  1
  B  B34  1  0.500000  0.097360  0.472884  1
  B  B35  1  0.500000  0.902103  0.526884  1
