# generated using pymatgen
data_PaWC2
_symmetry_space_group_name_H-M   'P 1'
_cell_length_a   3.32962500
_cell_length_b   5.74524900
_cell_length_c   11.03523800
_cell_angle_alpha   90.00000000
_cell_angle_beta   90.00000000
_cell_angle_gamma   90.00000000
_symmetry_Int_Tables_number   1
_chemical_formula_structural   PaWC2
_chemical_formula_sum   'Pa4 W4 C8'
_cell_volume   211.09885791
_cell_formula_units_Z   4
loop_
 _symmetry_equiv_pos_site_id
 _symmetry_equiv_pos_as_xyz
  1  'x, y, z'
loop_
 _atom_site_type_symbol
 _atom_site_label
 _atom_site_symmetry_multiplicity
 _atom_site_fract_x
 _atom_site_fract_y
 _atom_site_fract_z
 _atom_site_occupancy
  Pa  Pa0  1  0.250000  0.081541  0.858822  1
  Pa  Pa1  1  0.250000  0.581541  0.641178  1
  Pa  Pa2  1  0.750000  0.918459  0.141178  1
  Pa  Pa3  1  0.750000  0.418459  0.358822  1
  W  W4  1  0.250000  0.418252  0.101951  1
  W  W5  1  0.250000  0.918252  0.398049  1
  W  W6  1  0.750000  0.581748  0.898049  1
  W  W7  1  0.750000  0.081748  0.601951  1
  C  C8  1  0.250000  0.161880  0.246112  1
  C  C9  1  0.250000  0.661880  0.253888  1
  C  C10  1  0.750000  0.838120  0.753888  1
  C  C11  1  0.750000  0.338120  0.746112  1
  C  C12  1  0.250000  0.741347  0.990461  1
  C  C13  1  0.250000  0.241347  0.509539  1
  C  C14  1  0.750000  0.258653  0.009539  1
  C  C15  1  0.750000  0.758653  0.490461  1
