# generated using pymatgen
data_Tb4Co17Si3(TcP3)3
_symmetry_space_group_name_H-M   'P 1'
_cell_length_a   3.72161300
_cell_length_b   10.39128671
_cell_length_c   11.85947038
_cell_angle_alpha   89.92043005
_cell_angle_beta   90.00000000
_cell_angle_gamma   90.00000000
_symmetry_Int_Tables_number   1
_chemical_formula_structural   Tb4Co17Si3(TcP3)3
_chemical_formula_sum   'Tb4 Co17 Si3 Tc3 P9'
_cell_volume   458.63311963
_cell_formula_units_Z   1
loop_
 _symmetry_equiv_pos_site_id
 _symmetry_equiv_pos_as_xyz
  1  'x, y, z'
loop_
 _atom_site_type_symbol
 _atom_site_label
 _atom_site_symmetry_multiplicity
 _atom_site_fract_x
 _atom_site_fract_y
 _atom_site_fract_z
 _atom_site_occupancy
  Tb  Tb0  1  0.250000  0.582414  0.699443  1
  Tb  Tb1  1  0.250000  0.915099  0.204141  1
  Tb  Tb2  1  0.750000  0.415015  0.299602  1
  Tb  Tb3  1  0.750000  0.083091  0.796759  1
  Co  Co4  1  0.750000  0.211078  0.513089  1
  Co  Co5  1  0.250000  0.405421  0.488558  1
  Co  Co6  1  0.250000  0.092427  0.989004  1
  Co  Co7  1  0.750000  0.592909  0.510239  1
  Co  Co8  1  0.750000  0.907094  0.012287  1
  Co  Co9  1  0.250000  0.213291  0.177737  1
  Co  Co10  1  0.250000  0.285144  0.676678  1
  Co  Co11  1  0.750000  0.785520  0.823089  1
  Co  Co12  1  0.750000  0.721418  0.324128  1
  Co  Co13  1  0.250000  0.884886  0.700538  1
  Co  Co14  1  0.250000  0.617413  0.202600  1
  Co  Co15  1  0.750000  0.116193  0.302251  1
  Co  Co16  1  0.750000  0.382973  0.798314  1
  Co  Co17  1  0.250000  0.464854  0.931549  1
  Co  Co18  1  0.250000  0.032807  0.427774  1
  Co  Co19  1  0.750000  0.534987  0.069218  1
  Co  Co20  1  0.750000  0.965430  0.565237  1
  Si  Si21  1  0.250000  0.417328  0.114689  1
  Si  Si22  1  0.250000  0.085236  0.609167  1
  Si  Si23  1  0.750000  0.581760  0.885537  1
  Tc  Tc24  1  0.250000  0.708435  0.988596  1
  Tc  Tc25  1  0.250000  0.790071  0.489026  1
  Tc  Tc26  1  0.750000  0.291294  0.011669  1
  P  P27  1  0.750000  0.920484  0.386790  1
  P  P28  1  0.250000  0.271251  0.864730  1
  P  P29  1  0.250000  0.228042  0.368513  1
  P  P30  1  0.750000  0.728387  0.134843  1
  P  P31  1  0.750000  0.773357  0.634352  1
  P  P32  1  0.250000  0.597075  0.391990  1
  P  P33  1  0.250000  0.901930  0.890864  1
  P  P34  1  0.750000  0.397202  0.606730  1
  P  P35  1  0.750000  0.098688  0.110270  1
