# generated using pymatgen
data_Ta7Nb2Si6W
_symmetry_space_group_name_H-M   'P 1'
_cell_length_a   7.55526141
_cell_length_b   7.55526125
_cell_length_c   7.55696111
_cell_angle_alpha   128.69213578
_cell_angle_beta   128.70474309
_cell_angle_gamma   75.47962499
_symmetry_Int_Tables_number   1
_chemical_formula_structural   Ta7Nb2Si6W
_chemical_formula_sum   'Ta7 Nb2 Si6 W1'
_cell_volume   255.69173172
_cell_formula_units_Z   1
loop_
 _symmetry_equiv_pos_site_id
 _symmetry_equiv_pos_as_xyz
  1  'x, y, z'
loop_
 _atom_site_type_symbol
 _atom_site_label
 _atom_site_symmetry_multiplicity
 _atom_site_fract_x
 _atom_site_fract_y
 _atom_site_fract_z
 _atom_site_occupancy
  Ta  Ta0  1  0.514846  0.014842  0.831012  1
  Ta  Ta1  1  0.183830  0.683835  0.168988  1
  Ta  Ta2  1  0.985159  0.815608  0.499757  1
  Ta  Ta3  1  0.315852  0.485403  0.500243  1
  Ta  Ta4  1  0.484764  0.984214  0.168892  1
  Ta  Ta5  1  0.815322  0.315872  0.831108  1
  Ta  Ta6  1  0.500462  0.500462  0.000000  1
  Nb  Nb7  1  0.016724  0.183848  0.500734  1
  Nb  Nb8  1  0.683113  0.515989  0.499266  1
  Si  Si9  1  0.749627  0.749627  0.000000  1
  Si  Si10  1  0.249882  0.249882  0.000000  1
  Si  Si11  1  0.366529  0.128104  0.494962  1
  Si  Si12  1  0.633142  0.871566  0.505038  1
  Si  Si13  1  0.871680  0.366447  0.238514  1
  Si  Si14  1  0.127932  0.633165  0.761486  1
  W  W15  1  0.001136  0.001136  0.000000  1
