# generated using pymatgen
data_La18Lu2Ir11Ru
_symmetry_space_group_name_H-M   'P 1'
_cell_length_a   11.38122079
_cell_length_b   11.38440178
_cell_length_c   6.57657200
_cell_angle_alpha   90.00000000
_cell_angle_beta   90.00000000
_cell_angle_gamma   89.91988120
_symmetry_Int_Tables_number   1
_chemical_formula_structural   La18Lu2Ir11Ru
_chemical_formula_sum   'La18 Lu2 Ir11 Ru1'
_cell_volume   852.11501369
_cell_formula_units_Z   1
loop_
 _symmetry_equiv_pos_site_id
 _symmetry_equiv_pos_as_xyz
  1  'x, y, z'
loop_
 _atom_site_type_symbol
 _atom_site_label
 _atom_site_symmetry_multiplicity
 _atom_site_fract_x
 _atom_site_fract_y
 _atom_site_fract_z
 _atom_site_occupancy
  La  La0  1  0.286663  0.087846  0.392968  1
  La  La1  1  0.286812  0.911741  0.895688  1
  La  La2  1  0.713188  0.088259  0.895688  1
  La  La3  1  0.713337  0.912154  0.392968  1
  La  La4  1  0.588305  0.794776  0.895136  1
  La  La5  1  0.588304  0.205818  0.391070  1
  La  La6  1  0.411696  0.794182  0.391070  1
  La  La7  1  0.411695  0.205224  0.895136  1
  La  La8  1  0.207128  0.409185  0.610826  1
  La  La9  1  0.207071  0.589680  0.110201  1
  La  La10  1  0.792929  0.410320  0.110201  1
  La  La11  1  0.792872  0.590815  0.610826  1
  La  La12  1  0.911180  0.714975  0.108614  1
  La  La13  1  0.910103  0.285010  0.609207  1
  La  La14  1  0.089897  0.714990  0.609207  1
  La  La15  1  0.088820  0.285025  0.108614  1
  La  La16  1  0.500000  0.500000  0.996638  1
  La  La17  1  0.500000  0.500000  0.496219  1
  Lu  Lu18  1  0.000000  0.000000  0.497533  1
  Lu  Lu19  1  0.000000  0.000000  0.997453  1
  Ir  Ir20  1  0.855663  0.146077  0.249125  1
  Ir  Ir21  1  0.855674  0.854883  0.748739  1
  Ir  Ir22  1  0.144326  0.145117  0.748739  1
  Ir  Ir23  1  0.144337  0.853923  0.249125  1
  Ir  Ir24  1  0.655031  0.345806  0.748519  1
  Ir  Ir25  1  0.656601  0.654367  0.248549  1
  Ir  Ir26  1  0.343399  0.345633  0.248549  1
  Ir  Ir27  1  0.344969  0.654194  0.748519  1
  Ir  Ir28  1  0.500000  0.000000  0.624886  1
  Ir  Ir29  1  0.000000  0.500000  0.874240  1
  Ir  Ir30  1  0.000000  0.500000  0.375309  1
  Ru  Ru31  1  0.500000  0.000000  0.120440  1
