# generated using pymatgen
data_Tb7Cd(Sn11Os3)2
_symmetry_space_group_name_H-M   'P 1'
_cell_length_a   9.85055700
_cell_length_b   9.85055586
_cell_length_c   10.18999200
_cell_angle_alpha   90.00000000
_cell_angle_beta   90.00000000
_cell_angle_gamma   120.00000718
_symmetry_Int_Tables_number   1
_chemical_formula_structural   Tb7Cd(Sn11Os3)2
_chemical_formula_sum   'Tb7 Cd1 Sn22 Os6'
_cell_volume   856.30005100
_cell_formula_units_Z   1
loop_
 _symmetry_equiv_pos_site_id
 _symmetry_equiv_pos_as_xyz
  1  'x, y, z'
loop_
 _atom_site_type_symbol
 _atom_site_label
 _atom_site_symmetry_multiplicity
 _atom_site_fract_x
 _atom_site_fract_y
 _atom_site_fract_z
 _atom_site_occupancy
  Tb  Tb0  1  0.000000  0.000000  0.000000  1
  Tb  Tb1  1  0.482309  0.517691  0.305954  1
  Tb  Tb2  1  0.517691  0.482309  0.694046  1
  Tb  Tb3  1  0.482309  0.964617  0.305954  1
  Tb  Tb4  1  0.517691  0.035383  0.694046  1
  Tb  Tb5  1  0.035383  0.517691  0.305954  1
  Tb  Tb6  1  0.964617  0.482309  0.694046  1
  Cd  Cd7  1  0.000000  0.000000  0.500000  1
  Sn  Sn8  1  0.349852  0.000000  0.000000  1
  Sn  Sn9  1  0.650148  0.000000  0.000000  1
  Sn  Sn10  1  0.000000  0.349852  0.000000  1
  Sn  Sn11  1  0.000000  0.650148  0.000000  1
  Sn  Sn12  1  0.650148  0.650148  0.000000  1
  Sn  Sn13  1  0.349852  0.349852  0.000000  1
  Sn  Sn14  1  0.333333  0.666667  0.824189  1
  Sn  Sn15  1  0.666667  0.333333  0.175811  1
  Sn  Sn16  1  0.779764  0.220236  0.459954  1
  Sn  Sn17  1  0.220236  0.779764  0.540046  1
  Sn  Sn18  1  0.779764  0.559529  0.459954  1
  Sn  Sn19  1  0.220236  0.440471  0.540046  1
  Sn  Sn20  1  0.440471  0.220236  0.459954  1
  Sn  Sn21  1  0.559529  0.779764  0.540046  1
  Sn  Sn22  1  0.333333  0.666667  0.124315  1
  Sn  Sn23  1  0.666667  0.333333  0.875685  1
  Sn  Sn24  1  0.122107  0.877893  0.267450  1
  Sn  Sn25  1  0.877893  0.122107  0.732550  1
  Sn  Sn26  1  0.122107  0.244214  0.267450  1
  Sn  Sn27  1  0.877893  0.755786  0.732550  1
  Sn  Sn28  1  0.755786  0.877893  0.267450  1
  Sn  Sn29  1  0.244214  0.122107  0.732550  1
  Os  Os30  1  0.831315  0.168685  0.203484  1
  Os  Os31  1  0.168685  0.831315  0.796516  1
  Os  Os32  1  0.831315  0.662629  0.203484  1
  Os  Os33  1  0.168685  0.337371  0.796516  1
  Os  Os34  1  0.337371  0.168685  0.203484  1
  Os  Os35  1  0.662629  0.831315  0.796516  1
