# generated using pymatgen
data_Ce2Al20Tc3Pd
_symmetry_space_group_name_H-M   'P 1'
_cell_length_a   6.92271918
_cell_length_b   6.92080741
_cell_length_c   9.22194401
_cell_angle_alpha   90.24848768
_cell_angle_beta   90.45521673
_cell_angle_gamma   97.23036236
_symmetry_Int_Tables_number   1
_chemical_formula_structural   Ce2Al20Tc3Pd
_chemical_formula_sum   'Ce2 Al20 Tc3 Pd1'
_cell_volume   438.29722146
_cell_formula_units_Z   1
loop_
 _symmetry_equiv_pos_site_id
 _symmetry_equiv_pos_as_xyz
  1  'x, y, z'
loop_
 _atom_site_type_symbol
 _atom_site_label
 _atom_site_symmetry_multiplicity
 _atom_site_fract_x
 _atom_site_fract_y
 _atom_site_fract_z
 _atom_site_occupancy
  Ce  Ce0  1  0.879062  0.130667  0.748922  1
  Ce  Ce1  1  0.120938  0.869333  0.251078  1
  Al  Al2  1  0.590894  0.858709  0.252057  1
  Al  Al3  1  0.780258  0.518977  0.248618  1
  Al  Al4  1  0.155005  0.839895  0.897122  1
  Al  Al5  1  0.409106  0.141291  0.747943  1
  Al  Al6  1  0.624882  0.382722  0.949283  1
  Al  Al7  1  0.840812  0.157314  0.400237  1
  Al  Al8  1  0.776081  0.771494  0.002162  1
  Al  Al9  1  0.861975  0.591670  0.749129  1
  Al  Al10  1  0.844995  0.160105  0.102878  1
  Al  Al11  1  0.219742  0.481023  0.751382  1
  Al  Al12  1  0.159188  0.842686  0.599763  1
  Al  Al13  1  0.774887  0.773864  0.499218  1
  Al  Al14  1  0.478729  0.222296  0.256067  1
  Al  Al15  1  0.624046  0.376942  0.546777  1
  Al  Al16  1  0.225113  0.226136  0.500782  1
  Al  Al17  1  0.375954  0.623058  0.453223  1
  Al  Al18  1  0.138025  0.408330  0.250871  1
  Al  Al19  1  0.521271  0.777704  0.743933  1
  Al  Al20  1  0.375118  0.617278  0.050717  1
  Al  Al21  1  0.223919  0.228506  0.997838  1
  Tc  Tc22  1  0.500000  0.000000  0.500000  1
  Tc  Tc23  1  0.000000  0.500000  0.000000  1
  Tc  Tc24  1  0.000000  0.500000  0.500000  1
  Pd  Pd25  1  0.500000  0.000000  0.000000  1
