# generated using pymatgen
data_TbYU2As6Ru7
_symmetry_space_group_name_H-M   'P 1'
_cell_length_a   7.20835794
_cell_length_b   7.26715125
_cell_length_c   7.26473360
_cell_angle_alpha   110.18744448
_cell_angle_beta   109.27763606
_cell_angle_gamma   109.30180913
_symmetry_Int_Tables_number   1
_chemical_formula_structural   TbYU2As6Ru7
_chemical_formula_sum   'Tb1 Y1 U2 As6 Ru7'
_cell_volume   291.65127728
_cell_formula_units_Z   1
loop_
 _symmetry_equiv_pos_site_id
 _symmetry_equiv_pos_as_xyz
  1  'x, y, z'
loop_
 _atom_site_type_symbol
 _atom_site_label
 _atom_site_symmetry_multiplicity
 _atom_site_fract_x
 _atom_site_fract_y
 _atom_site_fract_z
 _atom_site_occupancy
  Tb  Tb0  1  0.500000  0.000000  0.000000  1
  Y  Y1  1  0.500000  0.500000  0.500000  1
  U  U2  1  0.000000  0.000000  0.500000  1
  U  U3  1  0.000000  0.500000  0.000000  1
  As  As4  1  0.317667  0.003721  0.314192  1
  As  As5  1  0.000224  0.314478  0.314465  1
  As  As6  1  0.999776  0.685522  0.685535  1
  As  As7  1  0.317614  0.314205  0.003725  1
  As  As8  1  0.682386  0.685795  0.996275  1
  As  As9  1  0.682333  0.996279  0.685808  1
  Ru  Ru10  1  0.757864  0.508614  0.249349  1
  Ru  Ru11  1  0.499990  0.749859  0.250134  1
  Ru  Ru12  1  0.500010  0.250141  0.749866  1
  Ru  Ru13  1  0.757857  0.249407  0.508694  1
  Ru  Ru14  1  0.242143  0.750593  0.491306  1
  Ru  Ru15  1  0.242136  0.491386  0.750651  1
  Ru  Ru16  1  0.000000  0.000000  0.000000  1
