# generated using pymatgen
data_Sm2Mn2V3(NiP)7
_symmetry_space_group_name_H-M   'P 1'
_cell_length_a   9.19467203
_cell_length_b   9.20169381
_cell_length_c   3.67899800
_cell_angle_alpha   90.00000000
_cell_angle_beta   90.00000000
_cell_angle_gamma   120.04440944
_symmetry_Int_Tables_number   1
_chemical_formula_structural   Sm2Mn2V3(NiP)7
_chemical_formula_sum   'Sm2 Mn2 V3 Ni7 P7'
_cell_volume   269.44472380
_cell_formula_units_Z   1
loop_
 _symmetry_equiv_pos_site_id
 _symmetry_equiv_pos_as_xyz
  1  'x, y, z'
loop_
 _atom_site_type_symbol
 _atom_site_label
 _atom_site_symmetry_multiplicity
 _atom_site_fract_x
 _atom_site_fract_y
 _atom_site_fract_z
 _atom_site_occupancy
  Sm  Sm0  1  0.665756  0.333686  0.000000  1
  Sm  Sm1  1  0.334506  0.668295  0.500000  1
  Mn  Mn2  1  0.724861  0.881129  0.500000  1
  Mn  Mn3  1  0.120698  0.843261  0.500000  1
  V  V4  1  0.215658  0.098812  0.000000  1
  V  V5  1  0.899131  0.114126  0.000000  1
  V  V6  1  0.885597  0.785106  0.000000  1
  Ni  Ni7  1  0.432840  0.062334  0.500000  1
  Ni  Ni8  1  0.940759  0.372236  0.500000  1
  Ni  Ni9  1  0.631995  0.570087  0.500000  1
  Ni  Ni10  1  0.151740  0.275277  0.500000  1
  Ni  Ni11  1  0.384670  0.436205  0.000000  1
  Ni  Ni12  1  0.562504  0.949713  0.000000  1
  Ni  Ni13  1  0.049992  0.612542  0.000000  1
  P  P14  1  0.111768  0.399394  0.000000  1
  P  P15  1  0.599584  0.713212  0.000000  1
  P  P16  1  0.287356  0.886967  0.000000  1
  P  P17  1  0.998682  0.995084  0.500000  1
  P  P18  1  0.406779  0.297457  0.500000  1
  P  P19  1  0.704443  0.110730  0.500000  1
  P  P20  1  0.890679  0.594344  0.500000  1
