# generated using pymatgen
data_Li2Dy5As2P10Ir17
_symmetry_space_group_name_H-M   'P 1'
_cell_length_a   12.75089700
_cell_length_b   12.82995607
_cell_length_c   3.98364200
_cell_angle_alpha   90.00000000
_cell_angle_beta   90.00000000
_cell_angle_gamma   119.79636632
_symmetry_Int_Tables_number   1
_chemical_formula_structural   Li2Dy5As2P10Ir17
_chemical_formula_sum   'Li2 Dy5 As2 P10 Ir17'
_cell_volume   565.54131689
_cell_formula_units_Z   1
loop_
 _symmetry_equiv_pos_site_id
 _symmetry_equiv_pos_as_xyz
  1  'x, y, z'
loop_
 _atom_site_type_symbol
 _atom_site_label
 _atom_site_symmetry_multiplicity
 _atom_site_fract_x
 _atom_site_fract_y
 _atom_site_fract_z
 _atom_site_occupancy
  Li  Li0  1  0.997128  0.436234  0.500000  1
  Li  Li1  1  0.560893  0.563766  0.500000  1
  Dy  Dy2  1  0.333033  0.663837  0.500000  1
  Dy  Dy3  1  0.669197  0.336163  0.500000  1
  Dy  Dy4  1  0.002329  0.811888  0.000000  1
  Dy  Dy5  1  0.190440  0.188112  0.000000  1
  Dy  Dy6  1  0.810725  0.000000  0.000000  1
  As  As7  1  0.999420  0.628463  0.500000  1
  As  As8  1  0.370958  0.371537  0.500000  1
  P  P9  1  0.639647  0.000000  0.500000  1
  P  P10  1  0.514508  0.686250  0.000000  1
  P  P11  1  0.308459  0.823603  0.000000  1
  P  P12  1  0.166268  0.478889  0.000000  1
  P  P13  1  0.484855  0.176397  0.000000  1
  P  P14  1  0.687380  0.521111  0.000000  1
  P  P15  1  0.828258  0.313750  0.000000  1
  P  P16  1  0.996378  0.176782  0.500000  1
  P  P17  1  0.819596  0.823218  0.500000  1
  P  P18  1  0.179506  0.000000  0.500000  1
  Ir  Ir19  1  0.504359  0.866503  0.000000  1
  Ir  Ir20  1  0.133859  0.639181  0.000000  1
  Ir  Ir21  1  0.355626  0.492752  0.000000  1
  Ir  Ir22  1  0.494679  0.360819  0.000000  1
  Ir  Ir23  1  0.862875  0.507248  0.000000  1
  Ir  Ir24  1  0.637857  0.133497  0.000000  1
  Ir  Ir25  1  0.460347  0.000000  0.500000  1
  Ir  Ir26  1  0.993580  0.274780  0.000000  1
  Ir  Ir27  1  0.718801  0.725220  0.000000  1
  Ir  Ir28  1  0.285385  0.000000  0.000000  1
  Ir  Ir29  1  0.623111  0.809241  0.500000  1
  Ir  Ir30  1  0.207426  0.827898  0.500000  1
  Ir  Ir31  1  0.170955  0.372043  0.500000  1
  Ir  Ir32  1  0.379529  0.172102  0.500000  1
  Ir  Ir33  1  0.798912  0.627957  0.500000  1
  Ir  Ir34  1  0.813871  0.190759  0.500000  1
  Ir  Ir35  1  0.999848  0.000000  0.500000  1
