# generated using pymatgen
data_Li3Tb4TmPt4
_symmetry_space_group_name_H-M   'P 1'
_cell_length_a   4.07939700
_cell_length_b   7.19256115
_cell_length_c   8.73387562
_cell_angle_alpha   88.86724020
_cell_angle_beta   90.00000000
_cell_angle_gamma   90.00000000
_symmetry_Int_Tables_number   1
_chemical_formula_structural   Li3Tb4TmPt4
_chemical_formula_sum   'Li3 Tb4 Tm1 Pt4'
_cell_volume   256.21329187
_cell_formula_units_Z   1
loop_
 _symmetry_equiv_pos_site_id
 _symmetry_equiv_pos_as_xyz
  1  'x, y, z'
loop_
 _atom_site_type_symbol
 _atom_site_label
 _atom_site_symmetry_multiplicity
 _atom_site_fract_x
 _atom_site_fract_y
 _atom_site_fract_z
 _atom_site_occupancy
  Li  Li0  1  0.750000  0.626885  0.443848  1
  Li  Li1  1  0.250000  0.374383  0.553396  1
  Li  Li2  1  0.750000  0.146498  0.070875  1
  Tb  Tb3  1  0.750000  0.521753  0.808308  1
  Tb  Tb4  1  0.250000  0.960087  0.328068  1
  Tb  Tb5  1  0.250000  0.446951  0.182813  1
  Tb  Tb6  1  0.750000  0.054071  0.662670  1
  Tm  Tm7  1  0.250000  0.872541  0.942310  1
  Pt  Pt8  1  0.250000  0.758196  0.628967  1
  Pt  Pt9  1  0.250000  0.250548  0.876061  1
  Pt  Pt10  1  0.750000  0.737629  0.126676  1
  Pt  Pt11  1  0.750000  0.250458  0.376006  1
