# generated using pymatgen
data_Nd2PdPbAu
_symmetry_space_group_name_H-M   'P 1'
_cell_length_a   3.75627700
_cell_length_b   8.27198747
_cell_length_c   8.27198747
_cell_angle_alpha   89.69933489
_cell_angle_beta   90.00000000
_cell_angle_gamma   90.00000000
_symmetry_Int_Tables_number   1
_chemical_formula_structural   Nd2PdPbAu
_chemical_formula_sum   'Nd4 Pd2 Pb2 Au2'
_cell_volume   257.02263256
_cell_formula_units_Z   2
loop_
 _symmetry_equiv_pos_site_id
 _symmetry_equiv_pos_as_xyz
  1  'x, y, z'
loop_
 _atom_site_type_symbol
 _atom_site_label
 _atom_site_symmetry_multiplicity
 _atom_site_fract_x
 _atom_site_fract_y
 _atom_site_fract_z
 _atom_site_occupancy
  Nd  Nd0  1  0.500000  0.166674  0.666674  1
  Nd  Nd1  1  0.500000  0.833326  0.333326  1
  Nd  Nd2  1  0.500000  0.321123  0.178877  1
  Nd  Nd3  1  0.500000  0.678877  0.821123  1
  Pd  Pd4  1  0.000000  0.876340  0.623660  1
  Pd  Pd5  1  0.000000  0.123660  0.376340  1
  Pb  Pb6  1  0.000000  0.000000  0.000000  1
  Pb  Pb7  1  0.000000  0.500000  0.500000  1
  Au  Au8  1  0.000000  0.623828  0.123828  1
  Au  Au9  1  0.000000  0.376172  0.876172  1
