# generated using pymatgen
data_Nd20Si11Sn
_symmetry_space_group_name_H-M   'P 1'
_cell_length_a   7.77842400
_cell_length_b   7.77842400
_cell_length_c   14.31523300
_cell_angle_alpha   90.00000000
_cell_angle_beta   90.00000000
_cell_angle_gamma   90.00000000
_symmetry_Int_Tables_number   1
_chemical_formula_structural   Nd20Si11Sn
_chemical_formula_sum   'Nd20 Si11 Sn1'
_cell_volume   866.12713851
_cell_formula_units_Z   1
loop_
 _symmetry_equiv_pos_site_id
 _symmetry_equiv_pos_as_xyz
  1  'x, y, z'
loop_
 _atom_site_type_symbol
 _atom_site_label
 _atom_site_symmetry_multiplicity
 _atom_site_fract_x
 _atom_site_fract_y
 _atom_site_fract_z
 _atom_site_occupancy
  Nd  Nd0  1  0.334218  0.689774  0.112462  1
  Nd  Nd1  1  0.189774  0.165782  0.112462  1
  Nd  Nd2  1  0.500000  0.000000  0.719046  1
  Nd  Nd3  1  0.316534  0.673380  0.395987  1
  Nd  Nd4  1  0.664360  0.691259  0.887916  1
  Nd  Nd5  1  0.173380  0.183466  0.395987  1
  Nd  Nd6  1  0.683466  0.326620  0.395987  1
  Nd  Nd7  1  0.171051  0.814274  0.603753  1
  Nd  Nd8  1  0.335640  0.308741  0.887916  1
  Nd  Nd9  1  0.191259  0.835640  0.887916  1
  Nd  Nd10  1  0.500000  0.000000  0.277023  1
  Nd  Nd11  1  0.828949  0.185726  0.603753  1
  Nd  Nd12  1  0.314274  0.328949  0.603753  1
  Nd  Nd13  1  0.826620  0.816534  0.395987  1
  Nd  Nd14  1  0.808741  0.164360  0.887916  1
  Nd  Nd15  1  0.810226  0.834218  0.112462  1
  Nd  Nd16  1  0.000000  0.500000  0.237535  1
  Nd  Nd17  1  0.000000  0.500000  0.766409  1
  Nd  Nd18  1  0.665782  0.310226  0.112462  1
  Nd  Nd19  1  0.685726  0.671051  0.603753  1
  Si  Si20  1  0.113797  0.115021  0.745767  1
  Si  Si21  1  0.384979  0.613797  0.745767  1
  Si  Si22  1  0.615051  0.613596  0.254238  1
  Si  Si23  1  0.500000  0.000000  0.002246  1
  Si  Si24  1  0.113596  0.884949  0.254238  1
  Si  Si25  1  0.615021  0.386203  0.745767  1
  Si  Si26  1  0.886203  0.884979  0.745767  1
  Si  Si27  1  0.384949  0.386404  0.254238  1
  Si  Si28  1  0.886404  0.115051  0.254238  1
  Si  Si29  1  0.500000  0.000000  0.498699  1
  Si  Si30  1  0.000000  0.500000  0.497458  1
  Sn  Sn31  1  0.000000  0.500000  0.001092  1
