# generated using pymatgen
data_Tb8ZnSi11PdAu3
_symmetry_space_group_name_H-M   'P 1'
_cell_length_a   8.25730700
_cell_length_b   8.25682785
_cell_length_c   8.20221007
_cell_angle_alpha   89.98681300
_cell_angle_beta   90.00000000
_cell_angle_gamma   120.00192366
_symmetry_Int_Tables_number   1
_chemical_formula_structural   Tb8ZnSi11PdAu3
_chemical_formula_sum   'Tb8 Zn1 Si11 Pd1 Au3'
_cell_volume   484.28915913
_cell_formula_units_Z   1
loop_
 _symmetry_equiv_pos_site_id
 _symmetry_equiv_pos_as_xyz
  1  'x, y, z'
loop_
 _atom_site_type_symbol
 _atom_site_label
 _atom_site_symmetry_multiplicity
 _atom_site_fract_x
 _atom_site_fract_y
 _atom_site_fract_z
 _atom_site_occupancy
  Tb  Tb0  1  0.500059  0.000116  0.250281  1
  Tb  Tb1  1  0.499482  0.998965  0.749608  1
  Tb  Tb2  1  0.001536  0.502057  0.250194  1
  Tb  Tb3  1  0.002536  0.503023  0.750289  1
  Tb  Tb4  1  0.500522  0.502057  0.250194  1
  Tb  Tb5  1  0.500485  0.503023  0.750289  1
  Tb  Tb6  1  0.997373  0.994746  0.252761  1
  Tb  Tb7  1  0.997131  0.994262  0.746975  1
  Zn  Zn8  1  0.160952  0.321904  0.996634  1
  Si  Si9  1  0.836360  0.672721  0.002567  1
  Si  Si10  1  0.672681  0.837099  0.997973  1
  Si  Si11  1  0.838383  0.676766  0.502285  1
  Si  Si12  1  0.326387  0.162982  0.001828  1
  Si  Si13  1  0.166654  0.333306  0.498395  1
  Si  Si14  1  0.164417  0.837099  0.997973  1
  Si  Si15  1  0.324748  0.162474  0.501646  1
  Si  Si16  1  0.836594  0.162982  0.001828  1
  Si  Si17  1  0.665777  0.833780  0.497974  1
  Si  Si18  1  0.837726  0.162474  0.501646  1
  Si  Si19  1  0.168003  0.833780  0.497974  1
  Pd  Pd20  1  0.333170  0.666341  0.498965  1
  Au  Au21  1  0.335390  0.670782  0.000943  1
  Au  Au22  1  0.666625  0.333250  0.999697  1
  Au  Au23  1  0.667008  0.334015  0.501080  1
