# generated using pymatgen
data_Ti8Co4Ir3Os
_symmetry_space_group_name_H-M   'P 1'
_cell_length_a   6.11873700
_cell_length_b   4.33087600
_cell_length_c   8.63551400
_cell_angle_alpha   90.00000000
_cell_angle_beta   90.00028215
_cell_angle_gamma   90.00000000
_symmetry_Int_Tables_number   1
_chemical_formula_structural   Ti8Co4Ir3Os
_chemical_formula_sum   'Ti8 Co4 Ir3 Os1'
_cell_volume   228.83672745
_cell_formula_units_Z   1
loop_
 _symmetry_equiv_pos_site_id
 _symmetry_equiv_pos_as_xyz
  1  'x, y, z'
loop_
 _atom_site_type_symbol
 _atom_site_label
 _atom_site_symmetry_multiplicity
 _atom_site_fract_x
 _atom_site_fract_y
 _atom_site_fract_z
 _atom_site_occupancy
  Ti  Ti0  1  0.002662  0.749999  0.124954  1
  Ti  Ti1  1  0.497341  0.749999  0.124953  1
  Ti  Ti2  1  0.000826  0.250000  0.373209  1
  Ti  Ti3  1  0.499174  0.250000  0.373212  1
  Ti  Ti4  1  0.000274  0.749999  0.625034  1
  Ti  Ti5  1  0.499723  0.749999  0.625033  1
  Ti  Ti6  1  0.000784  0.250000  0.876811  1
  Ti  Ti7  1  0.499218  0.250000  0.876811  1
  Co  Co8  1  0.750016  0.250000  0.125136  1
  Co  Co9  1  0.249984  0.749999  0.374985  1
  Co  Co10  1  0.750013  0.250000  0.624970  1
  Co  Co11  1  0.249982  0.749999  0.874897  1
  Ir  Ir12  1  0.749999  0.749999  0.375957  1
  Ir  Ir13  1  0.249999  0.250000  0.625007  1
  Ir  Ir14  1  0.749999  0.749999  0.874047  1
  Os  Os15  1  0.250005  0.250000  0.124986  1
