# generated using pymatgen
data_Ho20Ir7Rh5
_symmetry_space_group_name_H-M   'P 1'
_cell_length_a   10.84045508
_cell_length_b   10.84045508
_cell_length_c   6.36721304
_cell_angle_alpha   89.99136065
_cell_angle_beta   89.99136065
_cell_angle_gamma   89.94968298
_symmetry_Int_Tables_number   1
_chemical_formula_structural   Ho20Ir7Rh5
_chemical_formula_sum   'Ho20 Ir7 Rh5'
_cell_volume   748.24570314
_cell_formula_units_Z   1
loop_
 _symmetry_equiv_pos_site_id
 _symmetry_equiv_pos_as_xyz
  1  'x, y, z'
loop_
 _atom_site_type_symbol
 _atom_site_label
 _atom_site_symmetry_multiplicity
 _atom_site_fract_x
 _atom_site_fract_y
 _atom_site_fract_z
 _atom_site_occupancy
  Ho  Ho0  1  0.290264  0.088637  0.379147  1
  Ho  Ho1  1  0.290454  0.911293  0.878644  1
  Ho  Ho2  1  0.708940  0.088298  0.877971  1
  Ho  Ho3  1  0.709039  0.909886  0.379317  1
  Ho  Ho4  1  0.588677  0.790337  0.879069  1
  Ho  Ho5  1  0.587342  0.209786  0.378988  1
  Ho  Ho6  1  0.411101  0.790422  0.378960  1
  Ho  Ho7  1  0.411223  0.209524  0.878817  1
  Ho  Ho8  1  0.209663  0.411323  0.620931  1
  Ho  Ho9  1  0.209578  0.588899  0.121040  1
  Ho  Ho10  1  0.790214  0.412658  0.121012  1
  Ho  Ho11  1  0.790476  0.588777  0.621183  1
  Ho  Ho12  1  0.911363  0.709736  0.120853  1
  Ho  Ho13  1  0.911702  0.291060  0.622029  1
  Ho  Ho14  1  0.088707  0.709546  0.621356  1
  Ho  Ho15  1  0.090114  0.290961  0.120683  1
  Ho  Ho16  1  0.000118  0.999742  0.499950  1
  Ho  Ho17  1  0.000258  0.999882  0.000050  1
  Ho  Ho18  1  0.499936  0.499839  0.999895  1
  Ho  Ho19  1  0.500161  0.500064  0.500105  1
  Ir  Ir20  1  0.845990  0.846635  0.749947  1
  Ir  Ir21  1  0.153365  0.154010  0.750053  1
  Ir  Ir22  1  0.154007  0.845993  0.250000  1
  Ir  Ir23  1  0.654618  0.345382  0.750000  1
  Ir  Ir24  1  0.654159  0.653847  0.249830  1
  Ir  Ir25  1  0.346153  0.345841  0.250170  1
  Ir  Ir26  1  0.345985  0.654015  0.750000  1
  Rh  Rh27  1  0.845917  0.154083  0.250000  1
  Rh  Rh28  1  0.500546  0.000239  0.122236  1
  Rh  Rh29  1  0.500404  0.000236  0.621742  1
  Rh  Rh30  1  0.999764  0.499596  0.878258  1
  Rh  Rh31  1  0.999761  0.499454  0.377764  1
