# generated using pymatgen
data_LiAl(BrO3)4
_symmetry_space_group_name_H-M   'P 1'
_cell_length_a   4.83398702
_cell_length_b   6.44595983
_cell_length_c   8.42000897
_cell_angle_alpha   82.58452898
_cell_angle_beta   87.85202079
_cell_angle_gamma   88.10430294
_symmetry_Int_Tables_number   1
_chemical_formula_structural   LiAl(BrO3)4
_chemical_formula_sum   'Li1 Al1 Br4 O12'
_cell_volume   259.88208588
_cell_formula_units_Z   1
loop_
 _symmetry_equiv_pos_site_id
 _symmetry_equiv_pos_as_xyz
  1  'x, y, z'
loop_
 _atom_site_type_symbol
 _atom_site_label
 _atom_site_symmetry_multiplicity
 _atom_site_fract_x
 _atom_site_fract_y
 _atom_site_fract_z
 _atom_site_occupancy
  Li  Li0  1  0.500000  0.000000  0.500000  1
  Al  Al1  1  0.500000  0.500000  0.500000  1
  Br  Br2  1  0.565606  0.798332  0.162426  1
  Br  Br3  1  0.028799  0.296191  0.279082  1
  Br  Br4  1  0.971201  0.703809  0.720918  1
  Br  Br5  1  0.434394  0.201668  0.837574  1
  O  O6  1  0.758204  0.622026  0.078202  1
  O  O7  1  0.718565  0.026089  0.118792  1
  O  O8  1  0.230919  0.486760  0.335719  1
  O  O9  1  0.191885  0.072550  0.337345  1
  O  O10  1  0.638258  0.739168  0.372303  1
  O  O11  1  0.741731  0.290200  0.408506  1
  O  O12  1  0.258269  0.709800  0.591494  1
  O  O13  1  0.361742  0.260832  0.627697  1
  O  O14  1  0.808115  0.927450  0.662655  1
  O  O15  1  0.769081  0.513240  0.664281  1
  O  O16  1  0.281435  0.973911  0.881208  1
  O  O17  1  0.241796  0.377974  0.921798  1
