# generated using pymatgen
data_Y6P13Rh20
_symmetry_space_group_name_H-M   'P 1'
_cell_length_a   13.34178800
_cell_length_b   13.34178634
_cell_length_c   3.92882300
_cell_angle_alpha   90.00000000
_cell_angle_beta   90.00000000
_cell_angle_gamma   119.99999916
_symmetry_Int_Tables_number   1
_chemical_formula_structural   Y6P13Rh20
_chemical_formula_sum   'Y6 P13 Rh20'
_cell_volume   605.64915527
_cell_formula_units_Z   1
loop_
 _symmetry_equiv_pos_site_id
 _symmetry_equiv_pos_as_xyz
  1  'x, y, z'
loop_
 _atom_site_type_symbol
 _atom_site_label
 _atom_site_symmetry_multiplicity
 _atom_site_fract_x
 _atom_site_fract_y
 _atom_site_fract_z
 _atom_site_occupancy
  Y  Y0  1  0.529345  0.717447  0.248502  1
  Y  Y1  1  0.282553  0.811898  0.248502  1
  Y  Y2  1  0.188102  0.470655  0.248502  1
  Y  Y3  1  0.470655  0.282553  0.751498  1
  Y  Y4  1  0.717447  0.188102  0.751498  1
  Y  Y5  1  0.811898  0.529345  0.751498  1
  P  P6  1  0.525810  0.139087  0.250238  1
  P  P7  1  0.860913  0.386724  0.250238  1
  P  P8  1  0.613276  0.474190  0.250238  1
  P  P9  1  0.945061  0.714999  0.254394  1
  P  P10  1  0.285001  0.230063  0.254394  1
  P  P11  1  0.769937  0.054939  0.254394  1
  P  P12  1  0.386724  0.525810  0.749762  1
  P  P13  1  0.474190  0.860913  0.749762  1
  P  P14  1  0.139087  0.613276  0.749762  1
  P  P15  1  0.714999  0.769937  0.745606  1
  P  P16  1  0.230063  0.945061  0.745606  1
  P  P17  1  0.054939  0.285001  0.745606  1
  P  P18  1  0.000000  0.000000  0.000000  1
  Rh  Rh19  1  0.333333  0.666667  0.751611  1
  Rh  Rh20  1  0.921727  0.250440  0.253776  1
  Rh  Rh21  1  0.749560  0.671287  0.253776  1
  Rh  Rh22  1  0.328713  0.078273  0.253776  1
  Rh  Rh23  1  0.438506  0.022491  0.751347  1
  Rh  Rh24  1  0.977509  0.416016  0.751347  1
  Rh  Rh25  1  0.583984  0.561494  0.751347  1
  Rh  Rh26  1  0.666667  0.333333  0.248389  1
  Rh  Rh27  1  0.094263  0.186675  0.247468  1
  Rh  Rh28  1  0.813325  0.907588  0.247468  1
  Rh  Rh29  1  0.092412  0.905737  0.247468  1
  Rh  Rh30  1  0.022491  0.583984  0.248653  1
  Rh  Rh31  1  0.416016  0.438506  0.248653  1
  Rh  Rh32  1  0.561494  0.977509  0.248653  1
  Rh  Rh33  1  0.671287  0.921727  0.746224  1
  Rh  Rh34  1  0.078273  0.749560  0.746224  1
  Rh  Rh35  1  0.250440  0.328713  0.746224  1
  Rh  Rh36  1  0.905737  0.813325  0.752532  1
  Rh  Rh37  1  0.186675  0.092412  0.752532  1
  Rh  Rh38  1  0.907588  0.094263  0.752532  1
