# generated using pymatgen
data_PrTm5ScCo17P12
_symmetry_space_group_name_H-M   'P 1'
_cell_length_a   3.69389400
_cell_length_b   10.56498600
_cell_length_c   12.23751100
_cell_angle_alpha   90.00000000
_cell_angle_beta   90.00000000
_cell_angle_gamma   90.00000000
_symmetry_Int_Tables_number   1
_chemical_formula_structural   PrTm5ScCo17P12
_chemical_formula_sum   'Pr1 Tm5 Sc1 Co17 P12'
_cell_volume   477.58035040
_cell_formula_units_Z   1
loop_
 _symmetry_equiv_pos_site_id
 _symmetry_equiv_pos_as_xyz
  1  'x, y, z'
loop_
 _atom_site_type_symbol
 _atom_site_label
 _atom_site_symmetry_multiplicity
 _atom_site_fract_x
 _atom_site_fract_y
 _atom_site_fract_z
 _atom_site_occupancy
  Pr  Pr0  1  0.500000  0.000000  0.476813  1
  Tm  Tm1  1  0.000000  0.500000  0.527881  1
  Tm  Tm2  1  0.500000  0.821552  0.206115  1
  Tm  Tm3  1  0.500000  0.178448  0.206115  1
  Tm  Tm4  1  0.000000  0.681372  0.795943  1
  Tm  Tm5  1  0.000000  0.318628  0.795943  1
  Sc  Sc6  1  0.500000  0.500000  0.152901  1
  Co  Co7  1  0.000000  0.000000  0.839687  1
  Co  Co8  1  0.500000  0.500000  0.704303  1
  Co  Co9  1  0.000000  0.000000  0.291517  1
  Co  Co10  1  0.000000  0.500000  0.984281  1
  Co  Co11  1  0.500000  0.000000  0.012085  1
  Co  Co12  1  0.500000  0.327154  0.989821  1
  Co  Co13  1  0.500000  0.672846  0.989821  1
  Co  Co14  1  0.000000  0.163022  0.001446  1
  Co  Co15  1  0.000000  0.836978  0.001446  1
  Co  Co16  1  0.500000  0.298377  0.433784  1
  Co  Co17  1  0.500000  0.701623  0.433784  1
  Co  Co18  1  0.000000  0.206828  0.571742  1
  Co  Co19  1  0.000000  0.793172  0.571742  1
  Co  Co20  1  0.500000  0.878817  0.709931  1
  Co  Co21  1  0.500000  0.121183  0.709931  1
  Co  Co22  1  0.000000  0.621901  0.294386  1
  Co  Co23  1  0.000000  0.378099  0.294386  1
  P  P24  1  0.500000  0.500000  0.882684  1
  P  P25  1  0.000000  0.000000  0.114860  1
  P  P26  1  0.500000  0.500000  0.358990  1
  P  P27  1  0.000000  0.000000  0.659444  1
  P  P28  1  0.500000  0.311372  0.618925  1
  P  P29  1  0.500000  0.688628  0.618925  1
  P  P30  1  0.000000  0.193109  0.383685  1
  P  P31  1  0.000000  0.806891  0.383685  1
  P  P32  1  0.500000  0.849711  0.889089  1
  P  P33  1  0.500000  0.150289  0.889089  1
  P  P34  1  0.000000  0.663544  0.102409  1
  P  P35  1  0.000000  0.336456  0.102409  1
