# generated using pymatgen
data_TbErCo9P6Os
_symmetry_space_group_name_H-M   'P 1'
_cell_length_a   3.68302700
_cell_length_b   10.34380600
_cell_length_c   11.73852100
_cell_angle_alpha   90.00000000
_cell_angle_beta   90.00000000
_cell_angle_gamma   90.00000000
_symmetry_Int_Tables_number   1
_chemical_formula_structural   TbErCo9P6Os
_chemical_formula_sum   'Tb2 Er2 Co18 P12 Os2'
_cell_volume   447.19676226
_cell_formula_units_Z   2
loop_
 _symmetry_equiv_pos_site_id
 _symmetry_equiv_pos_as_xyz
  1  'x, y, z'
loop_
 _atom_site_type_symbol
 _atom_site_label
 _atom_site_symmetry_multiplicity
 _atom_site_fract_x
 _atom_site_fract_y
 _atom_site_fract_z
 _atom_site_occupancy
  Tb  Tb0  1  0.250000  0.582573  0.701919  1
  Tb  Tb1  1  0.250000  0.917427  0.201919  1
  Er  Er2  1  0.750000  0.413109  0.295455  1
  Er  Er3  1  0.750000  0.086891  0.795455  1
  Co  Co4  1  0.750000  0.283841  0.008800  1
  Co  Co5  1  0.750000  0.216159  0.508800  1
  Co  Co6  1  0.250000  0.405684  0.487218  1
  Co  Co7  1  0.250000  0.094316  0.987218  1
  Co  Co8  1  0.750000  0.591387  0.509063  1
  Co  Co9  1  0.750000  0.908613  0.009063  1
  Co  Co10  1  0.250000  0.220578  0.177108  1
  Co  Co11  1  0.250000  0.279422  0.677108  1
  Co  Co12  1  0.750000  0.778023  0.822778  1
  Co  Co13  1  0.750000  0.721977  0.322778  1
  Co  Co14  1  0.250000  0.888338  0.702162  1
  Co  Co15  1  0.250000  0.611662  0.202162  1
  Co  Co16  1  0.750000  0.116368  0.301308  1
  Co  Co17  1  0.750000  0.383632  0.801308  1
  Co  Co18  1  0.250000  0.464726  0.933260  1
  Co  Co19  1  0.250000  0.035274  0.433260  1
  Co  Co20  1  0.750000  0.532778  0.069404  1
  Co  Co21  1  0.750000  0.967222  0.569404  1
  P  P22  1  0.250000  0.416114  0.113031  1
  P  P23  1  0.250000  0.083886  0.613031  1
  P  P24  1  0.750000  0.578496  0.887243  1
  P  P25  1  0.750000  0.921504  0.387243  1
  P  P26  1  0.250000  0.270275  0.869258  1
  P  P27  1  0.250000  0.229725  0.369258  1
  P  P28  1  0.750000  0.728526  0.132197  1
  P  P29  1  0.750000  0.771474  0.632197  1
  P  P30  1  0.250000  0.592996  0.389893  1
  P  P31  1  0.250000  0.907004  0.889893  1
  P  P32  1  0.750000  0.396735  0.608402  1
  P  P33  1  0.750000  0.103265  0.108402  1
  Os  Os34  1  0.250000  0.715293  0.991501  1
  Os  Os35  1  0.250000  0.784707  0.491501  1
