# generated using pymatgen
data_YbSc3B8Ru9W
_symmetry_space_group_name_H-M   'P 1'
_cell_length_a   3.02143300
_cell_length_b   8.59039275
_cell_length_c   10.09824477
_cell_angle_alpha   90.40702296
_cell_angle_beta   90.00000000
_cell_angle_gamma   90.00000000
_symmetry_Int_Tables_number   1
_chemical_formula_structural   YbSc3B8Ru9W
_chemical_formula_sum   'Yb1 Sc3 B8 Ru9 W1'
_cell_volume   262.09631971
_cell_formula_units_Z   1
loop_
 _symmetry_equiv_pos_site_id
 _symmetry_equiv_pos_as_xyz
  1  'x, y, z'
loop_
 _atom_site_type_symbol
 _atom_site_label
 _atom_site_symmetry_multiplicity
 _atom_site_fract_x
 _atom_site_fract_y
 _atom_site_fract_z
 _atom_site_occupancy
  Yb  Yb0  1  0.500000  0.843707  0.182035  1
  Sc  Sc1  1  0.500000  0.158438  0.819868  1
  Sc  Sc2  1  0.500000  0.659433  0.683043  1
  Sc  Sc3  1  0.500000  0.344934  0.316346  1
  B  B4  1  0.500000  0.965266  0.589126  1
  B  B5  1  0.500000  0.036190  0.410105  1
  B  B6  1  0.500000  0.850016  0.900147  1
  B  B7  1  0.500000  0.149521  0.099494  1
  B  B8  1  0.500000  0.644724  0.399523  1
  B  B9  1  0.500000  0.350083  0.601304  1
  B  B10  1  0.500000  0.460165  0.913870  1
  B  B11  1  0.500000  0.532835  0.087540  1
  Ru  Ru12  1  0.000000  0.336193  0.047676  1
  Ru  Ru13  1  0.000000  0.841351  0.454630  1
  Ru  Ru14  1  0.000000  0.159193  0.546835  1
  Ru  Ru15  1  0.000000  0.006298  0.995310  1
  Ru  Ru16  1  0.000000  0.404173  0.760809  1
  Ru  Ru17  1  0.000000  0.590847  0.240659  1
  Ru  Ru18  1  0.000000  0.500173  0.502646  1
  Ru  Ru19  1  0.000000  0.907011  0.736212  1
  Ru  Ru20  1  0.000000  0.101594  0.262170  1
  W  W21  1  0.000000  0.657854  0.950651  1
