# generated using pymatgen
data_Lu16AlZn3Co4
_symmetry_space_group_name_H-M   'P 1'
_cell_length_a   9.15609086
_cell_length_b   9.15609155
_cell_length_c   9.15609086
_cell_angle_alpha   60.10839592
_cell_angle_beta   60.10838611
_cell_angle_gamma   60.10839687
_symmetry_Int_Tables_number   1
_chemical_formula_structural   Lu16AlZn3Co4
_chemical_formula_sum   'Lu16 Al1 Zn3 Co4'
_cell_volume   544.10231368
_cell_formula_units_Z   1
loop_
 _symmetry_equiv_pos_site_id
 _symmetry_equiv_pos_as_xyz
  1  'x, y, z'
loop_
 _atom_site_type_symbol
 _atom_site_label
 _atom_site_symmetry_multiplicity
 _atom_site_fract_x
 _atom_site_fract_y
 _atom_site_fract_z
 _atom_site_occupancy
  Lu  Lu0  1  0.350294  0.350294  0.350294  1
  Lu  Lu1  1  0.350049  0.350049  0.950554  1
  Lu  Lu2  1  0.350049  0.950554  0.350049  1
  Lu  Lu3  1  0.950554  0.350049  0.350049  1
  Lu  Lu4  1  0.809321  0.190246  0.190246  1
  Lu  Lu5  1  0.192226  0.808551  0.808551  1
  Lu  Lu6  1  0.190246  0.809321  0.190246  1
  Lu  Lu7  1  0.808551  0.192226  0.808551  1
  Lu  Lu8  1  0.190246  0.190246  0.809321  1
  Lu  Lu9  1  0.808551  0.808551  0.192226  1
  Lu  Lu10  1  0.938837  0.562790  0.562790  1
  Lu  Lu11  1  0.562212  0.938275  0.938275  1
  Lu  Lu12  1  0.562790  0.938837  0.562790  1
  Lu  Lu13  1  0.938275  0.562212  0.938275  1
  Lu  Lu14  1  0.562790  0.562790  0.938837  1
  Lu  Lu15  1  0.938275  0.938275  0.562212  1
  Al  Al16  1  0.575909  0.575909  0.575909  1
  Zn  Zn17  1  0.577667  0.577667  0.266740  1
  Zn  Zn18  1  0.577667  0.266740  0.577667  1
  Zn  Zn19  1  0.266740  0.577667  0.577667  1
  Co  Co20  1  0.141144  0.141144  0.141144  1
  Co  Co21  1  0.141314  0.141314  0.574974  1
  Co  Co22  1  0.141314  0.574974  0.141314  1
  Co  Co23  1  0.574974  0.141314  0.141314  1
