# generated using pymatgen
data_La8Ho12Si15As
_symmetry_space_group_name_H-M   'P 1'
_cell_length_a   7.61126502
_cell_length_b   7.84013342
_cell_length_c   14.88311271
_cell_angle_alpha   90.21877513
_cell_angle_beta   88.79445322
_cell_angle_gamma   90.35435784
_symmetry_Int_Tables_number   1
_chemical_formula_structural   La8Ho12Si15As
_chemical_formula_sum   'La8 Ho12 Si15 As1'
_cell_volume   887.90533631
_cell_formula_units_Z   1
loop_
 _symmetry_equiv_pos_site_id
 _symmetry_equiv_pos_as_xyz
  1  'x, y, z'
loop_
 _atom_site_type_symbol
 _atom_site_label
 _atom_site_symmetry_multiplicity
 _atom_site_fract_x
 _atom_site_fract_y
 _atom_site_fract_z
 _atom_site_occupancy
  La  La0  1  0.979284  0.818748  0.096728  1
  La  La1  1  0.475250  0.677236  0.400623  1
  La  La2  1  0.511905  0.323685  0.900842  1
  La  La3  1  0.024294  0.178017  0.599044  1
  La  La4  1  0.020504  0.181901  0.903346  1
  La  La5  1  0.524030  0.322227  0.599189  1
  La  La6  1  0.484142  0.677955  0.099611  1
  La  La7  1  0.975117  0.820962  0.401136  1
  Ho  Ho8  1  0.651743  0.993338  0.248956  1
  Ho  Ho9  1  0.153967  0.507499  0.246546  1
  Ho  Ho10  1  0.846457  0.492214  0.750188  1
  Ho  Ho11  1  0.347584  0.007406  0.750354  1
  Ho  Ho12  1  0.673450  0.827633  0.874225  1
  Ho  Ho13  1  0.180896  0.677778  0.623326  1
  Ho  Ho14  1  0.829643  0.326431  0.119908  1
  Ho  Ho15  1  0.318374  0.176337  0.376900  1
  Ho  Ho16  1  0.325348  0.173832  0.125131  1
  Ho  Ho17  1  0.819687  0.321986  0.377365  1
  Ho  Ho18  1  0.173561  0.672522  0.880477  1
  Ho  Ho19  1  0.681685  0.823613  0.623741  1
  Si  Si20  1  0.773626  0.617267  0.249929  1
  Si  Si21  1  0.271784  0.878738  0.250807  1
  Si  Si22  1  0.726970  0.122485  0.749697  1
  Si  Si23  1  0.225103  0.381465  0.750163  1
  Si  Si24  1  0.024329  0.115768  0.250032  1
  Si  Si25  1  0.531993  0.381283  0.252010  1
  Si  Si26  1  0.469462  0.617922  0.748620  1
  Si  Si27  1  0.975811  0.883326  0.751287  1
  Si  Si28  1  0.359346  0.969619  0.540961  1
  Si  Si29  1  0.647314  0.033939  0.038472  1
  Si  Si30  1  0.141558  0.469300  0.459603  1
  Si  Si31  1  0.177364  0.464217  0.046522  1
  Si  Si32  1  0.640892  0.029604  0.459296  1
  Si  Si33  1  0.352785  0.967144  0.960248  1
  Si  Si34  1  0.859170  0.529958  0.541315  1
  As  As35  1  0.825569  0.536640  0.953401  1
