# generated using pymatgen
data_Tm6CrSi24Ru7
_symmetry_space_group_name_H-M   'P 1'
_cell_length_a   10.08860103
_cell_length_b   10.08860287
_cell_length_c   8.10427500
_cell_angle_alpha   89.99572352
_cell_angle_beta   89.99571784
_cell_angle_gamma   132.62351371
_symmetry_Int_Tables_number   1
_chemical_formula_structural   Tm6CrSi24Ru7
_chemical_formula_sum   'Tm6 Cr1 Si24 Ru7'
_cell_volume   606.94211835
_cell_formula_units_Z   1
loop_
 _symmetry_equiv_pos_site_id
 _symmetry_equiv_pos_as_xyz
  1  'x, y, z'
loop_
 _atom_site_type_symbol
 _atom_site_label
 _atom_site_symmetry_multiplicity
 _atom_site_fract_x
 _atom_site_fract_y
 _atom_site_fract_z
 _atom_site_occupancy
  Tm  Tm0  1  0.501195  0.498805  0.500000  1
  Tm  Tm1  1  0.000551  0.999449  0.000000  1
  Tm  Tm2  1  0.502274  0.004835  0.747930  1
  Tm  Tm3  1  0.995165  0.497726  0.252070  1
  Tm  Tm4  1  0.498135  0.001026  0.253999  1
  Tm  Tm5  1  0.998974  0.501865  0.746001  1
  Cr  Cr6  1  0.671820  0.328180  0.500000  1
  Si  Si7  1  0.792554  0.207446  0.500000  1
  Si  Si8  1  0.294218  0.705782  0.000000  1
  Si  Si9  1  0.204043  0.795957  0.500000  1
  Si  Si10  1  0.703268  0.296732  0.000000  1
  Si  Si11  1  0.332348  0.333082  0.832822  1
  Si  Si12  1  0.666918  0.667652  0.167178  1
  Si  Si13  1  0.171847  0.161746  0.333014  1
  Si  Si14  1  0.838254  0.828153  0.666986  1
  Si  Si15  1  0.123467  0.888275  0.727693  1
  Si  Si16  1  0.111725  0.876533  0.272307  1
  Si  Si17  1  0.606094  0.371346  0.237948  1
  Si  Si18  1  0.628654  0.393906  0.762052  1
  Si  Si19  1  0.875471  0.109539  0.271274  1
  Si  Si20  1  0.890461  0.124529  0.728726  1
  Si  Si21  1  0.387792  0.622281  0.771522  1
  Si  Si22  1  0.377719  0.612208  0.228478  1
  Si  Si23  1  0.355881  0.119786  0.509448  1
  Si  Si24  1  0.880214  0.644119  0.490552  1
  Si  Si25  1  0.388765  0.155148  0.006629  1
  Si  Si26  1  0.844852  0.611235  0.993371  1
  Si  Si27  1  0.654149  0.888183  0.492178  1
  Si  Si28  1  0.111817  0.345851  0.507822  1
  Si  Si29  1  0.611871  0.845712  0.996671  1
  Si  Si30  1  0.154288  0.388129  0.003329  1
  Ru  Ru31  1  0.169622  0.830378  0.000000  1
  Ru  Ru32  1  0.329638  0.670362  0.500000  1
  Ru  Ru33  1  0.828560  0.171440  0.000000  1
  Ru  Ru34  1  0.126241  0.127419  0.626470  1
  Ru  Ru35  1  0.872581  0.873759  0.373530  1
  Ru  Ru36  1  0.372018  0.373447  0.127391  1
  Ru  Ru37  1  0.626553  0.627982  0.872609  1
