# generated using pymatgen
data_Pr5FeWO12
_symmetry_space_group_name_H-M   'P 1'
_cell_length_a   7.13862536
_cell_length_b   7.13862632
_cell_length_c   7.68032806
_cell_angle_alpha   74.44694246
_cell_angle_beta   74.44693925
_cell_angle_gamma   50.87235541
_symmetry_Int_Tables_number   1
_chemical_formula_structural   Pr5FeWO12
_chemical_formula_sum   'Pr5 Fe1 W1 O12'
_cell_volume   289.92550584
_cell_formula_units_Z   1
loop_
 _symmetry_equiv_pos_site_id
 _symmetry_equiv_pos_as_xyz
  1  'x, y, z'
loop_
 _atom_site_type_symbol
 _atom_site_label
 _atom_site_symmetry_multiplicity
 _atom_site_fract_x
 _atom_site_fract_y
 _atom_site_fract_z
 _atom_site_occupancy
  Pr  Pr0  1  0.314583  0.294200  0.358660  1
  Pr  Pr1  1  0.705800  0.685417  0.641340  1
  Pr  Pr2  1  0.695090  0.694880  0.165106  1
  Pr  Pr3  1  0.305120  0.304910  0.834894  1
  Pr  Pr4  1  0.006827  0.993173  0.500000  1
  Fe  Fe5  1  0.745023  0.254977  0.000000  1
  W  W6  1  0.233127  0.766873  0.000000  1
  O  O7  1  0.100619  0.593126  0.575388  1
  O  O8  1  0.012409  0.986058  0.177292  1
  O  O9  1  0.406874  0.899381  0.424612  1
  O  O10  1  0.479900  0.522317  0.174584  1
  O  O11  1  0.102502  0.583005  0.079145  1
  O  O12  1  0.910291  0.399997  0.420906  1
  O  O13  1  0.013942  0.987591  0.822708  1
  O  O14  1  0.600003  0.089708  0.579094  1
  O  O15  1  0.477683  0.520100  0.825416  1
  O  O16  1  0.577095  0.103884  0.078612  1
  O  O17  1  0.416995  0.897498  0.920855  1
  O  O18  1  0.896116  0.422905  0.921388  1
