# generated using pymatgen
data_GeMo6Ir(RhN)2
_symmetry_space_group_name_H-M   'P 1'
_cell_length_a   6.84788200
_cell_length_b   6.84476523
_cell_length_c   6.84413751
_cell_angle_alpha   89.22345537
_cell_angle_beta   90.00000000
_cell_angle_gamma   90.00000000
_symmetry_Int_Tables_number   1
_chemical_formula_structural   GeMo6Ir(RhN)2
_chemical_formula_sum   'Ge2 Mo12 Ir2 Rh4 N4'
_cell_volume   320.76993951
_cell_formula_units_Z   2
loop_
 _symmetry_equiv_pos_site_id
 _symmetry_equiv_pos_as_xyz
  1  'x, y, z'
loop_
 _atom_site_type_symbol
 _atom_site_label
 _atom_site_symmetry_multiplicity
 _atom_site_fract_x
 _atom_site_fract_y
 _atom_site_fract_z
 _atom_site_occupancy
  Ge  Ge0  1  0.684859  0.177027  0.934705  1
  Ge  Ge1  1  0.184859  0.822973  0.065295  1
  Mo  Mo2  1  0.621082  0.045325  0.544555  1
  Mo  Mo3  1  0.121082  0.954675  0.455445  1
  Mo  Mo4  1  0.867493  0.538802  0.944275  1
  Mo  Mo5  1  0.367493  0.461198  0.055725  1
  Mo  Mo6  1  0.201380  0.622939  0.696400  1
  Mo  Mo7  1  0.300035  0.125399  0.784798  1
  Mo  Mo8  1  0.800035  0.874601  0.215202  1
  Mo  Mo9  1  0.701380  0.377061  0.303600  1
  Mo  Mo10  1  0.048999  0.210831  0.131446  1
  Mo  Mo11  1  0.962220  0.306466  0.620765  1
  Mo  Mo12  1  0.548999  0.789169  0.868554  1
  Mo  Mo13  1  0.462220  0.693534  0.379235  1
  Ir  Ir14  1  0.812023  0.687660  0.567232  1
  Ir  Ir15  1  0.312023  0.312340  0.432768  1
  Rh  Rh16  1  0.061300  0.571218  0.300305  1
  Rh  Rh17  1  0.436576  0.061188  0.173679  1
  Rh  Rh18  1  0.561300  0.428782  0.699695  1
  Rh  Rh19  1  0.936576  0.938812  0.826321  1
  N  N20  1  0.375195  0.872342  0.619929  1
  N  N21  1  0.875195  0.127658  0.380071  1
  N  N22  1  0.128839  0.375430  0.875132  1
  N  N23  1  0.628839  0.624570  0.124868  1
