# generated using pymatgen
data_Dy3Ho3In2C
_symmetry_space_group_name_H-M   'P 1'
_cell_length_a   6.91441471
_cell_length_b   6.91441438
_cell_length_c   6.91312706
_cell_angle_alpha   59.99384695
_cell_angle_beta   59.99384555
_cell_angle_gamma   60.00000623
_symmetry_Int_Tables_number   1
_chemical_formula_structural   Dy3Ho3In2C
_chemical_formula_sum   'Dy3 Ho3 In2 C1'
_cell_volume   233.68454330
_cell_formula_units_Z   1
loop_
 _symmetry_equiv_pos_site_id
 _symmetry_equiv_pos_as_xyz
  1  'x, y, z'
loop_
 _atom_site_type_symbol
 _atom_site_label
 _atom_site_symmetry_multiplicity
 _atom_site_fract_x
 _atom_site_fract_y
 _atom_site_fract_z
 _atom_site_occupancy
  Dy  Dy0  1  0.245657  0.245657  0.754225  1
  Dy  Dy1  1  0.754460  0.245655  0.754227  1
  Dy  Dy2  1  0.245655  0.754460  0.754227  1
  Ho  Ho3  1  0.754922  0.754922  0.244924  1
  Ho  Ho4  1  0.754921  0.245232  0.244924  1
  Ho  Ho5  1  0.245232  0.754921  0.244924  1
  In  In6  1  0.250017  0.250017  0.249950  1
  In  In7  1  0.750017  0.750017  0.749945  1
  C  C8  1  0.999116  0.999116  0.002651  1
