# generated using pymatgen
data_Y3Tm5Cd2NiOs
_symmetry_space_group_name_H-M   'P 1'
_cell_length_a   9.51774562
_cell_length_b   9.51774501
_cell_length_c   9.59002800
_cell_angle_alpha   59.74846169
_cell_angle_beta   59.74846380
_cell_angle_gamma   59.59963418
_symmetry_Int_Tables_number   1
_chemical_formula_structural   Y3Tm5Cd2NiOs
_chemical_formula_sum   'Y6 Tm10 Cd4 Ni2 Os2'
_cell_volume   610.08456706
_cell_formula_units_Z   2
loop_
 _symmetry_equiv_pos_site_id
 _symmetry_equiv_pos_as_xyz
  1  'x, y, z'
loop_
 _atom_site_type_symbol
 _atom_site_label
 _atom_site_symmetry_multiplicity
 _atom_site_fract_x
 _atom_site_fract_y
 _atom_site_fract_z
 _atom_site_occupancy
  Y  Y0  1  0.189185  0.807386  0.814573  1
  Y  Y1  1  0.807386  0.189185  0.188857  1
  Y  Y2  1  0.807386  0.189185  0.814573  1
  Y  Y3  1  0.189185  0.807386  0.188857  1
  Y  Y4  1  0.813894  0.813894  0.186106  1
  Y  Y5  1  0.192646  0.192646  0.807354  1
  Tm  Tm6  1  0.599501  0.599501  0.594440  1
  Tm  Tm7  1  0.599501  0.599501  0.206559  1
  Tm  Tm8  1  0.601937  0.205568  0.596248  1
  Tm  Tm9  1  0.205568  0.601937  0.596248  1
  Tm  Tm10  1  0.062976  0.436037  0.438507  1
  Tm  Tm11  1  0.436037  0.062976  0.062480  1
  Tm  Tm12  1  0.436037  0.062976  0.438507  1
  Tm  Tm13  1  0.062976  0.436037  0.062480  1
  Tm  Tm14  1  0.436910  0.436910  0.063090  1
  Tm  Tm15  1  0.061661  0.061661  0.438339  1
  Cd  Cd16  1  0.828880  0.828880  0.831904  1
  Cd  Cd17  1  0.828880  0.828880  0.510334  1
  Cd  Cd18  1  0.829301  0.508435  0.831131  1
  Cd  Cd19  1  0.508435  0.829301  0.831131  1
  Ni  Ni20  1  0.391028  0.826359  0.391307  1
  Ni  Ni21  1  0.826359  0.391028  0.391307  1
  Os  Os22  1  0.392166  0.392166  0.391504  1
  Os  Os23  1  0.392166  0.392166  0.824165  1
