# generated using pymatgen
data_Y3TmAl18Rh5Au
_symmetry_space_group_name_H-M   'P 1'
_cell_length_a   7.57612651
_cell_length_b   7.57737489
_cell_length_c   9.45929714
_cell_angle_alpha   89.92621454
_cell_angle_beta   89.95504070
_cell_angle_gamma   119.43986888
_symmetry_Int_Tables_number   1
_chemical_formula_structural   Y3TmAl18Rh5Au
_chemical_formula_sum   'Y3 Tm1 Al18 Rh5 Au1'
_cell_volume   472.90973789
_cell_formula_units_Z   1
loop_
 _symmetry_equiv_pos_site_id
 _symmetry_equiv_pos_as_xyz
  1  'x, y, z'
loop_
 _atom_site_type_symbol
 _atom_site_label
 _atom_site_symmetry_multiplicity
 _atom_site_fract_x
 _atom_site_fract_y
 _atom_site_fract_z
 _atom_site_occupancy
  Y  Y0  1  0.996006  0.675481  0.250709  1
  Y  Y1  1  0.004081  0.324568  0.749433  1
  Y  Y2  1  0.675052  0.995776  0.250629  1
  Tm  Tm3  1  0.324303  0.004116  0.749166  1
  Al  Al4  1  0.136943  0.136580  0.257401  1
  Al  Al5  1  0.863839  0.863406  0.742958  1
  Al  Al6  1  0.002015  0.345234  0.078885  1
  Al  Al7  1  0.998707  0.655562  0.919748  1
  Al  Al8  1  0.000946  0.663923  0.575092  1
  Al  Al9  1  0.336310  0.999714  0.426953  1
  Al  Al10  1  0.999751  0.336239  0.426240  1
  Al  Al11  1  0.663204  0.000436  0.575150  1
  Al  Al12  1  0.654375  0.998374  0.919628  1
  Al  Al13  1  0.344864  0.001987  0.077993  1
  Al  Al14  1  0.333039  0.332728  0.551869  1
  Al  Al15  1  0.667051  0.666943  0.450319  1
  Al  Al16  1  0.657885  0.657915  0.055785  1
  Al  Al17  1  0.341815  0.341437  0.942155  1
  Al  Al18  1  0.339995  0.552058  0.251352  1
  Al  Al19  1  0.659581  0.447010  0.748556  1
  Al  Al20  1  0.552224  0.339524  0.251345  1
  Al  Al21  1  0.447556  0.660647  0.748599  1
  Rh  Rh22  1  0.672236  0.327871  0.999517  1
  Rh  Rh23  1  0.327756  0.672135  0.999564  1
  Rh  Rh24  1  0.327995  0.672010  0.500266  1
  Rh  Rh25  1  0.672050  0.327864  0.500343  1
  Rh  Rh26  1  0.000465  0.000242  0.500620  1
  Au  Au27  1  0.999956  0.000222  0.999721  1
