# generated using pymatgen
data_Hf18CoNiMo8
_symmetry_space_group_name_H-M   'P 1'
_cell_length_a   8.67358100
_cell_length_b   8.67358083
_cell_length_c   8.46117100
_cell_angle_alpha   90.00000000
_cell_angle_beta   90.00000000
_cell_angle_gamma   120.00000447
_symmetry_Int_Tables_number   1
_chemical_formula_structural   Hf18CoNiMo8
_chemical_formula_sum   'Hf18 Co1 Ni1 Mo8'
_cell_volume   551.26186861
_cell_formula_units_Z   1
loop_
 _symmetry_equiv_pos_site_id
 _symmetry_equiv_pos_as_xyz
  1  'x, y, z'
loop_
 _atom_site_type_symbol
 _atom_site_label
 _atom_site_symmetry_multiplicity
 _atom_site_fract_x
 _atom_site_fract_y
 _atom_site_fract_z
 _atom_site_occupancy
  Hf  Hf0  1  0.199778  0.800222  0.442567  1
  Hf  Hf1  1  0.199778  0.399556  0.442567  1
  Hf  Hf2  1  0.600444  0.800222  0.442567  1
  Hf  Hf3  1  0.798171  0.201829  0.558792  1
  Hf  Hf4  1  0.798171  0.596344  0.558792  1
  Hf  Hf5  1  0.403656  0.201829  0.558792  1
  Hf  Hf6  1  0.798171  0.201829  0.941208  1
  Hf  Hf7  1  0.798171  0.596344  0.941208  1
  Hf  Hf8  1  0.403656  0.201829  0.941208  1
  Hf  Hf9  1  0.199778  0.800222  0.057433  1
  Hf  Hf10  1  0.199778  0.399556  0.057433  1
  Hf  Hf11  1  0.600444  0.800222  0.057433  1
  Hf  Hf12  1  0.542642  0.457358  0.250000  1
  Hf  Hf13  1  0.542642  0.085283  0.250000  1
  Hf  Hf14  1  0.914717  0.457358  0.250000  1
  Hf  Hf15  1  0.457485  0.542515  0.750000  1
  Hf  Hf16  1  0.457485  0.914970  0.750000  1
  Hf  Hf17  1  0.085030  0.542515  0.750000  1
  Co  Co18  1  0.666667  0.333333  0.750000  1
  Ni  Ni19  1  0.333333  0.666667  0.250000  1
  Mo  Mo20  1  0.887843  0.112157  0.250000  1
  Mo  Mo21  1  0.887843  0.775687  0.250000  1
  Mo  Mo22  1  0.224313  0.112157  0.250000  1
  Mo  Mo23  1  0.112143  0.887857  0.750000  1
  Mo  Mo24  1  0.112143  0.224285  0.750000  1
  Mo  Mo25  1  0.775715  0.887857  0.750000  1
  Mo  Mo26  1  0.000000  0.000000  0.501012  1
  Mo  Mo27  1  0.000000  0.000000  0.998988  1
