# generated using pymatgen
data_Y6Nb3Al13Ru7
_symmetry_space_group_name_H-M   'P 1'
_cell_length_a   9.06113224
_cell_length_b   9.06113228
_cell_length_c   9.06113289
_cell_angle_alpha   59.65344632
_cell_angle_beta   59.65345146
_cell_angle_gamma   59.65344791
_symmetry_Int_Tables_number   1
_chemical_formula_structural   Y6Nb3Al13Ru7
_chemical_formula_sum   'Y6 Nb3 Al13 Ru7'
_cell_volume   521.91432115
_cell_formula_units_Z   1
loop_
 _symmetry_equiv_pos_site_id
 _symmetry_equiv_pos_as_xyz
  1  'x, y, z'
loop_
 _atom_site_type_symbol
 _atom_site_label
 _atom_site_symmetry_multiplicity
 _atom_site_fract_x
 _atom_site_fract_y
 _atom_site_fract_z
 _atom_site_occupancy
  Y  Y0  1  0.708945  0.708945  0.284650  1
  Y  Y1  1  0.293618  0.708366  0.293618  1
  Y  Y2  1  0.708366  0.293618  0.293618  1
  Y  Y3  1  0.293618  0.293618  0.708366  1
  Y  Y4  1  0.708945  0.284650  0.708945  1
  Y  Y5  1  0.284650  0.708945  0.708945  1
  Nb  Nb6  1  0.877485  0.877485  0.361130  1
  Nb  Nb7  1  0.877485  0.361130  0.877485  1
  Nb  Nb8  1  0.361130  0.877485  0.877485  1
  Al  Al9  1  0.881308  0.881308  0.881308  1
  Al  Al10  1  0.121169  0.121169  0.639948  1
  Al  Al11  1  0.121169  0.639948  0.121169  1
  Al  Al12  1  0.639948  0.121169  0.121169  1
  Al  Al13  1  0.120401  0.120401  0.120401  1
  Al  Al14  1  0.671193  0.671193  0.990726  1
  Al  Al15  1  0.671193  0.990726  0.671193  1
  Al  Al16  1  0.990726  0.671193  0.671193  1
  Al  Al17  1  0.667438  0.667438  0.667438  1
  Al  Al18  1  0.331055  0.331055  0.009946  1
  Al  Al19  1  0.331055  0.009946  0.331055  1
  Al  Al20  1  0.009946  0.331055  0.331055  1
  Al  Al21  1  0.331399  0.331399  0.331399  1
  Ru  Ru22  1  0.002041  0.002041  0.002041  1
  Ru  Ru23  1  0.998807  0.998807  0.497303  1
  Ru  Ru24  1  0.502641  0.995517  0.502641  1
  Ru  Ru25  1  0.995517  0.502641  0.502641  1
  Ru  Ru26  1  0.502641  0.502641  0.995517  1
  Ru  Ru27  1  0.998807  0.497303  0.998807  1
  Ru  Ru28  1  0.497303  0.998807  0.998807  1
