# generated using pymatgen
data_Ho10Tl7InRu3Pt
_symmetry_space_group_name_H-M   'P 1'
_cell_length_a   3.62664300
_cell_length_b   8.07322994
_cell_length_c   18.45897380
_cell_angle_alpha   89.76840788
_cell_angle_beta   90.00000000
_cell_angle_gamma   90.00000000
_symmetry_Int_Tables_number   1
_chemical_formula_structural   Ho10Tl7InRu3Pt
_chemical_formula_sum   'Ho10 Tl7 In1 Ru3 Pt1'
_cell_volume   540.45076276
_cell_formula_units_Z   1
loop_
 _symmetry_equiv_pos_site_id
 _symmetry_equiv_pos_as_xyz
  1  'x, y, z'
loop_
 _atom_site_type_symbol
 _atom_site_label
 _atom_site_symmetry_multiplicity
 _atom_site_fract_x
 _atom_site_fract_y
 _atom_site_fract_z
 _atom_site_occupancy
  Ho  Ho0  1  0.000000  0.114382  0.411760  1
  Ho  Ho1  1  0.000000  0.884310  0.590714  1
  Ho  Ho2  1  0.000000  0.383059  0.908071  1
  Ho  Ho3  1  0.000000  0.615578  0.087441  1
  Ho  Ho4  1  0.000000  0.237341  0.223770  1
  Ho  Ho5  1  0.000000  0.755244  0.778315  1
  Ho  Ho6  1  0.000000  0.254679  0.721384  1
  Ho  Ho7  1  0.000000  0.754932  0.279015  1
  Ho  Ho8  1  0.000000  0.999055  0.999673  1
  Ho  Ho9  1  0.000000  0.502242  0.499645  1
  Tl  Tl10  1  0.500000  0.427194  0.353681  1
  Tl  Tl11  1  0.500000  0.569574  0.649319  1
  Tl  Tl12  1  0.500000  0.069055  0.850016  1
  Tl  Tl13  1  0.500000  0.932485  0.148858  1
  Tl  Tl14  1  0.500000  0.290429  0.063631  1
  Tl  Tl15  1  0.500000  0.703534  0.933699  1
  Tl  Tl16  1  0.500000  0.206103  0.567011  1
  In  In17  1  0.500000  0.793971  0.431379  1
  Ru  Ru18  1  0.500000  0.018898  0.305933  1
  Ru  Ru19  1  0.500000  0.980303  0.696412  1
  Ru  Ru20  1  0.500000  0.482329  0.803578  1
  Pt  Pt21  1  0.500000  0.525302  0.196694  1
