# generated using pymatgen
data_Ce5(B3Os)2
_symmetry_space_group_name_H-M   'P 1'
_cell_length_a   5.44194126
_cell_length_b   5.44194223
_cell_length_c   8.81978331
_cell_angle_alpha   72.03068967
_cell_angle_beta   72.03068347
_cell_angle_gamma   60.00000314
_symmetry_Int_Tables_number   1
_chemical_formula_structural   Ce5(B3Os)2
_chemical_formula_sum   'Ce5 B6 Os2'
_cell_volume   211.36238069
_cell_formula_units_Z   1
loop_
 _symmetry_equiv_pos_site_id
 _symmetry_equiv_pos_as_xyz
  1  'x, y, z'
loop_
 _atom_site_type_symbol
 _atom_site_label
 _atom_site_symmetry_multiplicity
 _atom_site_fract_x
 _atom_site_fract_y
 _atom_site_fract_z
 _atom_site_occupancy
  Ce  Ce0  1  0.000000  0.000000  0.000000  1
  Ce  Ce1  1  0.749403  0.749403  0.751791  1
  Ce  Ce2  1  0.250597  0.250597  0.248209  1
  Ce  Ce3  1  0.583936  0.583936  0.248191  1
  Ce  Ce4  1  0.416064  0.416064  0.751809  1
  B  B5  1  0.500000  0.173156  0.500000  1
  B  B6  1  0.826844  0.500000  0.500000  1
  B  B7  1  0.173156  0.826844  0.500000  1
  B  B8  1  0.173156  0.500000  0.500000  1
  B  B9  1  0.826844  0.173156  0.500000  1
  B  B10  1  0.500000  0.826844  0.500000  1
  Os  Os11  1  0.886275  0.886275  0.341177  1
  Os  Os12  1  0.113725  0.113725  0.658824  1
