# generated using pymatgen
data_Gd3ErTm2Ta2O14
_symmetry_space_group_name_H-M   'P 1'
_cell_length_a   6.46347929
_cell_length_b   6.48418902
_cell_length_c   7.50761684
_cell_angle_alpha   90.03339524
_cell_angle_beta   90.06479464
_cell_angle_gamma   108.85116505
_symmetry_Int_Tables_number   1
_chemical_formula_structural   Gd3ErTm2Ta2O14
_chemical_formula_sum   'Gd3 Er1 Tm2 Ta2 O14'
_cell_volume   297.76970608
_cell_formula_units_Z   1
loop_
 _symmetry_equiv_pos_site_id
 _symmetry_equiv_pos_as_xyz
  1  'x, y, z'
loop_
 _atom_site_type_symbol
 _atom_site_label
 _atom_site_symmetry_multiplicity
 _atom_site_fract_x
 _atom_site_fract_y
 _atom_site_fract_z
 _atom_site_occupancy
  Gd  Gd0  1  0.999265  0.532882  0.244629  1
  Gd  Gd1  1  0.473254  0.472474  0.997829  1
  Gd  Gd2  1  0.521719  0.525109  0.501500  1
  Er  Er3  1  0.466029  0.998782  0.255366  1
  Tm  Tm4  1  0.534422  0.000902  0.755723  1
  Tm  Tm5  1  0.999044  0.464903  0.743903  1
  Ta  Ta6  1  0.002786  0.001684  0.501874  1
  Ta  Ta7  1  0.997277  0.996682  0.997546  1
  O  O8  1  0.927152  0.068167  0.749796  1
  O  O9  1  0.642466  0.355694  0.750018  1
  O  O10  1  0.312227  0.050655  0.543013  1
  O  O11  1  0.944197  0.688888  0.953638  1
  O  O12  1  0.625109  0.362987  0.251398  1
  O  O13  1  0.921464  0.675286  0.532790  1
  O  O14  1  0.326826  0.074699  0.970868  1
  O  O15  1  0.082202  0.328113  0.020284  1
  O  O16  1  0.673973  0.924255  0.471809  1
  O  O17  1  0.367343  0.634794  0.750177  1
  O  O18  1  0.687753  0.945677  0.041006  1
  O  O19  1  0.065430  0.317007  0.467778  1
  O  O20  1  0.363032  0.642209  0.249106  1
  O  O21  1  0.067029  0.938149  0.249949  1
