# generated using pymatgen
data_TiMn(GaRu2)2
_symmetry_space_group_name_H-M   'P 1'
_cell_length_a   4.26847700
_cell_length_b   4.26847700
_cell_length_c   6.08909400
_cell_angle_alpha   90.00000000
_cell_angle_beta   90.00000000
_cell_angle_gamma   90.00000000
_symmetry_Int_Tables_number   1
_chemical_formula_structural   TiMn(GaRu2)2
_chemical_formula_sum   'Ti1 Mn1 Ga2 Ru4'
_cell_volume   110.94265880
_cell_formula_units_Z   1
loop_
 _symmetry_equiv_pos_site_id
 _symmetry_equiv_pos_as_xyz
  1  'x, y, z'
loop_
 _atom_site_type_symbol
 _atom_site_label
 _atom_site_symmetry_multiplicity
 _atom_site_fract_x
 _atom_site_fract_y
 _atom_site_fract_z
 _atom_site_occupancy
  Ti  Ti0  1  0.000000  0.000000  0.499998  1
  Mn  Mn1  1  0.500002  0.500002  0.000000  1
  Ga  Ga2  1  0.000000  0.000000  0.000000  1
  Ga  Ga3  1  0.500002  0.500002  0.499998  1
  Ru  Ru4  1  0.500002  0.000000  0.243455  1
  Ru  Ru5  1  0.000000  0.500002  0.243455  1
  Ru  Ru6  1  0.500002  0.000000  0.756545  1
  Ru  Ru7  1  0.000000  0.500002  0.756545  1
