# generated using pymatgen
data_Yb9Pr8Er3Sn16
_symmetry_space_group_name_H-M   'P 1'
_cell_length_a   7.97904399
_cell_length_b   8.43830754
_cell_length_c   15.95434800
_cell_angle_alpha   89.88697424
_cell_angle_beta   89.87498248
_cell_angle_gamma   90.00933399
_symmetry_Int_Tables_number   1
_chemical_formula_structural   Yb9Pr8Er3Sn16
_chemical_formula_sum   'Yb9 Pr8 Er3 Sn16'
_cell_volume   1074.19563875
_cell_formula_units_Z   1
loop_
 _symmetry_equiv_pos_site_id
 _symmetry_equiv_pos_as_xyz
  1  'x, y, z'
loop_
 _atom_site_type_symbol
 _atom_site_label
 _atom_site_symmetry_multiplicity
 _atom_site_fract_x
 _atom_site_fract_y
 _atom_site_fract_z
 _atom_site_occupancy
  Yb  Yb0  1  0.329101  0.830726  0.876764  1
  Yb  Yb1  1  0.828961  0.668878  0.622509  1
  Yb  Yb2  1  0.670251  0.170149  0.378225  1
  Yb  Yb3  1  0.170857  0.331104  0.123134  1
  Yb  Yb4  1  0.670157  0.169550  0.123052  1
  Yb  Yb5  1  0.161727  0.502486  0.748866  1
  Yb  Yb6  1  0.661593  0.997283  0.750669  1
  Yb  Yb7  1  0.838192  0.495219  0.248359  1
  Yb  Yb8  1  0.341983  0.003311  0.250331  1
  Pr  Pr9  1  0.491548  0.315781  0.904397  1
  Pr  Pr10  1  0.991608  0.183803  0.595746  1
  Pr  Pr11  1  0.508656  0.683935  0.405305  1
  Pr  Pr12  1  0.008448  0.816108  0.096368  1
  Pr  Pr13  1  0.507462  0.685288  0.096445  1
  Pr  Pr14  1  0.005854  0.815988  0.404291  1
  Pr  Pr15  1  0.493185  0.316147  0.596004  1
  Pr  Pr16  1  0.992539  0.183095  0.903400  1
  Er  Er17  1  0.167576  0.328699  0.376174  1
  Er  Er18  1  0.330836  0.829381  0.623943  1
  Er  Er19  1  0.830338  0.670160  0.874924  1
  Sn  Sn20  1  0.330582  0.037224  0.039532  1
  Sn  Sn21  1  0.835204  0.462251  0.459272  1
  Sn  Sn22  1  0.664951  0.962025  0.541556  1
  Sn  Sn23  1  0.164333  0.538543  0.958342  1
  Sn  Sn24  1  0.673665  0.959605  0.959866  1
  Sn  Sn25  1  0.178149  0.539423  0.537280  1
  Sn  Sn26  1  0.322096  0.039467  0.462496  1
  Sn  Sn27  1  0.827700  0.464972  0.036896  1
  Sn  Sn28  1  0.531437  0.613737  0.752346  1
  Sn  Sn29  1  0.031697  0.886664  0.747128  1
  Sn  Sn30  1  0.466162  0.391184  0.253665  1
  Sn  Sn31  1  0.971124  0.110694  0.250635  1
  Sn  Sn32  1  0.287262  0.137142  0.748348  1
  Sn  Sn33  1  0.786868  0.362424  0.750524  1
  Sn  Sn34  1  0.715980  0.859318  0.250826  1
  Sn  Sn35  1  0.211918  0.638235  0.252379  1
