# generated using pymatgen
data_Cs3Rb(NiSe16)2
_symmetry_space_group_name_H-M   'P 1'
_cell_length_a   12.82678200
_cell_length_b   12.82678200
_cell_length_c   7.21207900
_cell_angle_alpha   90.00000000
_cell_angle_beta   90.00000000
_cell_angle_gamma   90.00000000
_symmetry_Int_Tables_number   1
_chemical_formula_structural   Cs3Rb(NiSe16)2
_chemical_formula_sum   'Cs3 Rb1 Ni2 Se32'
_cell_volume   1186.57693624
_cell_formula_units_Z   1
loop_
 _symmetry_equiv_pos_site_id
 _symmetry_equiv_pos_as_xyz
  1  'x, y, z'
loop_
 _atom_site_type_symbol
 _atom_site_label
 _atom_site_symmetry_multiplicity
 _atom_site_fract_x
 _atom_site_fract_y
 _atom_site_fract_z
 _atom_site_occupancy
  Cs  Cs0  1  0.500000  0.000000  0.000000  1
  Cs  Cs1  1  0.000000  0.500000  0.000000  1
  Cs  Cs2  1  0.000000  0.000000  0.500000  1
  Rb  Rb3  1  0.500000  0.500000  0.500000  1
  Ni  Ni4  1  0.000000  0.000000  0.000000  1
  Ni  Ni5  1  0.500000  0.500000  0.000000  1
  Se  Se6  1  0.193158  0.422196  0.583589  1
  Se  Se7  1  0.806842  0.577804  0.583589  1
  Se  Se8  1  0.577804  0.193158  0.416411  1
  Se  Se9  1  0.422196  0.806842  0.416411  1
  Se  Se10  1  0.306905  0.922194  0.583609  1
  Se  Se11  1  0.077806  0.306905  0.416391  1
  Se  Se12  1  0.823200  0.966992  0.967655  1
  Se  Se13  1  0.033008  0.823200  0.032345  1
  Se  Se14  1  0.966992  0.176800  0.032345  1
  Se  Se15  1  0.176800  0.033008  0.967655  1
  Se  Se16  1  0.532999  0.676735  0.032448  1
  Se  Se17  1  0.467001  0.323265  0.032448  1
  Se  Se18  1  0.676735  0.467001  0.967552  1
  Se  Se19  1  0.323265  0.532999  0.967552  1
  Se  Se20  1  0.789479  0.203101  0.127691  1
  Se  Se21  1  0.796899  0.789479  0.872309  1
  Se  Se22  1  0.203101  0.210521  0.872309  1
  Se  Se23  1  0.210521  0.796899  0.127691  1
  Se  Se24  1  0.296912  0.710521  0.872302  1
  Se  Se25  1  0.703088  0.289479  0.872302  1
  Se  Se26  1  0.710521  0.703088  0.127698  1
  Se  Se27  1  0.289479  0.296912  0.127698  1
  Se  Se28  1  0.918304  0.306245  0.588748  1
  Se  Se29  1  0.693755  0.918304  0.411252  1
  Se  Se30  1  0.306245  0.081696  0.411252  1
  Se  Se31  1  0.081696  0.693755  0.588748  1
  Se  Se32  1  0.193807  0.581690  0.411263  1
  Se  Se33  1  0.806193  0.418310  0.411263  1
  Se  Se34  1  0.581690  0.806193  0.588737  1
  Se  Se35  1  0.418310  0.193807  0.588737  1
  Se  Se36  1  0.693095  0.077806  0.583609  1
  Se  Se37  1  0.922194  0.693095  0.416391  1
