# generated using pymatgen
data_Tb16Tm3ScPb16
_symmetry_space_group_name_H-M   'P 1'
_cell_length_a   8.17659400
_cell_length_b   8.26754944
_cell_length_c   15.67414900
_cell_angle_alpha   90.00000000
_cell_angle_beta   90.00000000
_cell_angle_gamma   89.74882792
_symmetry_Int_Tables_number   1
_chemical_formula_structural   Tb16Tm3ScPb16
_chemical_formula_sum   'Tb16 Tm3 Sc1 Pb16'
_cell_volume   1059.56848485
_cell_formula_units_Z   1
loop_
 _symmetry_equiv_pos_site_id
 _symmetry_equiv_pos_as_xyz
  1  'x, y, z'
loop_
 _atom_site_type_symbol
 _atom_site_label
 _atom_site_symmetry_multiplicity
 _atom_site_fract_x
 _atom_site_fract_y
 _atom_site_fract_z
 _atom_site_occupancy
  Tb  Tb0  1  0.375466  0.842824  0.879507  1
  Tb  Tb1  1  0.875372  0.657282  0.620756  1
  Tb  Tb2  1  0.624192  0.156796  0.378337  1
  Tb  Tb3  1  0.124525  0.342621  0.121475  1
  Tb  Tb4  1  0.624192  0.156796  0.121663  1
  Tb  Tb5  1  0.124525  0.342621  0.378525  1
  Tb  Tb6  1  0.375466  0.842824  0.620493  1
  Tb  Tb7  1  0.875372  0.657282  0.879244  1
  Tb  Tb8  1  0.533880  0.323515  0.901374  1
  Tb  Tb9  1  0.033687  0.176892  0.598122  1
  Tb  Tb10  1  0.465458  0.677082  0.400743  1
  Tb  Tb11  1  0.966236  0.823451  0.099099  1
  Tb  Tb12  1  0.465458  0.677082  0.099257  1
  Tb  Tb13  1  0.966236  0.823451  0.400901  1
  Tb  Tb14  1  0.533880  0.323515  0.598626  1
  Tb  Tb15  1  0.033687  0.176892  0.901878  1
  Tm  Tm16  1  0.208061  0.504895  0.750000  1
  Tm  Tm17  1  0.707938  0.995230  0.750000  1
  Tm  Tm18  1  0.792227  0.495372  0.250000  1
  Sc  Sc19  1  0.292228  0.004849  0.250000  1
  Pb  Pb20  1  0.282492  0.032582  0.046262  1
  Pb  Pb21  1  0.782276  0.466302  0.455608  1
  Pb  Pb22  1  0.716870  0.966442  0.543930  1
  Pb  Pb23  1  0.217565  0.533716  0.956256  1
  Pb  Pb24  1  0.716870  0.966442  0.956070  1
  Pb  Pb25  1  0.217565  0.533716  0.543744  1
  Pb  Pb26  1  0.282492  0.032582  0.453738  1
  Pb  Pb27  1  0.782276  0.466302  0.044392  1
  Pb  Pb28  1  0.570532  0.624834  0.750000  1
  Pb  Pb29  1  0.070834  0.875115  0.750000  1
  Pb  Pb30  1  0.427671  0.372911  0.250000  1
  Pb  Pb31  1  0.933587  0.121411  0.250000  1
  Pb  Pb32  1  0.346894  0.155838  0.750000  1
  Pb  Pb33  1  0.847227  0.344298  0.750000  1
  Pb  Pb34  1  0.650047  0.845563  0.250000  1
  Pb  Pb35  1  0.156718  0.660675  0.250000  1
