# generated using pymatgen
data_Nd3Sm3(CCl5)2
_symmetry_space_group_name_H-M   'P 1'
_cell_length_a   7.36644616
_cell_length_b   8.80097947
_cell_length_c   8.89687278
_cell_angle_alpha   108.41047553
_cell_angle_beta   96.43450291
_cell_angle_gamma   106.04600517
_symmetry_Int_Tables_number   1
_chemical_formula_structural   Nd3Sm3(CCl5)2
_chemical_formula_sum   'Nd3 Sm3 C2 Cl10'
_cell_volume   513.23311258
_cell_formula_units_Z   1
loop_
 _symmetry_equiv_pos_site_id
 _symmetry_equiv_pos_as_xyz
  1  'x, y, z'
loop_
 _atom_site_type_symbol
 _atom_site_label
 _atom_site_symmetry_multiplicity
 _atom_site_fract_x
 _atom_site_fract_y
 _atom_site_fract_z
 _atom_site_occupancy
  Nd  Nd0  1  0.879201  0.950378  0.235156  1
  Nd  Nd1  1  0.121747  0.048275  0.764732  1
  Nd  Nd2  1  0.026858  0.711816  0.910714  1
  Sm  Sm3  1  0.973220  0.284969  0.088683  1
  Sm  Sm4  1  0.606188  0.844455  0.793860  1
  Sm  Sm5  1  0.393979  0.157872  0.206670  1
  C  C6  1  0.905322  0.966867  0.952640  1
  C  C7  1  0.095239  0.035495  0.048262  1
  Cl  Cl8  1  0.755038  0.915476  0.541539  1
  Cl  Cl9  1  0.245993  0.085244  0.458557  1
  Cl  Cl10  1  0.456168  0.827154  0.079091  1
  Cl  Cl11  1  0.546748  0.175115  0.922702  1
  Cl  Cl12  1  0.811874  0.262640  0.349970  1
  Cl  Cl13  1  0.191421  0.738256  0.646360  1
  Cl  Cl14  1  0.908796  0.624171  0.168826  1
  Cl  Cl15  1  0.089109  0.372242  0.834948  1
  Cl  Cl16  1  0.651263  0.538319  0.719463  1
  Cl  Cl17  1  0.341835  0.461255  0.277826  1
