# generated using pymatgen
data_Tb3As4Pd6Pt
_symmetry_space_group_name_H-M   'P 1'
_cell_length_a   8.13504714
_cell_length_b   8.13504720
_cell_length_c   9.63526295
_cell_angle_alpha   55.52631571
_cell_angle_beta   55.52632275
_cell_angle_gamma   29.57361643
_symmetry_Int_Tables_number   1
_chemical_formula_structural   Tb3As4Pd6Pt
_chemical_formula_sum   'Tb3 As4 Pd6 Pt1'
_cell_volume   255.14408161
_cell_formula_units_Z   1
loop_
 _symmetry_equiv_pos_site_id
 _symmetry_equiv_pos_as_xyz
  1  'x, y, z'
loop_
 _atom_site_type_symbol
 _atom_site_label
 _atom_site_symmetry_multiplicity
 _atom_site_fract_x
 _atom_site_fract_y
 _atom_site_fract_z
 _atom_site_occupancy
  Tb  Tb0  1  0.676371  0.676371  0.329786  1
  Tb  Tb1  1  0.323629  0.323629  0.670214  1
  Tb  Tb2  1  0.000000  0.000000  0.000000  1
  As  As3  1  0.340847  0.340847  0.251420  1
  As  As4  1  0.659153  0.659153  0.748580  1
  As  As5  1  0.893719  0.893719  0.823702  1
  As  As6  1  0.106281  0.106281  0.176298  1
  Pd  Pd7  1  0.305211  0.305211  0.026487  1
  Pd  Pd8  1  0.694789  0.694789  0.973513  1
  Pd  Pd9  1  0.512219  0.512219  0.706934  1
  Pd  Pd10  1  0.832629  0.832629  0.426911  1
  Pd  Pd11  1  0.487781  0.487781  0.293066  1
  Pd  Pd12  1  0.167371  0.167371  0.573089  1
  Pt  Pt13  1  0.000000  0.000000  0.500000  1
