# generated using pymatgen
data_Zr5HgBiPb2
_symmetry_space_group_name_H-M   'P 1'
_cell_length_a   8.94621475
_cell_length_b   8.92568187
_cell_length_c   6.03734800
_cell_angle_alpha   90.00000000
_cell_angle_beta   90.00000000
_cell_angle_gamma   119.92411566
_symmetry_Int_Tables_number   1
_chemical_formula_structural   Zr5HgBiPb2
_chemical_formula_sum   'Zr10 Hg2 Bi2 Pb4'
_cell_volume   417.81992286
_cell_formula_units_Z   2
loop_
 _symmetry_equiv_pos_site_id
 _symmetry_equiv_pos_as_xyz
  1  'x, y, z'
loop_
 _atom_site_type_symbol
 _atom_site_label
 _atom_site_symmetry_multiplicity
 _atom_site_fract_x
 _atom_site_fract_y
 _atom_site_fract_z
 _atom_site_occupancy
  Zr  Zr0  1  0.666815  0.333680  0.001364  1
  Zr  Zr1  1  0.333185  0.666863  0.001363  1
  Zr  Zr2  1  0.333185  0.666863  0.498637  1
  Zr  Zr3  1  0.666815  0.333680  0.498636  1
  Zr  Zr4  1  0.720159  0.719494  0.750000  1
  Zr  Zr5  1  0.279840  0.999331  0.750000  1
  Zr  Zr6  1  0.000001  0.280799  0.750000  1
  Zr  Zr7  1  0.280315  0.279865  0.250000  1
  Zr  Zr8  1  0.719685  0.999547  0.250000  1
  Zr  Zr9  1  0.000002  0.719440  0.250000  1
  Hg  Hg10  1  0.000000  0.999377  0.000292  1
  Hg  Hg11  1  0.000000  0.999377  0.499708  1
  Bi  Bi12  1  0.381873  0.381941  0.750000  1
  Bi  Bi13  1  0.618125  0.000064  0.750000  1
  Pb  Pb14  1  0.000002  0.619362  0.750000  1
  Pb  Pb15  1  0.619779  0.619536  0.250000  1
  Pb  Pb16  1  0.380221  0.999755  0.250000  1
  Pb  Pb17  1  0.999999  0.381027  0.250000  1
