# generated using pymatgen
data_Tb2Ce3Pb3C
_symmetry_space_group_name_H-M   'P 1'
_cell_length_a   9.21774600
_cell_length_b   9.21774633
_cell_length_c   6.60203100
_cell_angle_alpha   90.00000000
_cell_angle_beta   90.00000000
_cell_angle_gamma   120.00000601
_symmetry_Int_Tables_number   1
_chemical_formula_structural   Tb2Ce3Pb3C
_chemical_formula_sum   'Tb4 Ce6 Pb6 C2'
_cell_volume   485.80015992
_cell_formula_units_Z   2
loop_
 _symmetry_equiv_pos_site_id
 _symmetry_equiv_pos_as_xyz
  1  'x, y, z'
loop_
 _atom_site_type_symbol
 _atom_site_label
 _atom_site_symmetry_multiplicity
 _atom_site_fract_x
 _atom_site_fract_y
 _atom_site_fract_z
 _atom_site_occupancy
  Tb  Tb0  1  0.333333  0.666667  0.000000  1
  Tb  Tb1  1  0.666667  0.333333  0.000000  1
  Tb  Tb2  1  0.666667  0.333333  0.500000  1
  Tb  Tb3  1  0.333333  0.666667  0.500000  1
  Ce  Ce4  1  0.213442  0.000000  0.250000  1
  Ce  Ce5  1  0.786558  0.000000  0.750000  1
  Ce  Ce6  1  0.000000  0.213442  0.250000  1
  Ce  Ce7  1  0.000000  0.786558  0.750000  1
  Ce  Ce8  1  0.786558  0.786558  0.250000  1
  Ce  Ce9  1  0.213442  0.213442  0.750000  1
  Pb  Pb10  1  0.592847  0.000000  0.250000  1
  Pb  Pb11  1  0.407153  0.000000  0.750000  1
  Pb  Pb12  1  0.000000  0.592847  0.250000  1
  Pb  Pb13  1  0.000000  0.407153  0.750000  1
  Pb  Pb14  1  0.407153  0.407153  0.250000  1
  Pb  Pb15  1  0.592847  0.592847  0.750000  1
  C  C16  1  0.000000  0.000000  0.000000  1
  C  C17  1  0.000000  0.000000  0.500000  1
