# generated using pymatgen
data_La6NiAuI6
_symmetry_space_group_name_H-M   'P 1'
_cell_length_a   10.91199089
_cell_length_b   10.91199112
_cell_length_c   11.09115919
_cell_angle_alpha   109.26051922
_cell_angle_beta   109.26051636
_cell_angle_gamma   109.23477263
_symmetry_Int_Tables_number   1
_chemical_formula_structural   La6NiAuI6
_chemical_formula_sum   'La12 Ni2 Au2 I12'
_cell_volume   1024.80095033
_cell_formula_units_Z   2
loop_
 _symmetry_equiv_pos_site_id
 _symmetry_equiv_pos_as_xyz
  1  'x, y, z'
loop_
 _atom_site_type_symbol
 _atom_site_label
 _atom_site_symmetry_multiplicity
 _atom_site_fract_x
 _atom_site_fract_y
 _atom_site_fract_z
 _atom_site_occupancy
  La  La0  1  0.463882  0.474316  0.238783  1
  La  La1  1  0.735533  0.225099  0.261217  1
  La  La2  1  0.738199  0.012802  0.474770  1
  La  La3  1  0.236571  0.461967  0.474770  1
  La  La4  1  0.274901  0.764467  0.238783  1
  La  La5  1  0.038033  0.263429  0.025230  1
  La  La6  1  0.025684  0.036118  0.261217  1
  La  La7  1  0.487198  0.761801  0.025230  1
  La  La8  1  0.478073  0.228073  0.456145  1
  La  La9  1  0.012722  0.487278  0.750000  1
  La  La10  1  0.271927  0.021927  0.043855  1
  La  La11  1  0.237278  0.262722  0.750000  1
  Ni  Ni12  1  0.249951  0.250049  0.250000  1
  Ni  Ni13  1  0.500049  0.999951  0.250000  1
  Au  Au14  1  0.999727  0.249727  0.499455  1
  Au  Au15  1  0.250273  0.500273  0.000545  1
  I  I16  1  0.250908  0.759619  0.741291  1
  I  I17  1  0.518329  0.509617  0.758709  1
  I  I18  1  0.978679  0.738937  0.989668  1
  I  I19  1  0.740381  0.249092  0.758709  1
  I  I20  1  0.990383  0.981671  0.741291  1
  I  I21  1  0.249269  0.989012  0.510332  1
  I  I22  1  0.761063  0.521321  0.510332  1
  I  I23  1  0.510988  0.250731  0.989668  1
  I  I24  1  0.759413  0.740587  0.250000  1
  I  I25  1  0.739443  0.989443  0.978885  1
  I  I26  1  0.990587  0.509413  0.250000  1
  I  I27  1  0.510557  0.760557  0.521115  1
