# generated using pymatgen
data_Tm5Lu2Pa(ReB6)4
_symmetry_space_group_name_H-M   'P 1'
_cell_length_a   3.65274700
_cell_length_b   9.09420763
_cell_length_c   11.45578204
_cell_angle_alpha   90.14320497
_cell_angle_beta   90.00000000
_cell_angle_gamma   90.00000000
_symmetry_Int_Tables_number   1
_chemical_formula_structural   Tm5Lu2Pa(ReB6)4
_chemical_formula_sum   'Tm5 Lu2 Pa1 Re4 B24'
_cell_volume   380.54659793
_cell_formula_units_Z   1
loop_
 _symmetry_equiv_pos_site_id
 _symmetry_equiv_pos_as_xyz
  1  'x, y, z'
loop_
 _atom_site_type_symbol
 _atom_site_label
 _atom_site_symmetry_multiplicity
 _atom_site_fract_x
 _atom_site_fract_y
 _atom_site_fract_z
 _atom_site_occupancy
  Tm  Tm0  1  0.000000  0.679980  0.587121  1
  Tm  Tm1  1  0.000000  0.822765  0.085214  1
  Tm  Tm2  1  0.000000  0.176097  0.913492  1
  Tm  Tm3  1  0.000000  0.942727  0.371610  1
  Tm  Tm4  1  0.000000  0.054930  0.629540  1
  Lu  Lu5  1  0.000000  0.443877  0.127219  1
  Lu  Lu6  1  0.000000  0.557140  0.870735  1
  Pa  Pa7  1  0.000000  0.323077  0.414032  1
  Re  Re8  1  0.000000  0.636139  0.321081  1
  Re  Re9  1  0.000000  0.362264  0.677525  1
  Re  Re10  1  0.000000  0.141119  0.180731  1
  Re  Re11  1  0.000000  0.860809  0.821218  1
  B  B12  1  0.500000  0.553366  0.432362  1
  B  B13  1  0.500000  0.446154  0.567421  1
  B  B14  1  0.500000  0.053671  0.066710  1
  B  B15  1  0.500000  0.946819  0.934040  1
  B  B16  1  0.500000  0.749857  0.418984  1
  B  B17  1  0.500000  0.249816  0.581634  1
  B  B18  1  0.500000  0.249980  0.079641  1
  B  B19  1  0.500000  0.749760  0.919568  1
  B  B20  1  0.500000  0.792464  0.265179  1
  B  B21  1  0.500000  0.207424  0.735746  1
  B  B22  1  0.500000  0.292456  0.233954  1
  B  B23  1  0.500000  0.707155  0.765595  1
  B  B24  1  0.500000  0.631067  0.183672  1
  B  B25  1  0.500000  0.370154  0.815330  1
  B  B26  1  0.500000  0.131157  0.314883  1
  B  B27  1  0.500000  0.868753  0.685544  1
  B  B28  1  0.500000  0.981680  0.211914  1
  B  B29  1  0.500000  0.018166  0.788389  1
  B  B30  1  0.500000  0.482682  0.286596  1
  B  B31  1  0.500000  0.518877  0.713449  1
  B  B32  1  0.500000  0.600651  0.027386  1
  B  B33  1  0.500000  0.399546  0.971326  1
  B  B34  1  0.500000  0.101981  0.471932  1
  B  B35  1  0.500000  0.895441  0.529220  1
