# generated using pymatgen
data_Ce2Nd6Cd2TcNi
_symmetry_space_group_name_H-M   'P 1'
_cell_length_a   9.81542372
_cell_length_b   9.81542322
_cell_length_c   9.96850800
_cell_angle_alpha   59.48271496
_cell_angle_beta   59.48271665
_cell_angle_gamma   59.64677262
_symmetry_Int_Tables_number   1
_chemical_formula_structural   Ce2Nd6Cd2TcNi
_chemical_formula_sum   'Ce4 Nd12 Cd4 Tc2 Ni2'
_cell_volume   671.95251566
_cell_formula_units_Z   2
loop_
 _symmetry_equiv_pos_site_id
 _symmetry_equiv_pos_as_xyz
  1  'x, y, z'
loop_
 _atom_site_type_symbol
 _atom_site_label
 _atom_site_symmetry_multiplicity
 _atom_site_fract_x
 _atom_site_fract_y
 _atom_site_fract_z
 _atom_site_occupancy
  Ce  Ce0  1  0.592150  0.592150  0.599121  1
  Ce  Ce1  1  0.592150  0.592150  0.216579  1
  Ce  Ce2  1  0.594293  0.222063  0.591822  1
  Ce  Ce3  1  0.222063  0.594293  0.591822  1
  Nd  Nd4  1  0.056271  0.438603  0.443361  1
  Nd  Nd5  1  0.438603  0.056271  0.061765  1
  Nd  Nd6  1  0.438603  0.056271  0.443361  1
  Nd  Nd7  1  0.056271  0.438603  0.061765  1
  Nd  Nd8  1  0.439896  0.439896  0.060104  1
  Nd  Nd9  1  0.053587  0.053587  0.446413  1
  Nd  Nd10  1  0.188109  0.806697  0.815055  1
  Nd  Nd11  1  0.806697  0.188109  0.190138  1
  Nd  Nd12  1  0.806697  0.188109  0.815055  1
  Nd  Nd13  1  0.188109  0.806697  0.190138  1
  Nd  Nd14  1  0.810097  0.810097  0.189903  1
  Nd  Nd15  1  0.189389  0.189389  0.810611  1
  Cd  Cd16  1  0.827602  0.827602  0.832191  1
  Cd  Cd17  1  0.827602  0.827602  0.512606  1
  Cd  Cd18  1  0.829265  0.510076  0.830330  1
  Cd  Cd19  1  0.510076  0.829265  0.830330  1
  Tc  Tc20  1  0.407337  0.407337  0.386616  1
  Tc  Tc21  1  0.407337  0.407337  0.798708  1
  Ni  Ni22  1  0.398930  0.818863  0.391103  1
  Ni  Ni23  1  0.818863  0.398930  0.391103  1
