# generated using pymatgen
data_Eu2Al20PdRu3
_symmetry_space_group_name_H-M   'P 1'
_cell_length_a   6.92841720
_cell_length_b   6.91775181
_cell_length_c   9.23901717
_cell_angle_alpha   90.12000333
_cell_angle_beta   90.19013576
_cell_angle_gamma   96.90593574
_symmetry_Int_Tables_number   1
_chemical_formula_structural   Eu2Al20PdRu3
_chemical_formula_sum   'Eu2 Al20 Pd1 Ru3'
_cell_volume   439.60100988
_cell_formula_units_Z   1
loop_
 _symmetry_equiv_pos_site_id
 _symmetry_equiv_pos_as_xyz
  1  'x, y, z'
loop_
 _atom_site_type_symbol
 _atom_site_label
 _atom_site_symmetry_multiplicity
 _atom_site_fract_x
 _atom_site_fract_y
 _atom_site_fract_z
 _atom_site_occupancy
  Eu  Eu0  1  0.878010  0.122815  0.750280  1
  Eu  Eu1  1  0.121990  0.877185  0.249720  1
  Al  Al2  1  0.590469  0.858471  0.252983  1
  Al  Al3  1  0.779831  0.519659  0.250201  1
  Al  Al4  1  0.156801  0.837406  0.897011  1
  Al  Al5  1  0.409531  0.141529  0.747017  1
  Al  Al6  1  0.624653  0.383462  0.947982  1
  Al  Al7  1  0.840331  0.158974  0.400863  1
  Al  Al8  1  0.777484  0.771856  0.002324  1
  Al  Al9  1  0.861548  0.590188  0.748607  1
  Al  Al10  1  0.843199  0.162594  0.102989  1
  Al  Al11  1  0.220169  0.480341  0.749799  1
  Al  Al12  1  0.159669  0.841026  0.599137  1
  Al  Al13  1  0.777344  0.775756  0.499664  1
  Al  Al14  1  0.479803  0.225495  0.256997  1
  Al  Al15  1  0.623662  0.378317  0.548432  1
  Al  Al16  1  0.222656  0.224244  0.500336  1
  Al  Al17  1  0.376338  0.621683  0.451568  1
  Al  Al18  1  0.138452  0.409812  0.251393  1
  Al  Al19  1  0.520197  0.774505  0.743003  1
  Al  Al20  1  0.375347  0.616538  0.052018  1
  Al  Al21  1  0.222516  0.228144  0.997676  1
  Pd  Pd22  1  0.500000  0.000000  0.000000  1
  Ru  Ru23  1  0.500000  0.000000  0.500000  1
  Ru  Ru24  1  0.000000  0.500000  0.000000  1
  Ru  Ru25  1  0.000000  0.500000  0.500000  1
