# generated using pymatgen
data_DyTm9Si16Sn
_symmetry_space_group_name_H-M   'P 1'
_cell_length_a   11.02185639
_cell_length_b   10.96907772
_cell_length_c   11.02475842
_cell_angle_alpha   144.76044817
_cell_angle_beta   136.19983744
_cell_angle_gamma   57.51473001
_symmetry_Int_Tables_number   1
_chemical_formula_structural   DyTm9Si16Sn
_chemical_formula_sum   'Dy1 Tm9 Si16 Sn1'
_cell_volume   527.70559775
_cell_formula_units_Z   1
loop_
 _symmetry_equiv_pos_site_id
 _symmetry_equiv_pos_as_xyz
  1  'x, y, z'
loop_
 _atom_site_type_symbol
 _atom_site_label
 _atom_site_symmetry_multiplicity
 _atom_site_fract_x
 _atom_site_fract_y
 _atom_site_fract_z
 _atom_site_occupancy
  Dy  Dy0  1  0.648363  0.164043  0.013962  1
  Tm  Tm1  1  0.756965  0.759392  0.517613  1
  Tm  Tm2  1  0.440500  0.972140  0.015746  1
  Tm  Tm3  1  0.848467  0.369139  0.019407  1
  Tm  Tm4  1  0.956338  0.971711  0.531645  1
  Tm  Tm5  1  0.150016  0.163970  0.515693  1
  Tm  Tm6  1  0.349872  0.369221  0.520376  1
  Tm  Tm7  1  0.241879  0.759356  0.002210  1
  Tm  Tm8  1  0.545583  0.557984  0.496550  1
  Tm  Tm9  1  0.061061  0.557390  0.012052  1
  Si  Si10  1  0.199169  0.574483  0.374877  1
  Si  Si11  1  0.001311  0.082141  0.082249  1
  Si  Si12  1  0.696769  0.278995  0.582620  1
  Si  Si13  1  0.800465  0.176304  0.378726  1
  Si  Si14  1  0.896120  0.501300  0.606757  1
  Si  Si15  1  0.418318  0.874170  0.453331  1
  Si  Si16  1  0.104605  0.714113  0.609880  1
  Si  Si17  1  0.300382  0.893547  0.591239  1
  Si  Si18  1  0.575475  0.039896  0.464253  1
  Si  Si19  1  0.000358  0.431206  0.432096  1
  Si  Si20  1  0.883296  0.838699  0.958286  1
  Si  Si21  1  0.400279  0.499965  0.097408  1
  Si  Si22  1  0.120127  0.089408  0.969697  1
  Si  Si23  1  0.286383  0.239099  0.952088  1
  Si  Si24  1  0.498361  0.381759  0.880583  1
  Si  Si25  1  0.595574  0.706041  0.110145  1
  Sn  Sn26  1  0.723966  0.696027  0.972009  1
