# generated using pymatgen
data_K3AgPb4
_symmetry_space_group_name_H-M   'P 1'
_cell_length_a   6.95998800
_cell_length_b   13.07553200
_cell_length_c   7.00440600
_cell_angle_alpha   90.00000000
_cell_angle_beta   90.00000000
_cell_angle_gamma   90.00000000
_symmetry_Int_Tables_number   1
_chemical_formula_structural   K3AgPb4
_chemical_formula_sum   'K6 Ag2 Pb8'
_cell_volume   637.43979113
_cell_formula_units_Z   2
loop_
 _symmetry_equiv_pos_site_id
 _symmetry_equiv_pos_as_xyz
  1  'x, y, z'
loop_
 _atom_site_type_symbol
 _atom_site_label
 _atom_site_symmetry_multiplicity
 _atom_site_fract_x
 _atom_site_fract_y
 _atom_site_fract_z
 _atom_site_occupancy
  K  K0  1  0.250000  0.000441  0.170457  1
  K  K1  1  0.250000  0.499560  0.170457  1
  K  K2  1  0.749999  0.750000  0.437514  1
  K  K3  1  0.250000  0.250000  0.562486  1
  K  K4  1  0.749999  0.500440  0.829543  1
  K  K5  1  0.749999  0.999560  0.829543  1
  Ag  Ag6  1  0.250000  0.750000  0.304087  1
  Ag  Ag7  1  0.749999  0.250000  0.695911  1
  Pb  Pb8  1  0.505260  0.250000  0.048090  1
  Pb  Pb9  1  0.994740  0.250000  0.048090  1
  Pb  Pb10  1  0.749999  0.124062  0.338518  1
  Pb  Pb11  1  0.749999  0.375939  0.338518  1
  Pb  Pb12  1  0.250000  0.624061  0.661481  1
  Pb  Pb13  1  0.250000  0.875938  0.661481  1
  Pb  Pb14  1  0.005259  0.750000  0.951909  1
  Pb  Pb15  1  0.494739  0.750000  0.951909  1
