# generated using pymatgen
data_Nb12GaCo12W
_symmetry_space_group_name_H-M   'P 1'
_cell_length_a   4.94347963
_cell_length_b   4.94400470
_cell_length_c   17.64231346
_cell_angle_alpha   97.98277286
_cell_angle_beta   97.96915736
_cell_angle_gamma   60.00505043
_symmetry_Int_Tables_number   1
_chemical_formula_structural   Nb12GaCo12W
_chemical_formula_sum   'Nb12 Ga1 Co12 W1'
_cell_volume   368.61437566
_cell_formula_units_Z   1
loop_
 _symmetry_equiv_pos_site_id
 _symmetry_equiv_pos_as_xyz
  1  'x, y, z'
loop_
 _atom_site_type_symbol
 _atom_site_label
 _atom_site_symmetry_multiplicity
 _atom_site_fract_x
 _atom_site_fract_y
 _atom_site_fract_z
 _atom_site_occupancy
  Nb  Nb0  1  0.415921  0.415754  0.250610  1
  Nb  Nb1  1  0.916606  0.916417  0.747028  1
  Nb  Nb2  1  0.083394  0.083583  0.252972  1
  Nb  Nb3  1  0.584079  0.584246  0.749390  1
  Nb  Nb4  1  0.774699  0.774666  0.327535  1
  Nb  Nb5  1  0.272959  0.272952  0.823595  1
  Nb  Nb6  1  0.727041  0.727048  0.176405  1
  Nb  Nb7  1  0.225301  0.225334  0.672465  1
  Nb  Nb8  1  0.827565  0.827499  0.481311  1
  Nb  Nb9  1  0.326676  0.326620  0.979910  1
  Nb  Nb10  1  0.673324  0.673380  0.020090  1
  Nb  Nb11  1  0.172435  0.172501  0.518689  1
  Ga  Ga12  1  0.500000  0.500000  0.500000  1
  Co  Co13  1  0.699486  0.209357  0.116711  1
  Co  Co14  1  0.204099  0.706740  0.615803  1
  Co  Co15  1  0.208780  0.208773  0.116895  1
  Co  Co16  1  0.706056  0.706053  0.615142  1
  Co  Co17  1  0.209361  0.699484  0.116717  1
  Co  Co18  1  0.706751  0.204094  0.615818  1
  Co  Co19  1  0.795901  0.293260  0.384197  1
  Co  Co20  1  0.300514  0.790643  0.883289  1
  Co  Co21  1  0.293944  0.293947  0.384858  1
  Co  Co22  1  0.791220  0.791227  0.883105  1
  Co  Co23  1  0.293249  0.795906  0.384182  1
  Co  Co24  1  0.790639  0.300516  0.883283  1
  W  W25  1  0.000000  0.000000  0.000000  1
