# generated using pymatgen
data_Zr10In2SnBi3Pb2
_symmetry_space_group_name_H-M   'P 1'
_cell_length_a   8.96554125
_cell_length_b   8.96554173
_cell_length_c   6.00114700
_cell_angle_alpha   90.00000000
_cell_angle_beta   90.00000000
_cell_angle_gamma   119.97320626
_symmetry_Int_Tables_number   1
_chemical_formula_structural   Zr10In2SnBi3Pb2
_chemical_formula_sum   'Zr10 In2 Sn1 Bi3 Pb2'
_cell_volume   417.86417418
_cell_formula_units_Z   1
loop_
 _symmetry_equiv_pos_site_id
 _symmetry_equiv_pos_as_xyz
  1  'x, y, z'
loop_
 _atom_site_type_symbol
 _atom_site_label
 _atom_site_symmetry_multiplicity
 _atom_site_fract_x
 _atom_site_fract_y
 _atom_site_fract_z
 _atom_site_occupancy
  Zr  Zr0  1  0.666280  0.336133  0.003622  1
  Zr  Zr1  1  0.336133  0.666280  0.003622  1
  Zr  Zr2  1  0.336133  0.666280  0.496378  1
  Zr  Zr3  1  0.666280  0.336133  0.496378  1
  Zr  Zr4  1  0.719105  0.719105  0.750000  1
  Zr  Zr5  1  0.279354  0.000622  0.750000  1
  Zr  Zr6  1  0.000622  0.279354  0.750000  1
  Zr  Zr7  1  0.285549  0.285549  0.250000  1
  Zr  Zr8  1  0.716567  0.995273  0.250000  1
  Zr  Zr9  1  0.995273  0.716567  0.250000  1
  In  In10  1  0.000196  0.000196  0.001779  1
  In  In11  1  0.000196  0.000196  0.498221  1
  Sn  Sn12  1  0.617921  0.617921  0.250000  1
  Bi  Bi13  1  0.384182  0.384182  0.750000  1
  Bi  Bi14  1  0.615234  0.000840  0.750000  1
  Bi  Bi15  1  0.000840  0.615234  0.750000  1
  Pb  Pb16  1  0.380439  0.999696  0.250000  1
  Pb  Pb17  1  0.999696  0.380439  0.250000  1
