# generated using pymatgen
data_Tb3Nd17(Sn5Pb3)2
_symmetry_space_group_name_H-M   'P 1'
_cell_length_a   8.30989653
_cell_length_b   8.46542805
_cell_length_c   16.06089404
_cell_angle_alpha   89.99794661
_cell_angle_beta   90.00737141
_cell_angle_gamma   90.02644135
_symmetry_Int_Tables_number   1
_chemical_formula_structural   Tb3Nd17(Sn5Pb3)2
_chemical_formula_sum   'Tb3 Nd17 Sn10 Pb6'
_cell_volume   1129.83287137
_cell_formula_units_Z   1
loop_
 _symmetry_equiv_pos_site_id
 _symmetry_equiv_pos_as_xyz
  1  'x, y, z'
loop_
 _atom_site_type_symbol
 _atom_site_label
 _atom_site_symmetry_multiplicity
 _atom_site_fract_x
 _atom_site_fract_y
 _atom_site_fract_z
 _atom_site_occupancy
  Tb  Tb0  1  0.198044  0.502017  0.249803  1
  Tb  Tb1  1  0.698861  0.998353  0.248532  1
  Tb  Tb2  1  0.301676  0.002432  0.748501  1
  Nd  Nd3  1  0.021100  0.179302  0.399572  1
  Nd  Nd4  1  0.369099  0.838153  0.121996  1
  Nd  Nd5  1  0.134015  0.335030  0.622118  1
  Nd  Nd6  1  0.480707  0.681981  0.899365  1
  Nd  Nd7  1  0.866289  0.664389  0.122975  1
  Nd  Nd8  1  0.133405  0.337180  0.877432  1
  Nd  Nd9  1  0.478896  0.682755  0.600755  1
  Nd  Nd10  1  0.630488  0.162054  0.621665  1
  Nd  Nd11  1  0.803449  0.498109  0.749874  1
  Nd  Nd12  1  0.866759  0.662384  0.376489  1
  Nd  Nd13  1  0.017403  0.178665  0.100727  1
  Nd  Nd14  1  0.978971  0.821290  0.899827  1
  Nd  Nd15  1  0.632673  0.160682  0.879094  1
  Nd  Nd16  1  0.520847  0.317619  0.101519  1
  Nd  Nd17  1  0.366827  0.839373  0.378672  1
  Nd  Nd18  1  0.982840  0.821962  0.600534  1
  Nd  Nd19  1  0.519030  0.318360  0.398521  1
  Sn  Sn20  1  0.674766  0.857069  0.749829  1
  Sn  Sn21  1  0.825097  0.352937  0.250123  1
  Sn  Sn22  1  0.563320  0.617521  0.250360  1
  Sn  Sn23  1  0.433562  0.381954  0.750251  1
  Sn  Sn24  1  0.177502  0.647619  0.750079  1
  Sn  Sn25  1  0.935680  0.115301  0.750157  1
  Sn  Sn26  1  0.291532  0.034699  0.543501  1
  Sn  Sn27  1  0.708654  0.965007  0.043746  1
  Sn  Sn28  1  0.323788  0.146151  0.249851  1
  Sn  Sn29  1  0.065211  0.882694  0.250161  1
  Pb  Pb30  1  0.790832  0.463868  0.541099  1
  Pb  Pb31  1  0.709332  0.964426  0.456807  1
  Pb  Pb32  1  0.208551  0.535011  0.456985  1
  Pb  Pb33  1  0.290699  0.035208  0.957053  1
  Pb  Pb34  1  0.791156  0.463699  0.958947  1
  Pb  Pb35  1  0.208936  0.534748  0.043082  1
