# generated using pymatgen
data_Tm20Si12P
_symmetry_space_group_name_H-M   'P 1'
_cell_length_a   6.23243330
_cell_length_b   8.36878835
_cell_length_c   14.55678000
_cell_angle_alpha   90.00000685
_cell_angle_beta   90.00000000
_cell_angle_gamma   89.95310508
_symmetry_Int_Tables_number   1
_chemical_formula_structural   Tm20Si12P
_chemical_formula_sum   'Tm20 Si12 P1'
_cell_volume   759.25104303
_cell_formula_units_Z   1
loop_
 _symmetry_equiv_pos_site_id
 _symmetry_equiv_pos_as_xyz
  1  'x, y, z'
loop_
 _atom_site_type_symbol
 _atom_site_label
 _atom_site_symmetry_multiplicity
 _atom_site_fract_x
 _atom_site_fract_y
 _atom_site_fract_z
 _atom_site_occupancy
  Tm  Tm0  1  0.500001  0.999999  0.335484  1
  Tm  Tm1  1  0.500001  0.500003  0.829550  1
  Tm  Tm2  1  0.500001  0.500003  0.170450  1
  Tm  Tm3  1  0.500001  0.999999  0.664516  1
  Tm  Tm4  1  0.000000  0.500000  0.166037  1
  Tm  Tm5  1  0.000000  0.000001  0.666150  1
  Tm  Tm6  1  0.000000  0.000001  0.333850  1
  Tm  Tm7  1  0.000000  0.500000  0.833963  1
  Tm  Tm8  1  0.748811  0.253828  0.000000  1
  Tm  Tm9  1  0.748775  0.743376  0.500000  1
  Tm  Tm10  1  0.751716  0.378642  0.380015  1
  Tm  Tm11  1  0.749625  0.872707  0.872323  1
  Tm  Tm12  1  0.749625  0.872707  0.127677  1
  Tm  Tm13  1  0.751716  0.378642  0.619985  1
  Tm  Tm14  1  0.251185  0.746167  0.000000  1
  Tm  Tm15  1  0.251223  0.256625  0.500000  1
  Tm  Tm16  1  0.250372  0.127293  0.127678  1
  Tm  Tm17  1  0.248284  0.621358  0.619985  1
  Tm  Tm18  1  0.248284  0.621358  0.380015  1
  Tm  Tm19  1  0.250372  0.127293  0.872322  1
  Si  Si20  1  0.744812  0.606724  0.000000  1
  Si  Si21  1  0.751671  0.106261  0.500000  1
  Si  Si22  1  0.749300  0.197313  0.198985  1
  Si  Si23  1  0.753144  0.694661  0.694778  1
  Si  Si24  1  0.753144  0.694661  0.305222  1
  Si  Si25  1  0.749300  0.197313  0.801015  1
  Si  Si26  1  0.255187  0.393274  0.000000  1
  Si  Si27  1  0.248330  0.893741  0.500000  1
  Si  Si28  1  0.246860  0.305341  0.305222  1
  Si  Si29  1  0.250700  0.802687  0.801015  1
  Si  Si30  1  0.250700  0.802687  0.198985  1
  Si  Si31  1  0.246860  0.305341  0.694778  1
  P  P32  1  0.499999  0.999999  0.000000  1
