# generated using pymatgen
data_Th2MnGa6
_symmetry_space_group_name_H-M   'P 1'
_cell_length_a   6.32160343
_cell_length_b   6.32160399
_cell_length_c   6.32160400
_cell_angle_alpha   59.99999995
_cell_angle_beta   59.99999702
_cell_angle_gamma   59.99999792
_symmetry_Int_Tables_number   1
_chemical_formula_structural   Th2MnGa6
_chemical_formula_sum   'Th2 Mn1 Ga6'
_cell_volume   178.63510398
_cell_formula_units_Z   1
loop_
 _symmetry_equiv_pos_site_id
 _symmetry_equiv_pos_as_xyz
  1  'x, y, z'
loop_
 _atom_site_type_symbol
 _atom_site_label
 _atom_site_symmetry_multiplicity
 _atom_site_fract_x
 _atom_site_fract_y
 _atom_site_fract_z
 _atom_site_occupancy
  Th  Th0  1  0.250001  0.250001  0.250001  1
  Th  Th1  1  0.750000  0.750000  0.750000  1
  Mn  Mn2  1  0.500000  0.500000  0.500000  1
  Ga  Ga3  1  0.782240  0.217760  0.217760  1
  Ga  Ga4  1  0.217760  0.782240  0.217760  1
  Ga  Ga5  1  0.782240  0.782240  0.217760  1
  Ga  Ga6  1  0.217760  0.217760  0.782240  1
  Ga  Ga7  1  0.782240  0.217760  0.782240  1
  Ga  Ga8  1  0.217760  0.782240  0.782240  1
