# generated using pymatgen
data_La2TbNd3Ta2O14
_symmetry_space_group_name_H-M   'P 1'
_cell_length_a   6.68029431
_cell_length_b   6.66585977
_cell_length_c   7.73963200
_cell_angle_alpha   90.00000000
_cell_angle_beta   90.00000000
_cell_angle_gamma   108.81282315
_symmetry_Int_Tables_number   1
_chemical_formula_structural   La2TbNd3Ta2O14
_chemical_formula_sum   'La2 Tb1 Nd3 Ta2 O14'
_cell_volume   326.23314299
_cell_formula_units_Z   1
loop_
 _symmetry_equiv_pos_site_id
 _symmetry_equiv_pos_as_xyz
  1  'x, y, z'
loop_
 _atom_site_type_symbol
 _atom_site_label
 _atom_site_symmetry_multiplicity
 _atom_site_fract_x
 _atom_site_fract_y
 _atom_site_fract_z
 _atom_site_occupancy
  La  La0  1  0.522772  0.518667  0.498978  1
  La  La1  1  0.522772  0.518667  0.001022  1
  Tb  Tb2  1  0.003338  0.531420  0.250000  1
  Nd  Nd3  1  0.005284  0.462857  0.750000  1
  Nd  Nd4  1  0.533081  0.002932  0.750000  1
  Nd  Nd5  1  0.462676  0.003275  0.250000  1
  Ta  Ta6  1  0.999826  0.000145  0.498211  1
  Ta  Ta7  1  0.999826  0.000145  0.001789  1
  O  O8  1  0.944784  0.056547  0.750000  1
  O  O9  1  0.057668  0.937353  0.250000  1
  O  O10  1  0.355485  0.637020  0.250000  1
  O  O11  1  0.642367  0.367447  0.750000  1
  O  O12  1  0.371380  0.632546  0.750000  1
  O  O13  1  0.643091  0.375334  0.250000  1
  O  O14  1  0.309107  0.068114  0.969606  1
  O  O15  1  0.681392  0.923810  0.472120  1
  O  O16  1  0.309107  0.068114  0.530394  1
  O  O17  1  0.681392  0.923810  0.027880  1
  O  O18  1  0.043415  0.303139  0.460572  1
  O  O19  1  0.933909  0.682758  0.975042  1
  O  O20  1  0.933909  0.682758  0.524958  1
  O  O21  1  0.043415  0.303139  0.039428  1
