# generated using pymatgen
data_Dy12OsPd3
_symmetry_space_group_name_H-M   'P 1'
_cell_length_a   6.43292319
_cell_length_b   7.12035304
_cell_length_c   9.50290400
_cell_angle_alpha   90.00000000
_cell_angle_beta   90.00000000
_cell_angle_gamma   89.97975729
_symmetry_Int_Tables_number   1
_chemical_formula_structural   Dy12OsPd3
_chemical_formula_sum   'Dy12 Os1 Pd3'
_cell_volume   435.27748954
_cell_formula_units_Z   1
loop_
 _symmetry_equiv_pos_site_id
 _symmetry_equiv_pos_as_xyz
  1  'x, y, z'
loop_
 _atom_site_type_symbol
 _atom_site_label
 _atom_site_symmetry_multiplicity
 _atom_site_fract_x
 _atom_site_fract_y
 _atom_site_fract_z
 _atom_site_occupancy
  Dy  Dy0  1  0.330679  0.683372  0.053704  1
  Dy  Dy1  1  0.171648  0.180962  0.439746  1
  Dy  Dy2  1  0.672397  0.322044  0.562871  1
  Dy  Dy3  1  0.819625  0.814881  0.937095  1
  Dy  Dy4  1  0.672397  0.322044  0.937129  1
  Dy  Dy5  1  0.819625  0.814881  0.562905  1
  Dy  Dy6  1  0.330679  0.683372  0.446296  1
  Dy  Dy7  1  0.171648  0.180962  0.060254  1
  Dy  Dy8  1  0.871934  0.524532  0.250000  1
  Dy  Dy9  1  0.633145  0.027618  0.250000  1
  Dy  Dy10  1  0.132019  0.476163  0.750000  1
  Dy  Dy11  1  0.375209  0.964496  0.750000  1
  Os  Os12  1  0.548975  0.612460  0.750000  1
  Pd  Pd13  1  0.059163  0.887317  0.250000  1
  Pd  Pd14  1  0.439879  0.392873  0.250000  1
  Pd  Pd15  1  0.950979  0.112022  0.750000  1
