# generated using pymatgen
data_Yb4HoLu5Ru4
_symmetry_space_group_name_H-M   'P 1'
_cell_length_a   6.34493555
_cell_length_b   7.19320887
_cell_length_c   8.41146293
_cell_angle_alpha   97.59159008
_cell_angle_beta   112.08249384
_cell_angle_gamma   89.93567719
_symmetry_Int_Tables_number   1
_chemical_formula_structural   Yb4HoLu5Ru4
_chemical_formula_sum   'Yb4 Ho1 Lu5 Ru4'
_cell_volume   352.13028144
_cell_formula_units_Z   1
loop_
 _symmetry_equiv_pos_site_id
 _symmetry_equiv_pos_as_xyz
  1  'x, y, z'
loop_
 _atom_site_type_symbol
 _atom_site_label
 _atom_site_symmetry_multiplicity
 _atom_site_fract_x
 _atom_site_fract_y
 _atom_site_fract_z
 _atom_site_occupancy
  Yb  Yb0  1  0.523066  0.078912  0.815901  1
  Yb  Yb1  1  0.477207  0.920549  0.184102  1
  Yb  Yb2  1  0.706920  0.420986  0.184128  1
  Yb  Yb3  1  0.292706  0.579393  0.815923  1
  Ho  Ho4  1  0.304254  0.315035  0.433506  1
  Lu  Lu5  1  0.696859  0.684843  0.567225  1
  Lu  Lu6  1  0.870673  0.183990  0.567394  1
  Lu  Lu7  1  0.128629  0.815759  0.432946  1
  Lu  Lu8  1  0.069410  0.249659  0.999138  1
  Lu  Lu9  1  0.930110  0.750116  0.000060  1
  Ru  Ru10  1  0.314124  0.576829  0.230968  1
  Ru  Ru11  1  0.687874  0.424962  0.769768  1
  Ru  Ru12  1  0.082321  0.924223  0.768322  1
  Ru  Ru13  1  0.915848  0.074743  0.230619  1
