# generated using pymatgen
data_TbHo5(Si3Ru)8
_symmetry_space_group_name_H-M   'P 1'
_cell_length_a   10.11451006
_cell_length_b   10.11451807
_cell_length_c   8.13259225
_cell_angle_alpha   90.07712549
_cell_angle_beta   89.92143816
_cell_angle_gamma   132.59775198
_symmetry_Int_Tables_number   1
_chemical_formula_structural   TbHo5(Si3Ru)8
_chemical_formula_sum   'Tb1 Ho5 Si24 Ru8'
_cell_volume   612.44815728
_cell_formula_units_Z   1
loop_
 _symmetry_equiv_pos_site_id
 _symmetry_equiv_pos_as_xyz
  1  'x, y, z'
loop_
 _atom_site_type_symbol
 _atom_site_label
 _atom_site_symmetry_multiplicity
 _atom_site_fract_x
 _atom_site_fract_y
 _atom_site_fract_z
 _atom_site_occupancy
  Tb  Tb0  1  0.502413  0.002424  0.750025  1
  Ho  Ho1  1  0.500005  0.500021  0.499972  1
  Ho  Ho2  1  0.000021  0.000003  0.000028  1
  Ho  Ho3  1  0.997899  0.497910  0.249983  1
  Ho  Ho4  1  0.497515  0.997507  0.249979  1
  Ho  Ho5  1  0.002517  0.502508  0.750014  1
  Si  Si6  1  0.794170  0.205054  0.499692  1
  Si  Si7  1  0.295048  0.705848  0.000522  1
  Si  Si8  1  0.205838  0.795068  0.499481  1
  Si  Si9  1  0.705073  0.294161  0.000305  1
  Si  Si10  1  0.332622  0.332339  0.833230  1
  Si  Si11  1  0.667419  0.667684  0.166641  1
  Si  Si12  1  0.167709  0.167436  0.333367  1
  Si  Si13  1  0.832313  0.832599  0.666769  1
  Si  Si14  1  0.122530  0.887787  0.728154  1
  Si  Si15  1  0.113728  0.879402  0.271694  1
  Si  Si16  1  0.611239  0.376783  0.227902  1
  Si  Si17  1  0.621623  0.386993  0.771210  1
  Si  Si18  1  0.876721  0.111166  0.272078  1
  Si  Si19  1  0.887071  0.121681  0.728810  1
  Si  Si20  1  0.387708  0.622466  0.771863  1
  Si  Si21  1  0.379459  0.613801  0.228287  1
  Si  Si22  1  0.346292  0.112160  0.504135  1
  Si  Si23  1  0.889068  0.656290  0.496004  1
  Si  Si24  1  0.387820  0.153351  0.005383  1
  Si  Si25  1  0.843808  0.610945  0.995369  1
  Si  Si26  1  0.653328  0.887779  0.494570  1
  Si  Si27  1  0.110985  0.343830  0.504682  1
  Si  Si28  1  0.612117  0.846268  0.995910  1
  Si  Si29  1  0.156309  0.389102  0.003945  1
  Ru  Ru30  1  0.671728  0.333527  0.498872  1
  Ru  Ru31  1  0.166375  0.828249  0.000221  1
  Ru  Ru32  1  0.328228  0.666384  0.499777  1
  Ru  Ru33  1  0.833551  0.171713  0.001132  1
  Ru  Ru34  1  0.126335  0.125989  0.627459  1
  Ru  Ru35  1  0.873696  0.873721  0.372703  1
  Ru  Ru36  1  0.373735  0.373717  0.127257  1
  Ru  Ru37  1  0.625986  0.626334  0.872576  1
