# generated using pymatgen
data_La2B10Ru
_symmetry_space_group_name_H-M   'P 1'
_cell_length_a   4.23716000
_cell_length_b   5.79154700
_cell_length_c   11.54836800
_cell_angle_alpha   90.00000000
_cell_angle_beta   90.00000000
_cell_angle_gamma   90.00000000
_symmetry_Int_Tables_number   1
_chemical_formula_structural   La2B10Ru
_chemical_formula_sum   'La4 B20 Ru2'
_cell_volume   283.39361655
_cell_formula_units_Z   2
loop_
 _symmetry_equiv_pos_site_id
 _symmetry_equiv_pos_as_xyz
  1  'x, y, z'
loop_
 _atom_site_type_symbol
 _atom_site_label
 _atom_site_symmetry_multiplicity
 _atom_site_fract_x
 _atom_site_fract_y
 _atom_site_fract_z
 _atom_site_occupancy
  La  La0  1  0.500000  0.215899  0.367747  1
  La  La1  1  0.500000  0.784101  0.632253  1
  La  La2  1  0.500000  0.284101  0.867747  1
  La  La3  1  0.500000  0.715899  0.132253  1
  B  B4  1  0.000000  0.379846  0.042886  1
  B  B5  1  0.000000  0.620154  0.957114  1
  B  B6  1  0.000000  0.120154  0.542886  1
  B  B7  1  0.000000  0.879846  0.457114  1
  B  B8  1  0.000000  0.363231  0.197261  1
  B  B9  1  0.000000  0.636769  0.802739  1
  B  B10  1  0.000000  0.136769  0.697261  1
  B  B11  1  0.000000  0.863231  0.302739  1
  B  B12  1  0.000000  0.056959  0.192107  1
  B  B13  1  0.000000  0.943041  0.807893  1
  B  B14  1  0.000000  0.443041  0.692107  1
  B  B15  1  0.000000  0.556959  0.307893  1
  B  B16  1  0.298519  0.219560  0.117888  1
  B  B17  1  0.701481  0.780440  0.882112  1
  B  B18  1  0.298519  0.780440  0.882112  1
  B  B19  1  0.701481  0.280440  0.617888  1
  B  B20  1  0.701481  0.219560  0.117888  1
  B  B21  1  0.298519  0.719560  0.382112  1
  B  B22  1  0.701481  0.719560  0.382112  1
  B  B23  1  0.298519  0.280440  0.617888  1
  Ru  Ru24  1  0.000000  0.000000  0.000000  1
  Ru  Ru25  1  0.000000  0.500000  0.500000  1
