# generated using pymatgen
data_Na6MoAs4
_symmetry_space_group_name_H-M   'P 1'
_cell_length_a   9.43871600
_cell_length_b   9.43871614
_cell_length_c   7.39282500
_cell_angle_alpha   90.00000000
_cell_angle_beta   90.00000000
_cell_angle_gamma   119.99999950
_symmetry_Int_Tables_number   1
_chemical_formula_structural   Na6MoAs4
_chemical_formula_sum   'Na12 Mo2 As8'
_cell_volume   570.38343469
_cell_formula_units_Z   2
loop_
 _symmetry_equiv_pos_site_id
 _symmetry_equiv_pos_as_xyz
  1  'x, y, z'
loop_
 _atom_site_type_symbol
 _atom_site_label
 _atom_site_symmetry_multiplicity
 _atom_site_fract_x
 _atom_site_fract_y
 _atom_site_fract_z
 _atom_site_occupancy
  Na  Na0  1  0.148022  0.296045  0.285211  1
  Na  Na1  1  0.851978  0.148022  0.785211  1
  Na  Na2  1  0.532439  0.467561  0.108110  1
  Na  Na3  1  0.064877  0.532439  0.608110  1
  Na  Na4  1  0.467561  0.935123  0.608110  1
  Na  Na5  1  0.532439  0.064877  0.108110  1
  Na  Na6  1  0.935123  0.467561  0.108110  1
  Na  Na7  1  0.467561  0.532439  0.608110  1
  Na  Na8  1  0.148022  0.851978  0.285211  1
  Na  Na9  1  0.703955  0.851978  0.285211  1
  Na  Na10  1  0.851978  0.703955  0.785211  1
  Na  Na11  1  0.296045  0.148022  0.785211  1
  Mo  Mo12  1  0.666667  0.333333  0.495256  1
  Mo  Mo13  1  0.333333  0.666667  0.995256  1
  As  As14  1  0.807277  0.614554  0.392461  1
  As  As15  1  0.385446  0.192723  0.392461  1
  As  As16  1  0.333333  0.666667  0.322298  1
  As  As17  1  0.666667  0.333333  0.822298  1
  As  As18  1  0.807277  0.192723  0.392461  1
  As  As19  1  0.192723  0.807277  0.892461  1
  As  As20  1  0.192723  0.385446  0.892461  1
  As  As21  1  0.614554  0.807277  0.892461  1
