# generated using pymatgen
data_TbTh2Mn2Co9B4
_symmetry_space_group_name_H-M   'P 1'
_cell_length_a   5.10287600
_cell_length_b   5.10011391
_cell_length_c   9.86124900
_cell_angle_alpha   90.00000063
_cell_angle_beta   90.00002121
_cell_angle_gamma   120.01792970
_symmetry_Int_Tables_number   1
_chemical_formula_structural   TbTh2Mn2Co9B4
_chemical_formula_sum   'Tb1 Th2 Mn2 Co9 B4'
_cell_volume   222.21785707
_cell_formula_units_Z   1
loop_
 _symmetry_equiv_pos_site_id
 _symmetry_equiv_pos_as_xyz
  1  'x, y, z'
loop_
 _atom_site_type_symbol
 _atom_site_label
 _atom_site_symmetry_multiplicity
 _atom_site_fract_x
 _atom_site_fract_y
 _atom_site_fract_z
 _atom_site_occupancy
  Tb  Tb0  1  0.999997  0.000000  0.658227  1
  Th  Th1  1  0.999989  0.000000  0.996070  1
  Th  Th2  1  0.999996  0.000000  0.341039  1
  Mn  Mn3  1  0.333306  0.666626  0.998128  1
  Mn  Mn4  1  0.666680  0.333374  0.998128  1
  Co  Co5  1  0.499997  0.000000  0.501968  1
  Co  Co6  1  0.499996  0.500000  0.501912  1
  Co  Co7  1  0.999996  0.500000  0.501912  1
  Co  Co8  1  0.499992  0.000000  0.206271  1
  Co  Co9  1  0.499991  0.500000  0.206256  1
  Co  Co10  1  0.999991  0.500000  0.206256  1
  Co  Co11  1  0.499996  0.000000  0.793198  1
  Co  Co12  1  0.499996  0.500000  0.793133  1
  Co  Co13  1  0.999996  0.500000  0.793133  1
  B  B14  1  0.333471  0.666952  0.351312  1
  B  B15  1  0.666519  0.333048  0.351312  1
  B  B16  1  0.666621  0.333250  0.650874  1
  B  B17  1  0.333371  0.666750  0.650874  1
