# generated using pymatgen
data_Pr10Ag2Bi5Pb
_symmetry_space_group_name_H-M   'P 1'
_cell_length_a   9.77093900
_cell_length_b   9.77956442
_cell_length_c   6.69540800
_cell_angle_alpha   90.00000000
_cell_angle_beta   90.00000000
_cell_angle_gamma   119.97082509
_symmetry_Int_Tables_number   1
_chemical_formula_structural   Pr10Ag2Bi5Pb
_chemical_formula_sum   'Pr10 Ag2 Bi5 Pb1'
_cell_volume   554.23135764
_cell_formula_units_Z   1
loop_
 _symmetry_equiv_pos_site_id
 _symmetry_equiv_pos_as_xyz
  1  'x, y, z'
loop_
 _atom_site_type_symbol
 _atom_site_label
 _atom_site_symmetry_multiplicity
 _atom_site_fract_x
 _atom_site_fract_y
 _atom_site_fract_z
 _atom_site_occupancy
  Pr  Pr0  1  0.274071  0.000000  0.750000  1
  Pr  Pr1  1  0.726241  0.000000  0.250000  1
  Pr  Pr2  1  0.998730  0.273080  0.750000  1
  Pr  Pr3  1  0.001397  0.727574  0.250000  1
  Pr  Pr4  1  0.725649  0.726920  0.750000  1
  Pr  Pr5  1  0.273822  0.272426  0.250000  1
  Pr  Pr6  1  0.333656  0.666294  0.500084  1
  Pr  Pr7  1  0.667364  0.333706  0.500084  1
  Pr  Pr8  1  0.667364  0.333706  0.999916  1
  Pr  Pr9  1  0.333656  0.666294  0.999916  1
  Ag  Ag10  1  0.998933  0.000000  0.500959  1
  Ag  Ag11  1  0.998933  0.000000  0.999041  1
  Bi  Bi12  1  0.379475  0.000000  0.250000  1
  Bi  Bi13  1  0.999997  0.622050  0.750000  1
  Bi  Bi14  1  0.999763  0.378227  0.250000  1
  Bi  Bi15  1  0.377947  0.377950  0.750000  1
  Bi  Bi16  1  0.621536  0.621773  0.250000  1
  Pb  Pb17  1  0.621463  0.000000  0.750000  1
