# generated using pymatgen
data_Dy13Ho3Cd3Co4Hg
_symmetry_space_group_name_H-M   'P 1'
_cell_length_a   9.47177768
_cell_length_b   9.46705003
_cell_length_c   9.47177800
_cell_angle_alpha   59.98347818
_cell_angle_beta   59.99999889
_cell_angle_gamma   59.98347653
_symmetry_Int_Tables_number   1
_chemical_formula_structural   Dy13Ho3Cd3Co4Hg
_chemical_formula_sum   'Dy13 Ho3 Cd3 Co4 Hg1'
_cell_volume   600.41864694
_cell_formula_units_Z   1
loop_
 _symmetry_equiv_pos_site_id
 _symmetry_equiv_pos_as_xyz
  1  'x, y, z'
loop_
 _atom_site_type_symbol
 _atom_site_label
 _atom_site_symmetry_multiplicity
 _atom_site_fract_x
 _atom_site_fract_y
 _atom_site_fract_z
 _atom_site_occupancy
  Dy  Dy0  1  0.937575  0.561498  0.563352  1
  Dy  Dy1  1  0.540805  0.153367  0.152913  1
  Dy  Dy2  1  0.152913  0.153367  0.540805  1
  Dy  Dy3  1  0.937525  0.937041  0.562717  1
  Dy  Dy4  1  0.312650  0.687084  0.312650  1
  Dy  Dy5  1  0.562717  0.937041  0.937525  1
  Dy  Dy6  1  0.562717  0.937041  0.562717  1
  Dy  Dy7  1  0.687616  0.687084  0.312650  1
  Dy  Dy8  1  0.563352  0.561498  0.937575  1
  Dy  Dy9  1  0.937575  0.561498  0.937575  1
  Dy  Dy10  1  0.312650  0.687084  0.687616  1
  Dy  Dy11  1  0.152913  0.153367  0.152913  1
  Dy  Dy12  1  0.312427  0.311813  0.687880  1
  Ho  Ho13  1  0.153609  0.539172  0.153609  1
  Ho  Ho14  1  0.687880  0.311813  0.687880  1
  Ho  Ho15  1  0.687880  0.311813  0.312427  1
  Cd  Cd16  1  0.920167  0.919692  0.920167  1
  Cd  Cd17  1  0.920167  0.919692  0.239975  1
  Cd  Cd18  1  0.239975  0.919692  0.920167  1
  Co  Co19  1  0.359027  0.358795  0.923151  1
  Co  Co20  1  0.359031  0.922909  0.359031  1
  Co  Co21  1  0.923151  0.358795  0.359027  1
  Co  Co22  1  0.359027  0.358795  0.359027  1
  Hg  Hg23  1  0.916651  0.250047  0.916651  1
