# generated using pymatgen
data_Ho3Tm2Lu3(CdPt)2
_symmetry_space_group_name_H-M   'P 1'
_cell_length_a   9.55221898
_cell_length_b   9.55221991
_cell_length_c   9.55222000
_cell_angle_alpha   59.99999969
_cell_angle_beta   59.99999645
_cell_angle_gamma   60.00000087
_symmetry_Int_Tables_number   1
_chemical_formula_structural   Ho3Tm2Lu3(CdPt)2
_chemical_formula_sum   'Ho6 Tm4 Lu6 Cd4 Pt4'
_cell_volume   616.30812119
_cell_formula_units_Z   2
loop_
 _symmetry_equiv_pos_site_id
 _symmetry_equiv_pos_as_xyz
  1  'x, y, z'
loop_
 _atom_site_type_symbol
 _atom_site_label
 _atom_site_symmetry_multiplicity
 _atom_site_fract_x
 _atom_site_fract_y
 _atom_site_fract_z
 _atom_site_occupancy
  Ho  Ho0  1  0.185773  0.814227  0.814227  1
  Ho  Ho1  1  0.814227  0.185773  0.185773  1
  Ho  Ho2  1  0.814227  0.185773  0.814227  1
  Ho  Ho3  1  0.185773  0.814227  0.185773  1
  Ho  Ho4  1  0.814227  0.814227  0.185773  1
  Ho  Ho5  1  0.185773  0.185773  0.814227  1
  Tm  Tm6  1  0.602292  0.602292  0.602292  1
  Tm  Tm7  1  0.602292  0.602292  0.193124  1
  Tm  Tm8  1  0.602292  0.193124  0.602292  1
  Tm  Tm9  1  0.193124  0.602292  0.602292  1
  Lu  Lu10  1  0.061277  0.438723  0.438723  1
  Lu  Lu11  1  0.438723  0.061277  0.061277  1
  Lu  Lu12  1  0.438723  0.061277  0.438723  1
  Lu  Lu13  1  0.061277  0.438723  0.061277  1
  Lu  Lu14  1  0.438723  0.438723  0.061277  1
  Lu  Lu15  1  0.061277  0.061277  0.438723  1
  Cd  Cd16  1  0.831680  0.831680  0.831680  1
  Cd  Cd17  1  0.831680  0.831680  0.504961  1
  Cd  Cd18  1  0.831680  0.504961  0.831680  1
  Cd  Cd19  1  0.504961  0.831680  0.831680  1
  Pt  Pt20  1  0.392643  0.392643  0.392643  1
  Pt  Pt21  1  0.392643  0.392643  0.822070  1
  Pt  Pt22  1  0.392643  0.822070  0.392643  1
  Pt  Pt23  1  0.822070  0.392643  0.392643  1
