# generated using pymatgen
data_Dy16Cd3Co3HgOs
_symmetry_space_group_name_H-M   'P 1'
_cell_length_a   9.50235327
_cell_length_b   9.50284138
_cell_length_c   9.57277986
_cell_angle_alpha   60.17017327
_cell_angle_beta   60.24306853
_cell_angle_gamma   60.00169801
_symmetry_Int_Tables_number   1
_chemical_formula_structural   Dy16Cd3Co3HgOs
_chemical_formula_sum   'Dy16 Cd3 Co3 Hg1 Os1'
_cell_volume   613.14371297
_cell_formula_units_Z   1
loop_
 _symmetry_equiv_pos_site_id
 _symmetry_equiv_pos_as_xyz
  1  'x, y, z'
loop_
 _atom_site_type_symbol
 _atom_site_label
 _atom_site_symmetry_multiplicity
 _atom_site_fract_x
 _atom_site_fract_y
 _atom_site_fract_z
 _atom_site_occupancy
  Dy  Dy0  1  0.150513  0.539751  0.159221  1
  Dy  Dy1  1  0.692849  0.311811  0.685248  1
  Dy  Dy2  1  0.688718  0.312061  0.310502  1
  Dy  Dy3  1  0.937620  0.561206  0.563555  1
  Dy  Dy4  1  0.540850  0.150024  0.158499  1
  Dy  Dy5  1  0.154570  0.152996  0.537862  1
  Dy  Dy6  1  0.937487  0.937277  0.562028  1
  Dy  Dy7  1  0.311609  0.688954  0.311194  1
  Dy  Dy8  1  0.560022  0.944432  0.935526  1
  Dy  Dy9  1  0.563208  0.937277  0.562028  1
  Dy  Dy10  1  0.688242  0.688954  0.311194  1
  Dy  Dy11  1  0.560419  0.557977  0.936907  1
  Dy  Dy12  1  0.944699  0.557977  0.936907  1
  Dy  Dy13  1  0.311514  0.692308  0.684665  1
  Dy  Dy14  1  0.150625  0.150024  0.158499  1
  Dy  Dy15  1  0.310091  0.311811  0.685248  1
  Cd  Cd16  1  0.920171  0.919879  0.919508  1
  Cd  Cd17  1  0.919240  0.919235  0.242287  1
  Cd  Cd18  1  0.240443  0.919879  0.919508  1
  Co  Co19  1  0.359670  0.919996  0.360664  1
  Co  Co20  1  0.920799  0.358071  0.360579  1
  Co  Co21  1  0.360552  0.358071  0.360579  1
  Hg  Hg22  1  0.916347  0.252086  0.915220  1
  Os  Os23  1  0.359741  0.357944  0.922576  1
