# generated using pymatgen
data_NdY(ScSb)2
_symmetry_space_group_name_H-M   'P 1'
_cell_length_a   4.39872400
_cell_length_b   4.39872400
_cell_length_c   8.26964000
_cell_angle_alpha   90.00000000
_cell_angle_beta   90.00000000
_cell_angle_gamma   90.00000000
_symmetry_Int_Tables_number   1
_chemical_formula_structural   NdY(ScSb)2
_chemical_formula_sum   'Nd1 Y1 Sc2 Sb2'
_cell_volume   160.00738573
_cell_formula_units_Z   1
loop_
 _symmetry_equiv_pos_site_id
 _symmetry_equiv_pos_as_xyz
  1  'x, y, z'
loop_
 _atom_site_type_symbol
 _atom_site_label
 _atom_site_symmetry_multiplicity
 _atom_site_fract_x
 _atom_site_fract_y
 _atom_site_fract_z
 _atom_site_occupancy
  Nd  Nd0  1  0.000000  0.500000  0.650309  1
  Y  Y1  1  0.500000  0.000000  0.345621  1
  Sc  Sc2  1  0.000000  0.000000  0.002083  1
  Sc  Sc3  1  0.500000  0.500000  0.002083  1
  Sb  Sb4  1  0.000000  0.500000  0.260260  1
  Sb  Sb5  1  0.500000  0.000000  0.739641  1
