# generated using pymatgen
data_Cs2Pr10C2Br17
_symmetry_space_group_name_H-M   'P 1'
_cell_length_a   9.30287590
_cell_length_b   10.93263649
_cell_length_c   10.93285300
_cell_angle_alpha   107.86606023
_cell_angle_beta   93.52855115
_cell_angle_gamma   93.53353748
_symmetry_Int_Tables_number   1
_chemical_formula_structural   Cs2Pr10C2Br17
_chemical_formula_sum   'Cs2 Pr10 C2 Br17'
_cell_volume   1052.49722802
_cell_formula_units_Z   1
loop_
 _symmetry_equiv_pos_site_id
 _symmetry_equiv_pos_as_xyz
  1  'x, y, z'
loop_
 _atom_site_type_symbol
 _atom_site_label
 _atom_site_symmetry_multiplicity
 _atom_site_fract_x
 _atom_site_fract_y
 _atom_site_fract_z
 _atom_site_occupancy
  Cs  Cs0  1  0.998998  0.820652  0.177879  1
  Cs  Cs1  1  0.998991  0.177879  0.820661  1
  Pr  Pr2  1  0.440517  0.171219  0.171210  1
  Pr  Pr3  1  0.570454  0.505760  0.211771  1
  Pr  Pr4  1  0.824518  0.293032  0.293040  1
  Pr  Pr5  1  0.320830  0.441177  0.441189  1
  Pr  Pr6  1  0.429641  0.788414  0.494638  1
  Pr  Pr7  1  0.570419  0.211766  0.505740  1
  Pr  Pr8  1  0.679481  0.559020  0.559005  1
  Pr  Pr9  1  0.175531  0.706808  0.706831  1
  Pr  Pr10  1  0.429651  0.494626  0.788420  1
  Pr  Pr11  1  0.559783  0.829004  0.828998  1
  C  C12  1  0.572091  0.354442  0.354440  1
  C  C13  1  0.428239  0.645818  0.645819  1
  Br  Br14  1  0.580953  0.690201  0.025495  1
  Br  Br15  1  0.715998  0.065315  0.065297  1
  Br  Br16  1  0.859704  0.449098  0.116573  1
  Br  Br17  1  0.134995  0.213325  0.213294  1
  Br  Br18  1  0.276833  0.599305  0.257657  1
  Br  Br19  1  0.419388  0.974665  0.310052  1
  Br  Br20  1  0.723303  0.742723  0.401052  1
  Br  Br21  1  0.859663  0.116545  0.449077  1
  Br  Br22  1  0.999963  0.499821  0.499884  1
  Br  Br23  1  0.139870  0.882894  0.550583  1
  Br  Br24  1  0.276816  0.257657  0.599312  1
  Br  Br25  1  0.580871  0.025525  0.690196  1
  Br  Br26  1  0.723300  0.401049  0.742712  1
  Br  Br27  1  0.865484  0.787035  0.786986  1
  Br  Br28  1  0.139883  0.550583  0.882926  1
  Br  Br29  1  0.284431  0.934580  0.934594  1
  Br  Br30  1  0.419407  0.310065  0.974670  1
