# generated using pymatgen
data_Tm20Cd6SiNi
_symmetry_space_group_name_H-M   'P 1'
_cell_length_a   9.43735900
_cell_length_b   9.43735993
_cell_length_c   9.76297300
_cell_angle_alpha   90.00000000
_cell_angle_beta   90.00000000
_cell_angle_gamma   119.99999324
_symmetry_Int_Tables_number   1
_chemical_formula_structural   Tm20Cd6SiNi
_chemical_formula_sum   'Tm20 Cd6 Si1 Ni1'
_cell_volume   753.03254188
_cell_formula_units_Z   1
loop_
 _symmetry_equiv_pos_site_id
 _symmetry_equiv_pos_as_xyz
  1  'x, y, z'
loop_
 _atom_site_type_symbol
 _atom_site_label
 _atom_site_symmetry_multiplicity
 _atom_site_fract_x
 _atom_site_fract_y
 _atom_site_fract_z
 _atom_site_occupancy
  Tm  Tm0  1  0.000000  0.000000  0.500439  1
  Tm  Tm1  1  0.000000  0.000000  0.999561  1
  Tm  Tm2  1  0.542955  0.457045  0.250000  1
  Tm  Tm3  1  0.542955  0.085909  0.250000  1
  Tm  Tm4  1  0.914091  0.457045  0.250000  1
  Tm  Tm5  1  0.458409  0.541591  0.750000  1
  Tm  Tm6  1  0.458409  0.916817  0.750000  1
  Tm  Tm7  1  0.083183  0.541591  0.750000  1
  Tm  Tm8  1  0.207571  0.792429  0.450571  1
  Tm  Tm9  1  0.207571  0.415141  0.450571  1
  Tm  Tm10  1  0.584859  0.792429  0.450571  1
  Tm  Tm11  1  0.787626  0.212374  0.559959  1
  Tm  Tm12  1  0.787626  0.575251  0.559959  1
  Tm  Tm13  1  0.424749  0.212374  0.559959  1
  Tm  Tm14  1  0.787626  0.212374  0.940041  1
  Tm  Tm15  1  0.787626  0.575251  0.940041  1
  Tm  Tm16  1  0.424749  0.212374  0.940041  1
  Tm  Tm17  1  0.207571  0.792429  0.049429  1
  Tm  Tm18  1  0.207571  0.415141  0.049429  1
  Tm  Tm19  1  0.584859  0.792429  0.049429  1
  Cd  Cd20  1  0.886023  0.113977  0.250000  1
  Cd  Cd21  1  0.886023  0.772045  0.250000  1
  Cd  Cd22  1  0.227955  0.113977  0.250000  1
  Cd  Cd23  1  0.113767  0.886233  0.750000  1
  Cd  Cd24  1  0.113767  0.227533  0.750000  1
  Cd  Cd25  1  0.772467  0.886233  0.750000  1
  Si  Si26  1  0.333333  0.666667  0.250000  1
  Ni  Ni27  1  0.666667  0.333333  0.750000  1
