# generated using pymatgen
data_ThMg2CoCu8
_symmetry_space_group_name_H-M   'P 1'
_cell_length_a   5.00625100
_cell_length_b   5.00607388
_cell_length_c   16.04281200
_cell_angle_alpha   90.00000000
_cell_angle_beta   90.00000000
_cell_angle_gamma   120.00145701
_symmetry_Int_Tables_number   1
_chemical_formula_structural   ThMg2CoCu8
_chemical_formula_sum   'Th2 Mg4 Co2 Cu16'
_cell_volume   348.18866127
_cell_formula_units_Z   2
loop_
 _symmetry_equiv_pos_site_id
 _symmetry_equiv_pos_as_xyz
  1  'x, y, z'
loop_
 _atom_site_type_symbol
 _atom_site_label
 _atom_site_symmetry_multiplicity
 _atom_site_fract_x
 _atom_site_fract_y
 _atom_site_fract_z
 _atom_site_occupancy
  Th  Th0  1  0.666669  0.333333  0.250000  1
  Th  Th1  1  0.333331  0.666667  0.750000  1
  Mg  Mg2  1  0.666675  0.333344  0.468848  1
  Mg  Mg3  1  0.333325  0.666656  0.968848  1
  Mg  Mg4  1  0.666675  0.333344  0.031152  1
  Mg  Mg5  1  0.333325  0.666656  0.531152  1
  Co  Co6  1  0.333336  0.666678  0.250000  1
  Co  Co7  1  0.666664  0.333322  0.750000  1
  Cu  Cu8  1  0.168757  0.831263  0.377581  1
  Cu  Cu9  1  0.168749  0.337497  0.377580  1
  Cu  Cu10  1  0.999990  0.999994  0.750000  1
  Cu  Cu11  1  0.000010  0.000006  0.250000  1
  Cu  Cu12  1  0.000000  0.000000  0.000000  1
  Cu  Cu13  1  0.000000  0.000000  0.500000  1
  Cu  Cu14  1  0.168749  0.337497  0.122420  1
  Cu  Cu15  1  0.831243  0.168737  0.622419  1
  Cu  Cu16  1  0.337486  0.168734  0.622420  1
  Cu  Cu17  1  0.662514  0.831266  0.122420  1
  Cu  Cu18  1  0.168757  0.831263  0.122419  1
  Cu  Cu19  1  0.831251  0.662503  0.877580  1
  Cu  Cu20  1  0.831243  0.168737  0.877581  1
  Cu  Cu21  1  0.831251  0.662503  0.622420  1
  Cu  Cu22  1  0.337486  0.168734  0.877580  1
  Cu  Cu23  1  0.662514  0.831266  0.377580  1
