# generated using pymatgen
data_Tb2Pa2Ge6Os7
_symmetry_space_group_name_H-M   'P 1'
_cell_length_a   7.25669404
_cell_length_b   7.29032159
_cell_length_c   7.29032011
_cell_angle_alpha   109.73274230
_cell_angle_beta   109.43382818
_cell_angle_gamma   109.43384106
_symmetry_Int_Tables_number   1
_chemical_formula_structural   Tb2Pa2Ge6Os7
_chemical_formula_sum   'Tb2 Pa2 Ge6 Os7'
_cell_volume   296.21173704
_cell_formula_units_Z   1
loop_
 _symmetry_equiv_pos_site_id
 _symmetry_equiv_pos_as_xyz
  1  'x, y, z'
loop_
 _atom_site_type_symbol
 _atom_site_label
 _atom_site_symmetry_multiplicity
 _atom_site_fract_x
 _atom_site_fract_y
 _atom_site_fract_z
 _atom_site_occupancy
  Tb  Tb0  1  0.500000  0.000000  0.000000  1
  Tb  Tb1  1  0.500000  0.500000  0.500000  1
  Pa  Pa2  1  0.000000  0.000000  0.500000  1
  Pa  Pa3  1  0.000000  0.500000  0.000000  1
  Ge  Ge4  1  0.684854  0.688919  0.995935  1
  Ge  Ge5  1  0.315146  0.004065  0.311081  1
  Ge  Ge6  1  0.000000  0.312058  0.312058  1
  Ge  Ge7  1  0.315146  0.311081  0.004065  1
  Ge  Ge8  1  0.684854  0.995935  0.688919  1
  Ge  Ge9  1  0.000000  0.687942  0.687942  1
  Os  Os10  1  0.756143  0.249050  0.507093  1
  Os  Os11  1  0.756143  0.507093  0.249050  1
  Os  Os12  1  0.500000  0.250000  0.750000  1
  Os  Os13  1  0.243857  0.492907  0.750950  1
  Os  Os14  1  0.243857  0.750950  0.492907  1
  Os  Os15  1  0.500000  0.750000  0.250000  1
  Os  Os16  1  0.000000  0.000000  0.000000  1
