# generated using pymatgen
data_Li3Dy4Si4AgSn2
_symmetry_space_group_name_H-M   'P 1'
_cell_length_a   9.56081467
_cell_length_b   9.56081484
_cell_length_c   6.84182875
_cell_angle_alpha   89.90440564
_cell_angle_beta   90.09559580
_cell_angle_gamma   153.45258440
_symmetry_Int_Tables_number   1
_chemical_formula_structural   Li3Dy4Si4AgSn2
_chemical_formula_sum   'Li3 Dy4 Si4 Ag1 Sn2'
_cell_volume   279.51744160
_cell_formula_units_Z   1
loop_
 _symmetry_equiv_pos_site_id
 _symmetry_equiv_pos_as_xyz
  1  'x, y, z'
loop_
 _atom_site_type_symbol
 _atom_site_label
 _atom_site_symmetry_multiplicity
 _atom_site_fract_x
 _atom_site_fract_y
 _atom_site_fract_z
 _atom_site_occupancy
  Li  Li0  1  0.186072  0.813928  0.446953  1
  Li  Li1  1  0.180832  0.819168  0.059548  1
  Li  Li2  1  0.818436  0.181564  0.944215  1
  Dy  Dy3  1  0.547053  0.452947  0.249671  1
  Dy  Dy4  1  0.451127  0.548873  0.748525  1
  Dy  Dy5  1  0.351970  0.648030  0.242369  1
  Dy  Dy6  1  0.647713  0.352287  0.750291  1
  Si  Si7  1  0.942659  0.057341  0.071662  1
  Si  Si8  1  0.057249  0.942751  0.925096  1
  Si  Si9  1  0.058280  0.941720  0.573915  1
  Si  Si10  1  0.943913  0.056087  0.421721  1
  Ag  Ag11  1  0.818269  0.181731  0.555370  1
  Sn  Sn12  1  0.718443  0.281557  0.240565  1
  Sn  Sn13  1  0.277985  0.722015  0.770102  1
