# generated using pymatgen
data_Nd6Sn2Ge2IrRh3
_symmetry_space_group_name_H-M   'P 1'
_cell_length_a   5.79587524
_cell_length_b   8.36767684
_cell_length_c   13.65355603
_cell_angle_alpha   90.02884053
_cell_angle_beta   89.73561659
_cell_angle_gamma   90.19016647
_symmetry_Int_Tables_number   1
_chemical_formula_structural   Nd6Sn2Ge2IrRh3
_chemical_formula_sum   'Nd12 Sn4 Ge4 Ir2 Rh6'
_cell_volume   662.15953565
_cell_formula_units_Z   2
loop_
 _symmetry_equiv_pos_site_id
 _symmetry_equiv_pos_as_xyz
  1  'x, y, z'
loop_
 _atom_site_type_symbol
 _atom_site_label
 _atom_site_symmetry_multiplicity
 _atom_site_fract_x
 _atom_site_fract_y
 _atom_site_fract_z
 _atom_site_occupancy
  Nd  Nd0  1  0.642202  0.248401  0.249203  1
  Nd  Nd1  1  0.357798  0.751599  0.750797  1
  Nd  Nd2  1  0.357728  0.752188  0.249287  1
  Nd  Nd3  1  0.642272  0.247812  0.750713  1
  Nd  Nd4  1  0.158507  0.391857  0.101551  1
  Nd  Nd5  1  0.841493  0.608143  0.898449  1
  Nd  Nd6  1  0.842591  0.604357  0.601496  1
  Nd  Nd7  1  0.842809  0.893759  0.399366  1
  Nd  Nd8  1  0.157409  0.395643  0.398504  1
  Nd  Nd9  1  0.157191  0.106241  0.600634  1
  Nd  Nd10  1  0.155769  0.103897  0.899088  1
  Nd  Nd11  1  0.844231  0.896103  0.100912  1
  Sn  Sn12  1  0.660478  0.251073  0.000064  1
  Sn  Sn13  1  0.339522  0.748927  0.999936  1
  Sn  Sn14  1  0.338407  0.749474  0.499808  1
  Sn  Sn15  1  0.661593  0.250526  0.500192  1
  Ge  Ge16  1  0.138422  0.105169  0.251172  1
  Ge  Ge17  1  0.861578  0.894831  0.748828  1
  Ge  Ge18  1  0.861127  0.604160  0.249848  1
  Ge  Ge19  1  0.138873  0.395840  0.750152  1
  Ir  Ir20  1  0.370979  0.040664  0.097655  1
  Ir  Ir21  1  0.629021  0.959336  0.902345  1
  Rh  Rh22  1  0.626811  0.960482  0.596977  1
  Rh  Rh23  1  0.626998  0.540219  0.403026  1
  Rh  Rh24  1  0.373189  0.039518  0.403023  1
  Rh  Rh25  1  0.373002  0.459781  0.596974  1
  Rh  Rh26  1  0.370699  0.458748  0.902322  1
  Rh  Rh27  1  0.629301  0.541252  0.097678  1
