# generated using pymatgen
data_Li3Dy3(OsO6)2
_symmetry_space_group_name_H-M   'P 1'
_cell_length_a   10.60598881
_cell_length_b   10.60599040
_cell_length_c   10.60599000
_cell_angle_alpha   109.47121988
_cell_angle_beta   109.47122292
_cell_angle_gamma   109.47120991
_symmetry_Int_Tables_number   1
_chemical_formula_structural   Li3Dy3(OsO6)2
_chemical_formula_sum   'Li12 Dy12 Os8 O48'
_cell_volume   918.39976881
_cell_formula_units_Z   4
loop_
 _symmetry_equiv_pos_site_id
 _symmetry_equiv_pos_as_xyz
  1  'x, y, z'
loop_
 _atom_site_type_symbol
 _atom_site_label
 _atom_site_symmetry_multiplicity
 _atom_site_fract_x
 _atom_site_fract_y
 _atom_site_fract_z
 _atom_site_occupancy
  Li  Li0  1  0.250001  0.375000  0.124999  1
  Li  Li1  1  0.375001  0.750000  0.125000  1
  Li  Li2  1  0.125000  0.875000  0.250000  1
  Li  Li3  1  0.625000  0.375001  0.250000  1
  Li  Li4  1  0.125000  0.249999  0.374999  1
  Li  Li5  1  0.750001  0.125001  0.375000  1
  Li  Li6  1  0.250001  0.875001  0.624999  1
  Li  Li7  1  0.875001  0.750000  0.625002  1
  Li  Li8  1  0.874999  0.124999  0.749999  1
  Li  Li9  1  0.374999  0.625000  0.749999  1
  Li  Li10  1  0.750000  0.625000  0.874998  1
  Li  Li11  1  0.625001  0.250000  0.875001  1
  Dy  Dy12  1  0.750000  0.875000  0.125000  1
  Dy  Dy13  1  0.875001  0.250000  0.125001  1
  Dy  Dy14  1  0.874999  0.624999  0.249999  1
  Dy  Dy15  1  0.374999  0.124998  0.249999  1
  Dy  Dy16  1  0.625000  0.750001  0.375000  1
  Dy  Dy17  1  0.250002  0.625001  0.375000  1
  Dy  Dy18  1  0.750001  0.375001  0.624999  1
  Dy  Dy19  1  0.375001  0.250001  0.625002  1
  Dy  Dy20  1  0.124999  0.375000  0.749999  1
  Dy  Dy21  1  0.625001  0.875001  0.750002  1
  Dy  Dy22  1  0.249999  0.125000  0.874999  1
  Dy  Dy23  1  0.125001  0.750001  0.875001  1
  Os  Os24  1  0.000000  0.000000  0.000000  1
  Os  Os25  1  0.499999  0.000000  0.000000  1
  Os  Os26  1  0.500000  0.500000  0.000000  1
  Os  Os27  1  0.000000  0.500001  0.000000  1
  Os  Os28  1  0.000000  0.000000  0.499998  1
  Os  Os29  1  0.500000  0.000000  0.499999  1
  Os  Os30  1  0.000000  0.500000  0.500000  1
  Os  Os31  1  0.500002  0.500002  0.500001  1
  O  O32  1  0.702201  0.618850  0.028861  1
  O  O33  1  0.826660  0.410011  0.028862  1
  O  O34  1  0.202201  0.173340  0.083350  1
  O  O35  1  0.381149  0.910012  0.083350  1
  O  O36  1  0.471137  0.173339  0.089988  1
  O  O37  1  0.118850  0.916649  0.089989  1
  O  O38  1  0.528862  0.702201  0.118851  1
  O  O39  1  0.089989  0.416650  0.118851  1
  O  O40  1  0.702201  0.083351  0.173340  1
  O  O41  1  0.971139  0.089988  0.173341  1
  O  O42  1  0.618851  0.528862  0.202201  1
  O  O43  1  0.083351  0.673340  0.202201  1
  O  O44  1  0.826660  0.416649  0.297799  1
  O  O45  1  0.971138  0.881150  0.297799  1
  O  O46  1  0.416650  0.797799  0.326660  1
  O  O47  1  0.410012  0.528863  0.326660  1
  O  O48  1  0.797799  0.971138  0.381149  1
  O  O49  1  0.083352  0.410013  0.381150  1
  O  O50  1  0.583351  0.381151  0.410013  1
  O  O51  1  0.326660  0.028863  0.410013  1
  O  O52  1  0.326659  0.297799  0.416649  1
  O  O53  1  0.589989  0.118851  0.416649  1
  O  O54  1  0.881149  0.797798  0.471137  1
  O  O55  1  0.089988  0.673340  0.471138  1
  O  O56  1  0.118850  0.202200  0.528861  1
  O  O57  1  0.910013  0.326661  0.528862  1
  O  O58  1  0.410011  0.881150  0.583350  1
  O  O59  1  0.673340  0.702202  0.583352  1
  O  O60  1  0.673340  0.971137  0.589988  1
  O  O61  1  0.416650  0.618852  0.589989  1
  O  O62  1  0.916649  0.589988  0.618850  1
  O  O63  1  0.202200  0.028862  0.618850  1
  O  O64  1  0.589988  0.471138  0.673340  1
  O  O65  1  0.583352  0.202202  0.673340  1
  O  O66  1  0.028863  0.118852  0.702201  1
  O  O67  1  0.173341  0.583352  0.702203  1
  O  O68  1  0.916649  0.326661  0.797798  1
  O  O69  1  0.381150  0.471139  0.797798  1
  O  O70  1  0.028862  0.910011  0.826658  1
  O  O71  1  0.297800  0.916649  0.826659  1
  O  O72  1  0.910011  0.583350  0.881148  1
  O  O73  1  0.471138  0.297798  0.881150  1
  O  O74  1  0.881150  0.083352  0.910012  1
  O  O75  1  0.528862  0.826660  0.910012  1
  O  O76  1  0.797797  0.826658  0.916648  1
  O  O77  1  0.618851  0.089989  0.916649  1
  O  O78  1  0.297799  0.381150  0.971138  1
  O  O79  1  0.173340  0.589989  0.971138  1
