# generated using pymatgen
data_Sc12FeCo(Si6Ir)2
_symmetry_space_group_name_H-M   'P 1'
_cell_length_a   4.02357200
_cell_length_b   10.10472950
_cell_length_c   11.61555913
_cell_angle_alpha   89.99347051
_cell_angle_beta   90.00000000
_cell_angle_gamma   90.00000000
_symmetry_Int_Tables_number   1
_chemical_formula_structural   Sc12FeCo(Si6Ir)2
_chemical_formula_sum   'Sc12 Fe1 Co1 Si12 Ir2'
_cell_volume   472.25502371
_cell_formula_units_Z   1
loop_
 _symmetry_equiv_pos_site_id
 _symmetry_equiv_pos_as_xyz
  1  'x, y, z'
loop_
 _atom_site_type_symbol
 _atom_site_label
 _atom_site_symmetry_multiplicity
 _atom_site_fract_x
 _atom_site_fract_y
 _atom_site_fract_z
 _atom_site_occupancy
  Sc  Sc0  1  0.250000  0.880617  0.021159  1
  Sc  Sc1  1  0.250000  0.617184  0.523383  1
  Sc  Sc2  1  0.750000  0.123792  0.977832  1
  Sc  Sc3  1  0.750000  0.375480  0.478721  1
  Sc  Sc4  1  0.250000  0.919514  0.603600  1
  Sc  Sc5  1  0.250000  0.580986  0.103997  1
  Sc  Sc6  1  0.750000  0.078664  0.400840  1
  Sc  Sc7  1  0.750000  0.421043  0.902349  1
  Sc  Sc8  1  0.250000  0.652102  0.797704  1
  Sc  Sc9  1  0.250000  0.846948  0.299106  1
  Sc  Sc10  1  0.750000  0.338011  0.199111  1
  Sc  Sc11  1  0.750000  0.164529  0.699690  1
  Fe  Fe12  1  0.250000  0.390757  0.674463  1
  Co  Co13  1  0.250000  0.110512  0.175509  1
  Si  Si14  1  0.250000  0.017725  0.821599  1
  Si  Si15  1  0.250000  0.483066  0.321946  1
  Si  Si16  1  0.750000  0.996331  0.178988  1
  Si  Si17  1  0.750000  0.501855  0.680487  1
  Si  Si18  1  0.250000  0.257348  0.837223  1
  Si  Si19  1  0.250000  0.243425  0.337380  1
  Si  Si20  1  0.750000  0.754561  0.157978  1
  Si  Si21  1  0.750000  0.746203  0.658269  1
  Si  Si22  1  0.250000  0.197813  0.546677  1
  Si  Si23  1  0.250000  0.301741  0.046418  1
  Si  Si24  1  0.750000  0.804660  0.455289  1
  Si  Si25  1  0.750000  0.694160  0.954455  1
  Ir  Ir26  1  0.750000  0.610448  0.323088  1
  Ir  Ir27  1  0.750000  0.890528  0.822740  1
