# generated using pymatgen
data_Ho8Cd2InAu
_symmetry_space_group_name_H-M   'P 1'
_cell_length_a   10.49510800
_cell_length_b   10.51637106
_cell_length_c   6.91047126
_cell_angle_alpha   89.97276149
_cell_angle_beta   90.00000000
_cell_angle_gamma   119.93313856
_symmetry_Int_Tables_number   1
_chemical_formula_structural   Ho8Cd2InAu
_chemical_formula_sum   'Ho16 Cd4 In2 Au2'
_cell_volume   660.97228932
_cell_formula_units_Z   2
loop_
 _symmetry_equiv_pos_site_id
 _symmetry_equiv_pos_as_xyz
  1  'x, y, z'
loop_
 _atom_site_type_symbol
 _atom_site_label
 _atom_site_symmetry_multiplicity
 _atom_site_fract_x
 _atom_site_fract_y
 _atom_site_fract_z
 _atom_site_occupancy
  Ho  Ho0  1  0.525909  0.051818  0.510600  1
  Ho  Ho1  1  0.947174  0.474326  0.512351  1
  Ho  Ho2  1  0.527150  0.474326  0.512351  1
  Ho  Ho3  1  0.473948  0.947896  0.009169  1
  Ho  Ho4  1  0.053637  0.525582  0.010008  1
  Ho  Ho5  1  0.471945  0.525582  0.010008  1
  Ho  Ho6  1  0.169734  0.339469  0.716234  1
  Ho  Ho7  1  0.660377  0.830281  0.723162  1
  Ho  Ho8  1  0.169905  0.830281  0.723162  1
  Ho  Ho9  1  0.826916  0.653833  0.215750  1
  Ho  Ho10  1  0.344180  0.175401  0.217143  1
  Ho  Ho11  1  0.831220  0.175401  0.217143  1
  Ho  Ho12  1  0.666305  0.332609  0.867580  1
  Ho  Ho13  1  0.331516  0.663032  0.367187  1
  Ho  Ho14  1  0.999265  0.998529  0.491343  1
  Ho  Ho15  1  0.000078  0.000155  0.994220  1
  Cd  Cd16  1  0.835228  0.670455  0.753016  1
  Cd  Cd17  1  0.329562  0.164578  0.752636  1
  Cd  Cd18  1  0.835017  0.164578  0.752636  1
  Cd  Cd19  1  0.164299  0.328598  0.251938  1
  In  In20  1  0.672884  0.836991  0.246843  1
  In  In21  1  0.164107  0.836991  0.246843  1
  Au  Au22  1  0.666404  0.332807  0.279045  1
  Au  Au23  1  0.333241  0.666482  0.777669  1
