# generated using pymatgen
data_Li4Ho4IrPt3
_symmetry_space_group_name_H-M   'P 1'
_cell_length_a   3.96353971
_cell_length_b   7.02653350
_cell_length_c   8.40056139
_cell_angle_alpha   89.79466270
_cell_angle_beta   90.00003479
_cell_angle_gamma   89.93068678
_symmetry_Int_Tables_number   1
_chemical_formula_structural   Li4Ho4IrPt3
_chemical_formula_sum   'Li4 Ho4 Ir1 Pt3'
_cell_volume   233.95349515
_cell_formula_units_Z   1
loop_
 _symmetry_equiv_pos_site_id
 _symmetry_equiv_pos_as_xyz
  1  'x, y, z'
loop_
 _atom_site_type_symbol
 _atom_site_label
 _atom_site_symmetry_multiplicity
 _atom_site_fract_x
 _atom_site_fract_y
 _atom_site_fract_z
 _atom_site_occupancy
  Li  Li0  1  0.249943  0.123143  0.057150  1
  Li  Li1  1  0.249853  0.621517  0.445213  1
  Li  Li2  1  0.750049  0.878093  0.942744  1
  Li  Li3  1  0.750183  0.377274  0.553357  1
  Ho  Ho4  1  0.249825  0.055570  0.672364  1
  Ho  Ho5  1  0.249794  0.551896  0.823600  1
  Ho  Ho6  1  0.750255  0.955911  0.323171  1
  Ho  Ho7  1  0.750213  0.442432  0.183048  1
  Ir  Ir8  1  0.249993  0.238149  0.370008  1
  Pt  Pt9  1  0.250075  0.740619  0.127424  1
  Pt  Pt10  1  0.749889  0.757632  0.630888  1
  Pt  Pt11  1  0.749927  0.257766  0.871033  1
