# generated using pymatgen
data_Tm6IrAu7
_symmetry_space_group_name_H-M   'P 1'
_cell_length_a   7.96105404
_cell_length_b   7.96105457
_cell_length_c   7.96105478
_cell_angle_alpha   114.18612070
_cell_angle_beta   114.18612408
_cell_angle_gamma   114.18613884
_symmetry_Int_Tables_number   1
_chemical_formula_structural   Tm6IrAu7
_chemical_formula_sum   'Tm6 Ir1 Au7'
_cell_volume   302.26842070
_cell_formula_units_Z   1
loop_
 _symmetry_equiv_pos_site_id
 _symmetry_equiv_pos_as_xyz
  1  'x, y, z'
loop_
 _atom_site_type_symbol
 _atom_site_label
 _atom_site_symmetry_multiplicity
 _atom_site_fract_x
 _atom_site_fract_y
 _atom_site_fract_z
 _atom_site_occupancy
  Tm  Tm0  1  0.739522  0.619323  0.991915  1
  Tm  Tm1  1  0.991915  0.739522  0.619323  1
  Tm  Tm2  1  0.619323  0.991915  0.739522  1
  Tm  Tm3  1  0.260478  0.380677  0.008085  1
  Tm  Tm4  1  0.008085  0.260478  0.380677  1
  Tm  Tm5  1  0.380677  0.008085  0.260478  1
  Ir  Ir6  1  0.000000  0.000000  0.000000  1
  Au  Au7  1  0.568903  0.239400  0.076973  1
  Au  Au8  1  0.076973  0.568903  0.239400  1
  Au  Au9  1  0.239400  0.076973  0.568903  1
  Au  Au10  1  0.431097  0.760600  0.923027  1
  Au  Au11  1  0.923027  0.431097  0.760600  1
  Au  Au12  1  0.760600  0.923027  0.431097  1
  Au  Au13  1  0.500000  0.500000  0.500000  1
