# generated using pymatgen
data_ErThP7Ru12
_symmetry_space_group_name_H-M   'P 1'
_cell_length_a   9.46192000
_cell_length_b   9.46192029
_cell_length_c   3.96262400
_cell_angle_alpha   90.00000000
_cell_angle_beta   90.00000000
_cell_angle_gamma   119.99999200
_symmetry_Int_Tables_number   1
_chemical_formula_structural   ErThP7Ru12
_chemical_formula_sum   'Er1 Th1 P7 Ru12'
_cell_volume   307.23599072
_cell_formula_units_Z   1
loop_
 _symmetry_equiv_pos_site_id
 _symmetry_equiv_pos_as_xyz
  1  'x, y, z'
loop_
 _atom_site_type_symbol
 _atom_site_label
 _atom_site_symmetry_multiplicity
 _atom_site_fract_x
 _atom_site_fract_y
 _atom_site_fract_z
 _atom_site_occupancy
  Er  Er0  1  0.666667  0.333333  0.500000  1
  Th  Th1  1  0.333333  0.666667  0.000000  1
  P  P2  1  0.606186  0.717196  0.500000  1
  P  P3  1  0.000000  0.000000  0.000000  1
  P  P4  1  0.282804  0.888990  0.500000  1
  P  P5  1  0.111010  0.393814  0.500000  1
  P  P6  1  0.885832  0.572732  0.000000  1
  P  P7  1  0.427268  0.313100  0.000000  1
  P  P8  1  0.686900  0.114168  0.000000  1
  Ru  Ru9  1  0.556873  0.949955  0.500000  1
  Ru  Ru10  1  0.393084  0.443127  0.500000  1
  Ru  Ru11  1  0.913108  0.119578  0.500000  1
  Ru  Ru12  1  0.206470  0.086892  0.500000  1
  Ru  Ru13  1  0.880422  0.793530  0.500000  1
  Ru  Ru14  1  0.727765  0.891449  0.000000  1
  Ru  Ru15  1  0.108551  0.836315  0.000000  1
  Ru  Ru16  1  0.163685  0.272235  0.000000  1
  Ru  Ru17  1  0.424644  0.069982  0.000000  1
  Ru  Ru18  1  0.930018  0.354662  0.000000  1
  Ru  Ru19  1  0.645338  0.575356  0.000000  1
  Ru  Ru20  1  0.050045  0.606916  0.500000  1
