# generated using pymatgen
data_Sm2Ga3Tc14C3
_symmetry_space_group_name_H-M   'P 1'
_cell_length_a   6.96760495
_cell_length_b   6.96760678
_cell_length_c   6.96760615
_cell_angle_alpha   82.42466095
_cell_angle_beta   82.42465608
_cell_angle_gamma   82.42466514
_symmetry_Int_Tables_number   1
_chemical_formula_structural   Sm2Ga3Tc14C3
_chemical_formula_sum   'Sm2 Ga3 Tc14 C3'
_cell_volume   330.11912077
_cell_formula_units_Z   1
loop_
 _symmetry_equiv_pos_site_id
 _symmetry_equiv_pos_as_xyz
  1  'x, y, z'
loop_
 _atom_site_type_symbol
 _atom_site_label
 _atom_site_symmetry_multiplicity
 _atom_site_fract_x
 _atom_site_fract_y
 _atom_site_fract_z
 _atom_site_occupancy
  Sm  Sm0  1  0.657278  0.657278  0.657278  1
  Sm  Sm1  1  0.342722  0.342722  0.342722  1
  Ga  Ga2  1  0.000000  0.000000  0.500000  1
  Ga  Ga3  1  0.500000  0.000000  0.000000  1
  Ga  Ga4  1  0.000000  0.500000  0.000000  1
  Tc  Tc5  1  0.723291  0.276709  0.000000  1
  Tc  Tc6  1  0.000000  0.723291  0.276709  1
  Tc  Tc7  1  0.276709  0.000000  0.723291  1
  Tc  Tc8  1  0.000000  0.276709  0.723291  1
  Tc  Tc9  1  0.723291  0.000000  0.276709  1
  Tc  Tc10  1  0.276709  0.723291  0.000000  1
  Tc  Tc11  1  0.351640  0.351640  0.849108  1
  Tc  Tc12  1  0.849108  0.351640  0.351640  1
  Tc  Tc13  1  0.351640  0.849108  0.351640  1
  Tc  Tc14  1  0.648360  0.648360  0.150892  1
  Tc  Tc15  1  0.150892  0.648360  0.648360  1
  Tc  Tc16  1  0.648360  0.150892  0.648360  1
  Tc  Tc17  1  0.904889  0.904889  0.904889  1
  Tc  Tc18  1  0.095111  0.095111  0.095111  1
  C  C19  1  0.500000  0.500000  0.000000  1
  C  C20  1  0.000000  0.500000  0.500000  1
  C  C21  1  0.500000  0.000000  0.500000  1
