# generated using pymatgen
data_LuPu3H11
_symmetry_space_group_name_H-M   'P 1'
_cell_length_a   6.42717459
_cell_length_b   6.42717493
_cell_length_c   6.42717409
_cell_angle_alpha   130.95616074
_cell_angle_beta   134.09484999
_cell_angle_gamma   69.43133344
_symmetry_Int_Tables_number   1
_chemical_formula_structural   LuPu3H11
_chemical_formula_sum   'Lu1 Pu3 H11'
_cell_volume   141.28870731
_cell_formula_units_Z   1
loop_
 _symmetry_equiv_pos_site_id
 _symmetry_equiv_pos_as_xyz
  1  'x, y, z'
loop_
 _atom_site_type_symbol
 _atom_site_label
 _atom_site_symmetry_multiplicity
 _atom_site_fract_x
 _atom_site_fract_y
 _atom_site_fract_z
 _atom_site_occupancy
  Lu  Lu0  1  0.500000  0.000000  0.500000  1
  Pu  Pu1  1  0.264007  0.264007  0.000000  1
  Pu  Pu2  1  0.000000  0.500000  0.500000  1
  Pu  Pu3  1  0.735993  0.735993  0.000000  1
  H  H4  1  0.644314  0.105544  0.984455  1
  H  H5  1  0.355686  0.340141  0.461229  1
  H  H6  1  0.121089  0.659859  0.015545  1
  H  H7  1  0.878911  0.894456  0.538771  1
  H  H8  1  0.878911  0.340141  0.984455  1
  H  H9  1  0.644314  0.659859  0.538771  1
  H  H10  1  0.355686  0.894456  0.015545  1
  H  H11  1  0.121089  0.105544  0.461229  1
  H  H12  1  0.764983  0.264983  0.500000  1
  H  H13  1  0.500000  0.500000  0.000000  1
  H  H14  1  0.235017  0.735017  0.500000  1
