# generated using pymatgen
data_MnNiSnO4
_symmetry_space_group_name_H-M   'P 1'
_cell_length_a   6.24850069
_cell_length_b   6.24849017
_cell_length_c   6.24850355
_cell_angle_alpha   120.22788965
_cell_angle_beta   118.79120955
_cell_angle_gamma   90.85625007
_symmetry_Int_Tables_number   1
_chemical_formula_structural   MnNiSnO4
_chemical_formula_sum   'Mn2 Ni2 Sn2 O8'
_cell_volume   173.73306597
_cell_formula_units_Z   2
loop_
 _symmetry_equiv_pos_site_id
 _symmetry_equiv_pos_as_xyz
  1  'x, y, z'
loop_
 _atom_site_type_symbol
 _atom_site_label
 _atom_site_symmetry_multiplicity
 _atom_site_fract_x
 _atom_site_fract_y
 _atom_site_fract_z
 _atom_site_occupancy
  Mn  Mn0  1  0.384713  0.134712  0.250000  1
  Mn  Mn1  1  0.615287  0.865288  0.750000  1
  Ni  Ni2  1  0.000000  0.500000  0.000000  1
  Ni  Ni3  1  0.000000  0.000000  0.500000  1
  Sn  Sn4  1  0.500000  0.500000  0.000000  1
  Sn  Sn5  1  0.000000  0.500000  0.500000  1
  O  O6  1  0.756376  0.733370  0.476995  1
  O  O7  1  0.756377  0.279382  0.023010  1
  O  O8  1  0.210236  0.734592  0.475648  1
  O  O9  1  0.758940  0.734586  0.024355  1
  O  O10  1  0.243624  0.266630  0.523005  1
  O  O11  1  0.243623  0.720618  0.976990  1
  O  O12  1  0.789764  0.265408  0.524352  1
  O  O13  1  0.241060  0.265414  0.975645  1
