# generated using pymatgen
data_Zr4TiAl5Pt2
_symmetry_space_group_name_H-M   'P 1'
_cell_length_a   5.38425500
_cell_length_b   5.39844990
_cell_length_c   8.41783600
_cell_angle_alpha   90.00000000
_cell_angle_beta   90.00000000
_cell_angle_gamma   119.91306302
_symmetry_Int_Tables_number   1
_chemical_formula_structural   Zr4TiAl5Pt2
_chemical_formula_sum   'Zr4 Ti1 Al5 Pt2'
_cell_volume   212.08286318
_cell_formula_units_Z   1
loop_
 _symmetry_equiv_pos_site_id
 _symmetry_equiv_pos_as_xyz
  1  'x, y, z'
loop_
 _atom_site_type_symbol
 _atom_site_label
 _atom_site_symmetry_multiplicity
 _atom_site_fract_x
 _atom_site_fract_y
 _atom_site_fract_z
 _atom_site_occupancy
  Zr  Zr0  1  0.667060  0.334119  0.065127  1
  Zr  Zr1  1  0.667060  0.334119  0.434874  1
  Zr  Zr2  1  0.328891  0.657782  0.571163  1
  Zr  Zr3  1  0.328891  0.657782  0.928837  1
  Ti  Ti4  1  0.832185  0.664369  0.750000  1
  Al  Al5  1  0.170810  0.341619  0.250000  1
  Al  Al6  1  0.168552  0.831376  0.250000  1
  Al  Al7  1  0.662825  0.831376  0.250000  1
  Al  Al8  1  0.341567  0.171667  0.750000  1
  Al  Al9  1  0.830101  0.171667  0.750000  1
  Pt  Pt10  1  0.001031  0.002062  0.003190  1
  Pt  Pt11  1  0.001031  0.002062  0.496811  1
