# generated using pymatgen
data_TbHo3U4(ReB6)4
_symmetry_space_group_name_H-M   'P 1'
_cell_length_a   3.63534200
_cell_length_b   9.29973632
_cell_length_c   11.41873961
_cell_angle_alpha   89.98827350
_cell_angle_beta   90.00000000
_cell_angle_gamma   90.00000000
_symmetry_Int_Tables_number   1
_chemical_formula_structural   TbHo3U4(ReB6)4
_chemical_formula_sum   'Tb1 Ho3 U4 Re4 B24'
_cell_volume   386.04156678
_cell_formula_units_Z   1
loop_
 _symmetry_equiv_pos_site_id
 _symmetry_equiv_pos_as_xyz
  1  'x, y, z'
loop_
 _atom_site_type_symbol
 _atom_site_label
 _atom_site_symmetry_multiplicity
 _atom_site_fract_x
 _atom_site_fract_y
 _atom_site_fract_z
 _atom_site_occupancy
  Tb  Tb0  1  0.000000  0.163298  0.907560  1
  Ho  Ho1  1  0.000000  0.336698  0.407746  1
  Ho  Ho2  1  0.000000  0.663248  0.592255  1
  Ho  Ho3  1  0.000000  0.836691  0.092444  1
  U  U4  1  0.000000  0.956326  0.396207  1
  U  U5  1  0.000000  0.043511  0.603542  1
  U  U6  1  0.000000  0.456756  0.103806  1
  U  U7  1  0.000000  0.543865  0.896444  1
  Re  Re8  1  0.000000  0.645412  0.318556  1
  Re  Re9  1  0.000000  0.354652  0.681401  1
  Re  Re10  1  0.000000  0.145632  0.181481  1
  Re  Re11  1  0.000000  0.853994  0.818443  1
  B  B12  1  0.500000  0.551516  0.431238  1
  B  B13  1  0.500000  0.448386  0.568943  1
  B  B14  1  0.500000  0.051550  0.069102  1
  B  B15  1  0.500000  0.947821  0.930892  1
  B  B16  1  0.500000  0.742762  0.423310  1
  B  B17  1  0.500000  0.257113  0.576661  1
  B  B18  1  0.500000  0.243143  0.077042  1
  B  B19  1  0.500000  0.757019  0.923266  1
  B  B20  1  0.500000  0.802029  0.275328  1
  B  B21  1  0.500000  0.198035  0.724504  1
  B  B22  1  0.500000  0.302153  0.224827  1
  B  B23  1  0.500000  0.697833  0.775197  1
  B  B24  1  0.500000  0.644330  0.188766  1
  B  B25  1  0.500000  0.356010  0.811256  1
  B  B26  1  0.500000  0.144342  0.311342  1
  B  B27  1  0.500000  0.855451  0.688433  1
  B  B28  1  0.500000  0.988919  0.219436  1
  B  B29  1  0.500000  0.010474  0.780173  1
  B  B30  1  0.500000  0.489006  0.280683  1
  B  B31  1  0.500000  0.511026  0.719534  1
  B  B32  1  0.500000  0.640451  0.039084  1
  B  B33  1  0.500000  0.360620  0.961294  1
  B  B34  1  0.500000  0.140438  0.460912  1
  B  B35  1  0.500000  0.859488  0.538892  1
