# generated using pymatgen
data_VInP4PbO14
_symmetry_space_group_name_H-M   'P 1'
_cell_length_a   4.94844323
_cell_length_b   7.30549081
_cell_length_c   8.22650651
_cell_angle_alpha   89.75247776
_cell_angle_beta   92.18871062
_cell_angle_gamma   106.44857165
_symmetry_Int_Tables_number   1
_chemical_formula_structural   VInP4PbO14
_chemical_formula_sum   'V1 In1 P4 Pb1 O14'
_cell_volume   285.00912208
_cell_formula_units_Z   1
loop_
 _symmetry_equiv_pos_site_id
 _symmetry_equiv_pos_as_xyz
  1  'x, y, z'
loop_
 _atom_site_type_symbol
 _atom_site_label
 _atom_site_symmetry_multiplicity
 _atom_site_fract_x
 _atom_site_fract_y
 _atom_site_fract_z
 _atom_site_occupancy
  V  V0  1  0.499999  0.500000  0.500000  1
  In  In1  1  0.000000  0.000000  0.000000  1
  P  P2  1  0.620048  0.231073  0.210473  1
  P  P3  1  0.028733  0.614069  0.258656  1
  P  P4  1  0.971266  0.385933  0.741343  1
  P  P5  1  0.379950  0.768927  0.789527  1
  Pb  Pb6  1  0.000001  0.999999  0.500001  1
  O  O7  1  0.396288  0.183899  0.075776  1
  O  O8  1  0.094597  0.789944  0.153802  1
  O  O9  1  0.811073  0.441992  0.160386  1
  O  O10  1  0.815329  0.098011  0.216919  1
  O  O11  1  0.292970  0.554607  0.303074  1
  O  O12  1  0.513052  0.243163  0.384147  1
  O  O13  1  0.874089  0.650937  0.411569  1
  O  O14  1  0.125911  0.349063  0.588432  1
  O  O15  1  0.486949  0.756837  0.615853  1
  O  O16  1  0.707031  0.445394  0.696927  1
  O  O17  1  0.184671  0.901989  0.783081  1
  O  O18  1  0.188927  0.558008  0.839615  1
  O  O19  1  0.905404  0.210056  0.846199  1
  O  O20  1  0.603711  0.816102  0.924224  1
