# generated using pymatgen
data_HoZr3(CuS4)2
_symmetry_space_group_name_H-M   'P 1'
_cell_length_a   7.55159081
_cell_length_b   7.55159089
_cell_length_c   7.55159206
_cell_angle_alpha   58.64851981
_cell_angle_beta   58.64851468
_cell_angle_gamma   58.64852000
_symmetry_Int_Tables_number   1
_chemical_formula_structural   HoZr3(CuS4)2
_chemical_formula_sum   'Ho1 Zr3 Cu2 S8'
_cell_volume   295.10279628
_cell_formula_units_Z   1
loop_
 _symmetry_equiv_pos_site_id
 _symmetry_equiv_pos_as_xyz
  1  'x, y, z'
loop_
 _atom_site_type_symbol
 _atom_site_label
 _atom_site_symmetry_multiplicity
 _atom_site_fract_x
 _atom_site_fract_y
 _atom_site_fract_z
 _atom_site_occupancy
  Ho  Ho0  1  0.500000  0.500000  0.500000  1
  Zr  Zr1  1  0.000000  0.500000  0.500000  1
  Zr  Zr2  1  0.500000  0.500000  0.000000  1
  Zr  Zr3  1  0.500000  0.000000  0.500000  1
  Cu  Cu4  1  0.125602  0.125602  0.125602  1
  Cu  Cu5  1  0.874398  0.874398  0.874398  1
  S  S6  1  0.748715  0.748715  0.748715  1
  S  S7  1  0.255529  0.754970  0.754970  1
  S  S8  1  0.754970  0.754970  0.255529  1
  S  S9  1  0.754970  0.255529  0.754970  1
  S  S10  1  0.251285  0.251285  0.251285  1
  S  S11  1  0.744471  0.245030  0.245030  1
  S  S12  1  0.245030  0.245030  0.744471  1
  S  S13  1  0.245030  0.744471  0.245030  1
