# generated using pymatgen
data_Cs2Mg2MnTe4
_symmetry_space_group_name_H-M   'P 1'
_cell_length_a   10.79503053
_cell_length_b   10.81440739
_cell_length_c   10.79503091
_cell_angle_alpha   143.71357022
_cell_angle_beta   105.45419207
_cell_angle_gamma   85.76480958
_symmetry_Int_Tables_number   1
_chemical_formula_structural   Cs2Mg2MnTe4
_chemical_formula_sum   'Cs4 Mg4 Mn2 Te8'
_cell_volume   696.57838618
_cell_formula_units_Z   2
loop_
 _symmetry_equiv_pos_site_id
 _symmetry_equiv_pos_as_xyz
  1  'x, y, z'
loop_
 _atom_site_type_symbol
 _atom_site_label
 _atom_site_symmetry_multiplicity
 _atom_site_fract_x
 _atom_site_fract_y
 _atom_site_fract_z
 _atom_site_occupancy
  Cs  Cs0  1  0.123427  0.236054  0.359168  1
  Cs  Cs1  1  0.375449  0.734593  0.112715  1
  Cs  Cs2  1  0.623114  0.263946  0.887373  1
  Cs  Cs3  1  0.878122  0.765407  0.640856  1
  Mg  Mg4  1  0.513976  0.750000  0.763976  1
  Mg  Mg5  1  0.986891  0.750000  0.236891  1
  Mg  Mg6  1  0.483242  0.250000  0.233242  1
  Mg  Mg7  1  0.750530  0.250000  0.500530  1
  Mn  Mn8  1  0.249401  0.750000  0.499401  1
  Mn  Mn9  1  0.013186  0.250000  0.763186  1
  Te  Te10  1  0.220842  0.082206  0.604792  1
  Te  Te11  1  0.275414  0.873622  0.852212  1
  Te  Te12  1  0.022586  0.417794  0.138637  1
  Te  Te13  1  0.478591  0.626378  0.401791  1
  Te  Te14  1  0.780695  0.924174  0.411057  1
  Te  Te15  1  0.722525  0.126108  0.141236  1
  Te  Te16  1  0.986882  0.575826  0.856520  1
  Te  Te17  1  0.515128  0.373892  0.596417  1
