# generated using pymatgen
data_Er16MgAg3Rh4
_symmetry_space_group_name_H-M   'P 1'
_cell_length_a   9.47333491
_cell_length_b   9.49743823
_cell_length_c   9.49743900
_cell_angle_alpha   60.00000079
_cell_angle_beta   59.91579918
_cell_angle_gamma   59.91580292
_symmetry_Int_Tables_number   1
_chemical_formula_structural   Er16MgAg3Rh4
_chemical_formula_sum   'Er16 Mg1 Ag3 Rh4'
_cell_volume   603.45793191
_cell_formula_units_Z   1
loop_
 _symmetry_equiv_pos_site_id
 _symmetry_equiv_pos_as_xyz
  1  'x, y, z'
loop_
 _atom_site_type_symbol
 _atom_site_label
 _atom_site_symmetry_multiplicity
 _atom_site_fract_x
 _atom_site_fract_y
 _atom_site_fract_z
 _atom_site_occupancy
  Er  Er0  1  0.351693  0.350341  0.350341  1
  Er  Er1  1  0.351693  0.350341  0.947625  1
  Er  Er2  1  0.351693  0.947625  0.350341  1
  Er  Er3  1  0.940753  0.353082  0.353082  1
  Er  Er4  1  0.811018  0.188544  0.188544  1
  Er  Er5  1  0.186424  0.812941  0.812941  1
  Er  Er6  1  0.186424  0.812941  0.187693  1
  Er  Er7  1  0.811018  0.188544  0.811894  1
  Er  Er8  1  0.186424  0.187693  0.812941  1
  Er  Er9  1  0.811018  0.811894  0.188544  1
  Er  Er10  1  0.931789  0.565182  0.565182  1
  Er  Er11  1  0.563994  0.935187  0.935187  1
  Er  Er12  1  0.563994  0.935187  0.565632  1
  Er  Er13  1  0.931789  0.565182  0.937847  1
  Er  Er14  1  0.563994  0.565632  0.935187  1
  Er  Er15  1  0.931789  0.937847  0.565182  1
  Mg  Mg16  1  0.279339  0.573553  0.573553  1
  Ag  Ag17  1  0.582064  0.582536  0.582536  1
  Ag  Ag18  1  0.582064  0.582536  0.252863  1
  Ag  Ag19  1  0.582064  0.252863  0.582536  1
  Rh  Rh20  1  0.142575  0.142913  0.142913  1
  Rh  Rh21  1  0.142575  0.142913  0.571597  1
  Rh  Rh22  1  0.142575  0.571597  0.142913  1
  Rh  Rh23  1  0.571237  0.142921  0.142921  1
