# generated using pymatgen
data_YTh2Al2GaPd3
_symmetry_space_group_name_H-M   'P 1'
_cell_length_a   7.28430216
_cell_length_b   7.28799585
_cell_length_c   4.14004000
_cell_angle_alpha   90.00000000
_cell_angle_beta   90.00000000
_cell_angle_gamma   120.01677514
_symmetry_Int_Tables_number   1
_chemical_formula_structural   YTh2Al2GaPd3
_chemical_formula_sum   'Y1 Th2 Al2 Ga1 Pd3'
_cell_volume   190.30833124
_cell_formula_units_Z   1
loop_
 _symmetry_equiv_pos_site_id
 _symmetry_equiv_pos_as_xyz
  1  'x, y, z'
loop_
 _atom_site_type_symbol
 _atom_site_label
 _atom_site_symmetry_multiplicity
 _atom_site_fract_x
 _atom_site_fract_y
 _atom_site_fract_z
 _atom_site_occupancy
  Y  Y0  1  0.000000  0.581010  0.500000  1
  Th  Th1  1  0.415357  0.418001  0.500000  1
  Th  Th2  1  0.584643  0.002644  0.500000  1
  Al  Al3  1  0.771893  0.764186  0.000000  1
  Al  Al4  1  0.228107  0.992294  0.000000  1
  Ga  Ga5  1  0.000000  0.243966  0.000000  1
  Pd  Pd6  1  0.658268  0.331246  0.000000  1
  Pd  Pd7  1  0.000000  0.993674  0.500000  1
  Pd  Pd8  1  0.341732  0.672979  0.000000  1
