# generated using pymatgen
data_Nb4Te4P
_symmetry_space_group_name_H-M   'P 1'
_cell_length_a   4.88852000
_cell_length_b   10.86221700
_cell_length_c   18.85208100
_cell_angle_alpha   90.00000000
_cell_angle_beta   90.00000000
_cell_angle_gamma   90.00000000
_symmetry_Int_Tables_number   1
_chemical_formula_structural   Nb4Te4P
_chemical_formula_sum   'Nb16 Te16 P4'
_cell_volume   1001.04861261
_cell_formula_units_Z   4
loop_
 _symmetry_equiv_pos_site_id
 _symmetry_equiv_pos_as_xyz
  1  'x, y, z'
loop_
 _atom_site_type_symbol
 _atom_site_label
 _atom_site_symmetry_multiplicity
 _atom_site_fract_x
 _atom_site_fract_y
 _atom_site_fract_z
 _atom_site_occupancy
  Nb  Nb0  1  0.500000  0.562640  0.385916  1
  Nb  Nb1  1  0.500000  0.437360  0.614084  1
  Nb  Nb2  1  0.500000  0.062640  0.114084  1
  Nb  Nb3  1  0.500000  0.937360  0.885916  1
  Nb  Nb4  1  0.500000  0.699213  0.535323  1
  Nb  Nb5  1  0.500000  0.300787  0.464677  1
  Nb  Nb6  1  0.500000  0.199213  0.964677  1
  Nb  Nb7  1  0.500000  0.800787  0.035323  1
  Nb  Nb8  1  0.000000  0.684689  0.444348  1
  Nb  Nb9  1  0.000000  0.315311  0.555652  1
  Nb  Nb10  1  0.000000  0.184689  0.055652  1
  Nb  Nb11  1  0.000000  0.815311  0.944348  1
  Nb  Nb12  1  0.000000  0.403117  0.394116  1
  Nb  Nb13  1  0.000000  0.596883  0.605884  1
  Nb  Nb14  1  0.000000  0.903117  0.105884  1
  Nb  Nb15  1  0.000000  0.096883  0.894116  1
  Te  Te16  1  0.000000  0.849027  0.562592  1
  Te  Te17  1  0.000000  0.150973  0.437408  1
  Te  Te18  1  0.000000  0.349027  0.937408  1
  Te  Te19  1  0.000000  0.650973  0.062592  1
  Te  Te20  1  0.500000  0.330901  0.314524  1
  Te  Te21  1  0.500000  0.669099  0.685476  1
  Te  Te22  1  0.500000  0.830901  0.185476  1
  Te  Te23  1  0.500000  0.169099  0.814524  1
  Te  Te24  1  0.500000  0.824584  0.402274  1
  Te  Te25  1  0.500000  0.175416  0.597726  1
  Te  Te26  1  0.500000  0.324584  0.097726  1
  Te  Te27  1  0.500000  0.675416  0.902274  1
  Te  Te28  1  0.000000  0.608534  0.299674  1
  Te  Te29  1  0.000000  0.391466  0.700326  1
  Te  Te30  1  0.000000  0.108534  0.200326  1
  Te  Te31  1  0.000000  0.891466  0.799674  1
  P  P32  1  0.249982  0.500000  0.500000  1
  P  P33  1  0.750018  0.000000  0.000000  1
  P  P34  1  0.750018  0.500000  0.500000  1
  P  P35  1  0.249982  0.000000  0.000000  1
