# generated using pymatgen
data_YHo5Al24Ru7Au
_symmetry_space_group_name_H-M   'P 1'
_cell_length_a   8.83406166
_cell_length_b   8.83384152
_cell_length_c   9.54716307
_cell_angle_alpha   89.85040608
_cell_angle_beta   90.13827151
_cell_angle_gamma   119.88525940
_symmetry_Int_Tables_number   1
_chemical_formula_structural   YHo5Al24Ru7Au
_chemical_formula_sum   'Y1 Ho5 Al24 Ru7 Au1'
_cell_volume   645.97265851
_cell_formula_units_Z   1
loop_
 _symmetry_equiv_pos_site_id
 _symmetry_equiv_pos_as_xyz
  1  'x, y, z'
loop_
 _atom_site_type_symbol
 _atom_site_label
 _atom_site_symmetry_multiplicity
 _atom_site_fract_x
 _atom_site_fract_y
 _atom_site_fract_z
 _atom_site_occupancy
  Y  Y0  1  0.192438  0.386181  0.249642  1
  Ho  Ho1  1  0.807462  0.613392  0.750262  1
  Ho  Ho2  1  0.613690  0.807738  0.249774  1
  Ho  Ho3  1  0.386575  0.192512  0.750219  1
  Ho  Ho4  1  0.194530  0.805741  0.253356  1
  Ho  Ho5  1  0.805487  0.194548  0.746665  1
  Al  Al6  1  0.328295  0.672071  0.022783  1
  Al  Al7  1  0.671798  0.328204  0.976925  1
  Al  Al8  1  0.666651  0.333377  0.517276  1
  Al  Al9  1  0.333478  0.666881  0.482980  1
  Al  Al10  1  0.162351  0.324044  0.578387  1
  Al  Al11  1  0.837658  0.675928  0.421868  1
  Al  Al12  1  0.675956  0.837620  0.578184  1
  Al  Al13  1  0.849096  0.678244  0.080153  1
  Al  Al14  1  0.324156  0.162198  0.421985  1
  Al  Al15  1  0.150871  0.321702  0.919592  1
  Al  Al16  1  0.162540  0.837393  0.578966  1
  Al  Al17  1  0.321803  0.150766  0.080049  1
  Al  Al18  1  0.837202  0.162448  0.421182  1
  Al  Al19  1  0.678273  0.849078  0.919795  1
  Al  Al20  1  0.837231  0.162409  0.077948  1
  Al  Al21  1  0.162506  0.837427  0.921880  1
  Al  Al22  1  0.560590  0.120843  0.248396  1
  Al  Al23  1  0.439379  0.879085  0.751605  1
  Al  Al24  1  0.878868  0.439481  0.248397  1
  Al  Al25  1  0.120899  0.560607  0.751594  1
  Al  Al26  1  0.563916  0.436492  0.255654  1
  Al  Al27  1  0.436385  0.563577  0.744366  1
  Al  Al28  1  0.999123  0.999971  0.250070  1
  Al  Al29  1  0.000569  0.999377  0.749914  1
  Ru  Ru30  1  0.500041  0.000059  0.999975  1
  Ru  Ru31  1  0.999899  0.500089  0.999814  1
  Ru  Ru32  1  0.500044  0.000077  0.500035  1
  Ru  Ru33  1  0.999866  0.500096  0.500214  1
  Ru  Ru34  1  0.500199  0.500093  0.500172  1
  Ru  Ru35  1  0.000042  0.000079  0.000079  1
  Ru  Ru36  1  0.000042  0.000124  0.499895  1
  Au  Au37  1  0.500092  0.500049  0.999952  1
