# generated using pymatgen
data_TbDySbRhO7
_symmetry_space_group_name_H-M   'P 1'
_cell_length_a   7.31982756
_cell_length_b   7.28965194
_cell_length_c   7.31982823
_cell_angle_alpha   60.13627990
_cell_angle_beta   60.75451457
_cell_angle_gamma   60.13628033
_symmetry_Int_Tables_number   1
_chemical_formula_structural   TbDySbRhO7
_chemical_formula_sum   'Tb2 Dy2 Sb2 Rh2 O14'
_cell_volume   278.29843439
_cell_formula_units_Z   2
loop_
 _symmetry_equiv_pos_site_id
 _symmetry_equiv_pos_as_xyz
  1  'x, y, z'
loop_
 _atom_site_type_symbol
 _atom_site_label
 _atom_site_symmetry_multiplicity
 _atom_site_fract_x
 _atom_site_fract_y
 _atom_site_fract_z
 _atom_site_occupancy
  Tb  Tb0  1  0.125000  0.125000  0.625000  1
  Tb  Tb1  1  0.625000  0.125000  0.125000  1
  Dy  Dy2  1  0.125000  0.625000  0.125000  1
  Dy  Dy3  1  0.125000  0.125000  0.125000  1
  Sb  Sb4  1  0.125000  0.625000  0.625000  1
  Sb  Sb5  1  0.625000  0.625000  0.125000  1
  Rh  Rh6  1  0.625000  0.625000  0.625000  1
  Rh  Rh7  1  0.625000  0.125000  0.625000  1
  O  O8  1  0.283869  0.705959  0.718545  1
  O  O9  1  0.531455  0.958372  0.966131  1
  O  O10  1  0.723908  0.276092  0.723908  1
  O  O11  1  0.283869  0.291628  0.718545  1
  O  O12  1  0.718545  0.705959  0.283869  1
  O  O13  1  0.004396  0.995604  0.004396  1
  O  O14  1  0.295675  0.704325  0.295675  1
  O  O15  1  0.954325  0.545675  0.954325  1
  O  O16  1  0.966131  0.958372  0.531455  1
  O  O17  1  0.531455  0.544041  0.966131  1
  O  O18  1  0.245604  0.254396  0.245604  1
  O  O19  1  0.526092  0.973908  0.526092  1
  O  O20  1  0.718545  0.291628  0.283869  1
  O  O21  1  0.966131  0.544041  0.531455  1
