# generated using pymatgen
data_Ta6V4Ge6C
_symmetry_space_group_name_H-M   'P 1'
_cell_length_a   7.56751300
_cell_length_b   7.56751368
_cell_length_c   5.06240500
_cell_angle_alpha   90.00000000
_cell_angle_beta   90.00000000
_cell_angle_gamma   120.00000139
_symmetry_Int_Tables_number   1
_chemical_formula_structural   Ta6V4Ge6C
_chemical_formula_sum   'Ta6 V4 Ge6 C1'
_cell_volume   251.06946811
_cell_formula_units_Z   1
loop_
 _symmetry_equiv_pos_site_id
 _symmetry_equiv_pos_as_xyz
  1  'x, y, z'
loop_
 _atom_site_type_symbol
 _atom_site_label
 _atom_site_symmetry_multiplicity
 _atom_site_fract_x
 _atom_site_fract_y
 _atom_site_fract_z
 _atom_site_occupancy
  Ta  Ta0  1  0.000000  0.762762  0.248757  1
  Ta  Ta1  1  0.237238  0.237238  0.248757  1
  Ta  Ta2  1  0.762762  0.000000  0.248757  1
  Ta  Ta3  1  0.000000  0.237238  0.751243  1
  Ta  Ta4  1  0.762762  0.762762  0.751243  1
  Ta  Ta5  1  0.237238  0.000000  0.751243  1
  V  V6  1  0.333333  0.666667  0.500000  1
  V  V7  1  0.666667  0.333333  0.500000  1
  V  V8  1  0.666667  0.333333  0.000000  1
  V  V9  1  0.333333  0.666667  0.000000  1
  Ge  Ge10  1  0.000000  0.405786  0.247680  1
  Ge  Ge11  1  0.594214  0.594214  0.247680  1
  Ge  Ge12  1  0.405786  0.000000  0.247680  1
  Ge  Ge13  1  0.000000  0.594214  0.752320  1
  Ge  Ge14  1  0.405786  0.405786  0.752320  1
  Ge  Ge15  1  0.594214  0.000000  0.752320  1
  C  C16  1  0.000000  0.000000  0.500000  1
