# generated using pymatgen
data_Y16Cd4IrPd3
_symmetry_space_group_name_H-M   'P 1'
_cell_length_a   9.74613328
_cell_length_b   9.73057132
_cell_length_c   9.73057100
_cell_angle_alpha   59.99999769
_cell_angle_beta   60.05280312
_cell_angle_gamma   60.05280558
_symmetry_Int_Tables_number   1
_chemical_formula_structural   Y16Cd4IrPd3
_chemical_formula_sum   'Y16 Cd4 Ir1 Pd3'
_cell_volume   653.04058547
_cell_formula_units_Z   1
loop_
 _symmetry_equiv_pos_site_id
 _symmetry_equiv_pos_as_xyz
  1  'x, y, z'
loop_
 _atom_site_type_symbol
 _atom_site_label
 _atom_site_symmetry_multiplicity
 _atom_site_fract_x
 _atom_site_fract_y
 _atom_site_fract_z
 _atom_site_occupancy
  Y  Y0  1  0.356130  0.349656  0.349656  1
  Y  Y1  1  0.356130  0.349656  0.944558  1
  Y  Y2  1  0.356130  0.944558  0.349656  1
  Y  Y3  1  0.937158  0.354281  0.354281  1
  Y  Y4  1  0.807751  0.188124  0.188124  1
  Y  Y5  1  0.189556  0.810807  0.810807  1
  Y  Y6  1  0.189556  0.810807  0.188830  1
  Y  Y7  1  0.807751  0.188124  0.816000  1
  Y  Y8  1  0.189556  0.188830  0.810807  1
  Y  Y9  1  0.807751  0.816000  0.188124  1
  Y  Y10  1  0.933740  0.566255  0.566255  1
  Y  Y11  1  0.567396  0.934741  0.934741  1
  Y  Y12  1  0.567396  0.934741  0.563122  1
  Y  Y13  1  0.933740  0.566255  0.933750  1
  Y  Y14  1  0.567396  0.563122  0.934741  1
  Y  Y15  1  0.933740  0.933750  0.566255  1
  Cd  Cd16  1  0.581659  0.581926  0.581926  1
  Cd  Cd17  1  0.581659  0.581926  0.254490  1
  Cd  Cd18  1  0.581659  0.254490  0.581926  1
  Cd  Cd19  1  0.255591  0.581470  0.581470  1
  Ir  Ir20  1  0.570746  0.143085  0.143085  1
  Pd  Pd21  1  0.142604  0.144463  0.144463  1
  Pd  Pd22  1  0.142604  0.144463  0.568470  1
  Pd  Pd23  1  0.142604  0.568470  0.144463  1
