# generated using pymatgen
data_Sr2NdSm(NiP)4
_symmetry_space_group_name_H-M   'P 1'
_cell_length_a   3.94685800
_cell_length_b   3.94685911
_cell_length_c   17.00297700
_cell_angle_alpha   90.00000000
_cell_angle_beta   90.00000000
_cell_angle_gamma   120.00000744
_symmetry_Int_Tables_number   1
_chemical_formula_structural   Sr2NdSm(NiP)4
_chemical_formula_sum   'Sr2 Nd1 Sm1 Ni4 P4'
_cell_volume   229.38166042
_cell_formula_units_Z   1
loop_
 _symmetry_equiv_pos_site_id
 _symmetry_equiv_pos_as_xyz
  1  'x, y, z'
loop_
 _atom_site_type_symbol
 _atom_site_label
 _atom_site_symmetry_multiplicity
 _atom_site_fract_x
 _atom_site_fract_y
 _atom_site_fract_z
 _atom_site_occupancy
  Sr  Sr0  1  0.000000  0.000000  0.247638  1
  Sr  Sr1  1  0.000000  0.000000  0.752362  1
  Nd  Nd2  1  0.000000  0.000000  0.500000  1
  Sm  Sm3  1  0.000000  0.000000  0.000000  1
  Ni  Ni4  1  0.333333  0.666667  0.380498  1
  Ni  Ni5  1  0.666667  0.333333  0.619502  1
  Ni  Ni6  1  0.666667  0.333333  0.884336  1
  Ni  Ni7  1  0.333333  0.666667  0.115664  1
  P  P8  1  0.333333  0.666667  0.884238  1
  P  P9  1  0.666667  0.333333  0.115762  1
  P  P10  1  0.666667  0.333333  0.380021  1
  P  P11  1  0.333333  0.666667  0.619979  1
