# generated using pymatgen
data_Y2Er13Th(CdNi)4
_symmetry_space_group_name_H-M   'P 1'
_cell_length_a   9.50681448
_cell_length_b   9.50681327
_cell_length_c   9.49935154
_cell_angle_alpha   60.13114452
_cell_angle_beta   60.13114194
_cell_angle_gamma   60.12961775
_symmetry_Int_Tables_number   1
_chemical_formula_structural   Y2Er13Th(CdNi)4
_chemical_formula_sum   'Y2 Er13 Th1 Cd4 Ni4'
_cell_volume   608.88080593
_cell_formula_units_Z   1
loop_
 _symmetry_equiv_pos_site_id
 _symmetry_equiv_pos_as_xyz
  1  'x, y, z'
loop_
 _atom_site_type_symbol
 _atom_site_label
 _atom_site_symmetry_multiplicity
 _atom_site_fract_x
 _atom_site_fract_y
 _atom_site_fract_z
 _atom_site_occupancy
  Y  Y0  1  0.815873  0.815873  0.185808  1
  Y  Y1  1  0.186124  0.186124  0.813757  1
  Er  Er2  1  0.598698  0.598698  0.199998  1
  Er  Er3  1  0.599621  0.199981  0.598867  1
  Er  Er4  1  0.199981  0.599621  0.598867  1
  Er  Er5  1  0.063725  0.438503  0.438358  1
  Er  Er6  1  0.438999  0.063464  0.063184  1
  Er  Er7  1  0.438503  0.063725  0.438358  1
  Er  Er8  1  0.063464  0.438999  0.063184  1
  Er  Er9  1  0.438410  0.438410  0.063582  1
  Er  Er10  1  0.063182  0.063182  0.439099  1
  Er  Er11  1  0.187448  0.814633  0.814463  1
  Er  Er12  1  0.812369  0.187793  0.187579  1
  Er  Er13  1  0.814633  0.187448  0.814463  1
  Er  Er14  1  0.187793  0.812369  0.187579  1
  Th  Th15  1  0.593832  0.593832  0.594726  1
  Cd  Cd16  1  0.831170  0.831170  0.830320  1
  Cd  Cd17  1  0.832269  0.832269  0.505331  1
  Cd  Cd18  1  0.831517  0.504953  0.832377  1
  Cd  Cd19  1  0.504953  0.831517  0.832377  1
  Ni  Ni20  1  0.393281  0.393281  0.392799  1
  Ni  Ni21  1  0.391265  0.391265  0.822378  1
  Ni  Ni22  1  0.390465  0.822424  0.391272  1
  Ni  Ni23  1  0.822424  0.390465  0.391272  1
