# generated using pymatgen
data_Yb3YRe3B16W
_symmetry_space_group_name_H-M   'P 1'
_cell_length_a   3.56309200
_cell_length_b   6.01397423
_cell_length_c   11.63084230
_cell_angle_alpha   90.00287486
_cell_angle_beta   90.00000000
_cell_angle_gamma   90.00000000
_symmetry_Int_Tables_number   1
_chemical_formula_structural   Yb3YRe3B16W
_chemical_formula_sum   'Yb3 Y1 Re3 B16 W1'
_cell_volume   249.22968313
_cell_formula_units_Z   1
loop_
 _symmetry_equiv_pos_site_id
 _symmetry_equiv_pos_as_xyz
  1  'x, y, z'
loop_
 _atom_site_type_symbol
 _atom_site_label
 _atom_site_symmetry_multiplicity
 _atom_site_fract_x
 _atom_site_fract_y
 _atom_site_fract_z
 _atom_site_occupancy
  Yb  Yb0  1  0.000000  0.128136  0.149461  1
  Yb  Yb1  1  0.000000  0.872558  0.850291  1
  Yb  Yb2  1  0.000000  0.627274  0.349076  1
  Y  Y3  1  0.000000  0.373423  0.650198  1
  Re  Re4  1  0.000000  0.871804  0.585868  1
  Re  Re5  1  0.000000  0.631545  0.082522  1
  Re  Re6  1  0.000000  0.370700  0.916713  1
  B  B7  1  0.500000  0.476994  0.192066  1
  B  B8  1  0.500000  0.525196  0.807634  1
  B  B9  1  0.500000  0.974132  0.305836  1
  B  B10  1  0.500000  0.023215  0.693910  1
  B  B11  1  0.500000  0.287414  0.312558  1
  B  B12  1  0.500000  0.715497  0.685554  1
  B  B13  1  0.500000  0.783851  0.184264  1
  B  B14  1  0.500000  0.213758  0.815768  1
  B  B15  1  0.500000  0.367262  0.468355  1
  B  B16  1  0.500000  0.635207  0.532593  1
  B  B17  1  0.500000  0.865424  0.031925  1
  B  B18  1  0.500000  0.133984  0.968483  1
  B  B19  1  0.500000  0.384553  0.047408  1
  B  B20  1  0.500000  0.614632  0.951681  1
  B  B21  1  0.500000  0.881770  0.453520  1
  B  B22  1  0.500000  0.111405  0.549201  1
  W  W23  1  0.000000  0.130265  0.415116  1
