# generated using pymatgen
data_TaTi3B4
_symmetry_space_group_name_H-M   'P 1'
_cell_length_a   3.06784100
_cell_length_b   4.60179444
_cell_length_c   6.13377727
_cell_angle_alpha   90.02895554
_cell_angle_beta   90.00000000
_cell_angle_gamma   90.00000000
_symmetry_Int_Tables_number   1
_chemical_formula_structural   TaTi3B4
_chemical_formula_sum   'Ta1 Ti3 B4'
_cell_volume   86.59404134
_cell_formula_units_Z   1
loop_
 _symmetry_equiv_pos_site_id
 _symmetry_equiv_pos_as_xyz
  1  'x, y, z'
loop_
 _atom_site_type_symbol
 _atom_site_label
 _atom_site_symmetry_multiplicity
 _atom_site_fract_x
 _atom_site_fract_y
 _atom_site_fract_z
 _atom_site_occupancy
  Ta  Ta0  1  0.500000  0.621073  0.676983  1
  Ti  Ti1  1  0.500000  0.876439  0.177231  1
  Ti  Ti2  1  0.000000  0.376753  0.320913  1
  Ti  Ti3  1  0.000000  0.121139  0.824020  1
  B  B4  1  0.500000  0.102619  0.528789  1
  B  B5  1  0.500000  0.398769  0.031017  1
  B  B6  1  0.000000  0.903981  0.468113  1
  B  B7  1  0.000000  0.599227  0.972933  1
