# generated using pymatgen
data_TmLuSc3Ga4
_symmetry_space_group_name_H-M   'P 1'
_cell_length_a   7.20693704
_cell_length_b   7.51532503
_cell_length_c   14.39047502
_cell_angle_alpha   89.99908046
_cell_angle_beta   89.99408427
_cell_angle_gamma   89.99005247
_symmetry_Int_Tables_number   1
_chemical_formula_structural   TmLuSc3Ga4
_chemical_formula_sum   'Tm4 Lu4 Sc12 Ga16'
_cell_volume   779.42371729
_cell_formula_units_Z   4
loop_
 _symmetry_equiv_pos_site_id
 _symmetry_equiv_pos_as_xyz
  1  'x, y, z'
loop_
 _atom_site_type_symbol
 _atom_site_label
 _atom_site_symmetry_multiplicity
 _atom_site_fract_x
 _atom_site_fract_y
 _atom_site_fract_z
 _atom_site_occupancy
  Tm  Tm0  1  0.510516  0.320661  0.094629  1
  Tm  Tm1  1  0.010544  0.179344  0.405420  1
  Tm  Tm2  1  0.510508  0.320636  0.405295  1
  Tm  Tm3  1  0.489502  0.679459  0.594688  1
  Lu  Lu4  1  0.010529  0.179483  0.094705  1
  Lu  Lu5  1  0.989474  0.820420  0.905320  1
  Lu  Lu6  1  0.489507  0.679592  0.905198  1
  Lu  Lu7  1  0.989481  0.820406  0.594748  1
  Sc  Sc8  1  0.162710  0.504152  0.750068  1
  Sc  Sc9  1  0.837305  0.496135  0.249934  1
  Sc  Sc10  1  0.337057  0.003894  0.249923  1
  Sc  Sc11  1  0.662975  0.995826  0.750071  1
  Sc  Sc12  1  0.330030  0.173939  0.624512  1
  Sc  Sc13  1  0.669893  0.825958  0.375551  1
  Sc  Sc14  1  0.169776  0.673984  0.375569  1
  Sc  Sc15  1  0.669918  0.826004  0.124366  1
  Sc  Sc16  1  0.830165  0.326043  0.624529  1
  Sc  Sc17  1  0.330013  0.173968  0.875536  1
  Sc  Sc18  1  0.830135  0.326096  0.875561  1
  Sc  Sc19  1  0.169779  0.674004  0.124376  1
  Ga  Ga20  1  0.031046  0.115702  0.750036  1
  Ga  Ga21  1  0.968953  0.884169  0.249949  1
  Ga  Ga22  1  0.468934  0.615899  0.249973  1
  Ga  Ga23  1  0.531068  0.384211  0.750042  1
  Ga  Ga24  1  0.283457  0.869659  0.750103  1
  Ga  Ga25  1  0.716536  0.130207  0.249911  1
  Ga  Ga26  1  0.216279  0.369729  0.249898  1
  Ga  Ga27  1  0.783724  0.630422  0.750091  1
  Ga  Ga28  1  0.162215  0.465735  0.540388  1
  Ga  Ga29  1  0.837715  0.534611  0.459735  1
  Ga  Ga30  1  0.337590  0.965543  0.459705  1
  Ga  Ga31  1  0.837734  0.534386  0.040298  1
  Ga  Ga32  1  0.662562  0.034344  0.540395  1
  Ga  Ga33  1  0.162431  0.465741  0.959597  1
  Ga  Ga34  1  0.662565  0.034108  0.959562  1
  Ga  Ga35  1  0.337377  0.965530  0.040313  1
