# generated using pymatgen
data_Pm4Ge3Br
_symmetry_space_group_name_H-M   'P 1'
_cell_length_a   6.01339146
_cell_length_b   6.01325140
_cell_length_c   7.40032106
_cell_angle_alpha   65.74999300
_cell_angle_beta   65.76161561
_cell_angle_gamma   89.83986577
_symmetry_Int_Tables_number   1
_chemical_formula_structural   Pm4Ge3Br
_chemical_formula_sum   'Pm4 Ge3 Br1'
_cell_volume   218.00548621
_cell_formula_units_Z   1
loop_
 _symmetry_equiv_pos_site_id
 _symmetry_equiv_pos_as_xyz
  1  'x, y, z'
loop_
 _atom_site_type_symbol
 _atom_site_label
 _atom_site_symmetry_multiplicity
 _atom_site_fract_x
 _atom_site_fract_y
 _atom_site_fract_z
 _atom_site_occupancy
  Pm  Pm0  1  0.686478  0.882588  0.182767  1
  Pm  Pm1  1  0.428203  0.128112  0.692607  1
  Pm  Pm2  1  0.185296  0.382416  0.182718  1
  Pm  Pm3  1  0.939702  0.638236  0.672370  1
  Ge  Ge4  1  0.932459  0.133294  0.682690  1
  Ge  Ge5  1  0.434283  0.633151  0.682797  1
  Ge  Ge6  1  0.187109  0.882394  0.182508  1
  Br  Br7  1  0.685425  0.382790  0.182481  1
