# generated using pymatgen
data_RbPuF6
_symmetry_space_group_name_H-M   'P 1'
_cell_length_a   5.43014211
_cell_length_b   5.43014245
_cell_length_c   5.43014272
_cell_angle_alpha   96.04560703
_cell_angle_beta   96.04561815
_cell_angle_gamma   96.04562454
_symmetry_Int_Tables_number   1
_chemical_formula_structural   RbPuF6
_chemical_formula_sum   'Rb1 Pu1 F6'
_cell_volume   157.23861588
_cell_formula_units_Z   1
loop_
 _symmetry_equiv_pos_site_id
 _symmetry_equiv_pos_as_xyz
  1  'x, y, z'
loop_
 _atom_site_type_symbol
 _atom_site_label
 _atom_site_symmetry_multiplicity
 _atom_site_fract_x
 _atom_site_fract_y
 _atom_site_fract_z
 _atom_site_occupancy
  Rb  Rb0  1  0.500000  0.500000  0.500000  1
  Pu  Pu1  1  0.000000  0.000000  0.000000  1
  F  F2  1  0.306853  0.221297  0.913339  1
  F  F3  1  0.913339  0.306853  0.221297  1
  F  F4  1  0.778703  0.086661  0.693147  1
  F  F5  1  0.086661  0.693147  0.778703  1
  F  F6  1  0.693147  0.778703  0.086661  1
  F  F7  1  0.221297  0.913339  0.306853  1
