# generated using pymatgen
data_Er4Zr3ScIr4
_symmetry_space_group_name_H-M   'P 1'
_cell_length_a   4.52993600
_cell_length_b   7.04874360
_cell_length_c   8.31854305
_cell_angle_alpha   90.66773836
_cell_angle_beta   90.00000000
_cell_angle_gamma   90.00000000
_symmetry_Int_Tables_number   1
_chemical_formula_structural   Er4Zr3ScIr4
_chemical_formula_sum   'Er4 Zr3 Sc1 Ir4'
_cell_volume   265.59601506
_cell_formula_units_Z   1
loop_
 _symmetry_equiv_pos_site_id
 _symmetry_equiv_pos_as_xyz
  1  'x, y, z'
loop_
 _atom_site_type_symbol
 _atom_site_label
 _atom_site_symmetry_multiplicity
 _atom_site_fract_x
 _atom_site_fract_y
 _atom_site_fract_z
 _atom_site_occupancy
  Er  Er0  1  0.250000  0.985743  0.324168  1
  Er  Er1  1  0.250000  0.481958  0.172709  1
  Er  Er2  1  0.750000  0.018829  0.677845  1
  Er  Er3  1  0.750000  0.512264  0.824892  1
  Zr  Zr4  1  0.250000  0.359985  0.574242  1
  Zr  Zr5  1  0.250000  0.854879  0.928697  1
  Zr  Zr6  1  0.750000  0.647036  0.424318  1
  Sc  Sc7  1  0.750000  0.141909  0.074907  1
  Ir  Ir8  1  0.250000  0.234269  0.899451  1
  Ir  Ir9  1  0.250000  0.738301  0.593179  1
  Ir  Ir10  1  0.750000  0.758447  0.095571  1
  Ir  Ir11  1  0.750000  0.266381  0.410020  1
