# generated using pymatgen
data_Be2Si3Ni3W4
_symmetry_space_group_name_H-M   'P 1'
_cell_length_a   4.65598963
_cell_length_b   4.62275780
_cell_length_c   7.70540300
_cell_angle_alpha   90.00000000
_cell_angle_beta   90.00000000
_cell_angle_gamma   119.83827045
_symmetry_Int_Tables_number   1
_chemical_formula_structural   Be2Si3Ni3W4
_chemical_formula_sum   'Be2 Si3 Ni3 W4'
_cell_volume   143.86150402
_cell_formula_units_Z   1
loop_
 _symmetry_equiv_pos_site_id
 _symmetry_equiv_pos_as_xyz
  1  'x, y, z'
loop_
 _atom_site_type_symbol
 _atom_site_label
 _atom_site_symmetry_multiplicity
 _atom_site_fract_x
 _atom_site_fract_y
 _atom_site_fract_z
 _atom_site_occupancy
  Be  Be0  1  0.818897  0.180549  0.000000  1
  Be  Be1  1  0.352775  0.181185  0.000000  1
  Si  Si2  1  0.991724  0.008639  0.241015  1
  Si  Si3  1  0.991724  0.008639  0.758985  1
  Si  Si4  1  0.179224  0.812861  0.500000  1
  Ni  Ni5  1  0.674123  0.821213  0.500000  1
  Ni  Ni6  1  0.173432  0.322789  0.500000  1
  Ni  Ni7  1  0.833160  0.671567  0.000000  1
  W  W8  1  0.331872  0.671277  0.816871  1
  W  W9  1  0.660610  0.324990  0.695783  1
  W  W10  1  0.660610  0.324990  0.304217  1
  W  W11  1  0.331872  0.671277  0.183129  1
