# generated using pymatgen
data_Cs4Ta4Te11Se
_symmetry_space_group_name_H-M   'P 1'
_cell_length_a   6.40033707
_cell_length_b   8.30421543
_cell_length_c   14.25468635
_cell_angle_alpha   90.22787996
_cell_angle_beta   90.17616253
_cell_angle_gamma   90.22870091
_symmetry_Int_Tables_number   1
_chemical_formula_structural   Cs4Ta4Te11Se
_chemical_formula_sum   'Cs4 Ta4 Te11 Se1'
_cell_volume   757.61776705
_cell_formula_units_Z   1
loop_
 _symmetry_equiv_pos_site_id
 _symmetry_equiv_pos_as_xyz
  1  'x, y, z'
loop_
 _atom_site_type_symbol
 _atom_site_label
 _atom_site_symmetry_multiplicity
 _atom_site_fract_x
 _atom_site_fract_y
 _atom_site_fract_z
 _atom_site_occupancy
  Cs  Cs0  1  0.740625  0.255786  0.911759  1
  Cs  Cs1  1  0.256528  0.750357  0.080830  1
  Cs  Cs2  1  0.755501  0.749824  0.421798  1
  Cs  Cs3  1  0.251312  0.251655  0.586994  1
  Ta  Ta4  1  0.495129  0.774221  0.761489  1
  Ta  Ta5  1  0.007118  0.216890  0.258782  1
  Ta  Ta6  1  0.507098  0.281837  0.241879  1
  Ta  Ta7  1  0.987829  0.712562  0.733438  1
  Te  Te8  1  0.214113  0.983480  0.829114  1
  Te  Te9  1  0.245404  0.253356  0.090167  1
  Te  Te10  1  0.243911  0.487861  0.331362  1
  Te  Te11  1  0.784860  0.487636  0.168170  1
  Te  Te12  1  0.248913  0.507615  0.827812  1
  Te  Te13  1  0.256977  0.744037  0.587744  1
  Te  Te14  1  0.761519  0.754173  0.909563  1
  Te  Te15  1  0.754671  0.988420  0.671708  1
  Te  Te16  1  0.283750  0.007829  0.328903  1
  Te  Te17  1  0.741201  0.007558  0.172909  1
  Te  Te18  1  0.748202  0.255602  0.410634  1
  Se  Se19  1  0.715338  0.529303  0.674943  1
