# generated using pymatgen
data_Zr2Re2B4Ru3
_symmetry_space_group_name_H-M   'P 1'
_cell_length_a   3.08995700
_cell_length_b   8.63925705
_cell_length_c   10.04264438
_cell_angle_alpha   90.08642153
_cell_angle_beta   90.00000000
_cell_angle_gamma   90.00000000
_symmetry_Int_Tables_number   1
_chemical_formula_structural   Zr2Re2B4Ru3
_chemical_formula_sum   'Zr4 Re4 B8 Ru6'
_cell_volume   268.08741167
_cell_formula_units_Z   2
loop_
 _symmetry_equiv_pos_site_id
 _symmetry_equiv_pos_as_xyz
  1  'x, y, z'
loop_
 _atom_site_type_symbol
 _atom_site_label
 _atom_site_symmetry_multiplicity
 _atom_site_fract_x
 _atom_site_fract_y
 _atom_site_fract_z
 _atom_site_occupancy
  Zr  Zr0  1  0.500000  0.838719  0.180964  1
  Zr  Zr1  1  0.500000  0.161281  0.819036  1
  Zr  Zr2  1  0.500000  0.661325  0.681033  1
  Zr  Zr3  1  0.500000  0.338675  0.318967  1
  Re  Re4  1  0.000000  0.661331  0.953118  1
  Re  Re5  1  0.000000  0.338669  0.046882  1
  Re  Re6  1  0.000000  0.838709  0.452880  1
  Re  Re7  1  0.000000  0.161291  0.547120  1
  B  B8  1  0.500000  0.965484  0.587646  1
  B  B9  1  0.500000  0.034516  0.412354  1
  B  B10  1  0.500000  0.848670  0.901003  1
  B  B11  1  0.500000  0.151330  0.098997  1
  B  B12  1  0.500000  0.651143  0.400791  1
  B  B13  1  0.500000  0.348857  0.599209  1
  B  B14  1  0.500000  0.465608  0.912342  1
  B  B15  1  0.500000  0.534392  0.087658  1
  Ru  Ru16  1  0.000000  0.000000  0.000000  1
  Ru  Ru17  1  0.000000  0.409004  0.760029  1
  Ru  Ru18  1  0.000000  0.590996  0.239971  1
  Ru  Ru19  1  0.000000  0.500000  0.500000  1
  Ru  Ru20  1  0.000000  0.908749  0.740157  1
  Ru  Ru21  1  0.000000  0.091251  0.259843  1
