# generated using pymatgen
data_Hf8Nb12Si15B
_symmetry_space_group_name_H-M   'P 1'
_cell_length_a   6.62972527
_cell_length_b   6.80624388
_cell_length_c   13.08104300
_cell_angle_alpha   90.00000000
_cell_angle_beta   90.00000000
_cell_angle_gamma   89.63994061
_symmetry_Int_Tables_number   1
_chemical_formula_structural   Hf8Nb12Si15B
_chemical_formula_sum   'Hf8 Nb12 Si15 B1'
_cell_volume   590.25114221
_cell_formula_units_Z   1
loop_
 _symmetry_equiv_pos_site_id
 _symmetry_equiv_pos_as_xyz
  1  'x, y, z'
loop_
 _atom_site_type_symbol
 _atom_site_label
 _atom_site_symmetry_multiplicity
 _atom_site_fract_x
 _atom_site_fract_y
 _atom_site_fract_z
 _atom_site_occupancy
  Hf  Hf0  1  0.498723  0.667602  0.595916  1
  Hf  Hf1  1  0.001798  0.824344  0.902748  1
  Hf  Hf2  1  0.503103  0.327701  0.092742  1
  Hf  Hf3  1  0.001998  0.173651  0.407269  1
  Hf  Hf4  1  0.503103  0.327701  0.407258  1
  Hf  Hf5  1  0.001998  0.173651  0.092731  1
  Hf  Hf6  1  0.498723  0.667602  0.904084  1
  Hf  Hf7  1  0.001798  0.824344  0.597252  1
  Nb  Nb8  1  0.652579  0.183713  0.627577  1
  Nb  Nb9  1  0.171082  0.330110  0.873652  1
  Nb  Nb10  1  0.337542  0.828029  0.122565  1
  Nb  Nb11  1  0.835552  0.671392  0.377292  1
  Nb  Nb12  1  0.337542  0.828029  0.377435  1
  Nb  Nb13  1  0.835552  0.671392  0.122708  1
  Nb  Nb14  1  0.652579  0.183713  0.872423  1
  Nb  Nb15  1  0.171082  0.330110  0.626348  1
  Nb  Nb16  1  0.828527  0.495922  0.750000  1
  Nb  Nb17  1  0.335711  0.003980  0.750000  1
  Nb  Nb18  1  0.163046  0.503388  0.250000  1
  Nb  Nb19  1  0.663616  0.998401  0.250000  1
  Si  Si20  1  0.671405  0.965874  0.465253  1
  Si  Si21  1  0.171833  0.535697  0.037010  1
  Si  Si22  1  0.327974  0.035503  0.961589  1
  Si  Si23  1  0.831265  0.463681  0.539277  1
  Si  Si24  1  0.327974  0.035503  0.538411  1
  Si  Si25  1  0.831265  0.463681  0.960723  1
  Si  Si26  1  0.671405  0.965874  0.034747  1
  Si  Si27  1  0.171833  0.535697  0.462990  1
  Si  Si28  1  0.958866  0.114545  0.750000  1
  Si  Si29  1  0.538851  0.613383  0.250000  1
  Si  Si30  1  0.038552  0.887241  0.250000  1
  Si  Si31  1  0.702944  0.863748  0.750000  1
  Si  Si32  1  0.217293  0.626275  0.750000  1
  Si  Si33  1  0.294828  0.138991  0.250000  1
  Si  Si34  1  0.796879  0.360865  0.250000  1
  B  B35  1  0.451181  0.378666  0.750000  1
