# generated using pymatgen
data_Ho8TmSc(SiB4)4
_symmetry_space_group_name_H-M   'P 1'
_cell_length_a   7.17494700
_cell_length_b   7.17494700
_cell_length_c   7.95550700
_cell_angle_alpha   90.00000000
_cell_angle_beta   90.00000000
_cell_angle_gamma   90.00000000
_symmetry_Int_Tables_number   1
_chemical_formula_structural   Ho8TmSc(SiB4)4
_chemical_formula_sum   'Ho8 Tm1 Sc1 Si4 B16'
_cell_volume   409.54842201
_cell_formula_units_Z   1
loop_
 _symmetry_equiv_pos_site_id
 _symmetry_equiv_pos_as_xyz
  1  'x, y, z'
loop_
 _atom_site_type_symbol
 _atom_site_label
 _atom_site_symmetry_multiplicity
 _atom_site_fract_x
 _atom_site_fract_y
 _atom_site_fract_z
 _atom_site_occupancy
  Ho  Ho0  1  0.680852  0.179720  0.226524  1
  Ho  Ho1  1  0.319148  0.820280  0.773476  1
  Ho  Ho2  1  0.319148  0.820280  0.226524  1
  Ho  Ho3  1  0.820280  0.680852  0.226524  1
  Ho  Ho4  1  0.820280  0.680852  0.773476  1
  Ho  Ho5  1  0.680852  0.179720  0.773476  1
  Ho  Ho6  1  0.179720  0.319148  0.773476  1
  Ho  Ho7  1  0.179720  0.319148  0.226524  1
  Tm  Tm8  1  0.500000  0.500000  0.500000  1
  Sc  Sc9  1  0.000000  0.000000  0.500000  1
  Si  Si10  1  0.111813  0.621711  0.500000  1
  Si  Si11  1  0.888187  0.378289  0.500000  1
  Si  Si12  1  0.378289  0.111813  0.500000  1
  Si  Si13  1  0.621711  0.888187  0.500000  1
  B  B14  1  0.172966  0.039081  0.000000  1
  B  B15  1  0.827034  0.960919  0.000000  1
  B  B16  1  0.960919  0.172966  0.000000  1
  B  B17  1  0.327253  0.539295  0.000000  1
  B  B18  1  0.039081  0.827034  0.000000  1
  B  B19  1  0.672747  0.460705  0.000000  1
  B  B20  1  0.539295  0.672747  0.000000  1
  B  B21  1  0.460705  0.327253  0.000000  1
  B  B22  1  0.089500  0.589452  0.000000  1
  B  B23  1  0.910500  0.410548  0.000000  1
  B  B24  1  0.410548  0.089500  0.000000  1
  B  B25  1  0.589452  0.910500  0.000000  1
  B  B26  1  0.000000  0.000000  0.166182  1
  B  B27  1  0.000000  0.000000  0.833818  1
  B  B28  1  0.500000  0.500000  0.834619  1
  B  B29  1  0.500000  0.500000  0.165381  1
