# generated using pymatgen
data_Tb4Co15Mo2(P4Ru)3
_symmetry_space_group_name_H-M   'P 1'
_cell_length_a   3.71496900
_cell_length_b   10.42764205
_cell_length_c   11.86423953
_cell_angle_alpha   90.17860924
_cell_angle_beta   90.00000000
_cell_angle_gamma   90.00000000
_symmetry_Int_Tables_number   1
_chemical_formula_structural   Tb4Co15Mo2(P4Ru)3
_chemical_formula_sum   'Tb4 Co15 Mo2 P12 Ru3'
_cell_volume   459.59903131
_cell_formula_units_Z   1
loop_
 _symmetry_equiv_pos_site_id
 _symmetry_equiv_pos_as_xyz
  1  'x, y, z'
loop_
 _atom_site_type_symbol
 _atom_site_label
 _atom_site_symmetry_multiplicity
 _atom_site_fract_x
 _atom_site_fract_y
 _atom_site_fract_z
 _atom_site_occupancy
  Tb  Tb0  1  0.250000  0.586600  0.704487  1
  Tb  Tb1  1  0.250000  0.916602  0.205238  1
  Tb  Tb2  1  0.750000  0.414876  0.293106  1
  Tb  Tb3  1  0.750000  0.083354  0.794631  1
  Co  Co4  1  0.250000  0.093443  0.988898  1
  Co  Co5  1  0.750000  0.598161  0.512252  1
  Co  Co6  1  0.750000  0.906116  0.010974  1
  Co  Co7  1  0.250000  0.220785  0.176886  1
  Co  Co8  1  0.250000  0.274392  0.679512  1
  Co  Co9  1  0.750000  0.779086  0.822042  1
  Co  Co10  1  0.750000  0.723008  0.323136  1
  Co  Co11  1  0.250000  0.887140  0.701224  1
  Co  Co12  1  0.250000  0.615335  0.199562  1
  Co  Co13  1  0.750000  0.113102  0.298879  1
  Co  Co14  1  0.750000  0.386504  0.799283  1
  Co  Co15  1  0.250000  0.465134  0.932834  1
  Co  Co16  1  0.250000  0.034156  0.431306  1
  Co  Co17  1  0.750000  0.535237  0.065994  1
  Co  Co18  1  0.750000  0.963511  0.568763  1
  Mo  Mo19  1  0.250000  0.708396  0.986655  1
  Mo  Mo20  1  0.750000  0.291890  0.012534  1
  P  P21  1  0.250000  0.420724  0.114442  1
  P  P22  1  0.250000  0.078005  0.611624  1
  P  P23  1  0.750000  0.580035  0.884814  1
  P  P24  1  0.750000  0.920889  0.388144  1
  P  P25  1  0.250000  0.268880  0.865753  1
  P  P26  1  0.250000  0.225061  0.365275  1
  P  P27  1  0.750000  0.730639  0.135126  1
  P  P28  1  0.750000  0.772167  0.633061  1
  P  P29  1  0.250000  0.600262  0.387971  1
  P  P30  1  0.250000  0.903628  0.890881  1
  P  P31  1  0.750000  0.402653  0.612184  1
  P  P32  1  0.750000  0.096490  0.108789  1
  Ru  Ru33  1  0.250000  0.785767  0.491018  1
  Ru  Ru34  1  0.750000  0.210053  0.513194  1
  Ru  Ru35  1  0.250000  0.407920  0.489523  1
