# generated using pymatgen
data_Ho4InPd3Pt8
_symmetry_space_group_name_H-M   'P 1'
_cell_length_a   4.22019300
_cell_length_b   5.81456081
_cell_length_c   11.61990838
_cell_angle_alpha   87.00588404
_cell_angle_beta   90.00000000
_cell_angle_gamma   90.00000000
_symmetry_Int_Tables_number   1
_chemical_formula_structural   Ho4InPd3Pt8
_chemical_formula_sum   'Ho4 In1 Pd3 Pt8'
_cell_volume   284.74668376
_cell_formula_units_Z   1
loop_
 _symmetry_equiv_pos_site_id
 _symmetry_equiv_pos_as_xyz
  1  'x, y, z'
loop_
 _atom_site_type_symbol
 _atom_site_label
 _atom_site_symmetry_multiplicity
 _atom_site_fract_x
 _atom_site_fract_y
 _atom_site_fract_z
 _atom_site_occupancy
  Ho  Ho0  1  0.500000  0.752281  0.375813  1
  Ho  Ho1  1  0.500000  0.718402  0.861499  1
  Ho  Ho2  1  0.500000  0.279566  0.139643  1
  Ho  Ho3  1  0.500000  0.247889  0.623837  1
  In  In4  1  0.000000  0.000831  0.999375  1
  Pd  Pd5  1  0.500000  0.251979  0.377329  1
  Pd  Pd6  1  0.500000  0.230503  0.881565  1
  Pd  Pd7  1  0.000000  0.000413  0.500195  1
  Pt  Pt8  1  0.000000  0.010858  0.249662  1
  Pt  Pt9  1  0.000000  0.988150  0.750387  1
  Pt  Pt10  1  0.000000  0.499123  0.000435  1
  Pt  Pt11  1  0.000000  0.500557  0.500111  1
  Pt  Pt12  1  0.000000  0.514143  0.250606  1
  Pt  Pt13  1  0.000000  0.485752  0.749413  1
  Pt  Pt14  1  0.500000  0.771137  0.118093  1
  Pt  Pt15  1  0.500000  0.748415  0.622038  1
