# generated using pymatgen
data_Y15ErIn4PdRh3
_symmetry_space_group_name_H-M   'P 1'
_cell_length_a   9.72949164
_cell_length_b   9.72511869
_cell_length_c   9.72949148
_cell_angle_alpha   59.88975192
_cell_angle_beta   59.82865910
_cell_angle_gamma   59.88975151
_symmetry_Int_Tables_number   1
_chemical_formula_structural   Y15ErIn4PdRh3
_chemical_formula_sum   'Y15 Er1 In4 Pd1 Rh3'
_cell_volume   649.03905152
_cell_formula_units_Z   1
loop_
 _symmetry_equiv_pos_site_id
 _symmetry_equiv_pos_as_xyz
  1  'x, y, z'
loop_
 _atom_site_type_symbol
 _atom_site_label
 _atom_site_symmetry_multiplicity
 _atom_site_fract_x
 _atom_site_fract_y
 _atom_site_fract_z
 _atom_site_occupancy
  Y  Y0  1  0.194009  0.185473  0.810901  1
  Y  Y1  1  0.435978  0.062391  0.061696  1
  Y  Y2  1  0.436293  0.065184  0.436293  1
  Y  Y3  1  0.060960  0.439836  0.060960  1
  Y  Y4  1  0.649286  0.048161  0.649286  1
  Y  Y5  1  0.190123  0.810875  0.810259  1
  Y  Y6  1  0.061696  0.062391  0.435978  1
  Y  Y7  1  0.810901  0.185473  0.194009  1
  Y  Y8  1  0.810259  0.810875  0.190123  1
  Y  Y9  1  0.643864  0.651450  0.055731  1
  Y  Y10  1  0.648348  0.653791  0.648348  1
  Y  Y11  1  0.063673  0.440215  0.434736  1
  Y  Y12  1  0.055731  0.651450  0.643864  1
  Y  Y13  1  0.809812  0.186850  0.809812  1
  Y  Y14  1  0.434736  0.440215  0.063673  1
  Er  Er15  1  0.188975  0.811586  0.188975  1
  In  In16  1  0.417296  0.750187  0.417296  1
  In  In17  1  0.418413  0.416261  0.749034  1
  In  In18  1  0.749034  0.416261  0.418413  1
  In  In19  1  0.416783  0.414872  0.416783  1
  Pd  Pd20  1  0.857459  0.430063  0.857459  1
  Rh  Rh21  1  0.862448  0.855371  0.425820  1
  Rh  Rh22  1  0.425820  0.855371  0.862448  1
  Rh  Rh23  1  0.858105  0.855397  0.858105  1
