# generated using pymatgen
data_LiCa(Nd4Si3)2
_symmetry_space_group_name_H-M   'P 1'
_cell_length_a   8.93658495
_cell_length_b   8.93658516
_cell_length_c   8.93658442
_cell_angle_alpha   129.13990305
_cell_angle_beta   129.13990622
_cell_angle_gamma   74.78556460
_symmetry_Int_Tables_number   1
_chemical_formula_structural   LiCa(Nd4Si3)2
_chemical_formula_sum   'Li1 Ca1 Nd8 Si6'
_cell_volume   418.22086412
_cell_formula_units_Z   1
loop_
 _symmetry_equiv_pos_site_id
 _symmetry_equiv_pos_as_xyz
  1  'x, y, z'
loop_
 _atom_site_type_symbol
 _atom_site_label
 _atom_site_symmetry_multiplicity
 _atom_site_fract_x
 _atom_site_fract_y
 _atom_site_fract_z
 _atom_site_occupancy
  Li  Li0  1  0.000000  0.000000  0.000000  1
  Ca  Ca1  1  0.500000  0.500000  0.000000  1
  Nd  Nd2  1  0.683211  0.172074  0.141696  1
  Nd  Nd3  1  0.541515  0.683211  0.511136  1
  Nd  Nd4  1  0.030378  0.541515  0.858304  1
  Nd  Nd5  1  0.827926  0.969622  0.511136  1
  Nd  Nd6  1  0.316789  0.827926  0.858304  1
  Nd  Nd7  1  0.172074  0.030378  0.488864  1
  Nd  Nd8  1  0.458485  0.316789  0.488864  1
  Nd  Nd9  1  0.969622  0.458485  0.141696  1
  Si  Si10  1  0.886808  0.613179  0.499987  1
  Si  Si11  1  0.613179  0.113192  0.726370  1
  Si  Si12  1  0.386821  0.886808  0.273630  1
  Si  Si13  1  0.113192  0.386821  0.500013  1
  Si  Si14  1  0.741319  0.741319  0.000000  1
  Si  Si15  1  0.258681  0.258681  0.000000  1
