# generated using pymatgen
data_K3B2Pd5Pt2
_symmetry_space_group_name_H-M   'P 1'
_cell_length_a   8.35825428
_cell_length_b   8.35825456
_cell_length_c   8.38677565
_cell_angle_alpha   40.15214388
_cell_angle_beta   40.15214332
_cell_angle_gamma   39.98246650
_symmetry_Int_Tables_number   1
_chemical_formula_structural   K3B2Pd5Pt2
_chemical_formula_sum   'K3 B2 Pd5 Pt2'
_cell_volume   219.02691151
_cell_formula_units_Z   1
loop_
 _symmetry_equiv_pos_site_id
 _symmetry_equiv_pos_as_xyz
  1  'x, y, z'
loop_
 _atom_site_type_symbol
 _atom_site_label
 _atom_site_symmetry_multiplicity
 _atom_site_fract_x
 _atom_site_fract_y
 _atom_site_fract_z
 _atom_site_occupancy
  K  K0  1  0.356648  0.356648  0.357312  1
  K  K1  1  0.498943  0.498943  0.498613  1
  K  K2  1  0.643057  0.643057  0.643321  1
  B  B3  1  0.172649  0.172649  0.163747  1
  B  B4  1  0.830014  0.830014  0.836658  1
  Pd  Pd5  1  0.996180  0.996180  0.006592  1
  Pd  Pd6  1  0.942743  0.942743  0.433299  1
  Pd  Pd7  1  0.061503  0.061503  0.566376  1
  Pd  Pd8  1  0.940326  0.428474  0.941824  1
  Pd  Pd9  1  0.428474  0.940326  0.941824  1
  Pt  Pt10  1  0.570606  0.058856  0.055217  1
  Pt  Pt11  1  0.058856  0.570606  0.055217  1
