# generated using pymatgen
data_Zr6Nb4Al3Si3N2
_symmetry_space_group_name_H-M   'P 1'
_cell_length_a   7.93876829
_cell_length_b   7.95509668
_cell_length_c   5.46543200
_cell_angle_alpha   90.00000000
_cell_angle_beta   90.00000000
_cell_angle_gamma   119.86689360
_symmetry_Int_Tables_number   1
_chemical_formula_structural   Zr6Nb4Al3Si3N2
_chemical_formula_sum   'Zr6 Nb4 Al3 Si3 N2'
_cell_volume   299.31925812
_cell_formula_units_Z   1
loop_
 _symmetry_equiv_pos_site_id
 _symmetry_equiv_pos_as_xyz
  1  'x, y, z'
loop_
 _atom_site_type_symbol
 _atom_site_label
 _atom_site_symmetry_multiplicity
 _atom_site_fract_x
 _atom_site_fract_y
 _atom_site_fract_z
 _atom_site_occupancy
  Zr  Zr0  1  0.236153  0.997101  0.250000  1
  Zr  Zr1  1  0.762900  0.999542  0.750000  1
  Zr  Zr2  1  0.996934  0.232055  0.250000  1
  Zr  Zr3  1  0.002795  0.767212  0.750000  1
  Zr  Zr4  1  0.768665  0.768057  0.250000  1
  Zr  Zr5  1  0.232230  0.228368  0.750000  1
  Nb  Nb6  1  0.333652  0.677154  0.000535  1
  Nb  Nb7  1  0.666457  0.327315  0.000545  1
  Nb  Nb8  1  0.666457  0.327315  0.499455  1
  Nb  Nb9  1  0.333652  0.677154  0.499465  1
  Al  Al10  1  0.003335  0.412067  0.750000  1
  Al  Al11  1  0.411927  0.415318  0.250000  1
  Al  Al12  1  0.585041  0.585053  0.750000  1
  Si  Si13  1  0.592968  0.000135  0.250000  1
  Si  Si14  1  0.409735  0.002741  0.750000  1
  Si  Si15  1  0.997331  0.585412  0.250000  1
  N  N16  1  0.999885  0.999001  0.000159  1
  N  N17  1  0.999885  0.999001  0.499841  1
