# generated using pymatgen
data_ErTmLu4(BO3)6
_symmetry_space_group_name_H-M   'P 1'
_cell_length_a   6.48031538
_cell_length_b   6.47572250
_cell_length_c   9.50568823
_cell_angle_alpha   70.39198536
_cell_angle_beta   70.38105235
_cell_angle_gamma   59.93845901
_symmetry_Int_Tables_number   1
_chemical_formula_structural   ErTmLu4(BO3)6
_chemical_formula_sum   'Er1 Tm1 Lu4 B6 O18'
_cell_volume   318.27463227
_cell_formula_units_Z   1
loop_
 _symmetry_equiv_pos_site_id
 _symmetry_equiv_pos_as_xyz
  1  'x, y, z'
loop_
 _atom_site_type_symbol
 _atom_site_label
 _atom_site_symmetry_multiplicity
 _atom_site_fract_x
 _atom_site_fract_y
 _atom_site_fract_z
 _atom_site_occupancy
  Er  Er0  1  0.500000  0.000000  0.000000  1
  Tm  Tm1  1  0.000000  0.500000  0.500000  1
  Lu  Lu2  1  0.170583  0.657790  0.999457  1
  Lu  Lu3  1  0.342319  0.829330  0.500594  1
  Lu  Lu4  1  0.829417  0.342210  0.000543  1
  Lu  Lu5  1  0.657681  0.170670  0.499406  1
  B  B6  1  0.918839  0.840028  0.746202  1
  B  B7  1  0.159468  0.081555  0.753442  1
  B  B8  1  0.081161  0.159972  0.253798  1
  B  B9  1  0.840532  0.918445  0.246558  1
  B  B10  1  0.672919  0.327493  0.749816  1
  B  B11  1  0.327081  0.672507  0.250184  1
  O  O12  1  0.967584  0.782635  0.599451  1
  O  O13  1  0.216222  0.032568  0.900294  1
  O  O14  1  0.032416  0.217365  0.400549  1
  O  O15  1  0.783778  0.967432  0.099706  1
  O  O16  1  0.871679  0.680111  0.889677  1
  O  O17  1  0.319376  0.129055  0.610025  1
  O  O18  1  0.128321  0.319889  0.110323  1
  O  O19  1  0.680624  0.870945  0.389975  1
  O  O20  1  0.514385  0.389209  0.893646  1
  O  O21  1  0.611468  0.485951  0.605981  1
  O  O22  1  0.485615  0.610791  0.106354  1
  O  O23  1  0.388532  0.514049  0.394019  1
  O  O24  1  0.916070  0.303539  0.752325  1
  O  O25  1  0.697141  0.084037  0.746965  1
  O  O26  1  0.083930  0.696461  0.247675  1
  O  O27  1  0.302859  0.915963  0.253035  1
  O  O28  1  0.138987  0.860938  0.749895  1
  O  O29  1  0.861013  0.139062  0.250105  1
