# generated using pymatgen
data_La3CuHg4Ir
_symmetry_space_group_name_H-M   'P 1'
_cell_length_a   8.20259900
_cell_length_b   8.20259902
_cell_length_c   3.86259800
_cell_angle_alpha   90.00000000
_cell_angle_beta   90.00000000
_cell_angle_gamma   119.99998782
_symmetry_Int_Tables_number   1
_chemical_formula_structural   La3CuHg4Ir
_chemical_formula_sum   'La3 Cu1 Hg4 Ir1'
_cell_volume   225.06769273
_cell_formula_units_Z   1
loop_
 _symmetry_equiv_pos_site_id
 _symmetry_equiv_pos_as_xyz
  1  'x, y, z'
loop_
 _atom_site_type_symbol
 _atom_site_label
 _atom_site_symmetry_multiplicity
 _atom_site_fract_x
 _atom_site_fract_y
 _atom_site_fract_z
 _atom_site_occupancy
  La  La0  1  0.572434  0.967811  0.000000  1
  La  La1  1  0.032189  0.604625  0.000000  1
  La  La2  1  0.395375  0.427566  0.000000  1
  Cu  Cu3  1  0.000000  0.000000  0.000000  1
  Hg  Hg4  1  0.248303  0.004290  0.500000  1
  Hg  Hg5  1  0.995710  0.244014  0.500000  1
  Hg  Hg6  1  0.755986  0.751697  0.500000  1
  Hg  Hg7  1  0.666667  0.333333  0.500000  1
  Ir  Ir8  1  0.333333  0.666667  0.500000  1
