# generated using pymatgen
data_TbY3Zn4(Ga7Pd3)2
_symmetry_space_group_name_H-M   'P 1'
_cell_length_a   7.61746713
_cell_length_b   7.65769709
_cell_length_c   9.53641800
_cell_angle_alpha   90.00000000
_cell_angle_beta   90.00000000
_cell_angle_gamma   119.33728401
_symmetry_Int_Tables_number   1
_chemical_formula_structural   TbY3Zn4(Ga7Pd3)2
_chemical_formula_sum   'Tb1 Y3 Zn4 Ga14 Pd6'
_cell_volume   484.93811761
_cell_formula_units_Z   1
loop_
 _symmetry_equiv_pos_site_id
 _symmetry_equiv_pos_as_xyz
  1  'x, y, z'
loop_
 _atom_site_type_symbol
 _atom_site_label
 _atom_site_symmetry_multiplicity
 _atom_site_fract_x
 _atom_site_fract_y
 _atom_site_fract_z
 _atom_site_occupancy
  Tb  Tb0  1  0.995580  0.670545  0.250000  1
  Y  Y1  1  0.004482  0.329407  0.750000  1
  Y  Y2  1  0.672948  0.998035  0.250000  1
  Y  Y3  1  0.327000  0.002008  0.750000  1
  Zn  Zn4  1  0.138269  0.137429  0.250000  1
  Zn  Zn5  1  0.861815  0.862592  0.750000  1
  Zn  Zn6  1  0.342110  0.544443  0.250000  1
  Zn  Zn7  1  0.657866  0.455480  0.750000  1
  Ga  Ga8  1  0.008854  0.336722  0.085116  1
  Ga  Ga9  1  0.991053  0.663206  0.914900  1
  Ga  Ga10  1  0.991053  0.663206  0.585100  1
  Ga  Ga11  1  0.333152  0.001152  0.415793  1
  Ga  Ga12  1  0.008854  0.336722  0.414884  1
  Ga  Ga13  1  0.666928  0.998957  0.584175  1
  Ga  Ga14  1  0.666928  0.998957  0.915825  1
  Ga  Ga15  1  0.333152  0.001152  0.084207  1
  Ga  Ga16  1  0.336074  0.333098  0.563984  1
  Ga  Ga17  1  0.663910  0.666903  0.436041  1
  Ga  Ga18  1  0.663910  0.666903  0.063959  1
  Ga  Ga19  1  0.336074  0.333098  0.936016  1
  Ga  Ga20  1  0.539064  0.341878  0.250000  1
  Ga  Ga21  1  0.460929  0.658162  0.750000  1
  Pd  Pd22  1  0.675220  0.325587  0.003486  1
  Pd  Pd23  1  0.324768  0.674390  0.996469  1
  Pd  Pd24  1  0.324768  0.674390  0.503531  1
  Pd  Pd25  1  0.675220  0.325587  0.496514  1
  Pd  Pd26  1  0.000008  0.999995  0.999981  1
  Pd  Pd27  1  0.000008  0.999995  0.500019  1
