# generated using pymatgen
data_CaNp3(AsPd)4
_symmetry_space_group_name_H-M   'P 1'
_cell_length_a   4.25626600
_cell_length_b   7.13808208
_cell_length_c   7.90399656
_cell_angle_alpha   89.78229369
_cell_angle_beta   90.00000000
_cell_angle_gamma   90.00000000
_symmetry_Int_Tables_number   1
_chemical_formula_structural   CaNp3(AsPd)4
_chemical_formula_sum   'Ca1 Np3 As4 Pd4'
_cell_volume   240.13413932
_cell_formula_units_Z   1
loop_
 _symmetry_equiv_pos_site_id
 _symmetry_equiv_pos_as_xyz
  1  'x, y, z'
loop_
 _atom_site_type_symbol
 _atom_site_label
 _atom_site_symmetry_multiplicity
 _atom_site_fract_x
 _atom_site_fract_y
 _atom_site_fract_z
 _atom_site_occupancy
  Ca  Ca0  1  0.750000  0.477954  0.690681  1
  Np  Np1  1  0.250000  0.017351  0.198601  1
  Np  Np2  1  0.750000  0.981335  0.806832  1
  Np  Np3  1  0.250000  0.519200  0.303949  1
  As  As4  1  0.250000  0.767280  0.614052  1
  As  As5  1  0.750000  0.239155  0.379881  1
  As  As6  1  0.250000  0.256378  0.892356  1
  As  As7  1  0.750000  0.739747  0.114208  1
  Pd  Pd8  1  0.750000  0.350519  0.060872  1
  Pd  Pd9  1  0.250000  0.654819  0.934818  1
  Pd  Pd10  1  0.750000  0.835829  0.435083  1
  Pd  Pd11  1  0.250000  0.160434  0.568666  1
