# generated using pymatgen
data_Pr9NdCuBi6As
_symmetry_space_group_name_H-M   'P 1'
_cell_length_a   9.72363537
_cell_length_b   9.71930716
_cell_length_c   6.65987514
_cell_angle_alpha   89.97618513
_cell_angle_beta   90.01189983
_cell_angle_gamma   119.98527214
_symmetry_Int_Tables_number   1
_chemical_formula_structural   Pr9NdCuBi6As
_chemical_formula_sum   'Pr9 Nd1 Cu1 Bi6 As1'
_cell_volume   545.16138633
_cell_formula_units_Z   1
loop_
 _symmetry_equiv_pos_site_id
 _symmetry_equiv_pos_as_xyz
  1  'x, y, z'
loop_
 _atom_site_type_symbol
 _atom_site_label
 _atom_site_symmetry_multiplicity
 _atom_site_fract_x
 _atom_site_fract_y
 _atom_site_fract_z
 _atom_site_occupancy
  Pr  Pr0  1  0.666669  0.333367  0.999997  1
  Pr  Pr1  1  0.333331  0.666698  0.999997  1
  Pr  Pr2  1  0.333325  0.666665  0.499958  1
  Pr  Pr3  1  0.666675  0.333339  0.499958  1
  Pr  Pr4  1  0.746362  0.746235  0.751110  1
  Pr  Pr5  1  0.253638  0.999873  0.751110  1
  Pr  Pr6  1  0.000000  0.253541  0.751326  1
  Pr  Pr7  1  0.253849  0.253945  0.248907  1
  Pr  Pr8  1  0.746151  0.000095  0.248907  1
  Nd  Nd9  1  0.000000  0.746897  0.248534  1
  Cu  Cu10  1  0.000000  0.999276  0.499474  1
  Bi  Bi11  1  0.387466  0.387503  0.748312  1
  Bi  Bi12  1  0.612534  0.000036  0.748312  1
  Bi  Bi13  1  0.000000  0.612625  0.748214  1
  Bi  Bi14  1  0.613418  0.612803  0.251611  1
  Bi  Bi15  1  0.386582  0.999385  0.251611  1
  Bi  Bi16  1  0.000000  0.388326  0.251631  1
  As  As17  1  0.000000  0.999390  0.001031  1
