# generated using pymatgen
data_Dy3Th(Sc3Sn4)2
_symmetry_space_group_name_H-M   'P 1'
_cell_length_a   7.74668037
_cell_length_b   7.96981428
_cell_length_c   14.87472598
_cell_angle_alpha   90.09288791
_cell_angle_beta   90.13968162
_cell_angle_gamma   90.04636351
_symmetry_Int_Tables_number   1
_chemical_formula_structural   Dy3Th(Sc3Sn4)2
_chemical_formula_sum   'Dy6 Th2 Sc12 Sn16'
_cell_volume   918.35544932
_cell_formula_units_Z   2
loop_
 _symmetry_equiv_pos_site_id
 _symmetry_equiv_pos_as_xyz
  1  'x, y, z'
loop_
 _atom_site_type_symbol
 _atom_site_label
 _atom_site_symmetry_multiplicity
 _atom_site_fract_x
 _atom_site_fract_y
 _atom_site_fract_z
 _atom_site_occupancy
  Dy  Dy0  1  0.506923  0.677338  0.905128  1
  Dy  Dy1  1  0.005859  0.823011  0.594980  1
  Dy  Dy2  1  0.493077  0.322662  0.094872  1
  Dy  Dy3  1  0.994141  0.176989  0.405020  1
  Dy  Dy4  1  0.495394  0.323503  0.407298  1
  Dy  Dy5  1  0.504606  0.676497  0.592702  1
  Th  Th6  1  0.994196  0.174029  0.093121  1
  Th  Th7  1  0.005804  0.825971  0.906879  1
  Sc  Sc8  1  0.164736  0.497556  0.750040  1
  Sc  Sc9  1  0.835264  0.502444  0.249960  1
  Sc  Sc10  1  0.334282  0.996088  0.249898  1
  Sc  Sc11  1  0.665718  0.003912  0.750102  1
  Sc  Sc12  1  0.336239  0.161205  0.627045  1
  Sc  Sc13  1  0.663761  0.838795  0.372955  1
  Sc  Sc14  1  0.163431  0.661695  0.373069  1
  Sc  Sc15  1  0.664435  0.839014  0.127863  1
  Sc  Sc16  1  0.836569  0.338305  0.626931  1
  Sc  Sc17  1  0.335565  0.160986  0.872137  1
  Sc  Sc18  1  0.837899  0.339617  0.872817  1
  Sc  Sc19  1  0.162101  0.660383  0.127183  1
  Sn  Sn20  1  0.028382  0.126573  0.749221  1
  Sn  Sn21  1  0.971618  0.873427  0.250779  1
  Sn  Sn22  1  0.472858  0.625234  0.250464  1
  Sn  Sn23  1  0.527142  0.374766  0.749536  1
  Sn  Sn24  1  0.311231  0.850020  0.748279  1
  Sn  Sn25  1  0.688769  0.149980  0.251721  1
  Sn  Sn26  1  0.195968  0.352519  0.252429  1
  Sn  Sn27  1  0.804032  0.647481  0.747571  1
  Sn  Sn28  1  0.179799  0.457268  0.542849  1
  Sn  Sn29  1  0.820201  0.542732  0.457151  1
  Sn  Sn30  1  0.319194  0.958452  0.456969  1
  Sn  Sn31  1  0.815056  0.543242  0.042922  1
  Sn  Sn32  1  0.680806  0.041548  0.543031  1
  Sn  Sn33  1  0.184944  0.456758  0.957078  1
  Sn  Sn34  1  0.675506  0.045669  0.957327  1
  Sn  Sn35  1  0.324494  0.954331  0.042673  1
