# generated using pymatgen
data_HoNb8VS16
_symmetry_space_group_name_H-M   'P 1'
_cell_length_a   6.71289700
_cell_length_b   6.71289833
_cell_length_c   12.99291700
_cell_angle_alpha   90.00000000
_cell_angle_beta   90.00000000
_cell_angle_gamma   120.00000825
_symmetry_Int_Tables_number   1
_chemical_formula_structural   HoNb8VS16
_chemical_formula_sum   'Ho1 Nb8 V1 S16'
_cell_volume   507.05761893
_cell_formula_units_Z   1
loop_
 _symmetry_equiv_pos_site_id
 _symmetry_equiv_pos_as_xyz
  1  'x, y, z'
loop_
 _atom_site_type_symbol
 _atom_site_label
 _atom_site_symmetry_multiplicity
 _atom_site_fract_x
 _atom_site_fract_y
 _atom_site_fract_z
 _atom_site_occupancy
  Ho  Ho0  1  0.000000  0.000000  0.000000  1
  Nb  Nb1  1  0.000000  0.000000  0.262451  1
  Nb  Nb2  1  0.000000  0.000000  0.737549  1
  Nb  Nb3  1  0.504739  0.009478  0.264521  1
  Nb  Nb4  1  0.495261  0.990522  0.735479  1
  Nb  Nb5  1  0.990522  0.495261  0.264521  1
  Nb  Nb6  1  0.009478  0.504739  0.735479  1
  Nb  Nb7  1  0.504739  0.495261  0.264521  1
  Nb  Nb8  1  0.495261  0.504739  0.735479  1
  V  V9  1  0.000000  0.000000  0.500000  1
  S  S10  1  0.333333  0.666667  0.613485  1
  S  S11  1  0.666667  0.333333  0.386515  1
  S  S12  1  0.666667  0.333333  0.140691  1
  S  S13  1  0.333333  0.666667  0.859309  1
  S  S14  1  0.169321  0.338641  0.142197  1
  S  S15  1  0.830679  0.661359  0.857803  1
  S  S16  1  0.661359  0.830679  0.142197  1
  S  S17  1  0.834811  0.669622  0.615641  1
  S  S18  1  0.338641  0.169321  0.857803  1
  S  S19  1  0.165189  0.330378  0.384359  1
  S  S20  1  0.169321  0.830679  0.142197  1
  S  S21  1  0.330378  0.165189  0.615641  1
  S  S22  1  0.830679  0.169321  0.857803  1
  S  S23  1  0.669622  0.834811  0.384359  1
  S  S24  1  0.834811  0.165189  0.615641  1
  S  S25  1  0.165189  0.834811  0.384359  1
