# generated using pymatgen
data_Pr5(AlTe)2
_symmetry_space_group_name_H-M   'P 1'
_cell_length_a   9.07903097
_cell_length_b   9.07903098
_cell_length_c   8.35326300
_cell_angle_alpha   90.00000000
_cell_angle_beta   90.00000000
_cell_angle_gamma   126.25500222
_symmetry_Int_Tables_number   1
_chemical_formula_structural   Pr5(AlTe)2
_chemical_formula_sum   'Pr10 Al4 Te4'
_cell_volume   555.24145974
_cell_formula_units_Z   2
loop_
 _symmetry_equiv_pos_site_id
 _symmetry_equiv_pos_as_xyz
  1  'x, y, z'
loop_
 _atom_site_type_symbol
 _atom_site_label
 _atom_site_symmetry_multiplicity
 _atom_site_fract_x
 _atom_site_fract_y
 _atom_site_fract_z
 _atom_site_occupancy
  Pr  Pr0  1  0.000000  0.000000  0.000000  1
  Pr  Pr1  1  0.500000  0.500000  0.500000  1
  Pr  Pr2  1  0.803800  0.536756  0.168356  1
  Pr  Pr3  1  0.463244  0.196200  0.831644  1
  Pr  Pr4  1  0.963244  0.696200  0.668356  1
  Pr  Pr5  1  0.303800  0.036756  0.331644  1
  Pr  Pr6  1  0.196200  0.463244  0.831644  1
  Pr  Pr7  1  0.536756  0.803800  0.168356  1
  Pr  Pr8  1  0.036756  0.303800  0.331644  1
  Pr  Pr9  1  0.696200  0.963244  0.668356  1
  Al  Al10  1  0.882466  0.882466  0.383375  1
  Al  Al11  1  0.117534  0.117534  0.616625  1
  Al  Al12  1  0.617534  0.617534  0.883375  1
  Al  Al13  1  0.382466  0.382466  0.116625  1
  Te  Te14  1  0.201969  0.798031  0.000000  1
  Te  Te15  1  0.701969  0.298031  0.500000  1
  Te  Te16  1  0.798031  0.201969  0.000000  1
  Te  Te17  1  0.298031  0.701969  0.500000  1
