# generated using pymatgen
data_TbU3(CoB4)4
_symmetry_space_group_name_H-M   'P 1'
_cell_length_a   3.37580100
_cell_length_b   5.90670172
_cell_length_c   11.45991379
_cell_angle_alpha   89.92286665
_cell_angle_beta   90.00000000
_cell_angle_gamma   90.00000000
_symmetry_Int_Tables_number   1
_chemical_formula_structural   TbU3(CoB4)4
_chemical_formula_sum   'Tb1 U3 Co4 B16'
_cell_volume   228.50874980
_cell_formula_units_Z   1
loop_
 _symmetry_equiv_pos_site_id
 _symmetry_equiv_pos_as_xyz
  1  'x, y, z'
loop_
 _atom_site_type_symbol
 _atom_site_label
 _atom_site_symmetry_multiplicity
 _atom_site_fract_x
 _atom_site_fract_y
 _atom_site_fract_z
 _atom_site_occupancy
  Tb  Tb0  1  0.500000  0.872647  0.350334  1
  U  U1  1  0.500000  0.373122  0.149906  1
  U  U2  1  0.500000  0.627179  0.849853  1
  U  U3  1  0.500000  0.127722  0.650750  1
  Co  Co4  1  0.500000  0.367071  0.411439  1
  Co  Co5  1  0.500000  0.634446  0.588448  1
  Co  Co6  1  0.500000  0.132013  0.911768  1
  Co  Co7  1  0.500000  0.866212  0.088146  1
  B  B8  1  0.000000  0.113003  0.045902  1
  B  B9  1  0.000000  0.886420  0.953660  1
  B  B10  1  0.000000  0.387518  0.546879  1
  B  B11  1  0.000000  0.611777  0.454538  1
  B  B12  1  0.000000  0.139385  0.466689  1
  B  B13  1  0.000000  0.863114  0.534338  1
  B  B14  1  0.000000  0.363513  0.965845  1
  B  B15  1  0.000000  0.635244  0.033453  1
  B  B16  1  0.000000  0.024272  0.190095  1
  B  B17  1  0.000000  0.975600  0.808316  1
  B  B18  1  0.000000  0.475621  0.691803  1
  B  B19  1  0.000000  0.523411  0.309436  1
  B  B20  1  0.000000  0.218264  0.314035  1
  B  B21  1  0.000000  0.783017  0.686095  1
  B  B22  1  0.000000  0.282826  0.813776  1
  B  B23  1  0.000000  0.716604  0.184494  1
