# generated using pymatgen
data_Ag3Ir2Ru2PbO14
_symmetry_space_group_name_H-M   'P 1'
_cell_length_a   7.26580609
_cell_length_b   7.23311847
_cell_length_c   7.23311931
_cell_angle_alpha   59.93109676
_cell_angle_beta   60.13051010
_cell_angle_gamma   60.13051622
_symmetry_Int_Tables_number   1
_chemical_formula_structural   Ag3Ir2Ru2PbO14
_chemical_formula_sum   'Ag3 Ir2 Ru2 Pb1 O14'
_cell_volume   269.18223071
_cell_formula_units_Z   1
loop_
 _symmetry_equiv_pos_site_id
 _symmetry_equiv_pos_as_xyz
  1  'x, y, z'
loop_
 _atom_site_type_symbol
 _atom_site_label
 _atom_site_symmetry_multiplicity
 _atom_site_fract_x
 _atom_site_fract_y
 _atom_site_fract_z
 _atom_site_occupancy
  Ag  Ag0  1  0.125000  0.625000  0.125000  1
  Ag  Ag1  1  0.125000  0.125000  0.625000  1
  Ag  Ag2  1  0.125000  0.125000  0.125000  1
  Ir  Ir3  1  0.625000  0.125000  0.625000  1
  Ir  Ir4  1  0.625000  0.625000  0.125000  1
  Ru  Ru5  1  0.125000  0.625000  0.625000  1
  Ru  Ru6  1  0.625000  0.625000  0.625000  1
  Pb  Pb7  1  0.625000  0.125000  0.125000  1
  O  O8  1  0.691304  0.708280  0.299917  1
  O  O9  1  0.308416  0.305127  0.692668  1
  O  O10  1  0.691304  0.299917  0.708280  1
  O  O11  1  0.308416  0.692668  0.305127  1
  O  O12  1  0.312811  0.689528  0.689528  1
  O  O13  1  0.695822  0.297906  0.297906  1
  O  O14  1  0.558696  0.541720  0.950083  1
  O  O15  1  0.941584  0.944873  0.557332  1
  O  O16  1  0.558696  0.950083  0.541720  1
  O  O17  1  0.941584  0.557332  0.944873  1
  O  O18  1  0.937189  0.560472  0.560472  1
  O  O19  1  0.554178  0.952094  0.952094  1
  O  O20  1  0.224275  0.258379  0.258379  1
  O  O21  1  0.025725  0.991621  0.991621  1
