# generated using pymatgen
data_Pr5Tl3S
_symmetry_space_group_name_H-M   'P 1'
_cell_length_a   9.59408200
_cell_length_b   9.59408136
_cell_length_c   6.89285200
_cell_angle_alpha   90.00000000
_cell_angle_beta   90.00000000
_cell_angle_gamma   120.00000220
_symmetry_Int_Tables_number   1
_chemical_formula_structural   Pr5Tl3S
_chemical_formula_sum   'Pr10 Tl6 S2'
_cell_volume   549.46040107
_cell_formula_units_Z   2
loop_
 _symmetry_equiv_pos_site_id
 _symmetry_equiv_pos_as_xyz
  1  'x, y, z'
loop_
 _atom_site_type_symbol
 _atom_site_label
 _atom_site_symmetry_multiplicity
 _atom_site_fract_x
 _atom_site_fract_y
 _atom_site_fract_z
 _atom_site_occupancy
  Pr  Pr0  1  0.758982  0.758982  0.750000  1
  Pr  Pr1  1  0.241018  0.000000  0.750000  1
  Pr  Pr2  1  0.000000  0.241018  0.750000  1
  Pr  Pr3  1  0.241018  0.241018  0.250000  1
  Pr  Pr4  1  0.758982  0.000000  0.250000  1
  Pr  Pr5  1  0.000000  0.758982  0.250000  1
  Pr  Pr6  1  0.666667  0.333333  0.000000  1
  Pr  Pr7  1  0.333333  0.666667  0.000000  1
  Pr  Pr8  1  0.333333  0.666667  0.500000  1
  Pr  Pr9  1  0.666667  0.333333  0.500000  1
  Tl  Tl10  1  0.400169  0.400169  0.750000  1
  Tl  Tl11  1  0.599831  0.000000  0.750000  1
  Tl  Tl12  1  0.000000  0.599831  0.750000  1
  Tl  Tl13  1  0.599831  0.599831  0.250000  1
  Tl  Tl14  1  0.400169  0.000000  0.250000  1
  Tl  Tl15  1  0.000000  0.400169  0.250000  1
  S  S16  1  0.000000  0.000000  0.000000  1
  S  S17  1  0.000000  0.000000  0.500000  1
