# generated using pymatgen
data_Ca19Cd7InN7
_symmetry_space_group_name_H-M   'P 1'
_cell_length_a   10.45677507
_cell_length_b   10.45677544
_cell_length_c   10.45677414
_cell_angle_alpha   60.14827501
_cell_angle_beta   60.14827527
_cell_angle_gamma   60.14827308
_symmetry_Int_Tables_number   1
_chemical_formula_structural   Ca19Cd7InN7
_chemical_formula_sum   'Ca19 Cd7 In1 N7'
_cell_volume   811.21216193
_cell_formula_units_Z   1
loop_
 _symmetry_equiv_pos_site_id
 _symmetry_equiv_pos_as_xyz
  1  'x, y, z'
loop_
 _atom_site_type_symbol
 _atom_site_label
 _atom_site_symmetry_multiplicity
 _atom_site_fract_x
 _atom_site_fract_y
 _atom_site_fract_z
 _atom_site_occupancy
  Ca  Ca0  1  0.499934  0.499934  0.499934  1
  Ca  Ca1  1  0.165615  0.165615  0.834374  1
  Ca  Ca2  1  0.165615  0.834374  0.165615  1
  Ca  Ca3  1  0.834585  0.834585  0.165676  1
  Ca  Ca4  1  0.834585  0.165676  0.834585  1
  Ca  Ca5  1  0.834374  0.165615  0.165615  1
  Ca  Ca6  1  0.500108  0.824942  0.500108  1
  Ca  Ca7  1  0.500108  0.500108  0.824942  1
  Ca  Ca8  1  0.825352  0.499620  0.174428  1
  Ca  Ca9  1  0.174428  0.825352  0.499620  1
  Ca  Ca10  1  0.174428  0.499620  0.825352  1
  Ca  Ca11  1  0.500080  0.500080  0.174925  1
  Ca  Ca12  1  0.500080  0.174925  0.500080  1
  Ca  Ca13  1  0.499620  0.825352  0.174428  1
  Ca  Ca14  1  0.824942  0.500108  0.500108  1
  Ca  Ca15  1  0.499620  0.174428  0.825352  1
  Ca  Ca16  1  0.174925  0.500080  0.500080  1
  Ca  Ca17  1  0.165676  0.834585  0.834585  1
  Ca  Ca18  1  0.825352  0.174428  0.499620  1
  Cd  Cd19  1  0.524479  0.825445  0.825445  1
  Cd  Cd20  1  0.825445  0.524479  0.825445  1
  Cd  Cd21  1  0.825445  0.825445  0.524479  1
  Cd  Cd22  1  0.824827  0.824827  0.824827  1
  Cd  Cd23  1  0.174342  0.476398  0.174342  1
  Cd  Cd24  1  0.476398  0.174342  0.174342  1
  Cd  Cd25  1  0.174342  0.174342  0.476398  1
  In  In26  1  0.174886  0.174886  0.174886  1
  N  N27  1  0.326433  0.326433  0.673313  1
  N  N28  1  0.326433  0.673313  0.326433  1
  N  N29  1  0.673927  0.673927  0.326474  1
  N  N30  1  0.673927  0.326474  0.673927  1
  N  N31  1  0.673313  0.326433  0.326433  1
  N  N32  1  0.326474  0.673927  0.673927  1
  N  N33  1  0.999900  0.999900  0.999900  1
