# generated using pymatgen
data_Al2B28H
_symmetry_space_group_name_H-M   'P 1'
_cell_length_a   7.13406276
_cell_length_b   7.13406151
_cell_length_c   5.87719506
_cell_angle_alpha   65.90805081
_cell_angle_beta   65.90805802
_cell_angle_gamma   91.97708820
_symmetry_Int_Tables_number   1
_chemical_formula_structural   Al2B28H
_chemical_formula_sum   'Al2 B28 H1'
_cell_volume   241.90833440
_cell_formula_units_Z   1
loop_
 _symmetry_equiv_pos_site_id
 _symmetry_equiv_pos_as_xyz
  1  'x, y, z'
loop_
 _atom_site_type_symbol
 _atom_site_label
 _atom_site_symmetry_multiplicity
 _atom_site_fract_x
 _atom_site_fract_y
 _atom_site_fract_z
 _atom_site_occupancy
  Al  Al0  1  0.510769  0.510769  0.487363  1
  Al  Al1  1  0.143130  0.143130  0.457062  1
  B  B2  1  0.415535  0.744349  0.165830  1
  B  B3  1  0.591517  0.265594  0.828496  1
  B  B4  1  0.265594  0.591517  0.828496  1
  B  B5  1  0.744349  0.415535  0.165830  1
  B  B6  1  0.698205  0.863729  0.967409  1
  B  B7  1  0.311591  0.142943  0.026217  1
  B  B8  1  0.142943  0.311591  0.026217  1
  B  B9  1  0.863729  0.698205  0.967409  1
  B  B10  1  0.542740  0.880094  0.284347  1
  B  B11  1  0.478017  0.131289  0.197048  1
  B  B12  1  0.131289  0.478017  0.197048  1
  B  B13  1  0.880094  0.542740  0.284347  1
  B  B14  1  0.470731  0.131458  0.706155  1
  B  B15  1  0.535914  0.882174  0.793649  1
  B  B16  1  0.882174  0.535914  0.793649  1
  B  B17  1  0.131458  0.470731  0.706155  1
  B  B18  1  0.738356  0.105463  0.988236  1
  B  B19  1  0.280276  0.901667  0.315710  1
  B  B20  1  0.901667  0.280276  0.315710  1
  B  B21  1  0.105463  0.738356  0.988236  1
  B  B22  1  0.274774  0.904716  0.003183  1
  B  B23  1  0.734247  0.106830  0.679679  1
  B  B24  1  0.106830  0.734247  0.679679  1
  B  B25  1  0.904716  0.274774  0.003183  1
  B  B26  1  0.274374  0.462592  0.380820  1
  B  B27  1  0.741022  0.532898  0.617398  1
  B  B28  1  0.532898  0.741022  0.617398  1
  B  B29  1  0.462592  0.274374  0.380820  1
  H  H30  1  0.703009  0.703009  0.647211  1
