# generated using pymatgen
data_Ce7Sm(AlRh)8
_symmetry_space_group_name_H-M   'P 1'
_cell_length_a   4.20169600
_cell_length_b   7.11891478
_cell_length_c   15.94932673
_cell_angle_alpha   89.78196592
_cell_angle_beta   90.00000000
_cell_angle_gamma   90.00000000
_symmetry_Int_Tables_number   1
_chemical_formula_structural   Ce7Sm(AlRh)8
_chemical_formula_sum   'Ce7 Sm1 Al8 Rh8'
_cell_volume   477.06508364
_cell_formula_units_Z   1
loop_
 _symmetry_equiv_pos_site_id
 _symmetry_equiv_pos_as_xyz
  1  'x, y, z'
loop_
 _atom_site_type_symbol
 _atom_site_label
 _atom_site_symmetry_multiplicity
 _atom_site_fract_x
 _atom_site_fract_y
 _atom_site_fract_z
 _atom_site_occupancy
  Ce  Ce0  1  0.750000  0.844148  0.441062  1
  Ce  Ce1  1  0.250000  0.653557  0.940669  1
  Ce  Ce2  1  0.750000  0.346535  0.058936  1
  Ce  Ce3  1  0.250000  0.028185  0.779465  1
  Ce  Ce4  1  0.750000  0.973252  0.220499  1
  Ce  Ce5  1  0.250000  0.527918  0.719391  1
  Ce  Ce6  1  0.750000  0.472859  0.280522  1
  Sm  Sm7  1  0.250000  0.155797  0.559881  1
  Al  Al8  1  0.250000  0.142889  0.349864  1
  Al  Al9  1  0.750000  0.856344  0.649238  1
  Al  Al10  1  0.250000  0.644146  0.150470  1
  Al  Al11  1  0.750000  0.356784  0.849382  1
  Al  Al12  1  0.250000  0.004703  0.061799  1
  Al  Al13  1  0.750000  0.995396  0.937956  1
  Al  Al14  1  0.250000  0.502676  0.438217  1
  Al  Al15  1  0.750000  0.491581  0.561161  1
  Rh  Rh16  1  0.750000  0.277285  0.424610  1
  Rh  Rh17  1  0.250000  0.719337  0.571718  1
  Rh  Rh18  1  0.750000  0.778769  0.073333  1
  Rh  Rh19  1  0.250000  0.221835  0.926990  1
  Rh  Rh20  1  0.750000  0.740579  0.817016  1
  Rh  Rh21  1  0.250000  0.263074  0.181706  1
  Rh  Rh22  1  0.750000  0.239441  0.687085  1
  Rh  Rh23  1  0.250000  0.762909  0.319032  1
