# generated using pymatgen
data_La2Zn17GaCu4
_symmetry_space_group_name_H-M   'P 1'
_cell_length_a   8.23377905
_cell_length_b   8.23691914
_cell_length_c   8.21723966
_cell_angle_alpha   99.72605315
_cell_angle_beta   99.78664343
_cell_angle_gamma   131.30368403
_symmetry_Int_Tables_number   1
_chemical_formula_structural   La2Zn17GaCu4
_chemical_formula_sum   'La2 Zn17 Ga1 Cu4'
_cell_volume   381.65694481
_cell_formula_units_Z   1
loop_
 _symmetry_equiv_pos_site_id
 _symmetry_equiv_pos_as_xyz
  1  'x, y, z'
loop_
 _atom_site_type_symbol
 _atom_site_label
 _atom_site_symmetry_multiplicity
 _atom_site_fract_x
 _atom_site_fract_y
 _atom_site_fract_z
 _atom_site_occupancy
  La  La0  1  0.247767  0.748970  0.498335  1
  La  La1  1  0.999784  0.998061  0.000135  1
  Zn  Zn2  1  0.431815  0.514371  0.326841  1
  Zn  Zn3  1  0.485670  0.568629  0.673405  1
  Zn  Zn4  1  0.427758  0.101233  0.916042  1
  Zn  Zn5  1  0.762233  0.178087  0.824560  1
  Zn  Zn6  1  0.486316  0.812406  0.916808  1
  Zn  Zn7  1  0.493469  0.497089  0.998601  1
  Zn  Zn8  1  0.763671  0.937047  0.582937  1
  Zn  Zn9  1  0.749455  0.248746  0.500125  1
  Zn  Zn10  1  0.063259  0.644164  0.822811  1
  Zn  Zn11  1  0.357620  0.183650  0.419278  1
  Zn  Zn12  1  0.817455  0.644555  0.582571  1
  Zn  Zn13  1  0.896207  0.816813  0.330455  1
  Zn  Zn14  1  0.188155  0.105064  0.674260  1
  Zn  Zn15  1  0.063559  0.237701  0.416440  1
  Zn  Zn16  1  0.360233  0.940888  0.175568  1
  Zn  Zn17  1  0.818759  0.234397  0.172227  1
  Zn  Zn18  1  0.187722  0.511741  0.082210  1
  Ga  Ga19  1  0.897340  0.573664  0.085071  1
  Cu  Cu20  1  0.624582  0.874611  0.249614  1
  Cu  Cu21  1  0.124320  0.374039  0.749141  1
  Cu  Cu22  1  0.625199  0.376247  0.249022  1
  Cu  Cu23  1  0.627651  0.377826  0.753540  1
