# generated using pymatgen
data_Dy5Zr3Co12(NiP3)4
_symmetry_space_group_name_H-M   'P 1'
_cell_length_a   12.32122400
_cell_length_b   12.32122501
_cell_length_c   3.75163600
_cell_angle_alpha   90.00000000
_cell_angle_beta   90.00000000
_cell_angle_gamma   120.00000338
_symmetry_Int_Tables_number   1
_chemical_formula_structural   Dy5Zr3Co12(NiP3)4
_chemical_formula_sum   'Dy5 Zr3 Co12 Ni4 P12'
_cell_volume   493.24086798
_cell_formula_units_Z   1
loop_
 _symmetry_equiv_pos_site_id
 _symmetry_equiv_pos_as_xyz
  1  'x, y, z'
loop_
 _atom_site_type_symbol
 _atom_site_label
 _atom_site_symmetry_multiplicity
 _atom_site_fract_x
 _atom_site_fract_y
 _atom_site_fract_z
 _atom_site_occupancy
  Dy  Dy0  1  0.182681  0.183473  0.500000  1
  Dy  Dy1  1  0.816527  0.999209  0.500000  1
  Dy  Dy2  1  0.000791  0.817319  0.500000  1
  Dy  Dy3  1  0.333333  0.666667  0.000000  1
  Dy  Dy4  1  0.666667  0.333333  0.000000  1
  Zr  Zr5  1  0.559720  0.559531  0.000000  1
  Zr  Zr6  1  0.440469  0.000189  0.000000  1
  Zr  Zr7  1  0.999811  0.440280  0.000000  1
  Co  Co8  1  0.722306  0.724116  0.500000  1
  Co  Co9  1  0.275884  0.998191  0.500000  1
  Co  Co10  1  0.001809  0.277694  0.500000  1
  Co  Co11  1  0.177911  0.374003  0.000000  1
  Co  Co12  1  0.625997  0.803908  0.000000  1
  Co  Co13  1  0.196092  0.822089  0.000000  1
  Co  Co14  1  0.808724  0.625708  0.000000  1
  Co  Co15  1  0.816984  0.191276  0.000000  1
  Co  Co16  1  0.374292  0.183016  0.000000  1
  Co  Co17  1  0.354985  0.479428  0.500000  1
  Co  Co18  1  0.520572  0.875558  0.500000  1
  Co  Co19  1  0.124442  0.645015  0.500000  1
  Ni  Ni20  1  0.876143  0.518676  0.500000  1
  Ni  Ni21  1  0.642534  0.123857  0.500000  1
  Ni  Ni22  1  0.481324  0.357466  0.500000  1
  Ni  Ni23  1  0.000000  0.000000  0.000000  1
  P  P24  1  0.820881  0.820362  0.000000  1
  P  P25  1  0.179638  0.000519  0.000000  1
  P  P26  1  0.999481  0.179119  0.000000  1
  P  P27  1  0.171798  0.478200  0.500000  1
  P  P28  1  0.521800  0.693598  0.500000  1
  P  P29  1  0.306402  0.828202  0.500000  1
  P  P30  1  0.697259  0.526750  0.500000  1
  P  P31  1  0.829491  0.302741  0.500000  1
  P  P32  1  0.473250  0.170509  0.500000  1
  P  P33  1  0.348422  0.353297  0.000000  1
  P  P34  1  0.646703  0.995126  0.000000  1
  P  P35  1  0.004874  0.651578  0.000000  1
