# generated using pymatgen
data_Ca6Tb2Zn3Si12Pt
_symmetry_space_group_name_H-M   'P 1'
_cell_length_a   8.19263300
_cell_length_b   8.19263299
_cell_length_c   8.44523900
_cell_angle_alpha   90.00000000
_cell_angle_beta   90.00000000
_cell_angle_gamma   120.00000408
_symmetry_Int_Tables_number   1
_chemical_formula_structural   Ca6Tb2Zn3Si12Pt
_chemical_formula_sum   'Ca6 Tb2 Zn3 Si12 Pt1'
_cell_volume   490.89607401
_cell_formula_units_Z   1
loop_
 _symmetry_equiv_pos_site_id
 _symmetry_equiv_pos_as_xyz
  1  'x, y, z'
loop_
 _atom_site_type_symbol
 _atom_site_label
 _atom_site_symmetry_multiplicity
 _atom_site_fract_x
 _atom_site_fract_y
 _atom_site_fract_z
 _atom_site_occupancy
  Ca  Ca0  1  0.499077  0.998153  0.253447  1
  Ca  Ca1  1  0.497776  0.995554  0.746389  1
  Ca  Ca2  1  0.001847  0.500923  0.253447  1
  Ca  Ca3  1  0.004446  0.502224  0.746389  1
  Ca  Ca4  1  0.499077  0.500923  0.253447  1
  Ca  Ca5  1  0.497776  0.502224  0.746389  1
  Tb  Tb6  1  0.000000  0.000000  0.251285  1
  Tb  Tb7  1  0.000000  0.000000  0.748939  1
  Zn  Zn8  1  0.333333  0.666667  0.004557  1
  Zn  Zn9  1  0.666667  0.333333  0.996220  1
  Zn  Zn10  1  0.666667  0.333333  0.501476  1
  Si  Si11  1  0.164823  0.329648  0.998198  1
  Si  Si12  1  0.835675  0.671350  0.001741  1
  Si  Si13  1  0.670352  0.835177  0.998198  1
  Si  Si14  1  0.838324  0.676648  0.501255  1
  Si  Si15  1  0.328650  0.164325  0.001741  1
  Si  Si16  1  0.166994  0.333985  0.498650  1
  Si  Si17  1  0.164823  0.835177  0.998198  1
  Si  Si18  1  0.323352  0.161676  0.501255  1
  Si  Si19  1  0.835675  0.164325  0.001741  1
  Si  Si20  1  0.666015  0.833006  0.498650  1
  Si  Si21  1  0.838324  0.161676  0.501255  1
  Si  Si22  1  0.166994  0.833006  0.498650  1
  Pt  Pt23  1  0.333333  0.666667  0.498480  1
