# generated using pymatgen
data_LuMg2Sc(B4Ru5)2
_symmetry_space_group_name_H-M   'P 1'
_cell_length_a   3.00146300
_cell_length_b   8.49061716
_cell_length_c   10.10699351
_cell_angle_alpha   90.99162631
_cell_angle_beta   90.00000000
_cell_angle_gamma   90.00000000
_symmetry_Int_Tables_number   1
_chemical_formula_structural   LuMg2Sc(B4Ru5)2
_chemical_formula_sum   'Lu1 Mg2 Sc1 B8 Ru10'
_cell_volume   257.53080951
_cell_formula_units_Z   1
loop_
 _symmetry_equiv_pos_site_id
 _symmetry_equiv_pos_as_xyz
  1  'x, y, z'
loop_
 _atom_site_type_symbol
 _atom_site_label
 _atom_site_symmetry_multiplicity
 _atom_site_fract_x
 _atom_site_fract_y
 _atom_site_fract_z
 _atom_site_occupancy
  Lu  Lu0  1  0.500000  0.654490  0.816618  1
  Mg  Mg1  1  0.500000  0.149995  0.679996  1
  Mg  Mg2  1  0.500000  0.850031  0.317966  1
  Sc  Sc3  1  0.500000  0.346033  0.185238  1
  B  B4  1  0.500000  0.856003  0.599492  1
  B  B5  1  0.500000  0.145216  0.399098  1
  B  B6  1  0.500000  0.347788  0.896833  1
  B  B7  1  0.500000  0.650123  0.104124  1
  B  B8  1  0.500000  0.963081  0.911333  1
  B  B9  1  0.500000  0.039797  0.089512  1
  B  B10  1  0.500000  0.460437  0.588307  1
  B  B11  1  0.500000  0.538020  0.410612  1
  Ru  Ru12  1  0.000000  0.391136  0.736847  1
  Ru  Ru13  1  0.000000  0.604750  0.262865  1
  Ru  Ru14  1  0.000000  0.908533  0.760136  1
  Ru  Ru15  1  0.000000  0.098531  0.238809  1
  Ru  Ru16  1  0.000000  0.000313  0.498667  1
  Ru  Ru17  1  0.000000  0.495872  0.002834  1
  Ru  Ru18  1  0.000000  0.656785  0.549290  1
  Ru  Ru19  1  0.000000  0.343883  0.449717  1
  Ru  Ru20  1  0.000000  0.157413  0.956106  1
  Ru  Ru21  1  0.000000  0.841769  0.045599  1
