# generated using pymatgen
data_HfBe4Re
_symmetry_space_group_name_H-M   'P 1'
_cell_length_a   4.56383000
_cell_length_b   4.56382988
_cell_length_c   7.40539200
_cell_angle_alpha   90.00000000
_cell_angle_beta   90.00000000
_cell_angle_gamma   120.00001538
_symmetry_Int_Tables_number   1
_chemical_formula_structural   HfBe4Re
_chemical_formula_sum   'Hf2 Be8 Re2'
_cell_volume   133.57879548
_cell_formula_units_Z   2
loop_
 _symmetry_equiv_pos_site_id
 _symmetry_equiv_pos_as_xyz
  1  'x, y, z'
loop_
 _atom_site_type_symbol
 _atom_site_label
 _atom_site_symmetry_multiplicity
 _atom_site_fract_x
 _atom_site_fract_y
 _atom_site_fract_z
 _atom_site_occupancy
  Hf  Hf0  1  0.333333  0.666667  0.065062  1
  Hf  Hf1  1  0.666667  0.333333  0.565062  1
  Be  Be2  1  0.000000  0.000000  0.996443  1
  Be  Be3  1  0.000000  0.000000  0.496443  1
  Be  Be4  1  0.829617  0.659234  0.250598  1
  Be  Be5  1  0.170383  0.829617  0.750598  1
  Be  Be6  1  0.659234  0.829617  0.750598  1
  Be  Be7  1  0.340766  0.170383  0.250598  1
  Be  Be8  1  0.829617  0.170383  0.250598  1
  Be  Be9  1  0.170383  0.340766  0.750598  1
  Re  Re10  1  0.666667  0.333333  0.936700  1
  Re  Re11  1  0.333333  0.666667  0.436700  1
