# generated using pymatgen
data_Hf18BeFeRe8
_symmetry_space_group_name_H-M   'P 1'
_cell_length_a   8.55390300
_cell_length_b   8.53149032
_cell_length_c   8.53149007
_cell_angle_alpha   119.99719717
_cell_angle_beta   90.00000000
_cell_angle_gamma   90.00000000
_symmetry_Int_Tables_number   1
_chemical_formula_structural   Hf18BeFeRe8
_chemical_formula_sum   'Hf18 Be1 Fe1 Re8'
_cell_volume   539.20884811
_cell_formula_units_Z   1
loop_
 _symmetry_equiv_pos_site_id
 _symmetry_equiv_pos_as_xyz
  1  'x, y, z'
loop_
 _atom_site_type_symbol
 _atom_site_label
 _atom_site_symmetry_multiplicity
 _atom_site_fract_x
 _atom_site_fract_y
 _atom_site_fract_z
 _atom_site_occupancy
  Hf  Hf0  1  0.553175  0.802828  0.605649  1
  Hf  Hf1  1  0.553188  0.802801  0.197199  1
  Hf  Hf2  1  0.553175  0.394351  0.197172  1
  Hf  Hf3  1  0.442153  0.200853  0.401715  1
  Hf  Hf4  1  0.442125  0.200873  0.799127  1
  Hf  Hf5  1  0.442153  0.598285  0.799147  1
  Hf  Hf6  1  0.057847  0.200853  0.401715  1
  Hf  Hf7  1  0.057875  0.200873  0.799127  1
  Hf  Hf8  1  0.057847  0.598285  0.799147  1
  Hf  Hf9  1  0.946825  0.802828  0.605649  1
  Hf  Hf10  1  0.946812  0.802801  0.197199  1
  Hf  Hf11  1  0.946825  0.394351  0.197172  1
  Hf  Hf12  1  0.750000  0.460610  0.921244  1
  Hf  Hf13  1  0.750000  0.460603  0.539397  1
  Hf  Hf14  1  0.750000  0.078756  0.539389  1
  Hf  Hf15  1  0.250000  0.540109  0.080199  1
  Hf  Hf16  1  0.250000  0.540106  0.459894  1
  Hf  Hf17  1  0.250000  0.919801  0.459890  1
  Be  Be18  1  0.750000  0.666636  0.333364  1
  Fe  Fe19  1  0.250000  0.333381  0.666619  1
  Re  Re20  1  0.750000  0.110769  0.221530  1
  Re  Re21  1  0.750000  0.110752  0.889248  1
  Re  Re22  1  0.750000  0.778470  0.889231  1
  Re  Re23  1  0.250000  0.889373  0.778722  1
  Re  Re24  1  0.250000  0.889377  0.110623  1
  Re  Re25  1  0.250000  0.221278  0.110627  1
  Re  Re26  1  0.500217  0.999998  0.000002  1
  Re  Re27  1  0.999783  0.999998  0.000002  1
