# generated using pymatgen
data_Tb2P7Ir6(RhW)3
_symmetry_space_group_name_H-M   'P 1'
_cell_length_a   3.99336406
_cell_length_b   9.53004533
_cell_length_c   9.52985102
_cell_angle_alpha   120.00106714
_cell_angle_beta   90.00001643
_cell_angle_gamma   89.99970199
_symmetry_Int_Tables_number   1
_chemical_formula_structural   Tb2P7Ir6(RhW)3
_chemical_formula_sum   'Tb2 P7 Ir6 Rh3 W3'
_cell_volume   314.08409482
_cell_formula_units_Z   1
loop_
 _symmetry_equiv_pos_site_id
 _symmetry_equiv_pos_as_xyz
  1  'x, y, z'
loop_
 _atom_site_type_symbol
 _atom_site_label
 _atom_site_symmetry_multiplicity
 _atom_site_fract_x
 _atom_site_fract_y
 _atom_site_fract_z
 _atom_site_occupancy
  Tb  Tb0  1  0.261881  0.666642  0.333295  1
  Tb  Tb1  1  0.761988  0.333340  0.666686  1
  P  P2  1  0.261967  0.000004  0.999972  1
  P  P3  1  0.761854  0.879455  0.590770  1
  P  P4  1  0.761855  0.409223  0.288678  1
  P  P5  1  0.761859  0.711301  0.120516  1
  P  P6  1  0.261999  0.120073  0.416462  1
  P  P7  1  0.261995  0.583565  0.703634  1
  P  P8  1  0.261974  0.296397  0.879955  1
  Ir  Ir9  1  0.261870  0.890993  0.161235  1
  Ir  Ir10  1  0.261865  0.838748  0.729689  1
  Ir  Ir11  1  0.261860  0.270277  0.109067  1
  Ir  Ir12  1  0.261900  0.369125  0.437959  1
  Ir  Ir13  1  0.261902  0.562106  0.931221  1
  Ir  Ir14  1  0.261909  0.068815  0.630902  1
  Rh  Rh15  1  0.761883  0.613346  0.557957  1
  Rh  Rh16  1  0.761874  0.441959  0.055295  1
  Rh  Rh17  1  0.761888  0.944612  0.386654  1
  W  W18  1  0.761893  0.087936  0.866001  1
  W  W19  1  0.761887  0.134045  0.222023  1
  W  W20  1  0.761894  0.778037  0.912027  1
