# generated using pymatgen
data_Hf3TcMo2As3
_symmetry_space_group_name_H-M   'P 1'
_cell_length_a   7.06127600
_cell_length_b   7.09664625
_cell_length_c   3.48617500
_cell_angle_alpha   90.00000000
_cell_angle_beta   90.00000000
_cell_angle_gamma   119.83527379
_symmetry_Int_Tables_number   1
_chemical_formula_structural   Hf3TcMo2As3
_chemical_formula_sum   'Hf3 Tc1 Mo2 As3'
_cell_volume   151.54257087
_cell_formula_units_Z   1
loop_
 _symmetry_equiv_pos_site_id
 _symmetry_equiv_pos_as_xyz
  1  'x, y, z'
loop_
 _atom_site_type_symbol
 _atom_site_label
 _atom_site_symmetry_multiplicity
 _atom_site_fract_x
 _atom_site_fract_y
 _atom_site_fract_z
 _atom_site_occupancy
  Hf  Hf0  1  0.996537  0.595834  0.500000  1
  Hf  Hf1  1  0.400704  0.404166  0.500000  1
  Hf  Hf2  1  0.599775  0.000000  0.500000  1
  Tc  Tc3  1  0.257029  0.000000  0.000000  1
  Mo  Mo4  1  0.745984  0.744756  0.000000  1
  Mo  Mo5  1  0.001229  0.255244  0.000000  1
  As  As6  1  0.664662  0.331866  0.000000  1
  As  As7  1  0.332794  0.668134  0.000000  1
  As  As8  1  0.001286  0.000000  0.500000  1
