# generated using pymatgen
data_Tl2Fe5F17
_symmetry_space_group_name_H-M   'P 1'
_cell_length_a   7.56645000
_cell_length_b   13.63594069
_cell_length_c   14.93540100
_cell_angle_alpha   90.00000000
_cell_angle_beta   90.00000000
_cell_angle_gamma   106.10777961
_symmetry_Int_Tables_number   1
_chemical_formula_structural   Tl2Fe5F17
_chemical_formula_sum   'Tl8 Fe20 F68'
_cell_volume   1480.47372703
_cell_formula_units_Z   4
loop_
 _symmetry_equiv_pos_site_id
 _symmetry_equiv_pos_as_xyz
  1  'x, y, z'
loop_
 _atom_site_type_symbol
 _atom_site_label
 _atom_site_symmetry_multiplicity
 _atom_site_fract_x
 _atom_site_fract_y
 _atom_site_fract_z
 _atom_site_occupancy
  Tl  Tl0  1  0.000000  0.000000  0.000000  1
  Tl  Tl1  1  0.249862  0.499723  0.031729  1
  Tl  Tl2  1  0.249862  0.499723  0.468271  1
  Tl  Tl3  1  0.750138  0.500277  0.531729  1
  Tl  Tl4  1  0.750138  0.500277  0.968271  1
  Tl  Tl5  1  0.252694  0.505387  0.750000  1
  Tl  Tl6  1  0.000000  0.000000  0.500000  1
  Tl  Tl7  1  0.747306  0.494613  0.250000  1
  Fe  Fe8  1  0.623435  0.754635  0.876682  1
  Fe  Fe9  1  0.376565  0.245365  0.376682  1
  Fe  Fe10  1  0.875607  0.249216  0.875438  1
  Fe  Fe11  1  0.373609  0.249216  0.624562  1
  Fe  Fe12  1  0.748918  0.001393  0.750000  1
  Fe  Fe13  1  0.875607  0.249216  0.624562  1
  Fe  Fe14  1  0.623435  0.754635  0.623318  1
  Fe  Fe15  1  0.124393  0.750784  0.375438  1
  Fe  Fe16  1  0.252476  0.001393  0.750000  1
  Fe  Fe17  1  0.131201  0.754635  0.623318  1
  Fe  Fe18  1  0.868799  0.245365  0.123318  1
  Fe  Fe19  1  0.626391  0.750784  0.375438  1
  Fe  Fe20  1  0.376565  0.245365  0.123318  1
  Fe  Fe21  1  0.373609  0.249216  0.875438  1
  Fe  Fe22  1  0.868799  0.245365  0.376682  1
  Fe  Fe23  1  0.747524  0.998607  0.250000  1
  Fe  Fe24  1  0.251082  0.998607  0.250000  1
  Fe  Fe25  1  0.131201  0.754635  0.876682  1
  Fe  Fe26  1  0.124393  0.750784  0.124562  1
  Fe  Fe27  1  0.626391  0.750784  0.124562  1
  F  F28  1  0.561071  0.718350  0.250000  1
  F  F29  1  0.437906  0.273495  0.250000  1
  F  F30  1  0.748141  0.900808  0.655868  1
  F  F31  1  0.898541  0.202000  0.500913  1
  F  F32  1  0.892950  0.382362  0.096813  1
  F  F33  1  0.982372  0.964745  0.250000  1
  F  F34  1  0.110374  0.220749  0.651449  1
  F  F35  1  0.481202  0.962403  0.750000  1
  F  F36  1  0.152667  0.900808  0.844132  1
  F  F37  1  0.562094  0.726505  0.750000  1
  F  F38  1  0.604256  0.612911  0.102357  1
  F  F39  1  0.251859  0.099192  0.155868  1
  F  F40  1  0.898541  0.202000  0.999087  1
  F  F41  1  0.101459  0.798000  0.000913  1
  F  F42  1  0.842722  0.281650  0.750000  1
  F  F43  1  0.137034  0.274067  0.359308  1
  F  F44  1  0.657625  0.898388  0.155345  1
  F  F45  1  0.601902  0.203804  0.393946  1
  F  F46  1  0.604256  0.612911  0.397643  1
  F  F47  1  0.101459  0.798000  0.499087  1
  F  F48  1  0.137034  0.274067  0.140692  1
  F  F49  1  0.152667  0.900808  0.655868  1
  F  F50  1  0.240762  0.898388  0.155345  1
  F  F51  1  0.303460  0.202000  0.500913  1
  F  F52  1  0.601902  0.203804  0.106054  1
  F  F53  1  0.240762  0.898388  0.344655  1
  F  F54  1  0.892950  0.382362  0.403187  1
  F  F55  1  0.847333  0.099192  0.344132  1
  F  F56  1  0.395744  0.387089  0.602357  1
  F  F57  1  0.748141  0.900808  0.844132  1
  F  F58  1  0.008655  0.612911  0.102357  1
  F  F59  1  0.303460  0.202000  0.999087  1
  F  F60  1  0.398098  0.796196  0.893946  1
  F  F61  1  0.107050  0.617638  0.596813  1
  F  F62  1  0.696540  0.798000  0.499087  1
  F  F63  1  0.157278  0.718350  0.250000  1
  F  F64  1  0.657625  0.898388  0.344655  1
  F  F65  1  0.395744  0.387089  0.897643  1
  F  F66  1  0.889626  0.779251  0.151449  1
  F  F67  1  0.889626  0.779251  0.348551  1
  F  F68  1  0.367249  0.734499  0.405658  1
  F  F69  1  0.438929  0.281650  0.750000  1
  F  F70  1  0.518798  0.037597  0.250000  1
  F  F71  1  0.991345  0.387089  0.897643  1
  F  F72  1  0.489412  0.382362  0.403187  1
  F  F73  1  0.862966  0.725933  0.640692  1
  F  F74  1  0.367249  0.734499  0.094342  1
  F  F75  1  0.017628  0.035255  0.750000  1
  F  F76  1  0.759238  0.101612  0.844655  1
  F  F77  1  0.510588  0.617638  0.903187  1
  F  F78  1  0.632751  0.265501  0.594342  1
  F  F79  1  0.342375  0.101612  0.844655  1
  F  F80  1  0.847333  0.099192  0.155868  1
  F  F81  1  0.342375  0.101612  0.655345  1
  F  F82  1  0.632751  0.265501  0.905658  1
  F  F83  1  0.510588  0.617638  0.596813  1
  F  F84  1  0.008655  0.612911  0.397643  1
  F  F85  1  0.759238  0.101612  0.655345  1
  F  F86  1  0.862966  0.725933  0.859308  1
  F  F87  1  0.835589  0.273495  0.250000  1
  F  F88  1  0.991345  0.387089  0.602357  1
  F  F89  1  0.489412  0.382362  0.096813  1
  F  F90  1  0.164411  0.726505  0.750000  1
  F  F91  1  0.110374  0.220749  0.848551  1
  F  F92  1  0.696540  0.798000  0.000913  1
  F  F93  1  0.107050  0.617638  0.903187  1
  F  F94  1  0.251859  0.099192  0.344132  1
  F  F95  1  0.398098  0.796196  0.606054  1
