# generated using pymatgen
data_Ac7Er(InSi2)4
_symmetry_space_group_name_H-M   'P 1'
_cell_length_a   4.52028600
_cell_length_b   8.00307639
_cell_length_c   15.21583929
_cell_angle_alpha   90.71685012
_cell_angle_beta   90.00000000
_cell_angle_gamma   90.00000000
_symmetry_Int_Tables_number   1
_chemical_formula_structural   Ac7Er(InSi2)4
_chemical_formula_sum   'Ac7 Er1 In4 Si8'
_cell_volume   550.40807461
_cell_formula_units_Z   1
loop_
 _symmetry_equiv_pos_site_id
 _symmetry_equiv_pos_as_xyz
  1  'x, y, z'
loop_
 _atom_site_type_symbol
 _atom_site_label
 _atom_site_symmetry_multiplicity
 _atom_site_fract_x
 _atom_site_fract_y
 _atom_site_fract_z
 _atom_site_occupancy
  Ac  Ac0  1  0.500000  0.741792  0.031421  1
  Ac  Ac1  1  0.500000  0.239731  0.959366  1
  Ac  Ac2  1  0.500000  0.257337  0.469690  1
  Ac  Ac3  1  0.500000  0.758895  0.539240  1
  Ac  Ac4  1  0.500000  0.618957  0.284109  1
  Ac  Ac5  1  0.500000  0.385802  0.721537  1
  Ac  Ac6  1  0.500000  0.119148  0.213910  1
  Er  Er7  1  0.500000  0.886322  0.783484  1
  In  In8  1  0.000000  0.939267  0.374700  1
  In  In9  1  0.000000  0.050528  0.633076  1
  In  In10  1  0.000000  0.438030  0.124581  1
  In  In11  1  0.000000  0.576188  0.871443  1
  Si  Si12  1  0.000000  0.556190  0.427822  1
  Si  Si13  1  0.000000  0.467427  0.580879  1
  Si  Si14  1  0.000000  0.038757  0.067854  1
  Si  Si15  1  0.000000  0.926594  0.914871  1
  Si  Si16  1  0.000000  0.829848  0.181204  1
  Si  Si17  1  0.000000  0.144092  0.810043  1
  Si  Si18  1  0.000000  0.331586  0.319391  1
  Si  Si19  1  0.000000  0.693509  0.691378  1
