# generated using pymatgen
data_BaPrAsPt8
_symmetry_space_group_name_H-M   'P 1'
_cell_length_a   9.49533607
_cell_length_b   9.52630396
_cell_length_c   4.33435400
_cell_angle_alpha   90.00000000
_cell_angle_beta   90.00000000
_cell_angle_gamma   145.96762181
_symmetry_Int_Tables_number   1
_chemical_formula_structural   BaPrAsPt8
_chemical_formula_sum   'Ba1 Pr1 As1 Pt8'
_cell_volume   219.42415624
_cell_formula_units_Z   1
loop_
 _symmetry_equiv_pos_site_id
 _symmetry_equiv_pos_as_xyz
  1  'x, y, z'
loop_
 _atom_site_type_symbol
 _atom_site_label
 _atom_site_symmetry_multiplicity
 _atom_site_fract_x
 _atom_site_fract_y
 _atom_site_fract_z
 _atom_site_occupancy
  Ba  Ba0  1  0.616079  0.375312  0.500000  1
  Pr  Pr1  1  0.372808  0.627296  0.500000  1
  As  As2  1  0.222811  0.219903  0.000000  1
  Pt  Pt3  1  0.106360  0.875613  0.000000  1
  Pt  Pt4  1  0.885529  0.111309  0.000000  1
  Pt  Pt5  1  0.493082  0.979538  0.000000  1
  Pt  Pt6  1  0.999216  0.490532  0.000000  1
  Pt  Pt7  1  0.199092  0.786406  0.500000  1
  Pt  Pt8  1  0.795034  0.195591  0.500000  1
  Pt  Pt9  1  0.987679  0.995133  0.500000  1
  Pt  Pt10  1  0.635909  0.656967  0.000000  1
