# generated using pymatgen
data_Pr2InAgRh
_symmetry_space_group_name_H-M   'P 1'
_cell_length_a   8.01417385
_cell_length_b   8.01417405
_cell_length_c   3.93299800
_cell_angle_alpha   90.00000000
_cell_angle_beta   90.00000000
_cell_angle_gamma   89.86127477
_symmetry_Int_Tables_number   1
_chemical_formula_structural   Pr2InAgRh
_chemical_formula_sum   'Pr4 In2 Ag2 Rh2'
_cell_volume   252.60385987
_cell_formula_units_Z   2
loop_
 _symmetry_equiv_pos_site_id
 _symmetry_equiv_pos_as_xyz
  1  'x, y, z'
loop_
 _atom_site_type_symbol
 _atom_site_label
 _atom_site_symmetry_multiplicity
 _atom_site_fract_x
 _atom_site_fract_y
 _atom_site_fract_z
 _atom_site_occupancy
  Pr  Pr0  1  0.661435  0.161435  0.500000  1
  Pr  Pr1  1  0.338565  0.838565  0.500000  1
  Pr  Pr2  1  0.194028  0.305972  0.500000  1
  Pr  Pr3  1  0.805972  0.694028  0.500000  1
  In  In4  1  0.000000  0.000000  0.000000  1
  In  In5  1  0.500000  0.500000  0.000000  1
  Ag  Ag6  1  0.123620  0.623620  0.000000  1
  Ag  Ag7  1  0.876380  0.376380  0.000000  1
  Rh  Rh8  1  0.625368  0.874632  0.000000  1
  Rh  Rh9  1  0.374632  0.125368  0.000000  1
