# generated using pymatgen
data_Pa(FeTc)6
_symmetry_space_group_name_H-M   'P 1'
_cell_length_a   6.59846919
_cell_length_b   6.59847005
_cell_length_c   6.59846884
_cell_angle_alpha   138.05391328
_cell_angle_beta   94.68946732
_cell_angle_gamma   100.04785402
_symmetry_Int_Tables_number   1
_chemical_formula_structural   Pa(FeTc)6
_chemical_formula_sum   'Pa1 Fe6 Tc6'
_cell_volume   179.06123789
_cell_formula_units_Z   1
loop_
 _symmetry_equiv_pos_site_id
 _symmetry_equiv_pos_as_xyz
  1  'x, y, z'
loop_
 _atom_site_type_symbol
 _atom_site_label
 _atom_site_symmetry_multiplicity
 _atom_site_fract_x
 _atom_site_fract_y
 _atom_site_fract_z
 _atom_site_occupancy
  Pa  Pa0  1  0.000000  0.000000  0.000000  1
  Fe  Fe1  1  0.500000  0.000000  0.000000  1
  Fe  Fe2  1  0.500000  0.500000  0.500000  1
  Fe  Fe3  1  0.000000  0.000000  0.500000  1
  Fe  Fe4  1  0.000000  0.500000  0.000000  1
  Fe  Fe5  1  0.233323  0.500000  0.733323  1
  Fe  Fe6  1  0.766677  0.500000  0.266677  1
  Tc  Tc7  1  0.353545  0.353545  0.000000  1
  Tc  Tc8  1  0.646455  0.646455  0.000000  1
  Tc  Tc9  1  0.636307  0.000000  0.636307  1
  Tc  Tc10  1  0.363693  0.000000  0.363693  1
  Tc  Tc11  1  0.814044  0.314044  0.500000  1
  Tc  Tc12  1  0.185956  0.685956  0.500000  1
