# generated using pymatgen
data_Tm5Lu5(SiBi2)2
_symmetry_space_group_name_H-M   'P 1'
_cell_length_a   11.86610200
_cell_length_b   9.06141809
_cell_length_c   7.95075000
_cell_angle_alpha   89.99170416
_cell_angle_beta   90.00000000
_cell_angle_gamma   90.00000000
_symmetry_Int_Tables_number   1
_chemical_formula_structural   Tm5Lu5(SiBi2)2
_chemical_formula_sum   'Tm10 Lu10 Si4 Bi8'
_cell_volume   854.89413929
_cell_formula_units_Z   2
loop_
 _symmetry_equiv_pos_site_id
 _symmetry_equiv_pos_as_xyz
  1  'x, y, z'
loop_
 _atom_site_type_symbol
 _atom_site_label
 _atom_site_symmetry_multiplicity
 _atom_site_fract_x
 _atom_site_fract_y
 _atom_site_fract_z
 _atom_site_occupancy
  Tm  Tm0  1  0.061346  0.945040  0.820392  1
  Tm  Tm1  1  0.561346  0.554960  0.679608  1
  Tm  Tm2  1  0.211054  0.749825  0.165897  1
  Tm  Tm3  1  0.711054  0.750175  0.334103  1
  Tm  Tm4  1  0.789069  0.249990  0.834192  1
  Tm  Tm5  1  0.289069  0.250010  0.665808  1
  Tm  Tm6  1  0.294124  0.749956  0.639267  1
  Tm  Tm7  1  0.794124  0.750044  0.860733  1
  Tm  Tm8  1  0.705834  0.249993  0.360662  1
  Tm  Tm9  1  0.205834  0.250007  0.139338  1
  Lu  Lu10  1  0.061181  0.555598  0.821202  1
  Lu  Lu11  1  0.561181  0.944402  0.678798  1
  Lu  Lu12  1  0.938813  0.055480  0.178756  1
  Lu  Lu13  1  0.438813  0.444520  0.321244  1
  Lu  Lu14  1  0.938872  0.444592  0.178826  1
  Lu  Lu15  1  0.438872  0.055408  0.321174  1
  Lu  Lu16  1  0.001126  0.749971  0.460573  1
  Lu  Lu17  1  0.501126  0.750029  0.039427  1
  Lu  Lu18  1  0.998894  0.250054  0.539295  1
  Lu  Lu19  1  0.498894  0.249946  0.960705  1
  Si  Si20  1  0.476188  0.750674  0.408693  1
  Si  Si21  1  0.976188  0.749326  0.091307  1
  Si  Si22  1  0.523466  0.248612  0.590370  1
  Si  Si23  1  0.023466  0.251388  0.909630  1
  Bi  Bi24  1  0.325693  0.510531  0.933600  1
  Bi  Bi25  1  0.825693  0.989469  0.566400  1
  Bi  Bi26  1  0.674148  0.010672  0.066372  1
  Bi  Bi27  1  0.174148  0.489328  0.433628  1
  Bi  Bi28  1  0.674309  0.489488  0.066370  1
  Bi  Bi29  1  0.174309  0.010512  0.433630  1
  Bi  Bi30  1  0.325887  0.989446  0.934024  1
  Bi  Bi31  1  0.825887  0.510554  0.565976  1
