# generated using pymatgen
data_Pr20Ga4Si7Rh
_symmetry_space_group_name_H-M   'P 1'
_cell_length_a   7.87301596
_cell_length_b   7.87301606
_cell_length_c   14.44937109
_cell_angle_alpha   89.96468281
_cell_angle_beta   90.03531682
_cell_angle_gamma   89.71434227
_symmetry_Int_Tables_number   1
_chemical_formula_structural   Pr20Ga4Si7Rh
_chemical_formula_sum   'Pr20 Ga4 Si7 Rh1'
_cell_volume   895.62385023
_cell_formula_units_Z   1
loop_
 _symmetry_equiv_pos_site_id
 _symmetry_equiv_pos_as_xyz
  1  'x, y, z'
loop_
 _atom_site_type_symbol
 _atom_site_label
 _atom_site_symmetry_multiplicity
 _atom_site_fract_x
 _atom_site_fract_y
 _atom_site_fract_z
 _atom_site_occupancy
  Pr  Pr0  1  0.816444  0.833084  0.607146  1
  Pr  Pr1  1  0.180955  0.840067  0.109809  1
  Pr  Pr2  1  0.162178  0.817862  0.389721  1
  Pr  Pr3  1  0.001561  0.498931  0.723850  1
  Pr  Pr4  1  0.840067  0.180955  0.390191  1
  Pr  Pr5  1  0.683599  0.665937  0.394980  1
  Pr  Pr6  1  0.664775  0.312919  0.606751  1
  Pr  Pr7  1  0.334998  0.686549  0.606465  1
  Pr  Pr8  1  0.003621  0.498756  0.222269  1
  Pr  Pr9  1  0.665937  0.683599  0.105020  1
  Pr  Pr10  1  0.686549  0.334998  0.893535  1
  Pr  Pr11  1  0.833084  0.816444  0.892854  1
  Pr  Pr12  1  0.312680  0.338199  0.391708  1
  Pr  Pr13  1  0.183541  0.166758  0.608557  1
  Pr  Pr14  1  0.817862  0.162178  0.110279  1
  Pr  Pr15  1  0.312919  0.664775  0.893249  1
  Pr  Pr16  1  0.338199  0.312680  0.108292  1
  Pr  Pr17  1  0.498756  0.003621  0.277731  1
  Pr  Pr18  1  0.166758  0.183541  0.891443  1
  Pr  Pr19  1  0.498931  0.001561  0.776150  1
  Ga  Ga20  1  0.998882  0.499550  0.504464  1
  Ga  Ga21  1  0.499439  0.999174  0.496362  1
  Ga  Ga22  1  0.499550  0.998882  0.995536  1
  Ga  Ga23  1  0.999174  0.499439  0.003638  1
  Si  Si24  1  0.616207  0.388049  0.251278  1
  Si  Si25  1  0.113596  0.884693  0.750009  1
  Si  Si26  1  0.386063  0.386063  0.750000  1
  Si  Si27  1  0.388049  0.616207  0.248722  1
  Si  Si28  1  0.880618  0.880618  0.250000  1
  Si  Si29  1  0.614622  0.614622  0.750000  1
  Si  Si30  1  0.884693  0.113596  0.749991  1
  Rh  Rh31  1  0.115689  0.115689  0.250000  1
