# generated using pymatgen
data_Li2Ca4Al2Si3Ge
_symmetry_space_group_name_H-M   'P 1'
_cell_length_a   4.33701000
_cell_length_b   7.04089700
_cell_length_c   16.38800000
_cell_angle_alpha   90.00000000
_cell_angle_beta   90.00000000
_cell_angle_gamma   90.00000000
_symmetry_Int_Tables_number   1
_chemical_formula_structural   Li2Ca4Al2Si3Ge
_chemical_formula_sum   'Li4 Ca8 Al4 Si6 Ge2'
_cell_volume   500.43119016
_cell_formula_units_Z   2
loop_
 _symmetry_equiv_pos_site_id
 _symmetry_equiv_pos_as_xyz
  1  'x, y, z'
loop_
 _atom_site_type_symbol
 _atom_site_label
 _atom_site_symmetry_multiplicity
 _atom_site_fract_x
 _atom_site_fract_y
 _atom_site_fract_z
 _atom_site_occupancy
  Li  Li0  1  0.250000  0.983879  0.068241  1
  Li  Li1  1  0.750000  0.516121  0.568241  1
  Li  Li2  1  0.750000  0.017900  0.932146  1
  Li  Li3  1  0.250000  0.482100  0.432146  1
  Ca  Ca4  1  0.250000  0.341442  0.938672  1
  Ca  Ca5  1  0.250000  0.842988  0.561895  1
  Ca  Ca6  1  0.750000  0.158558  0.438672  1
  Ca  Ca7  1  0.750000  0.496011  0.276392  1
  Ca  Ca8  1  0.750000  0.996773  0.222952  1
  Ca  Ca9  1  0.750000  0.657012  0.061895  1
  Ca  Ca10  1  0.250000  0.503227  0.722952  1
  Ca  Ca11  1  0.250000  0.003989  0.776392  1
  Al  Al12  1  0.750000  0.165809  0.655554  1
  Al  Al13  1  0.250000  0.836113  0.342596  1
  Al  Al14  1  0.750000  0.663887  0.842596  1
  Al  Al15  1  0.250000  0.334191  0.155554  1
  Si  Si16  1  0.750000  0.231630  0.072575  1
  Si  Si17  1  0.750000  0.794149  0.689895  1
  Si  Si18  1  0.250000  0.205697  0.309975  1
  Si  Si19  1  0.250000  0.705851  0.189895  1
  Si  Si20  1  0.250000  0.268370  0.572575  1
  Si  Si21  1  0.750000  0.294303  0.809975  1
  Ge  Ge22  1  0.250000  0.769847  0.929107  1
  Ge  Ge23  1  0.750000  0.730153  0.429107  1
