# generated using pymatgen
data_RbNa2Sm(H6Ir)2
_symmetry_space_group_name_H-M   'P 1'
_cell_length_a   7.72961800
_cell_length_b   7.72961800
_cell_length_c   7.63179200
_cell_angle_alpha   90.00000000
_cell_angle_beta   90.00000000
_cell_angle_gamma   90.00000000
_symmetry_Int_Tables_number   1
_chemical_formula_structural   RbNa2Sm(H6Ir)2
_chemical_formula_sum   'Rb2 Na4 Sm2 H24 Ir4'
_cell_volume   455.97663408
_cell_formula_units_Z   2
loop_
 _symmetry_equiv_pos_site_id
 _symmetry_equiv_pos_as_xyz
  1  'x, y, z'
loop_
 _atom_site_type_symbol
 _atom_site_label
 _atom_site_symmetry_multiplicity
 _atom_site_fract_x
 _atom_site_fract_y
 _atom_site_fract_z
 _atom_site_occupancy
  Rb  Rb0  1  0.000000  0.500000  0.500000  1
  Rb  Rb1  1  0.500000  0.000000  0.500000  1
  Na  Na2  1  0.000000  0.000000  0.500000  1
  Na  Na3  1  0.000000  0.500000  0.000000  1
  Na  Na4  1  0.500000  0.000000  0.000000  1
  Na  Na5  1  0.000000  0.000000  0.000000  1
  Sm  Sm6  1  0.500000  0.500000  0.500000  1
  Sm  Sm7  1  0.500000  0.500000  0.000000  1
  H  H8  1  0.728780  0.728780  0.457474  1
  H  H9  1  0.271220  0.271220  0.457474  1
  H  H10  1  0.064714  0.731485  0.774396  1
  H  H11  1  0.268515  0.935286  0.774396  1
  H  H12  1  0.731485  0.064714  0.774396  1
  H  H13  1  0.935286  0.268515  0.774396  1
  H  H14  1  0.725722  0.500129  0.757126  1
  H  H15  1  0.500129  0.725722  0.757126  1
  H  H16  1  0.499871  0.274278  0.757126  1
  H  H17  1  0.274278  0.499871  0.757126  1
  H  H18  1  0.272778  0.727222  0.983529  1
  H  H19  1  0.727222  0.272778  0.983529  1
  H  H20  1  0.727222  0.727222  0.016471  1
  H  H21  1  0.272778  0.272778  0.016471  1
  H  H22  1  0.274278  0.500129  0.242874  1
  H  H23  1  0.499871  0.725722  0.242874  1
  H  H24  1  0.500129  0.274278  0.242874  1
  H  H25  1  0.725722  0.499871  0.242874  1
  H  H26  1  0.935286  0.731485  0.225604  1
  H  H27  1  0.731485  0.935286  0.225604  1
  H  H28  1  0.268515  0.064714  0.225604  1
  H  H29  1  0.064714  0.268515  0.225604  1
  H  H30  1  0.271220  0.728780  0.542526  1
  H  H31  1  0.728780  0.271220  0.542526  1
  Ir  Ir32  1  0.280217  0.719783  0.764760  1
  Ir  Ir33  1  0.719783  0.280217  0.764760  1
  Ir  Ir34  1  0.719783  0.719783  0.235240  1
  Ir  Ir35  1  0.280217  0.280217  0.235240  1
