# generated using pymatgen
data_Li4Ac3HoSi8
_symmetry_space_group_name_H-M   'P 1'
_cell_length_a   3.95288600
_cell_length_b   7.89901646
_cell_length_c   10.88815189
_cell_angle_alpha   90.17411034
_cell_angle_beta   90.00000000
_cell_angle_gamma   90.00000000
_symmetry_Int_Tables_number   1
_chemical_formula_structural   Li4Ac3HoSi8
_chemical_formula_sum   'Li4 Ac3 Ho1 Si8'
_cell_volume   339.96912224
_cell_formula_units_Z   1
loop_
 _symmetry_equiv_pos_site_id
 _symmetry_equiv_pos_as_xyz
  1  'x, y, z'
loop_
 _atom_site_type_symbol
 _atom_site_label
 _atom_site_symmetry_multiplicity
 _atom_site_fract_x
 _atom_site_fract_y
 _atom_site_fract_z
 _atom_site_occupancy
  Li  Li0  1  0.250000  0.993551  0.389450  1
  Li  Li1  1  0.250000  0.501094  0.113672  1
  Li  Li2  1  0.750000  0.000804  0.605783  1
  Li  Li3  1  0.750000  0.503828  0.888562  1
  Ac  Ac4  1  0.250000  0.144479  0.868278  1
  Ac  Ac5  1  0.250000  0.636743  0.631476  1
  Ac  Ac6  1  0.750000  0.862689  0.135573  1
  Ho  Ho7  1  0.750000  0.367749  0.367041  1
  Si  Si8  1  0.250000  0.221597  0.562736  1
  Si  Si9  1  0.250000  0.718474  0.924379  1
  Si  Si10  1  0.750000  0.765308  0.423590  1
  Si  Si11  1  0.750000  0.291061  0.086979  1
  Si  Si12  1  0.250000  0.653468  0.322782  1
  Si  Si13  1  0.250000  0.179043  0.188880  1
  Si  Si14  1  0.750000  0.328062  0.666986  1
  Si  Si15  1  0.750000  0.832049  0.823832  1
