# generated using pymatgen
data_TbScTi3As3P4Rh9
_symmetry_space_group_name_H-M   'P 1'
_cell_length_a   3.87091300
_cell_length_b   9.79351369
_cell_length_c   9.79359301
_cell_angle_alpha   119.99872607
_cell_angle_beta   90.00010327
_cell_angle_gamma   90.00027187
_symmetry_Int_Tables_number   1
_chemical_formula_structural   TbScTi3As3P4Rh9
_chemical_formula_sum   'Tb1 Sc1 Ti3 As3 P4 Rh9'
_cell_volume   321.53644359
_cell_formula_units_Z   1
loop_
 _symmetry_equiv_pos_site_id
 _symmetry_equiv_pos_as_xyz
  1  'x, y, z'
loop_
 _atom_site_type_symbol
 _atom_site_label
 _atom_site_symmetry_multiplicity
 _atom_site_fract_x
 _atom_site_fract_y
 _atom_site_fract_z
 _atom_site_occupancy
  Tb  Tb0  1  0.261852  0.666621  0.333350  1
  Sc  Sc1  1  0.761897  0.333364  0.666676  1
  Ti  Ti2  1  0.761945  0.101405  0.882585  1
  Ti  Ti3  1  0.761943  0.117385  0.218771  1
  Ti  Ti4  1  0.761950  0.781168  0.898595  1
  As  As5  1  0.761871  0.877167  0.588111  1
  As  As6  1  0.761867  0.411865  0.289022  1
  As  As7  1  0.761856  0.710964  0.122905  1
  P  P8  1  0.262112  0.999995  0.000019  1
  P  P9  1  0.261860  0.120208  0.421681  1
  P  P10  1  0.261878  0.578313  0.698514  1
  P  P11  1  0.261863  0.301503  0.879789  1
  Rh  Rh12  1  0.261889  0.890837  0.161345  1
  Rh  Rh13  1  0.261910  0.838674  0.729552  1
  Rh  Rh14  1  0.261901  0.270481  0.109119  1
  Rh  Rh15  1  0.761917  0.607458  0.571756  1
  Rh  Rh16  1  0.761897  0.428228  0.035689  1
  Rh  Rh17  1  0.761895  0.964331  0.392545  1
  Rh  Rh18  1  0.261910  0.361701  0.441628  1
  Rh  Rh19  1  0.261895  0.558372  0.920057  1
  Rh  Rh20  1  0.261890  0.079959  0.638292  1
