# generated using pymatgen
data_Rb2Tb3Dy3Se10
_symmetry_space_group_name_H-M   'P 1'
_cell_length_a   4.15890700
_cell_length_b   12.34436789
_cell_length_c   22.22934360
_cell_angle_alpha   90.04353990
_cell_angle_beta   90.00000000
_cell_angle_gamma   90.00000000
_symmetry_Int_Tables_number   1
_chemical_formula_structural   Rb2Tb3Dy3Se10
_chemical_formula_sum   'Rb4 Tb6 Dy6 Se20'
_cell_volume   1141.23367642
_cell_formula_units_Z   2
loop_
 _symmetry_equiv_pos_site_id
 _symmetry_equiv_pos_as_xyz
  1  'x, y, z'
loop_
 _atom_site_type_symbol
 _atom_site_label
 _atom_site_symmetry_multiplicity
 _atom_site_fract_x
 _atom_site_fract_y
 _atom_site_fract_z
 _atom_site_occupancy
  Rb  Rb0  1  0.250000  0.845547  0.097714  1
  Rb  Rb1  1  0.750000  0.154453  0.902286  1
  Rb  Rb2  1  0.750000  0.345598  0.402282  1
  Rb  Rb3  1  0.250000  0.654402  0.597718  1
  Tb  Tb4  1  0.750000  0.803540  0.828637  1
  Tb  Tb5  1  0.250000  0.196460  0.171363  1
  Tb  Tb6  1  0.250000  0.303729  0.671400  1
  Tb  Tb7  1  0.750000  0.696271  0.328600  1
  Tb  Tb8  1  0.250000  0.960404  0.698647  1
  Tb  Tb9  1  0.750000  0.039596  0.301353  1
  Dy  Dy10  1  0.750000  0.460129  0.801376  1
  Dy  Dy11  1  0.250000  0.539871  0.198624  1
  Dy  Dy12  1  0.750000  0.388770  0.052509  1
  Dy  Dy13  1  0.250000  0.611230  0.947491  1
  Dy  Dy14  1  0.250000  0.888708  0.447483  1
  Dy  Dy15  1  0.750000  0.111292  0.552517  1
  Se  Se16  1  0.250000  0.948839  0.569460  1
  Se  Se17  1  0.750000  0.051161  0.430540  1
  Se  Se18  1  0.750000  0.448854  0.930312  1
  Se  Se19  1  0.250000  0.551146  0.069688  1
  Se  Se20  1  0.750000  0.769087  0.956084  1
  Se  Se21  1  0.250000  0.230913  0.043916  1
  Se  Se22  1  0.250000  0.269090  0.543914  1
  Se  Se23  1  0.750000  0.730910  0.456086  1
  Se  Se24  1  0.250000  0.959016  0.827547  1
  Se  Se25  1  0.750000  0.040984  0.172453  1
  Se  Se26  1  0.750000  0.459117  0.672781  1
  Se  Se27  1  0.250000  0.540883  0.327219  1
  Se  Se28  1  0.750000  0.131001  0.683060  1
  Se  Se29  1  0.250000  0.868999  0.316940  1
  Se  Se30  1  0.250000  0.630420  0.816870  1
  Se  Se31  1  0.750000  0.369580  0.183130  1
  Se  Se32  1  0.750000  0.692827  0.199602  1
  Se  Se33  1  0.250000  0.307173  0.800398  1
  Se  Se34  1  0.250000  0.193545  0.300354  1
  Se  Se35  1  0.750000  0.806455  0.699646  1
