# generated using pymatgen
data_Y3Er4Lu5Co5Bi
_symmetry_space_group_name_H-M   'P 1'
_cell_length_a   8.23329726
_cell_length_b   8.23329732
_cell_length_c   8.20565673
_cell_angle_alpha   110.81028082
_cell_angle_beta   110.93318243
_cell_angle_gamma   106.84829614
_symmetry_Int_Tables_number   1
_chemical_formula_structural   Y3Er4Lu5Co5Bi
_chemical_formula_sum   'Y3 Er4 Lu5 Co5 Bi1'
_cell_volume   426.72781750
_cell_formula_units_Z   1
loop_
 _symmetry_equiv_pos_site_id
 _symmetry_equiv_pos_as_xyz
  1  'x, y, z'
loop_
 _atom_site_type_symbol
 _atom_site_label
 _atom_site_symmetry_multiplicity
 _atom_site_fract_x
 _atom_site_fract_y
 _atom_site_fract_z
 _atom_site_occupancy
  Y  Y0  1  0.813887  0.711309  0.525197  1
  Y  Y1  1  0.184265  0.286737  0.471002  1
  Y  Y2  1  0.186155  0.711063  0.897217  1
  Er  Er3  1  0.600453  0.794842  0.808392  1
  Er  Er4  1  0.405555  0.209041  0.194637  1
  Er  Er5  1  0.985596  0.789082  0.194637  1
  Er  Er6  1  0.013549  0.207939  0.808392  1
  Lu  Lu7  1  0.816125  0.288099  0.104225  1
  Lu  Lu8  1  0.688156  0.376003  0.690403  1
  Lu  Lu9  1  0.311445  0.622984  0.311173  1
  Lu  Lu10  1  0.688191  0.999729  0.311173  1
  Lu  Lu11  1  0.314401  0.002248  0.690403  1
  Co  Co12  1  0.624340  0.001335  0.625676  1
  Co  Co13  1  0.375395  0.000367  0.375762  1
  Co  Co14  1  0.108619  0.611005  0.494087  1
  Co  Co15  1  0.883082  0.385468  0.494087  1
  Co  Co16  1  0.002037  0.002428  0.004465  1
  Bi  Bi17  1  0.498750  0.500322  0.999071  1
