# generated using pymatgen
data_Tb2HoLu9Os4
_symmetry_space_group_name_H-M   'P 1'
_cell_length_a   6.20247271
_cell_length_b   7.36566216
_cell_length_c   8.81972400
_cell_angle_alpha   90.00000000
_cell_angle_beta   90.00000000
_cell_angle_gamma   89.77737619
_symmetry_Int_Tables_number   1
_chemical_formula_structural   Tb2HoLu9Os4
_chemical_formula_sum   'Tb2 Ho1 Lu9 Os4'
_cell_volume   402.92885879
_cell_formula_units_Z   1
loop_
 _symmetry_equiv_pos_site_id
 _symmetry_equiv_pos_as_xyz
  1  'x, y, z'
loop_
 _atom_site_type_symbol
 _atom_site_label
 _atom_site_symmetry_multiplicity
 _atom_site_fract_x
 _atom_site_fract_y
 _atom_site_fract_z
 _atom_site_occupancy
  Tb  Tb0  1  0.872758  0.537699  0.250000  1
  Tb  Tb1  1  0.126716  0.462579  0.750000  1
  Ho  Ho2  1  0.372144  0.960524  0.750000  1
  Lu  Lu3  1  0.338657  0.676205  0.062903  1
  Lu  Lu4  1  0.165997  0.172586  0.436901  1
  Lu  Lu5  1  0.661676  0.323239  0.562095  1
  Lu  Lu6  1  0.834535  0.828555  0.938274  1
  Lu  Lu7  1  0.661676  0.323239  0.937905  1
  Lu  Lu8  1  0.834535  0.828555  0.561726  1
  Lu  Lu9  1  0.338657  0.676205  0.437097  1
  Lu  Lu10  1  0.165997  0.172586  0.063099  1
  Lu  Lu11  1  0.627323  0.039033  0.250000  1
  Os  Os12  1  0.039583  0.882628  0.250000  1
  Os  Os13  1  0.456801  0.379376  0.250000  1
  Os  Os14  1  0.957612  0.118144  0.750000  1
  Os  Os15  1  0.545330  0.618845  0.750000  1
