# generated using pymatgen
data_La11YSi2(AsBr6)2
_symmetry_space_group_name_H-M   'P 1'
_cell_length_a   10.63639350
_cell_length_b   10.59886085
_cell_length_c   10.63639412
_cell_angle_alpha   109.60594723
_cell_angle_beta   109.51575459
_cell_angle_gamma   109.60593663
_symmetry_Int_Tables_number   1
_chemical_formula_structural   La11YSi2(AsBr6)2
_chemical_formula_sum   'La11 Y1 Si2 As2 Br12'
_cell_volume   919.45720670
_cell_formula_units_Z   1
loop_
 _symmetry_equiv_pos_site_id
 _symmetry_equiv_pos_as_xyz
  1  'x, y, z'
loop_
 _atom_site_type_symbol
 _atom_site_label
 _atom_site_symmetry_multiplicity
 _atom_site_fract_x
 _atom_site_fract_y
 _atom_site_fract_z
 _atom_site_occupancy
  La  La0  1  0.748256  0.237291  0.258078  1
  La  La1  1  0.241922  0.262709  0.751744  1
  La  La2  1  0.479214  0.490388  0.238342  1
  La  La3  1  0.261658  0.009612  0.020786  1
  La  La4  1  0.241094  0.480215  0.489791  1
  La  La5  1  0.010209  0.019785  0.258906  1
  La  La6  1  0.012169  0.490666  0.751478  1
  La  La7  1  0.490910  0.237832  0.477953  1
  La  La8  1  0.748522  0.009334  0.487831  1
  La  La9  1  0.022047  0.262168  0.009090  1
  La  La10  1  0.260726  0.750000  0.239274  1
  Y  Y11  1  0.482532  0.750000  0.017468  1
  Si  Si12  1  0.252407  0.502089  0.999789  1
  Si  Si13  1  0.500211  0.997911  0.247593  1
  As  As14  1  0.250115  0.250000  0.249885  1
  As  As15  1  0.000837  0.250000  0.499163  1
  Br  Br16  1  0.995883  0.990743  0.744688  1
  Br  Br17  1  0.743865  0.744653  0.236656  1
  Br  Br18  1  0.990989  0.744804  0.994691  1
  Br  Br19  1  0.249838  0.995533  0.504051  1
  Br  Br20  1  0.737646  0.985761  0.991829  1
  Br  Br21  1  0.504997  0.250000  0.995003  1
  Br  Br22  1  0.745864  0.250000  0.754136  1
  Br  Br23  1  0.505309  0.755196  0.509011  1
  Br  Br24  1  0.755312  0.509257  0.504117  1
  Br  Br25  1  0.263344  0.755347  0.756135  1
  Br  Br26  1  0.508171  0.514239  0.762354  1
  Br  Br27  1  0.995949  0.504467  0.250162  1
