# generated using pymatgen
data_Y2Pa(AlPd)3
_symmetry_space_group_name_H-M   'P 1'
_cell_length_a   7.19319036
_cell_length_b   7.19319073
_cell_length_c   4.01009600
_cell_angle_alpha   90.00000000
_cell_angle_beta   90.00000000
_cell_angle_gamma   119.46170725
_symmetry_Int_Tables_number   1
_chemical_formula_structural   Y2Pa(AlPd)3
_chemical_formula_sum   'Y2 Pa1 Al3 Pd3'
_cell_volume   180.65865198
_cell_formula_units_Z   1
loop_
 _symmetry_equiv_pos_site_id
 _symmetry_equiv_pos_as_xyz
  1  'x, y, z'
loop_
 _atom_site_type_symbol
 _atom_site_label
 _atom_site_symmetry_multiplicity
 _atom_site_fract_x
 _atom_site_fract_y
 _atom_site_fract_z
 _atom_site_occupancy
  Y  Y0  1  0.582075  0.999032  0.500000  1
  Y  Y1  1  0.999032  0.582075  0.500000  1
  Pa  Pa2  1  0.421507  0.421507  0.500000  1
  Al  Al3  1  0.995670  0.238814  0.000000  1
  Al  Al4  1  0.768330  0.768330  0.000000  1
  Al  Al5  1  0.238814  0.995670  0.000000  1
  Pd  Pd6  1  0.650188  0.335146  0.000000  1
  Pd  Pd7  1  0.009238  0.009238  0.500000  1
  Pd  Pd8  1  0.335146  0.650188  0.000000  1
