# generated using pymatgen
data_Er5TmCo16(P6Os)2
_symmetry_space_group_name_H-M   'P 1'
_cell_length_a   3.69501300
_cell_length_b   10.46879977
_cell_length_c   12.20336868
_cell_angle_alpha   89.87055104
_cell_angle_beta   90.00000000
_cell_angle_gamma   90.00000000
_symmetry_Int_Tables_number   1
_chemical_formula_structural   Er5TmCo16(P6Os)2
_chemical_formula_sum   'Er5 Tm1 Co16 P12 Os2'
_cell_volume   472.05378893
_cell_formula_units_Z   1
loop_
 _symmetry_equiv_pos_site_id
 _symmetry_equiv_pos_as_xyz
  1  'x, y, z'
loop_
 _atom_site_type_symbol
 _atom_site_label
 _atom_site_symmetry_multiplicity
 _atom_site_fract_x
 _atom_site_fract_y
 _atom_site_fract_z
 _atom_site_occupancy
  Er  Er0  1  0.000000  0.500048  0.525230  1
  Er  Er1  1  0.500000  0.999875  0.474972  1
  Er  Er2  1  0.500000  0.817509  0.207223  1
  Er  Er3  1  0.500000  0.182553  0.207215  1
  Er  Er4  1  0.000000  0.682358  0.792555  1
  Tm  Tm5  1  0.000000  0.317553  0.792798  1
  Co  Co6  1  0.500000  0.499645  0.703597  1
  Co  Co7  1  0.000000  0.000128  0.296492  1
  Co  Co8  1  0.000000  0.499836  0.986631  1
  Co  Co9  1  0.500000  0.000174  0.013018  1
  Co  Co10  1  0.500000  0.332387  0.989353  1
  Co  Co11  1  0.500000  0.667265  0.989574  1
  Co  Co12  1  0.000000  0.167796  0.010124  1
  Co  Co13  1  0.000000  0.832616  0.010218  1
  Co  Co14  1  0.500000  0.297569  0.431501  1
  Co  Co15  1  0.500000  0.702319  0.431221  1
  Co  Co16  1  0.000000  0.202414  0.569082  1
  Co  Co17  1  0.000000  0.797560  0.568777  1
  Co  Co18  1  0.500000  0.879063  0.708195  1
  Co  Co19  1  0.500000  0.121442  0.708468  1
  Co  Co20  1  0.000000  0.621012  0.291732  1
  Co  Co21  1  0.000000  0.378902  0.291941  1
  P  P22  1  0.500000  0.499732  0.880062  1
  P  P23  1  0.000000  0.000106  0.119644  1
  P  P24  1  0.500000  0.499890  0.351729  1
  P  P25  1  0.000000  0.000036  0.648383  1
  P  P26  1  0.500000  0.312506  0.616774  1
  P  P27  1  0.500000  0.687396  0.616369  1
  P  P28  1  0.000000  0.187517  0.383874  1
  P  P29  1  0.000000  0.812502  0.383609  1
  P  P30  1  0.500000  0.846096  0.892328  1
  P  P31  1  0.500000  0.154300  0.892060  1
  P  P32  1  0.000000  0.653789  0.107485  1
  P  P33  1  0.000000  0.346097  0.107710  1
  Os  Os34  1  0.500000  0.499916  0.159115  1
  Os  Os35  1  0.000000  0.000089  0.840942  1
