# generated using pymatgen
data_Er8Sn(PdPt)12
_symmetry_space_group_name_H-M   'P 1'
_cell_length_a   8.37418205
_cell_length_b   8.37003800
_cell_length_c   8.37562205
_cell_angle_alpha   90.00000000
_cell_angle_beta   89.98753503
_cell_angle_gamma   90.00000000
_symmetry_Int_Tables_number   1
_chemical_formula_structural   Er8Sn(PdPt)12
_chemical_formula_sum   'Er8 Sn1 Pd12 Pt12'
_cell_volume   587.06594597
_cell_formula_units_Z   1
loop_
 _symmetry_equiv_pos_site_id
 _symmetry_equiv_pos_as_xyz
  1  'x, y, z'
loop_
 _atom_site_type_symbol
 _atom_site_label
 _atom_site_symmetry_multiplicity
 _atom_site_fract_x
 _atom_site_fract_y
 _atom_site_fract_z
 _atom_site_occupancy
  Er  Er0  1  0.253379  0.252931  0.253203  1
  Er  Er1  1  0.746746  0.746163  0.746942  1
  Er  Er2  1  0.746620  0.746703  0.253069  1
  Er  Er3  1  0.746746  0.253837  0.746942  1
  Er  Er4  1  0.253260  0.253297  0.746800  1
  Er  Er5  1  0.253379  0.747069  0.253203  1
  Er  Er6  1  0.253260  0.746703  0.746800  1
  Er  Er7  1  0.746620  0.253297  0.253069  1
  Sn  Sn8  1  0.000110  0.000000  0.000113  1
  Pd  Pd9  1  0.500210  0.000000  0.735443  1
  Pd  Pd10  1  0.735241  0.000000  0.500210  1
  Pd  Pd11  1  0.000002  0.500000  0.264423  1
  Pd  Pd12  1  0.999991  0.500000  0.735685  1
  Pd  Pd13  1  0.500053  0.500000  0.254618  1
  Pd  Pd14  1  0.500038  0.500000  0.745327  1
  Pd  Pd15  1  0.307936  0.000000  0.999697  1
  Pd  Pd16  1  0.692078  0.000000  0.999722  1
  Pd  Pd17  1  0.000004  0.308258  0.999987  1
  Pd  Pd18  1  0.000004  0.691742  0.999987  1
  Pd  Pd19  1  0.999677  0.000000  0.307622  1
  Pd  Pd20  1  0.999723  0.000000  0.692382  1
  Pt  Pt21  1  0.264368  0.500000  0.999981  1
  Pt  Pt22  1  0.735722  0.500000  0.999951  1
  Pt  Pt23  1  0.000079  0.264908  0.500038  1
  Pt  Pt24  1  0.500018  0.264473  0.000105  1
  Pt  Pt25  1  0.000079  0.735092  0.500038  1
  Pt  Pt26  1  0.500018  0.735527  0.000105  1
  Pt  Pt27  1  0.500131  0.000000  0.264495  1
  Pt  Pt28  1  0.264717  0.000000  0.500132  1
  Pt  Pt29  1  0.254317  0.500000  0.500083  1
  Pt  Pt30  1  0.745632  0.500000  0.500051  1
  Pt  Pt31  1  0.499921  0.254519  0.499888  1
  Pt  Pt32  1  0.499921  0.745481  0.499888  1
