# generated using pymatgen
data_Ho4FeMoC4
_symmetry_space_group_name_H-M   'P 1'
_cell_length_a   5.05379400
_cell_length_b   6.46650146
_cell_length_c   9.75951965
_cell_angle_alpha   91.30544184
_cell_angle_beta   90.00000000
_cell_angle_gamma   90.00000000
_symmetry_Int_Tables_number   1
_chemical_formula_structural   Ho4FeMoC4
_chemical_formula_sum   'Ho8 Fe2 Mo2 C8'
_cell_volume   318.86189473
_cell_formula_units_Z   2
loop_
 _symmetry_equiv_pos_site_id
 _symmetry_equiv_pos_as_xyz
  1  'x, y, z'
loop_
 _atom_site_type_symbol
 _atom_site_label
 _atom_site_symmetry_multiplicity
 _atom_site_fract_x
 _atom_site_fract_y
 _atom_site_fract_z
 _atom_site_occupancy
  Ho  Ho0  1  0.250000  0.679622  0.559798  1
  Ho  Ho1  1  0.750000  0.320378  0.440202  1
  Ho  Ho2  1  0.750000  0.823627  0.054612  1
  Ho  Ho3  1  0.250000  0.176373  0.945388  1
  Ho  Ho4  1  0.250000  0.527680  0.214797  1
  Ho  Ho5  1  0.750000  0.472320  0.785203  1
  Ho  Ho6  1  0.750000  0.965089  0.718661  1
  Ho  Ho7  1  0.250000  0.034911  0.281339  1
  Fe  Fe8  1  0.250000  0.724831  0.862945  1
  Fe  Fe9  1  0.750000  0.275169  0.137055  1
  Mo  Mo10  1  0.750000  0.780902  0.363747  1
  Mo  Mo11  1  0.250000  0.219098  0.636253  1
  C  C12  1  0.250000  0.464916  0.765331  1
  C  C13  1  0.750000  0.535084  0.234669  1
  C  C14  1  0.750000  0.053342  0.253128  1
  C  C15  1  0.250000  0.946658  0.746872  1
  C  C16  1  0.250000  0.813737  0.037457  1
  C  C17  1  0.750000  0.186263  0.962543  1
  C  C18  1  0.750000  0.678150  0.552707  1
  C  C19  1  0.250000  0.321850  0.447293  1
