# generated using pymatgen
data_Gd2In8Ru
_symmetry_space_group_name_H-M   'P 1'
_cell_length_a   4.69875900
_cell_length_b   4.69875900
_cell_length_c   12.22864700
_cell_angle_alpha   90.00000000
_cell_angle_beta   90.00000000
_cell_angle_gamma   90.00000000
_symmetry_Int_Tables_number   1
_chemical_formula_structural   Gd2In8Ru
_chemical_formula_sum   'Gd2 In8 Ru1'
_cell_volume   269.98817900
_cell_formula_units_Z   1
loop_
 _symmetry_equiv_pos_site_id
 _symmetry_equiv_pos_as_xyz
  1  'x, y, z'
loop_
 _atom_site_type_symbol
 _atom_site_label
 _atom_site_symmetry_multiplicity
 _atom_site_fract_x
 _atom_site_fract_y
 _atom_site_fract_z
 _atom_site_occupancy
  Gd  Gd0  1  0.000000  0.000000  0.191569  1
  Gd  Gd1  1  0.000000  0.000000  0.808431  1
  In  In2  1  0.500000  0.000000  0.000000  1
  In  In3  1  0.000000  0.500000  0.000000  1
  In  In4  1  0.500000  0.500000  0.191698  1
  In  In5  1  0.500000  0.000000  0.378187  1
  In  In6  1  0.000000  0.500000  0.378187  1
  In  In7  1  0.500000  0.000000  0.621813  1
  In  In8  1  0.000000  0.500000  0.621813  1
  In  In9  1  0.500000  0.500000  0.808302  1
  Ru  Ru10  1  0.000000  0.000000  0.500000  1
