# generated using pymatgen
data_Ce6TmHfPb10
_symmetry_space_group_name_H-M   'P 1'
_cell_length_a   9.59483400
_cell_length_b   9.59483438
_cell_length_c   6.53660400
_cell_angle_alpha   90.00000000
_cell_angle_beta   90.00000000
_cell_angle_gamma   119.99999181
_symmetry_Int_Tables_number   1
_chemical_formula_structural   Ce6TmHfPb10
_chemical_formula_sum   'Ce6 Tm1 Hf1 Pb10'
_cell_volume   521.14405843
_cell_formula_units_Z   1
loop_
 _symmetry_equiv_pos_site_id
 _symmetry_equiv_pos_as_xyz
  1  'x, y, z'
loop_
 _atom_site_type_symbol
 _atom_site_label
 _atom_site_symmetry_multiplicity
 _atom_site_fract_x
 _atom_site_fract_y
 _atom_site_fract_z
 _atom_site_occupancy
  Ce  Ce0  1  0.616491  0.000000  0.246962  1
  Ce  Ce1  1  0.383509  0.000000  0.753038  1
  Ce  Ce2  1  0.000000  0.616491  0.246962  1
  Ce  Ce3  1  0.000000  0.383509  0.753038  1
  Ce  Ce4  1  0.383509  0.383509  0.246962  1
  Ce  Ce5  1  0.616491  0.616491  0.753038  1
  Tm  Tm6  1  0.000000  0.000000  0.000000  1
  Hf  Hf7  1  0.000000  0.000000  0.500000  1
  Pb  Pb8  1  0.274059  0.000000  0.260228  1
  Pb  Pb9  1  0.725941  0.000000  0.739772  1
  Pb  Pb10  1  0.000000  0.274059  0.260228  1
  Pb  Pb11  1  0.000000  0.725941  0.739772  1
  Pb  Pb12  1  0.725941  0.725941  0.260228  1
  Pb  Pb13  1  0.274059  0.274059  0.739772  1
  Pb  Pb14  1  0.333333  0.666667  0.000000  1
  Pb  Pb15  1  0.666667  0.333333  0.000000  1
  Pb  Pb16  1  0.666667  0.333333  0.500000  1
  Pb  Pb17  1  0.333333  0.666667  0.500000  1
