# generated using pymatgen
data_Pr8AlSi11Pt4
_symmetry_space_group_name_H-M   'P 1'
_cell_length_a   8.29710408
_cell_length_b   8.29710420
_cell_length_c   8.64818301
_cell_angle_alpha   89.99588293
_cell_angle_beta   90.00411784
_cell_angle_gamma   119.98493837
_symmetry_Int_Tables_number   1
_chemical_formula_structural   Pr8AlSi11Pt4
_chemical_formula_sum   'Pr8 Al1 Si11 Pt4'
_cell_volume   515.67309958
_cell_formula_units_Z   1
loop_
 _symmetry_equiv_pos_site_id
 _symmetry_equiv_pos_as_xyz
  1  'x, y, z'
loop_
 _atom_site_type_symbol
 _atom_site_label
 _atom_site_symmetry_multiplicity
 _atom_site_fract_x
 _atom_site_fract_y
 _atom_site_fract_z
 _atom_site_occupancy
  Pr  Pr0  1  0.499282  0.500718  0.750277  1
  Pr  Pr1  1  0.500139  0.499861  0.249831  1
  Pr  Pr2  1  0.001225  0.502202  0.749917  1
  Pr  Pr3  1  0.000030  0.501741  0.250153  1
  Pr  Pr4  1  0.497798  0.998775  0.749917  1
  Pr  Pr5  1  0.498259  0.999970  0.250153  1
  Pr  Pr6  1  0.001833  0.998167  0.748668  1
  Pr  Pr7  1  0.001873  0.998127  0.251260  1
  Al  Al8  1  0.833483  0.166517  0.000714  1
  Si  Si9  1  0.166023  0.833977  0.999187  1
  Si  Si10  1  0.332322  0.165916  0.000751  1
  Si  Si11  1  0.165669  0.834331  0.500729  1
  Si  Si12  1  0.667143  0.830141  0.999390  1
  Si  Si13  1  0.834154  0.165846  0.499115  1
  Si  Si14  1  0.834084  0.667678  0.000751  1
  Si  Si15  1  0.668396  0.834301  0.500744  1
  Si  Si16  1  0.169859  0.332857  0.999390  1
  Si  Si17  1  0.332163  0.166675  0.499289  1
  Si  Si18  1  0.165699  0.331604  0.500744  1
  Si  Si19  1  0.833325  0.667837  0.499289  1
  Pt  Pt20  1  0.664324  0.335676  0.997814  1
  Pt  Pt21  1  0.333032  0.666968  0.001768  1
  Pt  Pt22  1  0.333354  0.666646  0.498465  1
  Pt  Pt23  1  0.666534  0.333466  0.501683  1
