# generated using pymatgen
data_YTh3(Fe2I)2
_symmetry_space_group_name_H-M   'P 1'
_cell_length_a   3.99143800
_cell_length_b   3.99143825
_cell_length_c   17.83016500
_cell_angle_alpha   90.00000000
_cell_angle_beta   90.00000000
_cell_angle_gamma   119.99999789
_symmetry_Int_Tables_number   1
_chemical_formula_structural   YTh3(Fe2I)2
_chemical_formula_sum   'Y1 Th3 Fe4 I2'
_cell_volume   246.00549394
_cell_formula_units_Z   1
loop_
 _symmetry_equiv_pos_site_id
 _symmetry_equiv_pos_as_xyz
  1  'x, y, z'
loop_
 _atom_site_type_symbol
 _atom_site_label
 _atom_site_symmetry_multiplicity
 _atom_site_fract_x
 _atom_site_fract_y
 _atom_site_fract_z
 _atom_site_occupancy
  Y  Y0  1  0.000000  0.000000  0.106561  1
  Th  Th1  1  0.000000  0.000000  0.603140  1
  Th  Th2  1  0.000000  0.000000  0.901323  1
  Th  Th3  1  0.000000  0.000000  0.394609  1
  Fe  Fe4  1  0.666667  0.333333  0.001561  1
  Fe  Fe5  1  0.333333  0.666667  0.502308  1
  Fe  Fe6  1  0.333333  0.666667  0.002336  1
  Fe  Fe7  1  0.666667  0.333333  0.494739  1
  I  I8  1  0.666667  0.333333  0.243110  1
  I  I9  1  0.333333  0.666667  0.750313  1
