# generated using pymatgen
data_Yb3Co4(SiGe)2
_symmetry_space_group_name_H-M   'P 1'
_cell_length_a   6.27277702
_cell_length_b   6.27277801
_cell_length_c   6.13568110
_cell_angle_alpha   109.46616853
_cell_angle_beta   109.46616866
_cell_angle_gamma   110.36910999
_symmetry_Int_Tables_number   1
_chemical_formula_structural   Yb3Co4(SiGe)2
_chemical_formula_sum   'Yb3 Co4 Si2 Ge2'
_cell_volume   183.77334502
_cell_formula_units_Z   1
loop_
 _symmetry_equiv_pos_site_id
 _symmetry_equiv_pos_as_xyz
  1  'x, y, z'
loop_
 _atom_site_type_symbol
 _atom_site_label
 _atom_site_symmetry_multiplicity
 _atom_site_fract_x
 _atom_site_fract_y
 _atom_site_fract_z
 _atom_site_occupancy
  Yb  Yb0  1  0.500919  0.500919  0.000000  1
  Yb  Yb1  1  0.501764  0.001764  0.500000  1
  Yb  Yb2  1  0.001764  0.501764  0.500000  1
  Co  Co3  1  0.253565  0.005635  0.000000  1
  Co  Co4  1  0.005635  0.253565  0.000000  1
  Co  Co5  1  0.005994  0.005994  0.264257  1
  Co  Co6  1  0.741736  0.741736  0.735743  1
  Si  Si7  1  0.376908  0.376908  0.379223  1
  Si  Si8  1  0.997685  0.997685  0.620778  1
  Ge  Ge9  1  0.617261  0.996769  0.000000  1
  Ge  Ge10  1  0.996769  0.617261  0.000000  1
