# generated using pymatgen
data_Pr7Sm(GeI6)2
_symmetry_space_group_name_H-M   'P 1'
_cell_length_a   4.37804400
_cell_length_b   14.55886759
_cell_length_c   15.35040900
_cell_angle_alpha   90.04022036
_cell_angle_beta   90.00000000
_cell_angle_gamma   90.00000000
_symmetry_Int_Tables_number   1
_chemical_formula_structural   Pr7Sm(GeI6)2
_chemical_formula_sum   'Pr7 Sm1 Ge2 I12'
_cell_volume   978.42504864
_cell_formula_units_Z   1
loop_
 _symmetry_equiv_pos_site_id
 _symmetry_equiv_pos_as_xyz
  1  'x, y, z'
loop_
 _atom_site_type_symbol
 _atom_site_label
 _atom_site_symmetry_multiplicity
 _atom_site_fract_x
 _atom_site_fract_y
 _atom_site_fract_z
 _atom_site_occupancy
  Pr  Pr0  1  0.500000  0.115995  0.345123  1
  Pr  Pr1  1  0.500000  0.884058  0.654934  1
  Pr  Pr2  1  0.500000  0.615210  0.153835  1
  Pr  Pr3  1  0.000000  0.114689  0.577166  1
  Pr  Pr4  1  0.000000  0.885817  0.423227  1
  Pr  Pr5  1  0.000000  0.613860  0.923323  1
  Pr  Pr6  1  0.000000  0.386025  0.076490  1
  Sm  Sm7  1  0.500000  0.385038  0.846342  1
  Ge  Ge8  1  0.500000  0.000099  0.500067  1
  Ge  Ge9  1  0.500000  0.499133  0.998831  1
  I  I10  1  0.500000  0.243646  0.162044  1
  I  I11  1  0.500000  0.756081  0.837553  1
  I  I12  1  0.500000  0.743528  0.337488  1
  I  I13  1  0.500000  0.257555  0.664604  1
  I  I14  1  0.000000  0.259114  0.415160  1
  I  I15  1  0.000000  0.740810  0.584964  1
  I  I16  1  0.000000  0.758866  0.084885  1
  I  I17  1  0.000000  0.244928  0.911733  1
  I  I18  1  0.000000  0.998364  0.240145  1
  I  I19  1  0.000000  0.001690  0.760030  1
  I  I20  1  0.000000  0.498368  0.259678  1
  I  I21  1  0.000000  0.497125  0.742378  1
