# generated using pymatgen
data_Y4Al4RuPt3
_symmetry_space_group_name_H-M   'P 1'
_cell_length_a   4.39415300
_cell_length_b   6.88484985
_cell_length_c   7.81925106
_cell_angle_alpha   89.75738026
_cell_angle_beta   90.00000000
_cell_angle_gamma   90.00000000
_symmetry_Int_Tables_number   1
_chemical_formula_structural   Y4Al4RuPt3
_chemical_formula_sum   'Y4 Al4 Ru1 Pt3'
_cell_volume   236.55433524
_cell_formula_units_Z   1
loop_
 _symmetry_equiv_pos_site_id
 _symmetry_equiv_pos_as_xyz
  1  'x, y, z'
loop_
 _atom_site_type_symbol
 _atom_site_label
 _atom_site_symmetry_multiplicity
 _atom_site_fract_x
 _atom_site_fract_y
 _atom_site_fract_z
 _atom_site_occupancy
  Y  Y0  1  0.250000  0.029347  0.679172  1
  Y  Y1  1  0.250000  0.526893  0.818245  1
  Y  Y2  1  0.750000  0.980350  0.318570  1
  Y  Y3  1  0.750000  0.471808  0.186303  1
  Al  Al4  1  0.250000  0.147596  0.063629  1
  Al  Al5  1  0.250000  0.641542  0.434753  1
  Al  Al6  1  0.750000  0.854141  0.935991  1
  Al  Al7  1  0.750000  0.352599  0.563448  1
  Ru  Ru8  1  0.250000  0.268058  0.384260  1
  Pt  Pt9  1  0.250000  0.775662  0.114935  1
  Pt  Pt10  1  0.750000  0.725985  0.616554  1
  Pt  Pt11  1  0.750000  0.226020  0.884140  1
