# generated using pymatgen
data_Li2NbV5S12
_symmetry_space_group_name_H-M   'P 1'
_cell_length_a   5.58594500
_cell_length_b   5.58594588
_cell_length_c   13.18348600
_cell_angle_alpha   90.00000000
_cell_angle_beta   90.00000000
_cell_angle_gamma   120.00000072
_symmetry_Int_Tables_number   1
_chemical_formula_structural   Li2NbV5S12
_chemical_formula_sum   'Li2 Nb1 V5 S12'
_cell_volume   356.24950512
_cell_formula_units_Z   1
loop_
 _symmetry_equiv_pos_site_id
 _symmetry_equiv_pos_as_xyz
  1  'x, y, z'
loop_
 _atom_site_type_symbol
 _atom_site_label
 _atom_site_symmetry_multiplicity
 _atom_site_fract_x
 _atom_site_fract_y
 _atom_site_fract_z
 _atom_site_occupancy
  Li  Li0  1  0.000000  0.000000  0.997851  1
  Li  Li1  1  0.000000  0.000000  0.502149  1
  Nb  Nb2  1  0.666667  0.333333  0.250000  1
  V  V3  1  0.333333  0.666667  0.250000  1
  V  V4  1  0.000000  0.000000  0.250000  1
  V  V5  1  0.000000  0.000000  0.750000  1
  V  V6  1  0.333333  0.666667  0.750000  1
  V  V7  1  0.666667  0.333333  0.750000  1
  S  S8  1  0.999798  0.666135  0.638680  1
  S  S9  1  0.999798  0.666135  0.861320  1
  S  S10  1  0.013150  0.334148  0.135332  1
  S  S11  1  0.013150  0.334148  0.364668  1
  S  S12  1  0.333865  0.333663  0.638680  1
  S  S13  1  0.333865  0.333663  0.861320  1
  S  S14  1  0.665852  0.679001  0.135332  1
  S  S15  1  0.665852  0.679001  0.364668  1
  S  S16  1  0.320999  0.986850  0.135332  1
  S  S17  1  0.320999  0.986850  0.364668  1
  S  S18  1  0.666337  0.000202  0.638680  1
  S  S19  1  0.666337  0.000202  0.861320  1
