# generated using pymatgen
data_Zr2Pa3CoBi3
_symmetry_space_group_name_H-M   'P 1'
_cell_length_a   6.12730800
_cell_length_b   9.13029166
_cell_length_c   9.13029100
_cell_angle_alpha   119.99999399
_cell_angle_beta   90.00000000
_cell_angle_gamma   90.00000000
_symmetry_Int_Tables_number   1
_chemical_formula_structural   Zr2Pa3CoBi3
_chemical_formula_sum   'Zr4 Pa6 Co2 Bi6'
_cell_volume   442.35367529
_cell_formula_units_Z   2
loop_
 _symmetry_equiv_pos_site_id
 _symmetry_equiv_pos_as_xyz
  1  'x, y, z'
loop_
 _atom_site_type_symbol
 _atom_site_label
 _atom_site_symmetry_multiplicity
 _atom_site_fract_x
 _atom_site_fract_y
 _atom_site_fract_z
 _atom_site_occupancy
  Zr  Zr0  1  0.000000  0.666667  0.333333  1
  Zr  Zr1  1  0.000000  0.333333  0.666667  1
  Zr  Zr2  1  0.500000  0.333333  0.666667  1
  Zr  Zr3  1  0.500000  0.666667  0.333333  1
  Pa  Pa4  1  0.750000  0.760431  0.760431  1
  Pa  Pa5  1  0.250000  0.239569  0.239569  1
  Pa  Pa6  1  0.750000  0.000000  0.239569  1
  Pa  Pa7  1  0.250000  0.000000  0.760431  1
  Pa  Pa8  1  0.750000  0.239569  0.000000  1
  Pa  Pa9  1  0.250000  0.760431  0.000000  1
  Co  Co10  1  0.000000  0.000000  0.000000  1
  Co  Co11  1  0.500000  0.000000  0.000000  1
  Bi  Bi12  1  0.750000  0.400140  0.400140  1
  Bi  Bi13  1  0.250000  0.599860  0.599860  1
  Bi  Bi14  1  0.750000  0.000000  0.599860  1
  Bi  Bi15  1  0.250000  0.000000  0.400140  1
  Bi  Bi16  1  0.750000  0.599860  0.000000  1
  Bi  Bi17  1  0.250000  0.400140  0.000000  1
