# generated using pymatgen
data_Tb2Dy3Th3(Pt2Pb)4
_symmetry_space_group_name_H-M   'P 1'
_cell_length_a   8.07889198
_cell_length_b   8.07889246
_cell_length_c   7.24866600
_cell_angle_alpha   90.00000000
_cell_angle_beta   90.00000000
_cell_angle_gamma   90.32884538
_symmetry_Int_Tables_number   1
_chemical_formula_structural   Tb2Dy3Th3(Pt2Pb)4
_chemical_formula_sum   'Tb2 Dy3 Th3 Pt8 Pb4'
_cell_volume   473.10176091
_cell_formula_units_Z   1
loop_
 _symmetry_equiv_pos_site_id
 _symmetry_equiv_pos_as_xyz
  1  'x, y, z'
loop_
 _atom_site_type_symbol
 _atom_site_label
 _atom_site_symmetry_multiplicity
 _atom_site_fract_x
 _atom_site_fract_y
 _atom_site_fract_z
 _atom_site_occupancy
  Tb  Tb0  1  0.171527  0.828473  0.500000  1
  Tb  Tb1  1  0.162123  0.837877  0.000000  1
  Dy  Dy2  1  0.338551  0.340192  0.500000  1
  Dy  Dy3  1  0.659808  0.661449  0.500000  1
  Dy  Dy4  1  0.839914  0.160086  0.000000  1
  Th  Th5  1  0.673681  0.673078  0.000000  1
  Th  Th6  1  0.828731  0.171269  0.500000  1
  Th  Th7  1  0.326922  0.326319  0.000000  1
  Pt  Pt8  1  0.870118  0.872444  0.738972  1
  Pt  Pt9  1  0.127556  0.129882  0.738972  1
  Pt  Pt10  1  0.629957  0.370043  0.760662  1
  Pt  Pt11  1  0.629957  0.370043  0.239338  1
  Pt  Pt12  1  0.373936  0.626064  0.239813  1
  Pt  Pt13  1  0.127556  0.129882  0.261028  1
  Pt  Pt14  1  0.870118  0.872444  0.261028  1
  Pt  Pt15  1  0.373936  0.626064  0.760187  1
  Pb  Pb16  1  0.494597  0.996792  0.745174  1
  Pb  Pb17  1  0.494597  0.996792  0.254826  1
  Pb  Pb18  1  0.003208  0.505403  0.745174  1
  Pb  Pb19  1  0.003208  0.505403  0.254826  1
