# generated using pymatgen
data_Dy4Hf3CrF28
_symmetry_space_group_name_H-M   'P 1'
_cell_length_a   5.65321255
_cell_length_b   8.98413906
_cell_length_c   12.03426973
_cell_angle_alpha   62.57983468
_cell_angle_beta   89.90288086
_cell_angle_gamma   89.98948677
_symmetry_Int_Tables_number   1
_chemical_formula_structural   Dy4Hf3CrF28
_chemical_formula_sum   'Dy4 Hf3 Cr1 F28'
_cell_volume   542.54304620
_cell_formula_units_Z   1
loop_
 _symmetry_equiv_pos_site_id
 _symmetry_equiv_pos_as_xyz
  1  'x, y, z'
loop_
 _atom_site_type_symbol
 _atom_site_label
 _atom_site_symmetry_multiplicity
 _atom_site_fract_x
 _atom_site_fract_y
 _atom_site_fract_z
 _atom_site_occupancy
  Dy  Dy0  1  0.757889  0.815958  0.765355  1
  Dy  Dy1  1  0.260935  0.187564  0.727825  1
  Dy  Dy2  1  0.240329  0.187695  0.241130  1
  Dy  Dy3  1  0.742422  0.814820  0.266859  1
  Hf  Hf4  1  0.756979  0.273381  0.956123  1
  Hf  Hf5  1  0.255500  0.726077  0.543250  1
  Hf  Hf6  1  0.244795  0.726681  0.044834  1
  Cr  Cr7  1  0.741513  0.273582  0.454839  1
  F  F8  1  0.460603  0.708373  0.919851  1
  F  F9  1  0.934807  0.288969  0.573111  1
  F  F10  1  0.538534  0.289597  0.081248  1
  F  F11  1  0.039826  0.709162  0.418391  1
  F  F12  1  0.461951  0.278208  0.542938  1
  F  F13  1  0.950327  0.722926  0.951399  1
  F  F14  1  0.551551  0.716856  0.453048  1
  F  F15  1  0.048341  0.276717  0.051652  1
  F  F16  1  0.774563  0.523945  0.859348  1
  F  F17  1  0.265245  0.475601  0.637898  1
  F  F18  1  0.226194  0.476332  0.143419  1
  F  F19  1  0.730254  0.504127  0.364390  1
  F  F20  1  0.757926  0.023035  0.057528  1
  F  F21  1  0.262225  0.975910  0.445899  1
  F  F22  1  0.242585  0.975506  0.941156  1
  F  F23  1  0.743222  0.042920  0.545074  1
  F  F24  1  0.977571  0.734757  0.643690  1
  F  F25  1  0.484635  0.268712  0.850741  1
  F  F26  1  0.010141  0.268866  0.362303  1
  F  F27  1  0.519763  0.728850  0.149215  1
  F  F28  1  0.038074  0.746464  0.173997  1
  F  F29  1  0.550037  0.256121  0.333832  1
  F  F30  1  0.966347  0.253263  0.826833  1
  F  F31  1  0.463828  0.747042  0.671600  1
  F  F32  1  0.422244  0.972924  0.236785  1
  F  F33  1  0.922744  0.027764  0.269480  1
  F  F34  1  0.577920  0.028137  0.766388  1
  F  F35  1  0.078178  0.973155  0.728572  1
