# generated using pymatgen
data_Ce2Re(TcB3)2
_symmetry_space_group_name_H-M   'P 1'
_cell_length_a   6.27785782
_cell_length_b   6.27785709
_cell_length_c   7.53287413
_cell_angle_alpha   90.61361570
_cell_angle_beta   90.61362093
_cell_angle_gamma   114.47030945
_symmetry_Int_Tables_number   1
_chemical_formula_structural   Ce2Re(TcB3)2
_chemical_formula_sum   'Ce4 Re2 Tc4 B12'
_cell_volume   270.16181259
_cell_formula_units_Z   2
loop_
 _symmetry_equiv_pos_site_id
 _symmetry_equiv_pos_as_xyz
  1  'x, y, z'
loop_
 _atom_site_type_symbol
 _atom_site_label
 _atom_site_symmetry_multiplicity
 _atom_site_fract_x
 _atom_site_fract_y
 _atom_site_fract_z
 _atom_site_occupancy
  Ce  Ce0  1  0.098210  0.446434  0.331010  1
  Ce  Ce1  1  0.553566  0.901790  0.168990  1
  Ce  Ce2  1  0.902968  0.553376  0.668512  1
  Ce  Ce3  1  0.446624  0.097032  0.831488  1
  Re  Re4  1  0.010020  0.194328  0.911764  1
  Re  Re5  1  0.805672  0.989980  0.588236  1
  Tc  Tc6  1  0.589677  0.410323  0.250000  1
  Tc  Tc7  1  0.410345  0.589655  0.750000  1
  Tc  Tc8  1  0.988995  0.805762  0.087989  1
  Tc  Tc9  1  0.194238  0.011005  0.412011  1
  B  B10  1  0.243936  0.155703  0.133825  1
  B  B11  1  0.844297  0.756064  0.366175  1
  B  B12  1  0.754413  0.844059  0.864793  1
  B  B13  1  0.155941  0.245587  0.635207  1
  B  B14  1  0.582566  0.157588  0.483493  1
  B  B15  1  0.842412  0.417434  0.016507  1
  B  B16  1  0.417117  0.841763  0.516257  1
  B  B17  1  0.158237  0.582883  0.983743  1
  B  B18  1  0.444538  0.349503  0.534898  1
  B  B19  1  0.650497  0.555462  0.965102  1
  B  B20  1  0.555261  0.649528  0.464844  1
  B  B21  1  0.350472  0.444739  0.035156  1
