# generated using pymatgen
data_La5IrAu2
_symmetry_space_group_name_H-M   'P 1'
_cell_length_a   8.91281100
_cell_length_b   8.55591700
_cell_length_c   12.43724800
_cell_angle_alpha   90.00000000
_cell_angle_beta   90.00000000
_cell_angle_gamma   90.00000000
_symmetry_Int_Tables_number   1
_chemical_formula_structural   La5IrAu2
_chemical_formula_sum   'La20 Ir4 Au8'
_cell_volume   948.43059313
_cell_formula_units_Z   4
loop_
 _symmetry_equiv_pos_site_id
 _symmetry_equiv_pos_as_xyz
  1  'x, y, z'
loop_
 _atom_site_type_symbol
 _atom_site_label
 _atom_site_symmetry_multiplicity
 _atom_site_fract_x
 _atom_site_fract_y
 _atom_site_fract_z
 _atom_site_occupancy
  La  La0  1  0.670730  0.750000  0.712727  1
  La  La1  1  0.329270  0.250000  0.287273  1
  La  La2  1  0.170730  0.250000  0.787273  1
  La  La3  1  0.829270  0.750000  0.212727  1
  La  La4  1  0.131236  0.750000  0.804322  1
  La  La5  1  0.868764  0.250000  0.195678  1
  La  La6  1  0.631236  0.250000  0.695678  1
  La  La7  1  0.368764  0.750000  0.304322  1
  La  La8  1  0.545172  0.750000  0.001208  1
  La  La9  1  0.454828  0.250000  0.998792  1
  La  La10  1  0.045172  0.250000  0.498792  1
  La  La11  1  0.954828  0.750000  0.501208  1
  La  La12  1  0.827741  0.457269  0.920777  1
  La  La13  1  0.172259  0.542731  0.079223  1
  La  La14  1  0.327741  0.542731  0.579223  1
  La  La15  1  0.172259  0.957269  0.079223  1
  La  La16  1  0.672259  0.457269  0.420777  1
  La  La17  1  0.827741  0.042731  0.920777  1
  La  La18  1  0.672259  0.042731  0.420777  1
  La  La19  1  0.327741  0.957269  0.579223  1
  Ir  Ir20  1  0.923736  0.750000  0.989526  1
  Ir  Ir21  1  0.076264  0.250000  0.010474  1
  Ir  Ir22  1  0.423736  0.250000  0.510474  1
  Ir  Ir23  1  0.576264  0.750000  0.489526  1
  Au  Au24  1  0.939488  0.017529  0.675357  1
  Au  Au25  1  0.060512  0.982471  0.324643  1
  Au  Au26  1  0.439488  0.982471  0.824643  1
  Au  Au27  1  0.060512  0.517529  0.324643  1
  Au  Au28  1  0.560512  0.017529  0.175357  1
  Au  Au29  1  0.939488  0.482471  0.675357  1
  Au  Au30  1  0.560512  0.482471  0.175357  1
  Au  Au31  1  0.439488  0.517529  0.824643  1
