# generated using pymatgen
data_La3Pr17(CoPd2)4
_symmetry_space_group_name_H-M   'P 1'
_cell_length_a   8.64710924
_cell_length_b   8.35604000
_cell_length_c   11.98949973
_cell_angle_alpha   90.00000000
_cell_angle_beta   89.93855224
_cell_angle_gamma   90.00000000
_symmetry_Int_Tables_number   1
_chemical_formula_structural   La3Pr17(CoPd2)4
_chemical_formula_sum   'La3 Pr17 Co4 Pd8'
_cell_volume   866.30788678
_cell_formula_units_Z   1
loop_
 _symmetry_equiv_pos_site_id
 _symmetry_equiv_pos_as_xyz
  1  'x, y, z'
loop_
 _atom_site_type_symbol
 _atom_site_label
 _atom_site_symmetry_multiplicity
 _atom_site_fract_x
 _atom_site_fract_y
 _atom_site_fract_z
 _atom_site_occupancy
  La  La0  1  0.836974  0.750000  0.798932  1
  La  La1  1  0.163696  0.250000  0.202017  1
  La  La2  1  0.337320  0.250000  0.700969  1
  Pr  Pr3  1  0.665711  0.750000  0.294582  1
  Pr  Pr4  1  0.377263  0.750000  0.696597  1
  Pr  Pr5  1  0.623113  0.250000  0.305576  1
  Pr  Pr6  1  0.878071  0.250000  0.805134  1
  Pr  Pr7  1  0.121435  0.750000  0.194420  1
  Pr  Pr8  1  0.967279  0.750000  0.495497  1
  Pr  Pr9  1  0.032401  0.250000  0.503100  1
  Pr  Pr10  1  0.467538  0.250000  0.003649  1
  Pr  Pr11  1  0.531334  0.750000  0.997181  1
  Pr  Pr12  1  0.675091  0.032793  0.581225  1
  Pr  Pr13  1  0.326509  0.963983  0.418439  1
  Pr  Pr14  1  0.175632  0.965932  0.918720  1
  Pr  Pr15  1  0.326509  0.536017  0.418439  1
  Pr  Pr16  1  0.824281  0.034711  0.081490  1
  Pr  Pr17  1  0.675091  0.467207  0.581225  1
  Pr  Pr18  1  0.824281  0.465289  0.081490  1
  Pr  Pr19  1  0.175632  0.534068  0.918720  1
  Co  Co20  1  0.560766  0.750000  0.509460  1
  Co  Co21  1  0.435905  0.250000  0.493610  1
  Co  Co22  1  0.063671  0.250000  0.994033  1
  Co  Co23  1  0.935783  0.750000  0.006036  1
  Pd  Pd24  1  0.565824  0.475561  0.825167  1
  Pd  Pd25  1  0.434327  0.523937  0.175053  1
  Pd  Pd26  1  0.065046  0.523403  0.674924  1
  Pd  Pd27  1  0.434327  0.976063  0.175053  1
  Pd  Pd28  1  0.934159  0.476686  0.324587  1
  Pd  Pd29  1  0.565824  0.024439  0.825167  1
  Pd  Pd30  1  0.934159  0.023314  0.324587  1
  Pd  Pd31  1  0.065046  0.976597  0.674924  1
