# generated using pymatgen
data_Dy7Zr3(In2Rh)4
_symmetry_space_group_name_H-M   'P 1'
_cell_length_a   3.57191300
_cell_length_b   8.00955209
_cell_length_c   17.97202904
_cell_angle_alpha   90.05713144
_cell_angle_beta   90.00000000
_cell_angle_gamma   90.00000000
_symmetry_Int_Tables_number   1
_chemical_formula_structural   Dy7Zr3(In2Rh)4
_chemical_formula_sum   'Dy7 Zr3 In8 Rh4'
_cell_volume   514.16912930
_cell_formula_units_Z   1
loop_
 _symmetry_equiv_pos_site_id
 _symmetry_equiv_pos_as_xyz
  1  'x, y, z'
loop_
 _atom_site_type_symbol
 _atom_site_label
 _atom_site_symmetry_multiplicity
 _atom_site_fract_x
 _atom_site_fract_y
 _atom_site_fract_z
 _atom_site_occupancy
  Dy  Dy0  1  0.500000  0.756659  0.720256  1
  Dy  Dy1  1  0.500000  0.256180  0.783885  1
  Dy  Dy2  1  0.500000  0.500225  0.999650  1
  Dy  Dy3  1  0.500000  0.743048  0.216739  1
  Dy  Dy4  1  0.500000  0.245998  0.279392  1
  Dy  Dy5  1  0.500000  0.998328  0.501847  1
  Dy  Dy6  1  0.500000  0.619997  0.413174  1
  Zr  Zr7  1  0.500000  0.381193  0.588694  1
  Zr  Zr8  1  0.500000  0.882588  0.914518  1
  Zr  Zr9  1  0.500000  0.118583  0.085644  1
  In  In10  1  0.000000  0.805435  0.060816  1
  In  In11  1  0.000000  0.928997  0.347066  1
  In  In12  1  0.000000  0.082340  0.652798  1
  In  In13  1  0.000000  0.582718  0.849659  1
  In  In14  1  0.000000  0.697980  0.566833  1
  In  In15  1  0.000000  0.195484  0.938957  1
  In  In16  1  0.000000  0.297043  0.436902  1
  In  In17  1  0.000000  0.417577  0.148032  1
  Rh  Rh18  1  0.000000  0.968379  0.811938  1
  Rh  Rh19  1  0.000000  0.523877  0.303860  1
  Rh  Rh20  1  0.000000  0.465802  0.691188  1
  Rh  Rh21  1  0.000000  0.031568  0.188149  1
