# generated using pymatgen
data_U2Si5Ir3
_symmetry_space_group_name_H-M   'P 1'
_cell_length_a   8.12974935
_cell_length_b   8.12974946
_cell_length_c   8.12975084
_cell_angle_alpha   137.80208178
_cell_angle_beta   103.54083625
_cell_angle_gamma   91.43441772
_symmetry_Int_Tables_number   1
_chemical_formula_structural   U2Si5Ir3
_chemical_formula_sum   'U4 Si10 Ir6'
_cell_volume   334.27965240
_cell_formula_units_Z   2
loop_
 _symmetry_equiv_pos_site_id
 _symmetry_equiv_pos_as_xyz
  1  'x, y, z'
loop_
 _atom_site_type_symbol
 _atom_site_label
 _atom_site_symmetry_multiplicity
 _atom_site_fract_x
 _atom_site_fract_y
 _atom_site_fract_z
 _atom_site_occupancy
  U  U0  1  0.639432  0.368427  0.271005  1
  U  U1  1  0.360568  0.631573  0.728995  1
  U  U2  1  0.902579  0.131573  0.771005  1
  U  U3  1  0.097421  0.868427  0.228995  1
  Si  Si4  1  0.274597  0.024597  0.750000  1
  Si  Si5  1  0.453252  0.107125  0.346127  1
  Si  Si6  1  0.274597  0.524597  0.250000  1
  Si  Si7  1  0.000000  0.750000  0.750000  1
  Si  Si8  1  0.725403  0.475403  0.750000  1
  Si  Si9  1  0.239001  0.392875  0.846127  1
  Si  Si10  1  0.546748  0.892875  0.653873  1
  Si  Si11  1  0.760999  0.607125  0.153873  1
  Si  Si12  1  0.725403  0.975403  0.250000  1
  Si  Si13  1  0.000000  0.250000  0.250000  1
  Ir  Ir14  1  0.744454  0.859762  0.884692  1
  Ir  Ir15  1  0.024931  0.640238  0.384692  1
  Ir  Ir16  1  0.975069  0.359762  0.615308  1
  Ir  Ir17  1  0.255546  0.140238  0.115308  1
  Ir  Ir18  1  0.500000  0.750000  0.250000  1
  Ir  Ir19  1  0.500000  0.250000  0.750000  1
