# generated using pymatgen
data_HoZr(SiTc2)4
_symmetry_space_group_name_H-M   'P 1'
_cell_length_a   7.33324578
_cell_length_b   7.33324578
_cell_length_c   4.11080400
_cell_angle_alpha   90.00000000
_cell_angle_beta   90.00000000
_cell_angle_gamma   88.73790007
_symmetry_Int_Tables_number   1
_chemical_formula_structural   HoZr(SiTc2)4
_chemical_formula_sum   'Ho1 Zr1 Si4 Tc8'
_cell_volume   221.01099446
_cell_formula_units_Z   1
loop_
 _symmetry_equiv_pos_site_id
 _symmetry_equiv_pos_as_xyz
  1  'x, y, z'
loop_
 _atom_site_type_symbol
 _atom_site_label
 _atom_site_symmetry_multiplicity
 _atom_site_fract_x
 _atom_site_fract_y
 _atom_site_fract_z
 _atom_site_occupancy
  Ho  Ho0  1  0.500000  0.500000  0.000000  1
  Zr  Zr1  1  0.000000  0.000000  0.500000  1
  Si  Si2  1  0.202179  0.797821  0.000000  1
  Si  Si3  1  0.287154  0.287154  0.500000  1
  Si  Si4  1  0.712846  0.712846  0.500000  1
  Si  Si5  1  0.797821  0.202179  0.000000  1
  Tc  Tc6  1  0.600287  0.151711  0.500000  1
  Tc  Tc7  1  0.399713  0.848289  0.500000  1
  Tc  Tc8  1  0.151711  0.600287  0.500000  1
  Tc  Tc9  1  0.848289  0.399713  0.500000  1
  Tc  Tc10  1  0.087230  0.341737  0.000000  1
  Tc  Tc11  1  0.912770  0.658263  0.000000  1
  Tc  Tc12  1  0.658263  0.912770  0.000000  1
  Tc  Tc13  1  0.341737  0.087230  0.000000  1
