# generated using pymatgen
data_Dy5Mn3Co16Si5P7
_symmetry_space_group_name_H-M   'P 1'
_cell_length_a   12.09533270
_cell_length_b   12.09585313
_cell_length_c   3.68366000
_cell_angle_alpha   90.00000000
_cell_angle_beta   90.00000000
_cell_angle_gamma   119.98465343
_symmetry_Int_Tables_number   1
_chemical_formula_structural   Dy5Mn3Co16Si5P7
_chemical_formula_sum   'Dy5 Mn3 Co16 Si5 P7'
_cell_volume   466.80084461
_cell_formula_units_Z   1
loop_
 _symmetry_equiv_pos_site_id
 _symmetry_equiv_pos_as_xyz
  1  'x, y, z'
loop_
 _atom_site_type_symbol
 _atom_site_label
 _atom_site_symmetry_multiplicity
 _atom_site_fract_x
 _atom_site_fract_y
 _atom_site_fract_z
 _atom_site_occupancy
  Dy  Dy0  1  0.665949  0.333634  0.000000  1
  Dy  Dy1  1  0.331952  0.664320  0.000000  1
  Dy  Dy2  1  0.185762  0.184890  0.500000  1
  Dy  Dy3  1  0.815243  0.000822  0.500000  1
  Dy  Dy4  1  0.999963  0.813644  0.500000  1
  Mn  Mn5  1  0.554514  0.555422  0.000000  1
  Mn  Mn6  1  0.443235  0.999663  0.000000  1
  Mn  Mn7  1  0.000767  0.444745  0.000000  1
  Co  Co8  1  0.823342  0.195972  0.000000  1
  Co  Co9  1  0.804708  0.626969  0.000000  1
  Co  Co10  1  0.372068  0.177402  0.000000  1
  Co  Co11  1  0.194518  0.819773  0.000000  1
  Co  Co12  1  0.627319  0.805419  0.000000  1
  Co  Co13  1  0.177718  0.376677  0.000000  1
  Co  Co14  1  0.644519  0.121376  0.500000  1
  Co  Co15  1  0.878646  0.523214  0.500000  1
  Co  Co16  1  0.475470  0.355658  0.500000  1
  Co  Co17  1  0.122680  0.639433  0.500000  1
  Co  Co18  1  0.523174  0.878437  0.500000  1
  Co  Co19  1  0.352668  0.477368  0.500000  1
  Co  Co20  1  0.722187  0.722342  0.500000  1
  Co  Co21  1  0.277720  0.998789  0.500000  1
  Co  Co22  1  0.004070  0.283318  0.500000  1
  Co  Co23  1  0.000310  0.000842  0.000000  1
  Si  Si24  1  0.837181  0.316379  0.500000  1
  Si  Si25  1  0.682109  0.521623  0.500000  1
  Si  Si26  1  0.478085  0.161931  0.500000  1
  Si  Si27  1  0.316604  0.836975  0.500000  1
  Si  Si28  1  0.521736  0.683313  0.500000  1
  P  P29  1  0.366866  0.366876  0.000000  1
  P  P30  1  0.634281  0.000019  0.000000  1
  P  P31  1  0.999559  0.633826  0.000000  1
  P  P32  1  0.164670  0.479192  0.500000  1
  P  P33  1  0.819562  0.819624  0.000000  1
  P  P34  1  0.180076  0.998617  0.000000  1
  P  P35  1  0.000766  0.181496  0.000000  1
