# generated using pymatgen
data_CeTm2In3Pt2Rh
_symmetry_space_group_name_H-M   'P 1'
_cell_length_a   7.74153302
_cell_length_b   7.74153529
_cell_length_c   3.79873200
_cell_angle_alpha   90.00000000
_cell_angle_beta   90.00000000
_cell_angle_gamma   120.42471691
_symmetry_Int_Tables_number   1
_chemical_formula_structural   CeTm2In3Pt2Rh
_chemical_formula_sum   'Ce1 Tm2 In3 Pt2 Rh1'
_cell_volume   196.31285427
_cell_formula_units_Z   1
loop_
 _symmetry_equiv_pos_site_id
 _symmetry_equiv_pos_as_xyz
  1  'x, y, z'
loop_
 _atom_site_type_symbol
 _atom_site_label
 _atom_site_symmetry_multiplicity
 _atom_site_fract_x
 _atom_site_fract_y
 _atom_site_fract_z
 _atom_site_occupancy
  Ce  Ce0  1  0.593617  0.593617  0.500000  1
  Tm  Tm1  1  0.407104  0.002802  0.500000  1
  Tm  Tm2  1  0.002802  0.407104  0.500000  1
  In  In3  1  0.742906  0.007190  0.000000  1
  In  In4  1  0.007190  0.742906  0.000000  1
  In  In5  1  0.251651  0.251651  0.000000  1
  Pt  Pt6  1  0.334320  0.666092  0.000000  1
  Pt  Pt7  1  0.666092  0.334320  0.000000  1
  Rh  Rh8  1  0.994315  0.994315  0.500000  1
