# generated using pymatgen
data_DyZn2CdIr2
_symmetry_space_group_name_H-M   'P 1'
_cell_length_a   5.64579557
_cell_length_b   5.23868381
_cell_length_c   5.23868266
_cell_angle_alpha   59.42236334
_cell_angle_beta   57.39416985
_cell_angle_gamma   57.39417461
_symmetry_Int_Tables_number   1
_chemical_formula_structural   DyZn2CdIr2
_chemical_formula_sum   'Dy1 Zn2 Cd1 Ir2'
_cell_volume   104.61839266
_cell_formula_units_Z   1
loop_
 _symmetry_equiv_pos_site_id
 _symmetry_equiv_pos_as_xyz
  1  'x, y, z'
loop_
 _atom_site_type_symbol
 _atom_site_label
 _atom_site_symmetry_multiplicity
 _atom_site_fract_x
 _atom_site_fract_y
 _atom_site_fract_z
 _atom_site_occupancy
  Dy  Dy0  1  0.238002  0.261998  0.261998  1
  Zn  Zn1  1  0.628726  0.617923  0.124624  1
  Zn  Zn2  1  0.628726  0.124624  0.617923  1
  Cd  Cd3  1  0.999935  0.000065  0.000065  1
  Ir  Ir4  1  0.124987  0.622695  0.622695  1
  Ir  Ir5  1  0.629624  0.622695  0.622695  1
