# generated using pymatgen
data_Ta8CoCu3N2
_symmetry_space_group_name_H-M   'P 1'
_cell_length_a   8.24999688
_cell_length_b   8.24999752
_cell_length_c   8.26025200
_cell_angle_alpha   59.95887444
_cell_angle_beta   59.95887187
_cell_angle_gamma   59.96429467
_symmetry_Int_Tables_number   1
_chemical_formula_structural   Ta8CoCu3N2
_chemical_formula_sum   'Ta16 Co2 Cu6 N4'
_cell_volume   397.19014798
_cell_formula_units_Z   2
loop_
 _symmetry_equiv_pos_site_id
 _symmetry_equiv_pos_as_xyz
  1  'x, y, z'
loop_
 _atom_site_type_symbol
 _atom_site_label
 _atom_site_symmetry_multiplicity
 _atom_site_fract_x
 _atom_site_fract_y
 _atom_site_fract_z
 _atom_site_occupancy
  Ta  Ta0  1  0.117282  0.634243  0.624237  1
  Ta  Ta1  1  0.634243  0.117282  0.624237  1
  Ta  Ta2  1  0.630145  0.630145  0.122201  1
  Ta  Ta3  1  0.630145  0.630145  0.617508  1
  Ta  Ta4  1  0.816915  0.816915  0.183085  1
  Ta  Ta5  1  0.185086  0.185086  0.814914  1
  Ta  Ta6  1  0.816425  0.181661  0.815558  1
  Ta  Ta7  1  0.181661  0.816425  0.186356  1
  Ta  Ta8  1  0.181661  0.816425  0.815558  1
  Ta  Ta9  1  0.816425  0.181661  0.186356  1
  Ta  Ta10  1  0.437241  0.437241  0.062759  1
  Ta  Ta11  1  0.066053  0.066053  0.433947  1
  Ta  Ta12  1  0.435168  0.065582  0.435666  1
  Ta  Ta13  1  0.065582  0.435168  0.063584  1
  Ta  Ta14  1  0.065582  0.435168  0.435666  1
  Ta  Ta15  1  0.435168  0.065582  0.063584  1
  Co  Co16  1  0.826350  0.826350  0.516833  1
  Co  Co17  1  0.826350  0.826350  0.830466  1
  Cu  Cu18  1  0.752119  0.416209  0.415837  1
  Cu  Cu19  1  0.416209  0.752119  0.415837  1
  Cu  Cu20  1  0.416738  0.416738  0.750649  1
  Cu  Cu21  1  0.416738  0.416738  0.415876  1
  Cu  Cu22  1  0.497950  0.832005  0.835022  1
  Cu  Cu23  1  0.832005  0.497950  0.835022  1
  N  N24  1  0.622971  0.126290  0.125369  1
  N  N25  1  0.126290  0.622971  0.125369  1
  N  N26  1  0.125749  0.125749  0.623448  1
  N  N27  1  0.125749  0.125749  0.125055  1
