# generated using pymatgen
data_Er2Si7(PdPt3)3
_symmetry_space_group_name_H-M   'P 1'
_cell_length_a   9.94245300
_cell_length_b   9.94245336
_cell_length_c   3.92336100
_cell_angle_alpha   90.00000000
_cell_angle_beta   90.00000000
_cell_angle_gamma   120.00000213
_symmetry_Int_Tables_number   1
_chemical_formula_structural   Er2Si7(PdPt3)3
_chemical_formula_sum   'Er2 Si7 Pd3 Pt9'
_cell_volume   335.87370275
_cell_formula_units_Z   1
loop_
 _symmetry_equiv_pos_site_id
 _symmetry_equiv_pos_as_xyz
  1  'x, y, z'
loop_
 _atom_site_type_symbol
 _atom_site_label
 _atom_site_symmetry_multiplicity
 _atom_site_fract_x
 _atom_site_fract_y
 _atom_site_fract_z
 _atom_site_occupancy
  Er  Er0  1  0.000000  0.000000  0.000000  1
  Er  Er1  1  0.333333  0.666667  0.500000  1
  Si  Si2  1  0.264565  0.216190  0.500000  1
  Si  Si3  1  0.783810  0.048377  0.500000  1
  Si  Si4  1  0.951623  0.735435  0.500000  1
  Si  Si5  1  0.552409  0.633661  0.000000  1
  Si  Si6  1  0.366339  0.918748  0.000000  1
  Si  Si7  1  0.081252  0.447591  0.000000  1
  Si  Si8  1  0.666667  0.333333  0.000000  1
  Pd  Pd9  1  0.884884  0.459959  0.500000  1
  Pd  Pd10  1  0.575076  0.115116  0.500000  1
  Pd  Pd11  1  0.540041  0.424924  0.500000  1
  Pt  Pt12  1  0.214211  0.943337  0.500000  1
  Pt  Pt13  1  0.056663  0.270876  0.500000  1
  Pt  Pt14  1  0.729124  0.785789  0.500000  1
  Pt  Pt15  1  0.303692  0.412720  0.000000  1
  Pt  Pt16  1  0.587280  0.890972  0.000000  1
  Pt  Pt17  1  0.109028  0.696308  0.000000  1
  Pt  Pt18  1  0.389147  0.172228  0.000000  1
  Pt  Pt19  1  0.827772  0.216920  0.000000  1
  Pt  Pt20  1  0.783080  0.610853  0.000000  1
