# generated using pymatgen
data_Gd3Pa(B4Os)4
_symmetry_space_group_name_H-M   'P 1'
_cell_length_a   5.99547522
_cell_length_b   11.61404642
_cell_length_c   3.59259500
_cell_angle_alpha   90.00000000
_cell_angle_beta   90.00000000
_cell_angle_gamma   90.03081708
_symmetry_Int_Tables_number   1
_chemical_formula_structural   Gd3Pa(B4Os)4
_chemical_formula_sum   'Gd3 Pa1 B16 Os4'
_cell_volume   250.15855979
_cell_formula_units_Z   1
loop_
 _symmetry_equiv_pos_site_id
 _symmetry_equiv_pos_as_xyz
  1  'x, y, z'
loop_
 _atom_site_type_symbol
 _atom_site_label
 _atom_site_symmetry_multiplicity
 _atom_site_fract_x
 _atom_site_fract_y
 _atom_site_fract_z
 _atom_site_occupancy
  Gd  Gd0  1  0.870840  0.849160  0.000000  1
  Gd  Gd1  1  0.628355  0.352166  0.000000  1
  Gd  Gd2  1  0.371456  0.649636  0.000000  1
  Pa  Pa3  1  0.128856  0.149973  0.000000  1
  B  B4  1  0.472183  0.190955  0.499998  1
  B  B5  1  0.525711  0.809034  0.499998  1
  B  B6  1  0.972592  0.309178  0.499998  1
  B  B7  1  0.026363  0.690785  0.499998  1
  B  B8  1  0.287971  0.313263  0.499998  1
  B  B9  1  0.712608  0.685198  0.499998  1
  B  B10  1  0.789100  0.186316  0.499998  1
  B  B11  1  0.213365  0.813527  0.499998  1
  B  B12  1  0.362112  0.469369  0.499998  1
  B  B13  1  0.636483  0.530965  0.499998  1
  B  B14  1  0.864453  0.030918  0.499998  1
  B  B15  1  0.136066  0.968786  0.499998  1
  B  B16  1  0.387814  0.045710  0.499998  1
  B  B17  1  0.612475  0.952897  0.499998  1
  B  B18  1  0.887138  0.454438  0.499998  1
  B  B19  1  0.111999  0.546269  0.499998  1
  Os  Os20  1  0.140151  0.403477  0.000000  1
  Os  Os21  1  0.861796  0.593013  0.000000  1
  Os  Os22  1  0.642046  0.096003  0.000000  1
  Os  Os23  1  0.358073  0.908963  0.000000  1
