# generated using pymatgen
data_NdU(IN)2
_symmetry_space_group_name_H-M   'P 1'
_cell_length_a   3.97071700
_cell_length_b   3.97071700
_cell_length_c   9.98707600
_cell_angle_alpha   90.00000000
_cell_angle_beta   90.00000000
_cell_angle_gamma   90.00000000
_symmetry_Int_Tables_number   1
_chemical_formula_structural   NdU(IN)2
_chemical_formula_sum   'Nd1 U1 I2 N2'
_cell_volume   157.46216749
_cell_formula_units_Z   1
loop_
 _symmetry_equiv_pos_site_id
 _symmetry_equiv_pos_as_xyz
  1  'x, y, z'
loop_
 _atom_site_type_symbol
 _atom_site_label
 _atom_site_symmetry_multiplicity
 _atom_site_fract_x
 _atom_site_fract_y
 _atom_site_fract_z
 _atom_site_occupancy
  Nd  Nd0  1  0.000000  0.500000  0.876557  1
  U  U1  1  0.500000  0.000000  0.106260  1
  I  I2  1  0.000000  0.500000  0.308659  1
  I  I3  1  0.500000  0.000000  0.681548  1
  N  N4  1  0.000000  0.000000  0.013488  1
  N  N5  1  0.500000  0.500000  0.013488  1
