# generated using pymatgen
data_Gd6Tm4Sn5Sb
_symmetry_space_group_name_H-M   'P 1'
_cell_length_a   9.02934800
_cell_length_b   9.02935019
_cell_length_c   6.51198000
_cell_angle_alpha   90.00000000
_cell_angle_beta   90.00000000
_cell_angle_gamma   119.98030586
_symmetry_Int_Tables_number   1
_chemical_formula_structural   Gd6Tm4Sn5Sb
_chemical_formula_sum   'Gd6 Tm4 Sn5 Sb1'
_cell_volume   459.87810179
_cell_formula_units_Z   1
loop_
 _symmetry_equiv_pos_site_id
 _symmetry_equiv_pos_as_xyz
  1  'x, y, z'
loop_
 _atom_site_type_symbol
 _atom_site_label
 _atom_site_symmetry_multiplicity
 _atom_site_fract_x
 _atom_site_fract_y
 _atom_site_fract_z
 _atom_site_occupancy
  Gd  Gd0  1  0.667309  0.333295  0.999983  1
  Gd  Gd1  1  0.333295  0.667309  0.999983  1
  Gd  Gd2  1  0.333295  0.667309  0.500017  1
  Gd  Gd3  1  0.667309  0.333295  0.500017  1
  Gd  Gd4  1  0.762125  0.000740  0.250000  1
  Gd  Gd5  1  0.000740  0.762125  0.250000  1
  Tm  Tm6  1  0.762167  0.762167  0.750000  1
  Tm  Tm7  1  0.237536  0.998203  0.750000  1
  Tm  Tm8  1  0.998203  0.237536  0.750000  1
  Tm  Tm9  1  0.239731  0.239731  0.250000  1
  Sn  Sn10  1  0.606803  0.999588  0.750000  1
  Sn  Sn11  1  0.999588  0.606803  0.750000  1
  Sn  Sn12  1  0.604283  0.604283  0.250000  1
  Sn  Sn13  1  0.393925  0.002761  0.250000  1
  Sn  Sn14  1  0.002761  0.393925  0.250000  1
  Sb  Sb15  1  0.390928  0.390928  0.750000  1
