# generated using pymatgen
data_Tb10Y2OsPt3
_symmetry_space_group_name_H-M   'P 1'
_cell_length_a   6.44738304
_cell_length_b   7.16860729
_cell_length_c   9.57396700
_cell_angle_alpha   90.00000000
_cell_angle_beta   90.00000000
_cell_angle_gamma   89.94381111
_symmetry_Int_Tables_number   1
_chemical_formula_structural   Tb10Y2OsPt3
_chemical_formula_sum   'Tb10 Y2 Os1 Pt3'
_cell_volume   442.49664231
_cell_formula_units_Z   1
loop_
 _symmetry_equiv_pos_site_id
 _symmetry_equiv_pos_as_xyz
  1  'x, y, z'
loop_
 _atom_site_type_symbol
 _atom_site_label
 _atom_site_symmetry_multiplicity
 _atom_site_fract_x
 _atom_site_fract_y
 _atom_site_fract_z
 _atom_site_occupancy
  Tb  Tb0  1  0.627218  0.036817  0.250000  1
  Tb  Tb1  1  0.866983  0.528684  0.250000  1
  Tb  Tb2  1  0.179766  0.182319  0.063443  1
  Tb  Tb3  1  0.826485  0.819886  0.938416  1
  Tb  Tb4  1  0.671621  0.318929  0.943604  1
  Tb  Tb5  1  0.826485  0.819886  0.561584  1
  Tb  Tb6  1  0.325934  0.676617  0.064012  1
  Tb  Tb7  1  0.179766  0.182319  0.436557  1
  Tb  Tb8  1  0.325934  0.676617  0.435988  1
  Tb  Tb9  1  0.671621  0.318929  0.556396  1
  Y  Y10  1  0.366313  0.969967  0.750000  1
  Y  Y11  1  0.131530  0.470795  0.750000  1
  Os  Os12  1  0.450557  0.386731  0.250000  1
  Pt  Pt13  1  0.556584  0.611576  0.750000  1
  Pt  Pt14  1  0.944251  0.113565  0.750000  1
  Pt  Pt15  1  0.048954  0.886360  0.250000  1
