# generated using pymatgen
data_MnNb2CoP2
_symmetry_space_group_name_H-M   'P 1'
_cell_length_a   3.60434400
_cell_length_b   6.17568400
_cell_length_c   7.00334100
_cell_angle_alpha   90.00000000
_cell_angle_beta   90.00000000
_cell_angle_gamma   90.00000000
_symmetry_Int_Tables_number   1
_chemical_formula_structural   MnNb2CoP2
_chemical_formula_sum   'Mn2 Nb4 Co2 P4'
_cell_volume   155.88939529
_cell_formula_units_Z   2
loop_
 _symmetry_equiv_pos_site_id
 _symmetry_equiv_pos_as_xyz
  1  'x, y, z'
loop_
 _atom_site_type_symbol
 _atom_site_label
 _atom_site_symmetry_multiplicity
 _atom_site_fract_x
 _atom_site_fract_y
 _atom_site_fract_z
 _atom_site_occupancy
  Mn  Mn0  1  0.250000  0.139475  0.439271  1
  Mn  Mn1  1  0.250000  0.639475  0.060729  1
  Nb  Nb2  1  0.250000  0.025200  0.823613  1
  Nb  Nb3  1  0.250000  0.525200  0.676387  1
  Nb  Nb4  1  0.750000  0.977970  0.174182  1
  Nb  Nb5  1  0.750000  0.477970  0.325818  1
  Co  Co6  1  0.750000  0.855067  0.563174  1
  Co  Co7  1  0.750000  0.355067  0.936826  1
  P  P8  1  0.250000  0.778353  0.377183  1
  P  P9  1  0.250000  0.278353  0.122817  1
  P  P10  1  0.750000  0.223935  0.617834  1
  P  P11  1  0.750000  0.723935  0.882166  1
