# generated using pymatgen
data_Ho7Er5(TcIr)2
_symmetry_space_group_name_H-M   'P 1'
_cell_length_a   6.28911869
_cell_length_b   7.29815523
_cell_length_c   9.09257866
_cell_angle_alpha   89.99109882
_cell_angle_beta   90.10243329
_cell_angle_gamma   90.02702972
_symmetry_Int_Tables_number   1
_chemical_formula_structural   Ho7Er5(TcIr)2
_chemical_formula_sum   'Ho7 Er5 Tc2 Ir2'
_cell_volume   417.33922593
_cell_formula_units_Z   1
loop_
 _symmetry_equiv_pos_site_id
 _symmetry_equiv_pos_as_xyz
  1  'x, y, z'
loop_
 _atom_site_type_symbol
 _atom_site_label
 _atom_site_symmetry_multiplicity
 _atom_site_fract_x
 _atom_site_fract_y
 _atom_site_fract_z
 _atom_site_occupancy
  Ho  Ho0  1  0.329195  0.676586  0.065205  1
  Ho  Ho1  1  0.170664  0.176625  0.434692  1
  Ho  Ho2  1  0.668550  0.323612  0.560703  1
  Ho  Ho3  1  0.873358  0.538263  0.249874  1
  Ho  Ho4  1  0.626688  0.038104  0.249902  1
  Ho  Ho5  1  0.133266  0.460316  0.750286  1
  Ho  Ho6  1  0.366732  0.960126  0.749924  1
  Er  Er7  1  0.831534  0.823908  0.939069  1
  Er  Er8  1  0.668175  0.323988  0.938997  1
  Er  Er9  1  0.831972  0.823809  0.561081  1
  Er  Er10  1  0.329612  0.676318  0.434566  1
  Er  Er11  1  0.170225  0.176113  0.065404  1
  Tc  Tc12  1  0.036067  0.886051  0.250160  1
  Tc  Tc13  1  0.463799  0.386202  0.249690  1
  Ir  Ir14  1  0.955823  0.114770  0.750780  1
  Ir  Ir15  1  0.544338  0.615208  0.749668  1
