# generated using pymatgen
data_Li3Yb2DySn3
_symmetry_space_group_name_H-M   'P 1'
_cell_length_a   4.83651300
_cell_length_b   4.83651351
_cell_length_c   10.74164900
_cell_angle_alpha   90.00000000
_cell_angle_beta   90.00000000
_cell_angle_gamma   119.99998968
_symmetry_Int_Tables_number   1
_chemical_formula_structural   Li3Yb2DySn3
_chemical_formula_sum   'Li3 Yb2 Dy1 Sn3'
_cell_volume   217.60376158
_cell_formula_units_Z   1
loop_
 _symmetry_equiv_pos_site_id
 _symmetry_equiv_pos_as_xyz
  1  'x, y, z'
loop_
 _atom_site_type_symbol
 _atom_site_label
 _atom_site_symmetry_multiplicity
 _atom_site_fract_x
 _atom_site_fract_y
 _atom_site_fract_z
 _atom_site_occupancy
  Li  Li0  1  0.000000  0.000000  0.803936  1
  Li  Li1  1  0.333333  0.666667  0.500000  1
  Li  Li2  1  0.000000  0.000000  0.196064  1
  Yb  Yb3  1  0.666667  0.333333  0.338781  1
  Yb  Yb4  1  0.666667  0.333333  0.661219  1
  Dy  Dy5  1  0.666667  0.333333  0.000000  1
  Sn  Sn6  1  0.333333  0.666667  0.146155  1
  Sn  Sn7  1  0.333333  0.666667  0.853845  1
  Sn  Sn8  1  0.000000  0.000000  0.500000  1
