# generated using pymatgen
data_Ta3Nb9Al8CoNi3C4
_symmetry_space_group_name_H-M   'P 1'
_cell_length_a   8.27221938
_cell_length_b   8.27229459
_cell_length_c   8.28134600
_cell_angle_alpha   60.03566575
_cell_angle_beta   60.03507764
_cell_angle_gamma   59.99906960
_symmetry_Int_Tables_number   1
_chemical_formula_structural   Ta3Nb9Al8CoNi3C4
_chemical_formula_sum   'Ta3 Nb9 Al8 Co1 Ni3 C4'
_cell_volume   400.92477694
_cell_formula_units_Z   1
loop_
 _symmetry_equiv_pos_site_id
 _symmetry_equiv_pos_as_xyz
  1  'x, y, z'
loop_
 _atom_site_type_symbol
 _atom_site_label
 _atom_site_symmetry_multiplicity
 _atom_site_fract_x
 _atom_site_fract_y
 _atom_site_fract_z
 _atom_site_occupancy
  Ta  Ta0  1  0.690101  0.311987  0.685652  1
  Ta  Ta1  1  0.938547  0.559200  0.564285  1
  Ta  Ta2  1  0.563868  0.936387  0.935681  1
  Nb  Nb3  1  0.935377  0.564955  0.934508  1
  Nb  Nb4  1  0.564625  0.564642  0.935140  1
  Nb  Nb5  1  0.937144  0.936656  0.565029  1
  Nb  Nb6  1  0.685617  0.685938  0.314827  1
  Nb  Nb7  1  0.314306  0.687536  0.684105  1
  Nb  Nb8  1  0.684558  0.315085  0.316234  1
  Nb  Nb9  1  0.312897  0.312370  0.685654  1
  Nb  Nb10  1  0.562587  0.935672  0.566161  1
  Nb  Nb11  1  0.313064  0.686742  0.314247  1
  Al  Al12  1  0.332783  0.330876  0.332823  1
  Al  Al13  1  0.245976  0.918563  0.915326  1
  Al  Al14  1  0.917688  0.246218  0.918997  1
  Al  Al15  1  0.916185  0.918018  0.248820  1
  Al  Al16  1  0.330971  0.003949  0.334887  1
  Al  Al17  1  0.332118  0.333995  0.001124  1
  Al  Al18  1  0.003845  0.331709  0.331343  1
  Al  Al19  1  0.919622  0.917479  0.916465  1
  Co  Co20  1  0.118474  0.131678  0.625186  1
  Ni  Ni21  1  0.128476  0.123011  0.123699  1
  Ni  Ni22  1  0.625084  0.124511  0.120633  1
  Ni  Ni23  1  0.124147  0.624749  0.127589  1
  C  C24  1  0.627805  0.622311  0.625207  1
  C  C25  1  0.124259  0.624241  0.624696  1
  C  C26  1  0.625338  0.124762  0.627361  1
  C  C27  1  0.624540  0.626759  0.124318  1
