# generated using pymatgen
data_DyY3(ErPt)4
_symmetry_space_group_name_H-M   'P 1'
_cell_length_a   4.75174500
_cell_length_b   7.14600285
_cell_length_c   8.77915702
_cell_angle_alpha   89.89521028
_cell_angle_beta   90.00000000
_cell_angle_gamma   90.00000000
_symmetry_Int_Tables_number   1
_chemical_formula_structural   DyY3(ErPt)4
_chemical_formula_sum   'Dy1 Y3 Er4 Pt4'
_cell_volume   298.10441079
_cell_formula_units_Z   1
loop_
 _symmetry_equiv_pos_site_id
 _symmetry_equiv_pos_as_xyz
  1  'x, y, z'
loop_
 _atom_site_type_symbol
 _atom_site_label
 _atom_site_symmetry_multiplicity
 _atom_site_fract_x
 _atom_site_fract_y
 _atom_site_fract_z
 _atom_site_occupancy
  Dy  Dy0  1  0.250000  0.990899  0.332032  1
  Y  Y1  1  0.250000  0.490182  0.169100  1
  Y  Y2  1  0.750000  0.009447  0.669352  1
  Y  Y3  1  0.750000  0.509515  0.831088  1
  Er  Er4  1  0.250000  0.855830  0.920322  1
  Er  Er5  1  0.250000  0.355523  0.579510  1
  Er  Er6  1  0.750000  0.143718  0.079861  1
  Er  Er7  1  0.750000  0.644662  0.420062  1
  Pt  Pt8  1  0.250000  0.255938  0.906491  1
  Pt  Pt9  1  0.250000  0.757071  0.592607  1
  Pt  Pt10  1  0.750000  0.744125  0.093484  1
  Pt  Pt11  1  0.750000  0.243089  0.406093  1
