# generated using pymatgen
data_Y20Ag6OsRu
_symmetry_space_group_name_H-M   'P 1'
_cell_length_a   9.55070800
_cell_length_b   9.55070735
_cell_length_c   9.71659100
_cell_angle_alpha   90.00000000
_cell_angle_beta   90.00000000
_cell_angle_gamma   120.00000226
_symmetry_Int_Tables_number   1
_chemical_formula_structural   Y20Ag6OsRu
_chemical_formula_sum   'Y20 Ag6 Os1 Ru1'
_cell_volume   767.56585886
_cell_formula_units_Z   1
loop_
 _symmetry_equiv_pos_site_id
 _symmetry_equiv_pos_as_xyz
  1  'x, y, z'
loop_
 _atom_site_type_symbol
 _atom_site_label
 _atom_site_symmetry_multiplicity
 _atom_site_fract_x
 _atom_site_fract_y
 _atom_site_fract_z
 _atom_site_occupancy
  Y  Y0  1  0.000000  0.000000  0.499689  1
  Y  Y1  1  0.000000  0.000000  0.000311  1
  Y  Y2  1  0.208654  0.791346  0.441851  1
  Y  Y3  1  0.208654  0.417308  0.441851  1
  Y  Y4  1  0.582692  0.791346  0.441851  1
  Y  Y5  1  0.791237  0.208763  0.559025  1
  Y  Y6  1  0.791237  0.582472  0.559025  1
  Y  Y7  1  0.417528  0.208763  0.559025  1
  Y  Y8  1  0.791237  0.208763  0.940975  1
  Y  Y9  1  0.791237  0.582472  0.940975  1
  Y  Y10  1  0.417528  0.208763  0.940975  1
  Y  Y11  1  0.208654  0.791346  0.058149  1
  Y  Y12  1  0.208654  0.417308  0.058149  1
  Y  Y13  1  0.582692  0.791346  0.058149  1
  Y  Y14  1  0.539751  0.460249  0.250000  1
  Y  Y15  1  0.539751  0.079501  0.250000  1
  Y  Y16  1  0.920499  0.460249  0.250000  1
  Y  Y17  1  0.458894  0.541106  0.750000  1
  Y  Y18  1  0.458894  0.917787  0.750000  1
  Y  Y19  1  0.082213  0.541106  0.750000  1
  Ag  Ag20  1  0.884097  0.115903  0.250000  1
  Ag  Ag21  1  0.884097  0.768196  0.250000  1
  Ag  Ag22  1  0.231804  0.115903  0.250000  1
  Ag  Ag23  1  0.115700  0.884300  0.750000  1
  Ag  Ag24  1  0.115700  0.231399  0.750000  1
  Ag  Ag25  1  0.768601  0.884300  0.750000  1
  Os  Os26  1  0.333333  0.666667  0.250000  1
  Ru  Ru27  1  0.666667  0.333333  0.750000  1
