# generated using pymatgen
data_Ce4YEr3(AlRu)8
_symmetry_space_group_name_H-M   'P 1'
_cell_length_a   3.99063700
_cell_length_b   7.20105741
_cell_length_c   16.00451539
_cell_angle_alpha   91.38994417
_cell_angle_beta   90.00000000
_cell_angle_gamma   90.00000000
_symmetry_Int_Tables_number   1
_chemical_formula_structural   Ce4YEr3(AlRu)8
_chemical_formula_sum   'Ce4 Y1 Er3 Al8 Ru8'
_cell_volume   459.78333079
_cell_formula_units_Z   1
loop_
 _symmetry_equiv_pos_site_id
 _symmetry_equiv_pos_as_xyz
  1  'x, y, z'
loop_
 _atom_site_type_symbol
 _atom_site_label
 _atom_site_symmetry_multiplicity
 _atom_site_fract_x
 _atom_site_fract_y
 _atom_site_fract_z
 _atom_site_occupancy
  Ce  Ce0  1  0.750000  0.827255  0.439259  1
  Ce  Ce1  1  0.750000  0.460298  0.281050  1
  Ce  Ce2  1  0.750000  0.330671  0.060748  1
  Ce  Ce3  1  0.250000  0.539571  0.721401  1
  Y  Y4  1  0.750000  0.962670  0.218024  1
  Er  Er5  1  0.250000  0.163454  0.563030  1
  Er  Er6  1  0.250000  0.664499  0.937260  1
  Er  Er7  1  0.250000  0.042516  0.781859  1
  Al  Al8  1  0.750000  0.497290  0.563104  1
  Al  Al9  1  0.750000  0.365070  0.852867  1
  Al  Al10  1  0.750000  0.991182  0.933904  1
  Al  Al11  1  0.750000  0.876534  0.651663  1
  Al  Al12  1  0.250000  0.487275  0.438825  1
  Al  Al13  1  0.250000  0.992838  0.064232  1
  Al  Al14  1  0.250000  0.640854  0.151336  1
  Al  Al15  1  0.250000  0.125895  0.346270  1
  Ru  Ru16  1  0.750000  0.737512  0.807315  1
  Ru  Ru17  1  0.250000  0.234928  0.939590  1
  Ru  Ru18  1  0.750000  0.261890  0.429576  1
  Ru  Ru19  1  0.250000  0.748646  0.324319  1
  Ru  Ru20  1  0.750000  0.763067  0.063877  1
  Ru  Ru21  1  0.750000  0.266181  0.687340  1
  Ru  Ru22  1  0.250000  0.276018  0.180170  1
  Ru  Ru23  1  0.250000  0.743884  0.562981  1
