# generated using pymatgen
data_Dy2HoLu5Au4
_symmetry_space_group_name_H-M   'P 1'
_cell_length_a   4.84365300
_cell_length_b   7.09823170
_cell_length_c   8.80968904
_cell_angle_alpha   89.66285319
_cell_angle_beta   90.00000000
_cell_angle_gamma   90.00000000
_symmetry_Int_Tables_number   1
_chemical_formula_structural   Dy2HoLu5Au4
_chemical_formula_sum   'Dy2 Ho1 Lu5 Au4'
_cell_volume   302.88394577
_cell_formula_units_Z   1
loop_
 _symmetry_equiv_pos_site_id
 _symmetry_equiv_pos_as_xyz
  1  'x, y, z'
loop_
 _atom_site_type_symbol
 _atom_site_label
 _atom_site_symmetry_multiplicity
 _atom_site_fract_x
 _atom_site_fract_y
 _atom_site_fract_z
 _atom_site_occupancy
  Dy  Dy0  1  0.750000  0.516025  0.823046  1
  Dy  Dy1  1  0.750000  0.015553  0.676840  1
  Ho  Ho2  1  0.250000  0.984260  0.322736  1
  Lu  Lu3  1  0.250000  0.852222  0.923889  1
  Lu  Lu4  1  0.250000  0.352292  0.576656  1
  Lu  Lu5  1  0.750000  0.148556  0.078158  1
  Lu  Lu6  1  0.750000  0.647767  0.420144  1
  Lu  Lu7  1  0.250000  0.483420  0.176316  1
  Au  Au8  1  0.250000  0.253237  0.900169  1
  Au  Au9  1  0.250000  0.751473  0.603512  1
  Au  Au10  1  0.750000  0.746807  0.101650  1
  Au  Au11  1  0.750000  0.248388  0.396884  1
