# generated using pymatgen
data_Ac3TmBi5
_symmetry_space_group_name_H-M   'P 1'
_cell_length_a   10.23271725
_cell_length_b   10.23271649
_cell_length_c   6.76299700
_cell_angle_alpha   90.00000083
_cell_angle_beta   90.00000028
_cell_angle_gamma   120.00005836
_symmetry_Int_Tables_number   1
_chemical_formula_structural   Ac3TmBi5
_chemical_formula_sum   'Ac6 Tm2 Bi10'
_cell_volume   613.26966979
_cell_formula_units_Z   2
loop_
 _symmetry_equiv_pos_site_id
 _symmetry_equiv_pos_as_xyz
  1  'x, y, z'
loop_
 _atom_site_type_symbol
 _atom_site_label
 _atom_site_symmetry_multiplicity
 _atom_site_fract_x
 _atom_site_fract_y
 _atom_site_fract_z
 _atom_site_occupancy
  Ac  Ac0  1  0.620334  0.000021  0.250000  1
  Ac  Ac1  1  0.000022  0.620334  0.250000  1
  Ac  Ac2  1  0.379661  0.379661  0.250002  1
  Ac  Ac3  1  0.379668  0.999976  0.749998  1
  Ac  Ac4  1  0.999977  0.379667  0.749998  1
  Ac  Ac5  1  0.620339  0.620338  0.750009  1
  Tm  Tm6  1  0.999998  0.999998  0.999993  1
  Tm  Tm7  1  0.000002  0.000002  0.499997  1
  Bi  Bi8  1  0.666654  0.333342  0.000001  1
  Bi  Bi9  1  0.333342  0.666654  0.000001  1
  Bi  Bi10  1  0.261335  0.999990  0.249995  1
  Bi  Bi11  1  0.999991  0.261335  0.249995  1
  Bi  Bi12  1  0.738667  0.738667  0.250009  1
  Bi  Bi13  1  0.666656  0.333348  0.500002  1
  Bi  Bi14  1  0.333348  0.666657  0.500002  1
  Bi  Bi15  1  0.738663  0.000010  0.750001  1
  Bi  Bi16  1  0.261338  0.261337  0.749998  1
  Bi  Bi17  1  0.000011  0.738663  0.750001  1
