# generated using pymatgen
data_La8MgHgOs2
_symmetry_space_group_name_H-M   'P 1'
_cell_length_a   10.12882654
_cell_length_b   10.09751368
_cell_length_c   10.09751257
_cell_angle_alpha   60.12560216
_cell_angle_beta   59.89736650
_cell_angle_gamma   59.89736405
_symmetry_Int_Tables_number   1
_chemical_formula_structural   La8MgHgOs2
_chemical_formula_sum   'La16 Mg2 Hg2 Os4'
_cell_volume   729.80490715
_cell_formula_units_Z   2
loop_
 _symmetry_equiv_pos_site_id
 _symmetry_equiv_pos_as_xyz
  1  'x, y, z'
loop_
 _atom_site_type_symbol
 _atom_site_label
 _atom_site_symmetry_multiplicity
 _atom_site_fract_x
 _atom_site_fract_y
 _atom_site_fract_z
 _atom_site_occupancy
  La  La0  1  0.809008  0.190992  0.190992  1
  La  La1  1  0.193260  0.188976  0.809243  1
  La  La2  1  0.808521  0.809243  0.188976  1
  La  La3  1  0.191431  0.808569  0.808569  1
  La  La4  1  0.595935  0.595701  0.212430  1
  La  La5  1  0.440987  0.059013  0.059013  1
  La  La6  1  0.061342  0.439560  0.061275  1
  La  La7  1  0.437822  0.061275  0.439560  1
  La  La8  1  0.216699  0.594264  0.594264  1
  La  La9  1  0.062380  0.437620  0.437620  1
  La  La10  1  0.595935  0.212430  0.595701  1
  La  La11  1  0.594775  0.594264  0.594264  1
  La  La12  1  0.193260  0.809243  0.188976  1
  La  La13  1  0.808521  0.188976  0.809243  1
  La  La14  1  0.061342  0.061275  0.439560  1
  La  La15  1  0.437822  0.439560  0.061275  1
  Mg  Mg16  1  0.823723  0.524088  0.828465  1
  Mg  Mg17  1  0.823723  0.828465  0.524088  1
  Hg  Hg18  1  0.835951  0.829441  0.829441  1
  Hg  Hg19  1  0.505169  0.829441  0.829441  1
  Os  Os20  1  0.838154  0.386904  0.386904  1
  Os  Os21  1  0.388037  0.386904  0.386904  1
  Os  Os22  1  0.388100  0.837044  0.386754  1
  Os  Os23  1  0.388100  0.386754  0.837044  1
