# generated using pymatgen
data_Dy6Lu10MgCo4Ag3
_symmetry_space_group_name_H-M   'P 1'
_cell_length_a   9.29675538
_cell_length_b   9.29670727
_cell_length_c   9.29670600
_cell_angle_alpha   59.99999740
_cell_angle_beta   60.00016860
_cell_angle_gamma   60.00016311
_symmetry_Int_Tables_number   1
_chemical_formula_structural   Dy6Lu10MgCo4Ag3
_chemical_formula_sum   'Dy6 Lu10 Mg1 Co4 Ag3'
_cell_volume   568.16665195
_cell_formula_units_Z   1
loop_
 _symmetry_equiv_pos_site_id
 _symmetry_equiv_pos_as_xyz
  1  'x, y, z'
loop_
 _atom_site_type_symbol
 _atom_site_label
 _atom_site_symmetry_multiplicity
 _atom_site_fract_x
 _atom_site_fract_y
 _atom_site_fract_z
 _atom_site_occupancy
  Dy  Dy0  1  0.937491  0.561090  0.561090  1
  Dy  Dy1  1  0.560720  0.938851  0.938851  1
  Dy  Dy2  1  0.560720  0.938851  0.561581  1
  Dy  Dy3  1  0.937491  0.561090  0.940328  1
  Dy  Dy4  1  0.560720  0.561581  0.938851  1
  Dy  Dy5  1  0.937491  0.940328  0.561090  1
  Lu  Lu6  1  0.345764  0.345080  0.345080  1
  Lu  Lu7  1  0.345764  0.345080  0.964078  1
  Lu  Lu8  1  0.345764  0.964078  0.345080  1
  Lu  Lu9  1  0.952604  0.349132  0.349132  1
  Lu  Lu10  1  0.811335  0.187614  0.187614  1
  Lu  Lu11  1  0.184530  0.814982  0.814982  1
  Lu  Lu12  1  0.184530  0.814982  0.185507  1
  Lu  Lu13  1  0.811335  0.187614  0.813438  1
  Lu  Lu14  1  0.184530  0.185507  0.814982  1
  Lu  Lu15  1  0.811335  0.813438  0.187614  1
  Mg  Mg16  1  0.287560  0.570813  0.570813  1
  Co  Co17  1  0.138329  0.142684  0.142684  1
  Co  Co18  1  0.138329  0.142684  0.576304  1
  Co  Co19  1  0.138329  0.576304  0.142684  1
  Co  Co20  1  0.575988  0.141338  0.141338  1
  Ag  Ag21  1  0.583115  0.582200  0.582200  1
  Ag  Ag22  1  0.583115  0.582200  0.252485  1
  Ag  Ag23  1  0.583115  0.252485  0.582200  1
