# generated using pymatgen
data_HoThInNi2
_symmetry_space_group_name_H-M   'P 1'
_cell_length_a   7.53813095
_cell_length_b   7.53813196
_cell_length_c   3.65892300
_cell_angle_alpha   90.00000000
_cell_angle_beta   90.00000000
_cell_angle_gamma   93.09968089
_symmetry_Int_Tables_number   1
_chemical_formula_structural   HoThInNi2
_chemical_formula_sum   'Ho2 Th2 In2 Ni4'
_cell_volume   207.60835775
_cell_formula_units_Z   2
loop_
 _symmetry_equiv_pos_site_id
 _symmetry_equiv_pos_as_xyz
  1  'x, y, z'
loop_
 _atom_site_type_symbol
 _atom_site_label
 _atom_site_symmetry_multiplicity
 _atom_site_fract_x
 _atom_site_fract_y
 _atom_site_fract_z
 _atom_site_occupancy
  Ho  Ho0  1  0.172544  0.327456  0.500000  1
  Ho  Ho1  1  0.827456  0.672544  0.500000  1
  Th  Th2  1  0.675808  0.175808  0.500000  1
  Th  Th3  1  0.324192  0.824192  0.500000  1
  In  In4  1  0.500000  0.500000  0.000000  1
  In  In5  1  0.000000  0.000000  0.000000  1
  Ni  Ni6  1  0.123306  0.623306  0.000000  1
  Ni  Ni7  1  0.876694  0.376694  0.000000  1
  Ni  Ni8  1  0.620117  0.879883  0.000000  1
  Ni  Ni9  1  0.379883  0.120117  0.000000  1
