# generated using pymatgen
data_Cs4RbSb2Pt
_symmetry_space_group_name_H-M   'P 1'
_cell_length_a   10.71672115
_cell_length_b   10.71672174
_cell_length_c   10.71672173
_cell_angle_alpha   34.82137577
_cell_angle_beta   34.82137159
_cell_angle_gamma   34.82136802
_symmetry_Int_Tables_number   1
_chemical_formula_structural   Cs4RbSb2Pt
_chemical_formula_sum   'Cs4 Rb1 Sb2 Pt1'
_cell_volume   358.21964029
_cell_formula_units_Z   1
loop_
 _symmetry_equiv_pos_site_id
 _symmetry_equiv_pos_as_xyz
  1  'x, y, z'
loop_
 _atom_site_type_symbol
 _atom_site_label
 _atom_site_symmetry_multiplicity
 _atom_site_fract_x
 _atom_site_fract_y
 _atom_site_fract_z
 _atom_site_occupancy
  Cs  Cs0  1  0.219731  0.219731  0.219731  1
  Cs  Cs1  1  0.360932  0.360932  0.360932  1
  Cs  Cs2  1  0.499639  0.499639  0.499639  1
  Cs  Cs3  1  0.639535  0.639535  0.639535  1
  Rb  Rb4  1  0.779847  0.779847  0.779847  1
  Sb  Sb5  1  0.086977  0.086977  0.086977  1
  Sb  Sb6  1  0.913288  0.913288  0.913288  1
  Pt  Pt7  1  0.000053  0.000053  0.000053  1
