# generated using pymatgen
data_Zr6Ta4Al12Ir5Ru2
_symmetry_space_group_name_H-M   'P 1'
_cell_length_a   8.84508704
_cell_length_b   8.84508734
_cell_length_c   8.84735200
_cell_angle_alpha   59.99153005
_cell_angle_beta   59.99152890
_cell_angle_gamma   60.01105493
_symmetry_Int_Tables_number   1
_chemical_formula_structural   Zr6Ta4Al12Ir5Ru2
_chemical_formula_sum   'Zr6 Ta4 Al12 Ir5 Ru2'
_cell_volume   489.42166665
_cell_formula_units_Z   1
loop_
 _symmetry_equiv_pos_site_id
 _symmetry_equiv_pos_as_xyz
  1  'x, y, z'
loop_
 _atom_site_type_symbol
 _atom_site_label
 _atom_site_symmetry_multiplicity
 _atom_site_fract_x
 _atom_site_fract_y
 _atom_site_fract_z
 _atom_site_occupancy
  Zr  Zr0  1  0.691835  0.691835  0.308165  1
  Zr  Zr1  1  0.309385  0.690866  0.309733  1
  Zr  Zr2  1  0.690866  0.309385  0.309733  1
  Zr  Zr3  1  0.308188  0.308188  0.691812  1
  Zr  Zr4  1  0.690866  0.309385  0.690016  1
  Zr  Zr5  1  0.309385  0.690866  0.690016  1
  Ta  Ta6  1  0.880725  0.880725  0.361453  1
  Ta  Ta7  1  0.880176  0.361172  0.879327  1
  Ta  Ta8  1  0.361172  0.880176  0.879327  1
  Ta  Ta9  1  0.880725  0.880725  0.877099  1
  Al  Al10  1  0.120171  0.120171  0.636131  1
  Al  Al11  1  0.120101  0.636779  0.121559  1
  Al  Al12  1  0.636779  0.120101  0.121559  1
  Al  Al13  1  0.120171  0.120171  0.123525  1
  Al  Al14  1  0.659636  0.659636  0.021576  1
  Al  Al15  1  0.661202  0.020549  0.659125  1
  Al  Al16  1  0.020549  0.661202  0.659125  1
  Al  Al17  1  0.659636  0.659636  0.659151  1
  Al  Al18  1  0.337458  0.337458  0.987312  1
  Al  Al19  1  0.335862  0.987854  0.338142  1
  Al  Al20  1  0.987854  0.335862  0.338142  1
  Al  Al21  1  0.337458  0.337458  0.337773  1
  Ir  Ir22  1  0.502950  0.996979  0.503617  1
  Ir  Ir23  1  0.996979  0.502950  0.503617  1
  Ir  Ir24  1  0.503270  0.503270  0.996730  1
  Ir  Ir25  1  0.996979  0.502950  0.996453  1
  Ir  Ir26  1  0.502950  0.996979  0.996453  1
  Ru  Ru27  1  0.000618  0.000618  0.999382  1
  Ru  Ru28  1  0.996052  0.996052  0.503948  1
