# generated using pymatgen
data_Sr6TcSbO12
_symmetry_space_group_name_H-M   'P 1'
_cell_length_a   6.15388789
_cell_length_b   5.91505934
_cell_length_c   10.35765745
_cell_angle_alpha   54.81693355
_cell_angle_beta   89.77312055
_cell_angle_gamma   89.79532795
_symmetry_Int_Tables_number   1
_chemical_formula_structural   Sr6TcSbO12
_chemical_formula_sum   'Sr6 Tc1 Sb1 O12'
_cell_volume   308.14553008
_cell_formula_units_Z   1
loop_
 _symmetry_equiv_pos_site_id
 _symmetry_equiv_pos_as_xyz
  1  'x, y, z'
loop_
 _atom_site_type_symbol
 _atom_site_label
 _atom_site_symmetry_multiplicity
 _atom_site_fract_x
 _atom_site_fract_y
 _atom_site_fract_z
 _atom_site_occupancy
  Sr  Sr0  1  0.500000  0.500000  0.500000  1
  Sr  Sr1  1  0.951234  0.722524  0.263405  1
  Sr  Sr2  1  0.446429  0.259093  0.256693  1
  Sr  Sr3  1  0.000000  0.500000  0.000000  1
  Sr  Sr4  1  0.553571  0.740907  0.743307  1
  Sr  Sr5  1  0.048766  0.277476  0.736595  1
  Tc  Tc6  1  0.500000  0.000000  0.000000  1
  Sb  Sb7  1  0.000000  0.000000  0.500000  1
  O  O8  1  0.458691  0.116276  0.787715  1
  O  O9  1  0.241236  0.777185  0.060465  1
  O  O10  1  0.185305  0.321696  0.450421  1
  O  O11  1  0.668681  0.692540  0.043100  1
  O  O12  1  0.731730  0.246024  0.430248  1
  O  O13  1  0.948127  0.885992  0.724449  1
  O  O14  1  0.051873  0.114008  0.275551  1
  O  O15  1  0.268270  0.753976  0.569752  1
  O  O16  1  0.331319  0.307460  0.956900  1
  O  O17  1  0.814695  0.678304  0.549579  1
  O  O18  1  0.758764  0.222815  0.939535  1
  O  O19  1  0.541309  0.883724  0.212285  1
