# generated using pymatgen
data_Ho8B24Ir3W
_symmetry_space_group_name_H-M   'P 1'
_cell_length_a   3.64620000
_cell_length_b   9.18030428
_cell_length_c   11.53277204
_cell_angle_alpha   90.22185842
_cell_angle_beta   90.00000000
_cell_angle_gamma   90.00000000
_symmetry_Int_Tables_number   1
_chemical_formula_structural   Ho8B24Ir3W
_chemical_formula_sum   'Ho8 B24 Ir3 W1'
_cell_volume   386.03618475
_cell_formula_units_Z   1
loop_
 _symmetry_equiv_pos_site_id
 _symmetry_equiv_pos_as_xyz
  1  'x, y, z'
loop_
 _atom_site_type_symbol
 _atom_site_label
 _atom_site_symmetry_multiplicity
 _atom_site_fract_x
 _atom_site_fract_y
 _atom_site_fract_z
 _atom_site_occupancy
  Ho  Ho0  1  0.000000  0.321433  0.414741  1
  Ho  Ho1  1  0.000000  0.682518  0.590606  1
  Ho  Ho2  1  0.000000  0.820884  0.083175  1
  Ho  Ho3  1  0.000000  0.176833  0.912326  1
  Ho  Ho4  1  0.000000  0.943749  0.372254  1
  Ho  Ho5  1  0.000000  0.054504  0.624875  1
  Ho  Ho6  1  0.000000  0.443185  0.126658  1
  Ho  Ho7  1  0.000000  0.555526  0.875380  1
  B  B8  1  0.500000  0.553591  0.434125  1
  B  B9  1  0.500000  0.447752  0.566432  1
  B  B10  1  0.500000  0.053529  0.067279  1
  B  B11  1  0.500000  0.948862  0.935679  1
  B  B12  1  0.500000  0.749799  0.420485  1
  B  B13  1  0.500000  0.251331  0.578751  1
  B  B14  1  0.500000  0.248621  0.079440  1
  B  B15  1  0.500000  0.750102  0.922144  1
  B  B16  1  0.500000  0.791242  0.264851  1
  B  B17  1  0.500000  0.208458  0.733001  1
  B  B18  1  0.500000  0.292743  0.235237  1
  B  B19  1  0.500000  0.705385  0.764686  1
  B  B20  1  0.500000  0.631199  0.184466  1
  B  B21  1  0.500000  0.367431  0.815421  1
  B  B22  1  0.500000  0.132681  0.315819  1
  B  B23  1  0.500000  0.868322  0.683395  1
  B  B24  1  0.500000  0.982408  0.212945  1
  B  B25  1  0.500000  0.020427  0.785990  1
  B  B26  1  0.500000  0.481780  0.288023  1
  B  B27  1  0.500000  0.517719  0.713133  1
  B  B28  1  0.500000  0.607622  0.031919  1
  B  B29  1  0.500000  0.388394  0.970386  1
  B  B30  1  0.500000  0.111044  0.468352  1
  B  B31  1  0.500000  0.890189  0.527930  1
  Ir  Ir32  1  0.000000  0.637051  0.322064  1
  Ir  Ir33  1  0.000000  0.362354  0.677805  1
  Ir  Ir34  1  0.000000  0.138639  0.179206  1
  W  W35  1  0.000000  0.862688  0.821022  1
