# generated using pymatgen
data_AcEuZn5Sn
_symmetry_space_group_name_H-M   'P 1'
_cell_length_a   8.64961806
_cell_length_b   8.64961769
_cell_length_c   9.26605700
_cell_angle_alpha   90.00000000
_cell_angle_beta   90.00000000
_cell_angle_gamma   148.80374025
_symmetry_Int_Tables_number   1
_chemical_formula_structural   AcEuZn5Sn
_chemical_formula_sum   'Ac2 Eu2 Zn10 Sn2'
_cell_volume   359.08263118
_cell_formula_units_Z   2
loop_
 _symmetry_equiv_pos_site_id
 _symmetry_equiv_pos_as_xyz
  1  'x, y, z'
loop_
 _atom_site_type_symbol
 _atom_site_label
 _atom_site_symmetry_multiplicity
 _atom_site_fract_x
 _atom_site_fract_y
 _atom_site_fract_z
 _atom_site_occupancy
  Ac  Ac0  1  0.000000  0.000000  0.500000  1
  Ac  Ac1  1  0.000000  0.000000  0.000000  1
  Eu  Eu2  1  0.208099  0.791901  0.250000  1
  Eu  Eu3  1  0.791901  0.208099  0.750000  1
  Zn  Zn4  1  0.812657  0.187343  0.389251  1
  Zn  Zn5  1  0.187343  0.812657  0.610749  1
  Zn  Zn6  1  0.812657  0.187343  0.110749  1
  Zn  Zn7  1  0.187343  0.812657  0.889251  1
  Zn  Zn8  1  0.659545  0.340455  0.487647  1
  Zn  Zn9  1  0.340455  0.659545  0.512353  1
  Zn  Zn10  1  0.659545  0.340455  0.012353  1
  Zn  Zn11  1  0.340455  0.659545  0.987647  1
  Zn  Zn12  1  0.397008  0.602992  0.250000  1
  Zn  Zn13  1  0.602992  0.397008  0.750000  1
  Sn  Sn14  1  0.562400  0.437600  0.250000  1
  Sn  Sn15  1  0.437600  0.562400  0.750000  1
