# generated using pymatgen
data_Th4NbMo3N8
_symmetry_space_group_name_H-M   'P 1'
_cell_length_a   3.35265800
_cell_length_b   5.86333439
_cell_length_c   11.12915251
_cell_angle_alpha   89.89673201
_cell_angle_beta   90.00000000
_cell_angle_gamma   90.00000000
_symmetry_Int_Tables_number   1
_chemical_formula_structural   Th4NbMo3N8
_chemical_formula_sum   'Th4 Nb1 Mo3 N8'
_cell_volume   218.77379733
_cell_formula_units_Z   1
loop_
 _symmetry_equiv_pos_site_id
 _symmetry_equiv_pos_as_xyz
  1  'x, y, z'
loop_
 _atom_site_type_symbol
 _atom_site_label
 _atom_site_symmetry_multiplicity
 _atom_site_fract_x
 _atom_site_fract_y
 _atom_site_fract_z
 _atom_site_occupancy
  Th  Th0  1  0.250000  0.575987  0.852065  1
  Th  Th1  1  0.750000  0.426318  0.144298  1
  Th  Th2  1  0.750000  0.923746  0.353435  1
  Th  Th3  1  0.250000  0.074737  0.647660  1
  Nb  Nb4  1  0.250000  0.432158  0.409237  1
  Mo  Mo5  1  0.250000  0.935578  0.094345  1
  Mo  Mo6  1  0.750000  0.066201  0.907099  1
  Mo  Mo7  1  0.750000  0.565387  0.592137  1
  N  N8  1  0.250000  0.668339  0.245363  1
  N  N9  1  0.750000  0.334133  0.751916  1
  N  N10  1  0.750000  0.833320  0.749627  1
  N  N11  1  0.250000  0.165215  0.251641  1
  N  N12  1  0.250000  0.751801  0.507632  1
  N  N13  1  0.750000  0.244566  0.494685  1
  N  N14  1  0.750000  0.755880  0.004799  1
  N  N15  1  0.250000  0.246633  0.994062  1
