# generated using pymatgen
data_Tb4Tm16Bi11Sb
_symmetry_space_group_name_H-M   'P 1'
_cell_length_a   8.17037994
_cell_length_b   9.41512900
_cell_length_c   11.90640300
_cell_angle_alpha   90.00000000
_cell_angle_beta   90.02744039
_cell_angle_gamma   90.00000000
_symmetry_Int_Tables_number   1
_chemical_formula_structural   Tb4Tm16Bi11Sb
_chemical_formula_sum   'Tb4 Tm16 Bi11 Sb1'
_cell_volume   915.90210182
_cell_formula_units_Z   1
loop_
 _symmetry_equiv_pos_site_id
 _symmetry_equiv_pos_as_xyz
  1  'x, y, z'
loop_
 _atom_site_type_symbol
 _atom_site_label
 _atom_site_symmetry_multiplicity
 _atom_site_fract_x
 _atom_site_fract_y
 _atom_site_fract_z
 _atom_site_occupancy
  Tb  Tb0  1  0.313786  0.250000  0.218281  1
  Tb  Tb1  1  0.813395  0.250000  0.281628  1
  Tb  Tb2  1  0.682104  0.750000  0.784389  1
  Tb  Tb3  1  0.187982  0.750000  0.720187  1
  Tm  Tm4  1  0.353445  0.750000  0.214185  1
  Tm  Tm5  1  0.852429  0.750000  0.282577  1
  Tm  Tm6  1  0.647671  0.250000  0.782681  1
  Tm  Tm7  1  0.147504  0.250000  0.717689  1
  Tm  Tm8  1  0.689420  0.567990  0.058418  1
  Tm  Tm9  1  0.192253  0.934022  0.440010  1
  Tm  Tm10  1  0.309040  0.061887  0.940475  1
  Tm  Tm11  1  0.807769  0.434413  0.559779  1
  Tm  Tm12  1  0.309040  0.438113  0.940475  1
  Tm  Tm13  1  0.807769  0.065587  0.559779  1
  Tm  Tm14  1  0.689420  0.932010  0.058418  1
  Tm  Tm15  1  0.192253  0.565978  0.440010  1
  Tm  Tm16  1  0.476263  0.250000  0.488674  1
  Tm  Tm17  1  0.977076  0.250000  0.010828  1
  Tm  Tm18  1  0.524090  0.750000  0.511387  1
  Tm  Tm19  1  0.027219  0.750000  0.988640  1
  Bi  Bi20  1  0.904761  0.750000  0.541565  1
  Bi  Bi21  1  0.596199  0.250000  0.040925  1
  Bi  Bi22  1  0.095799  0.250000  0.459181  1
  Bi  Bi23  1  0.565352  0.994032  0.326096  1
  Bi  Bi24  1  0.065255  0.505680  0.173608  1
  Bi  Bi25  1  0.434626  0.494040  0.673801  1
  Bi  Bi26  1  0.934321  0.005317  0.826256  1
  Bi  Bi27  1  0.434626  0.005960  0.673801  1
  Bi  Bi28  1  0.934321  0.494683  0.826256  1
  Bi  Bi29  1  0.565352  0.505968  0.326096  1
  Bi  Bi30  1  0.065255  0.994320  0.173608  1
  Sb  Sb31  1  0.404206  0.750000  0.960300  1
