# generated using pymatgen
data_HfAlFe4
_symmetry_space_group_name_H-M   'P 1'
_cell_length_a   4.82351156
_cell_length_b   4.82351064
_cell_length_c   4.82351200
_cell_angle_alpha   60.00000442
_cell_angle_beta   60.00001072
_cell_angle_gamma   60.00000085
_symmetry_Int_Tables_number   1
_chemical_formula_structural   HfAlFe4
_chemical_formula_sum   'Hf1 Al1 Fe4'
_cell_volume   79.35512556
_cell_formula_units_Z   1
loop_
 _symmetry_equiv_pos_site_id
 _symmetry_equiv_pos_as_xyz
  1  'x, y, z'
loop_
 _atom_site_type_symbol
 _atom_site_label
 _atom_site_symmetry_multiplicity
 _atom_site_fract_x
 _atom_site_fract_y
 _atom_site_fract_z
 _atom_site_occupancy
  Hf  Hf0  1  0.250000  0.250000  0.250000  1
  Al  Al1  1  0.000000  0.000000  0.000000  1
  Fe  Fe2  1  0.625708  0.625708  0.122875  1
  Fe  Fe3  1  0.625708  0.122875  0.625708  1
  Fe  Fe4  1  0.122875  0.625708  0.625708  1
  Fe  Fe5  1  0.625708  0.625708  0.625708  1
