# generated using pymatgen
data_Pr8SnPI12
_symmetry_space_group_name_H-M   'P 1'
_cell_length_a   4.40320500
_cell_length_b   14.48875612
_cell_length_c   15.31588000
_cell_angle_alpha   90.04816976
_cell_angle_beta   90.00000000
_cell_angle_gamma   90.00000000
_symmetry_Int_Tables_number   1
_chemical_formula_structural   Pr8SnPI12
_chemical_formula_sum   'Pr8 Sn1 P1 I12'
_cell_volume   977.10629038
_cell_formula_units_Z   1
loop_
 _symmetry_equiv_pos_site_id
 _symmetry_equiv_pos_as_xyz
  1  'x, y, z'
loop_
 _atom_site_type_symbol
 _atom_site_label
 _atom_site_symmetry_multiplicity
 _atom_site_fract_x
 _atom_site_fract_y
 _atom_site_fract_z
 _atom_site_occupancy
  Pr  Pr0  1  0.500000  0.111886  0.350427  1
  Pr  Pr1  1  0.500000  0.888114  0.649573  1
  Pr  Pr2  1  0.500000  0.622506  0.162929  1
  Pr  Pr3  1  0.500000  0.377494  0.837071  1
  Pr  Pr4  1  0.000000  0.106634  0.571132  1
  Pr  Pr5  1  0.000000  0.893366  0.428868  1
  Pr  Pr6  1  0.000000  0.622673  0.917641  1
  Pr  Pr7  1  0.000000  0.377327  0.082359  1
  Sn  Sn8  1  0.500000  0.500000  0.000000  1
  P  P9  1  0.500000  0.000000  0.500000  1
  I  I10  1  0.500000  0.238529  0.166413  1
  I  I11  1  0.500000  0.761471  0.833587  1
  I  I12  1  0.500000  0.748758  0.341767  1
  I  I13  1  0.500000  0.251242  0.658233  1
  I  I14  1  0.000000  0.257758  0.414972  1
  I  I15  1  0.000000  0.742242  0.585028  1
  I  I16  1  0.000000  0.762636  0.086114  1
  I  I17  1  0.000000  0.237364  0.913886  1
  I  I18  1  0.000000  0.998331  0.242037  1
  I  I19  1  0.000000  0.001669  0.757963  1
  I  I20  1  0.000000  0.499252  0.263057  1
  I  I21  1  0.000000  0.500748  0.736943  1
