# generated using pymatgen
data_ZrSc(B4Ir3)2
_symmetry_space_group_name_H-M   'P 1'
_cell_length_a   7.62680200
_cell_length_b   7.62680176
_cell_length_c   3.51255300
_cell_angle_alpha   90.00000000
_cell_angle_beta   90.00000000
_cell_angle_gamma   120.00000106
_symmetry_Int_Tables_number   1
_chemical_formula_structural   ZrSc(B4Ir3)2
_chemical_formula_sum   'Zr1 Sc1 B8 Ir6'
_cell_volume   176.94506011
_cell_formula_units_Z   1
loop_
 _symmetry_equiv_pos_site_id
 _symmetry_equiv_pos_as_xyz
  1  'x, y, z'
loop_
 _atom_site_type_symbol
 _atom_site_label
 _atom_site_symmetry_multiplicity
 _atom_site_fract_x
 _atom_site_fract_y
 _atom_site_fract_z
 _atom_site_occupancy
  Zr  Zr0  1  0.333333  0.666667  0.750000  1
  Sc  Sc1  1  0.666667  0.333333  0.250000  1
  B  B2  1  0.602445  0.548210  0.750000  1
  B  B3  1  0.047106  0.598660  0.250000  1
  B  B4  1  0.551553  0.952894  0.250000  1
  B  B5  1  0.451790  0.054235  0.750000  1
  B  B6  1  0.000000  0.000000  0.000136  1
  B  B7  1  0.401340  0.448447  0.250000  1
  B  B8  1  0.000000  0.000000  0.499864  1
  B  B9  1  0.945765  0.397555  0.750000  1
  Ir  Ir10  1  0.744790  0.074845  0.750000  1
  Ir  Ir11  1  0.330055  0.255210  0.750000  1
  Ir  Ir12  1  0.671045  0.746323  0.250000  1
  Ir  Ir13  1  0.075278  0.328955  0.250000  1
  Ir  Ir14  1  0.253677  0.924722  0.250000  1
  Ir  Ir15  1  0.925155  0.669945  0.750000  1
