# generated using pymatgen
data_EuCo2(P6Os)2
_symmetry_space_group_name_H-M   'P 1'
_cell_length_a   6.93672845
_cell_length_b   6.89336632
_cell_length_c   6.89336643
_cell_angle_alpha   109.06591648
_cell_angle_beta   109.57604797
_cell_angle_gamma   109.51644488
_symmetry_Int_Tables_number   1
_chemical_formula_structural   EuCo2(P6Os)2
_chemical_formula_sum   'Eu1 Co2 P12 Os2'
_cell_volume   254.53552326
_cell_formula_units_Z   1
loop_
 _symmetry_equiv_pos_site_id
 _symmetry_equiv_pos_as_xyz
  1  'x, y, z'
loop_
 _atom_site_type_symbol
 _atom_site_label
 _atom_site_symmetry_multiplicity
 _atom_site_fract_x
 _atom_site_fract_y
 _atom_site_fract_z
 _atom_site_occupancy
  Eu  Eu0  1  0.000000  0.000000  0.000000  1
  Co  Co1  1  0.500000  0.500000  0.500000  1
  Co  Co2  1  0.500000  0.000000  0.000000  1
  P  P3  1  0.848291  0.639355  0.500593  1
  P  P4  1  0.151709  0.360645  0.499407  1
  P  P5  1  0.151709  0.652301  0.791064  1
  P  P6  1  0.848291  0.347699  0.208936  1
  P  P7  1  0.640011  0.500484  0.848470  1
  P  P8  1  0.359989  0.499516  0.151530  1
  P  P9  1  0.640011  0.791541  0.139529  1
  P  P10  1  0.359989  0.208459  0.860471  1
  P  P11  1  0.501363  0.851468  0.649895  1
  P  P12  1  0.498637  0.148532  0.350105  1
  P  P13  1  0.782986  0.141841  0.641145  1
  P  P14  1  0.217014  0.858159  0.358855  1
  Os  Os15  1  0.000000  0.500000  0.000000  1
  Os  Os16  1  0.000000  0.000000  0.500000  1
