# generated using pymatgen
data_Li4Si(BRh2)4
_symmetry_space_group_name_H-M   'P 1'
_cell_length_a   9.31723217
_cell_length_b   9.31723243
_cell_length_c   2.85070200
_cell_angle_alpha   90.00000000
_cell_angle_beta   90.00000000
_cell_angle_gamma   126.13125476
_symmetry_Int_Tables_number   1
_chemical_formula_structural   Li4Si(BRh2)4
_chemical_formula_sum   'Li4 Si1 B4 Rh8'
_cell_volume   199.87511949
_cell_formula_units_Z   1
loop_
 _symmetry_equiv_pos_site_id
 _symmetry_equiv_pos_as_xyz
  1  'x, y, z'
loop_
 _atom_site_type_symbol
 _atom_site_label
 _atom_site_symmetry_multiplicity
 _atom_site_fract_x
 _atom_site_fract_y
 _atom_site_fract_z
 _atom_site_occupancy
  Li  Li0  1  0.206002  0.793998  0.500000  1
  Li  Li1  1  0.793998  0.206002  0.500000  1
  Li  Li2  1  0.359226  0.359226  0.500000  1
  Li  Li3  1  0.640774  0.640774  0.500000  1
  Si  Si4  1  0.000000  0.000000  0.500000  1
  B  B5  1  0.463486  0.152473  0.500000  1
  B  B6  1  0.152473  0.463486  0.500000  1
  B  B7  1  0.536514  0.847527  0.500000  1
  B  B8  1  0.847527  0.536514  0.500000  1
  Rh  Rh9  1  0.635544  0.364456  0.000000  1
  Rh  Rh10  1  0.364456  0.635544  0.000000  1
  Rh  Rh11  1  0.916057  0.741296  0.000000  1
  Rh  Rh12  1  0.083943  0.258704  0.000000  1
  Rh  Rh13  1  0.500000  0.000000  0.000000  1
  Rh  Rh14  1  0.258704  0.083943  0.000000  1
  Rh  Rh15  1  0.741296  0.916057  0.000000  1
  Rh  Rh16  1  0.000000  0.500000  0.000000  1
