# generated using pymatgen
data_Hf18TiMnRe7Ge
_symmetry_space_group_name_H-M   'P 1'
_cell_length_a   8.58464800
_cell_length_b   8.58464865
_cell_length_c   8.57935800
_cell_angle_alpha   90.00000000
_cell_angle_beta   90.00000000
_cell_angle_gamma   119.99999750
_symmetry_Int_Tables_number   1
_chemical_formula_structural   Hf18TiMnRe7Ge
_chemical_formula_sum   'Hf18 Ti1 Mn1 Re7 Ge1'
_cell_volume   547.55840600
_cell_formula_units_Z   1
loop_
 _symmetry_equiv_pos_site_id
 _symmetry_equiv_pos_as_xyz
  1  'x, y, z'
loop_
 _atom_site_type_symbol
 _atom_site_label
 _atom_site_symmetry_multiplicity
 _atom_site_fract_x
 _atom_site_fract_y
 _atom_site_fract_z
 _atom_site_occupancy
  Hf  Hf0  1  0.201495  0.798505  0.444229  1
  Hf  Hf1  1  0.201495  0.402989  0.444229  1
  Hf  Hf2  1  0.597011  0.798505  0.444229  1
  Hf  Hf3  1  0.806489  0.193511  0.547427  1
  Hf  Hf4  1  0.806489  0.612978  0.547427  1
  Hf  Hf5  1  0.387022  0.193511  0.547427  1
  Hf  Hf6  1  0.808497  0.191503  0.953283  1
  Hf  Hf7  1  0.808497  0.616994  0.953283  1
  Hf  Hf8  1  0.383006  0.191503  0.953283  1
  Hf  Hf9  1  0.202752  0.797248  0.057762  1
  Hf  Hf10  1  0.202752  0.405503  0.057762  1
  Hf  Hf11  1  0.594497  0.797248  0.057762  1
  Hf  Hf12  1  0.539220  0.460780  0.249793  1
  Hf  Hf13  1  0.539220  0.078440  0.249793  1
  Hf  Hf14  1  0.921560  0.460780  0.249793  1
  Hf  Hf15  1  0.459921  0.540079  0.750463  1
  Hf  Hf16  1  0.459921  0.919843  0.750463  1
  Hf  Hf17  1  0.080157  0.540079  0.750463  1
  Ti  Ti18  1  0.000000  0.000000  0.496980  1
  Mn  Mn19  1  0.333333  0.666667  0.249957  1
  Re  Re20  1  0.888650  0.111350  0.250613  1
  Re  Re21  1  0.888650  0.777300  0.250613  1
  Re  Re22  1  0.222700  0.111350  0.250613  1
  Re  Re23  1  0.111227  0.888773  0.747575  1
  Re  Re24  1  0.111227  0.222453  0.747575  1
  Re  Re25  1  0.777547  0.888773  0.747575  1
  Re  Re26  1  0.000000  0.000000  0.998406  1
  Ge  Ge27  1  0.666667  0.333333  0.751221  1
