# generated using pymatgen
data_PrNd10In9Ni4
_symmetry_space_group_name_H-M   'P 1'
_cell_length_a   13.37818633
_cell_length_b   13.37556037
_cell_length_c   3.74378600
_cell_angle_alpha   90.00000000
_cell_angle_beta   90.00000000
_cell_angle_gamma   111.27578690
_symmetry_Int_Tables_number   1
_chemical_formula_structural   PrNd10In9Ni4
_chemical_formula_sum   'Pr1 Nd10 In9 Ni4'
_cell_volume   624.25748754
_cell_formula_units_Z   1
loop_
 _symmetry_equiv_pos_site_id
 _symmetry_equiv_pos_as_xyz
  1  'x, y, z'
loop_
 _atom_site_type_symbol
 _atom_site_label
 _atom_site_symmetry_multiplicity
 _atom_site_fract_x
 _atom_site_fract_y
 _atom_site_fract_z
 _atom_site_occupancy
  Pr  Pr0  1  0.659033  0.341180  0.500000  1
  Nd  Nd1  1  0.500204  0.500240  0.500000  1
  Nd  Nd2  1  0.812381  0.812663  0.500000  1
  Nd  Nd3  1  0.187424  0.187525  0.500000  1
  Nd  Nd4  1  0.577219  0.919566  0.500000  1
  Nd  Nd5  1  0.422239  0.080226  0.500000  1
  Nd  Nd6  1  0.919713  0.577458  0.500000  1
  Nd  Nd7  1  0.080441  0.422493  0.500000  1
  Nd  Nd8  1  0.125971  0.874006  0.500000  1
  Nd  Nd9  1  0.873772  0.125987  0.500000  1
  Nd  Nd10  1  0.341203  0.659342  0.500000  1
  In  In11  1  0.337895  0.867118  0.000000  1
  In  In12  1  0.662113  0.131905  0.000000  1
  In  In13  1  0.867919  0.337475  0.000000  1
  In  In14  1  0.132673  0.661903  0.000000  1
  In  In15  1  0.579675  0.720827  0.000000  1
  In  In16  1  0.420006  0.279313  0.000000  1
  In  In17  1  0.720910  0.580099  0.000000  1
  In  In18  1  0.279568  0.420812  0.000000  1
  In  In19  1  0.999930  0.000080  0.000000  1
  Ni  Ni20  1  0.746127  0.949610  0.000000  1
  Ni  Ni21  1  0.253414  0.050316  0.000000  1
  Ni  Ni22  1  0.949848  0.746583  0.000000  1
  Ni  Ni23  1  0.050323  0.253272  0.000000  1
