# generated using pymatgen
data_LiScNi4
_symmetry_space_group_name_H-M   'P 1'
_cell_length_a   4.77478689
_cell_length_b   4.77478727
_cell_length_c   4.77478800
_cell_angle_alpha   60.00000882
_cell_angle_beta   60.00000616
_cell_angle_gamma   60.00001077
_symmetry_Int_Tables_number   1
_chemical_formula_structural   LiScNi4
_chemical_formula_sum   'Li1 Sc1 Ni4'
_cell_volume   76.97455745
_cell_formula_units_Z   1
loop_
 _symmetry_equiv_pos_site_id
 _symmetry_equiv_pos_as_xyz
  1  'x, y, z'
loop_
 _atom_site_type_symbol
 _atom_site_label
 _atom_site_symmetry_multiplicity
 _atom_site_fract_x
 _atom_site_fract_y
 _atom_site_fract_z
 _atom_site_occupancy
  Li  Li0  1  0.250000  0.250000  0.250000  1
  Sc  Sc1  1  0.000000  0.000000  0.000000  1
  Ni  Ni2  1  0.624659  0.624659  0.126023  1
  Ni  Ni3  1  0.624659  0.126023  0.624659  1
  Ni  Ni4  1  0.126023  0.624659  0.624659  1
  Ni  Ni5  1  0.624659  0.624659  0.624659  1
