# generated using pymatgen
data_CeTmAlRu2
_symmetry_space_group_name_H-M   'P 1'
_cell_length_a   5.70402499
_cell_length_b   5.70402497
_cell_length_c   6.98522277
_cell_angle_alpha   86.19455109
_cell_angle_beta   93.80544747
_cell_angle_gamma   117.60903269
_symmetry_Int_Tables_number   1
_chemical_formula_structural   CeTmAlRu2
_chemical_formula_sum   'Ce2 Tm2 Al2 Ru4'
_cell_volume   200.78425753
_cell_formula_units_Z   2
loop_
 _symmetry_equiv_pos_site_id
 _symmetry_equiv_pos_as_xyz
  1  'x, y, z'
loop_
 _atom_site_type_symbol
 _atom_site_label
 _atom_site_symmetry_multiplicity
 _atom_site_fract_x
 _atom_site_fract_y
 _atom_site_fract_z
 _atom_site_occupancy
  Ce  Ce0  1  0.167616  0.832384  0.583266  1
  Ce  Ce1  1  0.832384  0.167616  0.416734  1
  Tm  Tm2  1  0.343871  0.656129  0.086011  1
  Tm  Tm3  1  0.656129  0.343871  0.913989  1
  Al  Al4  1  0.000000  0.000000  0.000000  1
  Al  Al5  1  0.500000  0.500000  0.500000  1
  Ru  Ru6  1  0.866457  0.635988  0.261550  1
  Ru  Ru7  1  0.635988  0.866457  0.738450  1
  Ru  Ru8  1  0.133543  0.364012  0.738450  1
  Ru  Ru9  1  0.364012  0.133543  0.261550  1
