# generated using pymatgen
data_CaLu3V(ReN4)3
_symmetry_space_group_name_H-M   'P 1'
_cell_length_a   7.23067465
_cell_length_b   7.27485577
_cell_length_c   6.16782671
_cell_angle_alpha   73.42948675
_cell_angle_beta   73.68788513
_cell_angle_gamma   82.53258037
_symmetry_Int_Tables_number   1
_chemical_formula_structural   CaLu3V(ReN4)3
_chemical_formula_sum   'Ca1 Lu3 V1 Re3 N12'
_cell_volume   298.01014379
_cell_formula_units_Z   1
loop_
 _symmetry_equiv_pos_site_id
 _symmetry_equiv_pos_as_xyz
  1  'x, y, z'
loop_
 _atom_site_type_symbol
 _atom_site_label
 _atom_site_symmetry_multiplicity
 _atom_site_fract_x
 _atom_site_fract_y
 _atom_site_fract_z
 _atom_site_occupancy
  Ca  Ca0  1  0.705613  0.289583  0.246580  1
  Lu  Lu1  1  0.907228  0.079696  0.766671  1
  Lu  Lu2  1  0.296700  0.714784  0.739123  1
  Lu  Lu3  1  0.087976  0.908076  0.255290  1
  V  V4  1  0.618043  0.801659  0.273490  1
  Re  Re5  1  0.202158  0.381073  0.226594  1
  Re  Re6  1  0.379871  0.199582  0.730246  1
  Re  Re7  1  0.794802  0.620912  0.771586  1
  N  N8  1  0.341348  0.370482  0.923036  1
  N  N9  1  0.012615  0.213824  0.348299  1
  N  N10  1  0.789080  0.984166  0.152561  1
  N  N11  1  0.219712  0.998921  0.844304  1
  N  N12  1  0.656196  0.642794  0.059591  1
  N  N13  1  0.884942  0.378465  0.818450  1
  N  N14  1  0.119618  0.628674  0.160448  1
  N  N15  1  0.997675  0.783302  0.654126  1
  N  N16  1  0.377513  0.879889  0.339728  1
  N  N17  1  0.628098  0.662922  0.576128  1
  N  N18  1  0.624698  0.116447  0.676834  1
  N  N19  1  0.356116  0.344747  0.436912  1
