# generated using pymatgen
data_Pr2NdSm2(Sn5Rh2)2
_symmetry_space_group_name_H-M   'P 1'
_cell_length_a   14.22977800
_cell_length_b   14.22977800
_cell_length_c   4.62012200
_cell_angle_alpha   90.00000000
_cell_angle_beta   90.00000000
_cell_angle_gamma   90.00000000
_symmetry_Int_Tables_number   1
_chemical_formula_structural   Pr2NdSm2(Sn5Rh2)2
_chemical_formula_sum   'Pr4 Nd2 Sm4 Sn20 Rh8'
_cell_volume   935.51271188
_cell_formula_units_Z   2
loop_
 _symmetry_equiv_pos_site_id
 _symmetry_equiv_pos_as_xyz
  1  'x, y, z'
loop_
 _atom_site_type_symbol
 _atom_site_label
 _atom_site_symmetry_multiplicity
 _atom_site_fract_x
 _atom_site_fract_y
 _atom_site_fract_z
 _atom_site_occupancy
  Pr  Pr0  1  0.888187  0.388187  0.500000  1
  Pr  Pr1  1  0.111813  0.611813  0.500000  1
  Pr  Pr2  1  0.388187  0.111813  0.500000  1
  Pr  Pr3  1  0.611813  0.888187  0.500000  1
  Nd  Nd4  1  0.500000  0.500000  0.000000  1
  Nd  Nd5  1  0.000000  0.000000  0.000000  1
  Sm  Sm6  1  0.677903  0.177903  0.500000  1
  Sm  Sm7  1  0.322097  0.822097  0.500000  1
  Sm  Sm8  1  0.177903  0.322097  0.500000  1
  Sm  Sm9  1  0.822097  0.677903  0.500000  1
  Sn  Sn10  1  0.569957  0.069957  0.000000  1
  Sn  Sn11  1  0.430043  0.930043  0.000000  1
  Sn  Sn12  1  0.069957  0.430043  0.000000  1
  Sn  Sn13  1  0.930043  0.569957  0.000000  1
  Sn  Sn14  1  0.654030  0.697936  0.000000  1
  Sn  Sn15  1  0.345970  0.302064  0.000000  1
  Sn  Sn16  1  0.154030  0.802064  0.000000  1
  Sn  Sn17  1  0.845970  0.197936  0.000000  1
  Sn  Sn18  1  0.302064  0.654030  0.000000  1
  Sn  Sn19  1  0.697936  0.345970  0.000000  1
  Sn  Sn20  1  0.197936  0.154030  0.000000  1
  Sn  Sn21  1  0.802064  0.845970  0.000000  1
  Sn  Sn22  1  0.663596  0.504968  0.500000  1
  Sn  Sn23  1  0.336404  0.495032  0.500000  1
  Sn  Sn24  1  0.163596  0.995032  0.500000  1
  Sn  Sn25  1  0.836404  0.004968  0.500000  1
  Sn  Sn26  1  0.495032  0.663596  0.500000  1
  Sn  Sn27  1  0.504968  0.336404  0.500000  1
  Sn  Sn28  1  0.004968  0.163596  0.500000  1
  Sn  Sn29  1  0.995032  0.836404  0.500000  1
  Rh  Rh30  1  0.746287  0.528607  0.000000  1
  Rh  Rh31  1  0.253713  0.471393  0.000000  1
  Rh  Rh32  1  0.246287  0.971393  0.000000  1
  Rh  Rh33  1  0.753713  0.028607  0.000000  1
  Rh  Rh34  1  0.471393  0.746287  0.000000  1
  Rh  Rh35  1  0.528607  0.253713  0.000000  1
  Rh  Rh36  1  0.028607  0.246287  0.000000  1
  Rh  Rh37  1  0.971393  0.753713  0.000000  1
