# generated using pymatgen
data_Dy6Ho10Cd4NiOs3
_symmetry_space_group_name_H-M   'P 1'
_cell_length_a   9.50236720
_cell_length_b   9.69602253
_cell_length_c   9.69602300
_cell_angle_alpha   60.00000180
_cell_angle_beta   59.32352570
_cell_angle_gamma   59.32351985
_symmetry_Int_Tables_number   1
_chemical_formula_structural   Dy6Ho10Cd4NiOs3
_chemical_formula_sum   'Dy6 Ho10 Cd4 Ni1 Os3'
_cell_volume   625.15385695
_cell_formula_units_Z   1
loop_
 _symmetry_equiv_pos_site_id
 _symmetry_equiv_pos_as_xyz
  1  'x, y, z'
loop_
 _atom_site_type_symbol
 _atom_site_label
 _atom_site_symmetry_multiplicity
 _atom_site_fract_x
 _atom_site_fract_y
 _atom_site_fract_z
 _atom_site_occupancy
  Dy  Dy0  1  0.186433  0.811602  0.811602  1
  Dy  Dy1  1  0.804680  0.188801  0.188801  1
  Dy  Dy2  1  0.804680  0.188801  0.817720  1
  Dy  Dy3  1  0.186433  0.811602  0.190364  1
  Dy  Dy4  1  0.804680  0.817720  0.188801  1
  Dy  Dy5  1  0.186433  0.190364  0.811602  1
  Ho  Ho6  1  0.601706  0.595796  0.595796  1
  Ho  Ho7  1  0.601706  0.595796  0.206702  1
  Ho  Ho8  1  0.601706  0.206702  0.595796  1
  Ho  Ho9  1  0.218203  0.593933  0.593933  1
  Ho  Ho10  1  0.060751  0.438867  0.438867  1
  Ho  Ho11  1  0.435158  0.061220  0.061220  1
  Ho  Ho12  1  0.435158  0.061220  0.442401  1
  Ho  Ho13  1  0.060751  0.438867  0.061515  1
  Ho  Ho14  1  0.435158  0.442401  0.061220  1
  Ho  Ho15  1  0.060751  0.061515  0.438867  1
  Cd  Cd16  1  0.828579  0.829978  0.829978  1
  Cd  Cd17  1  0.828579  0.829978  0.511466  1
  Cd  Cd18  1  0.828579  0.511466  0.829978  1
  Cd  Cd19  1  0.506016  0.831328  0.831328  1
  Ni  Ni20  1  0.828650  0.390450  0.390450  1
  Os  Os21  1  0.398403  0.386751  0.386751  1
  Os  Os22  1  0.398403  0.386751  0.828095  1
  Os  Os23  1  0.398403  0.828095  0.386751  1
