# generated using pymatgen
data_Dy2Tm5Lu(WO6)4
_symmetry_space_group_name_H-M   'P 1'
_cell_length_a   5.34482338
_cell_length_b   7.64126809
_cell_length_c   11.36897726
_cell_angle_alpha   75.33724606
_cell_angle_beta   89.99276917
_cell_angle_gamma   89.95716067
_symmetry_Int_Tables_number   1
_chemical_formula_structural   Dy2Tm5Lu(WO6)4
_chemical_formula_sum   'Dy2 Tm5 Lu1 W4 O24'
_cell_volume   449.20103359
_cell_formula_units_Z   1
loop_
 _symmetry_equiv_pos_site_id
 _symmetry_equiv_pos_as_xyz
  1  'x, y, z'
loop_
 _atom_site_type_symbol
 _atom_site_label
 _atom_site_symmetry_multiplicity
 _atom_site_fract_x
 _atom_site_fract_y
 _atom_site_fract_z
 _atom_site_occupancy
  Dy  Dy0  1  0.684781  0.499856  0.749848  1
  Dy  Dy1  1  0.315493  0.499589  0.250495  1
  Tm  Tm2  1  0.740446  0.000216  0.749507  1
  Tm  Tm3  1  0.259695  0.000320  0.250638  1
  Tm  Tm4  1  0.185048  0.796413  0.578121  1
  Tm  Tm5  1  0.814474  0.796107  0.078279  1
  Tm  Tm6  1  0.185599  0.203914  0.921649  1
  Lu  Lu7  1  0.814798  0.204474  0.421237  1
  W  W8  1  0.255030  0.724163  0.885579  1
  W  W9  1  0.744916  0.724076  0.385569  1
  W  W10  1  0.255133  0.275630  0.613929  1
  W  W11  1  0.745329  0.275654  0.114810  1
  O  O12  1  0.040394  0.941496  0.895567  1
  O  O13  1  0.535312  0.848798  0.930967  1
  O  O14  1  0.957169  0.942986  0.395702  1
  O  O15  1  0.459839  0.792493  0.726081  1
  O  O16  1  0.463515  0.847874  0.431026  1
  O  O17  1  0.981048  0.712943  0.769985  1
  O  O18  1  0.539909  0.792064  0.226329  1
  O  O19  1  0.853154  0.635895  0.549330  1
  O  O20  1  0.359639  0.488129  0.886581  1
  O  O21  1  0.019440  0.713543  0.270343  1
  O  O22  1  0.359036  0.511511  0.612874  1
  O  O23  1  0.853025  0.364139  0.950857  1
  O  O24  1  0.147021  0.635588  0.049447  1
  O  O25  1  0.642086  0.487503  0.386660  1
  O  O26  1  0.981561  0.287038  0.729933  1
  O  O27  1  0.640273  0.511604  0.113469  1
  O  O28  1  0.144655  0.363415  0.450342  1
  O  O29  1  0.459995  0.207173  0.773382  1
  O  O30  1  0.018700  0.286777  0.230871  1
  O  O31  1  0.537125  0.152598  0.567644  1
  O  O32  1  0.541629  0.207059  0.274905  1
  O  O33  1  0.040437  0.058741  0.603926  1
  O  O34  1  0.464399  0.151629  0.069654  1
  O  O35  1  0.959897  0.058594  0.104466  1
