# generated using pymatgen
data_Li2Er2Si3
_symmetry_space_group_name_H-M   'P 1'
_cell_length_a   9.20105911
_cell_length_b   9.20105845
_cell_length_c   6.62165300
_cell_angle_alpha   90.00000000
_cell_angle_beta   90.00000000
_cell_angle_gamma   153.44600240
_symmetry_Int_Tables_number   1
_chemical_formula_structural   Li2Er2Si3
_chemical_formula_sum   'Li4 Er4 Si6'
_cell_volume   250.60481830
_cell_formula_units_Z   2
loop_
 _symmetry_equiv_pos_site_id
 _symmetry_equiv_pos_as_xyz
  1  'x, y, z'
loop_
 _atom_site_type_symbol
 _atom_site_label
 _atom_site_symmetry_multiplicity
 _atom_site_fract_x
 _atom_site_fract_y
 _atom_site_fract_z
 _atom_site_occupancy
  Li  Li0  1  0.810294  0.189706  0.559205  1
  Li  Li1  1  0.189706  0.810294  0.440795  1
  Li  Li2  1  0.189706  0.810294  0.059205  1
  Li  Li3  1  0.810294  0.189706  0.940795  1
  Er  Er4  1  0.552067  0.447933  0.250000  1
  Er  Er5  1  0.447933  0.552067  0.750000  1
  Er  Er6  1  0.344269  0.655731  0.250000  1
  Er  Er7  1  0.655731  0.344269  0.750000  1
  Si  Si8  1  0.940141  0.059859  0.071300  1
  Si  Si9  1  0.059859  0.940141  0.928700  1
  Si  Si10  1  0.059859  0.940141  0.571300  1
  Si  Si11  1  0.940141  0.059859  0.428700  1
  Si  Si12  1  0.719721  0.280279  0.250000  1
  Si  Si13  1  0.280279  0.719721  0.750000  1
