# generated using pymatgen
data_CeU(AsRh)2
_symmetry_space_group_name_H-M   'P 1'
_cell_length_a   4.32960600
_cell_length_b   7.26237595
_cell_length_c   7.63849128
_cell_angle_alpha   90.58225049
_cell_angle_beta   90.00000000
_cell_angle_gamma   90.00000000
_symmetry_Int_Tables_number   1
_chemical_formula_structural   CeU(AsRh)2
_chemical_formula_sum   'Ce2 U2 As4 Rh4'
_cell_volume   240.16640983
_cell_formula_units_Z   2
loop_
 _symmetry_equiv_pos_site_id
 _symmetry_equiv_pos_as_xyz
  1  'x, y, z'
loop_
 _atom_site_type_symbol
 _atom_site_label
 _atom_site_symmetry_multiplicity
 _atom_site_fract_x
 _atom_site_fract_y
 _atom_site_fract_z
 _atom_site_occupancy
  Ce  Ce0  1  0.750000  0.258704  0.997972  1
  Ce  Ce1  1  0.250000  0.741296  0.002028  1
  U  U2  1  0.250000  0.760805  0.500291  1
  U  U3  1  0.750000  0.239195  0.499709  1
  As  As4  1  0.250000  0.412347  0.757098  1
  As  As5  1  0.750000  0.587653  0.242902  1
  As  As6  1  0.750000  0.909188  0.777974  1
  As  As7  1  0.250000  0.090812  0.222026  1
  Rh  Rh8  1  0.250000  0.427144  0.300200  1
  Rh  Rh9  1  0.750000  0.572856  0.699800  1
  Rh  Rh10  1  0.750000  0.930628  0.283547  1
  Rh  Rh11  1  0.250000  0.069372  0.716453  1
