# generated using pymatgen
data_NdTh(AlRu)2
_symmetry_space_group_name_H-M   'P 1'
_cell_length_a   4.06007500
_cell_length_b   7.17264579
_cell_length_c   8.40661756
_cell_angle_alpha   90.96684671
_cell_angle_beta   90.00000000
_cell_angle_gamma   90.00000000
_symmetry_Int_Tables_number   1
_chemical_formula_structural   NdTh(AlRu)2
_chemical_formula_sum   'Nd2 Th2 Al4 Ru4'
_cell_volume   244.77828875
_cell_formula_units_Z   2
loop_
 _symmetry_equiv_pos_site_id
 _symmetry_equiv_pos_as_xyz
  1  'x, y, z'
loop_
 _atom_site_type_symbol
 _atom_site_label
 _atom_site_symmetry_multiplicity
 _atom_site_fract_x
 _atom_site_fract_y
 _atom_site_fract_z
 _atom_site_occupancy
  Nd  Nd0  1  0.750000  0.962591  0.682081  1
  Nd  Nd1  1  0.250000  0.037409  0.317919  1
  Th  Th2  1  0.250000  0.533802  0.186235  1
  Th  Th3  1  0.750000  0.466198  0.813765  1
  Al  Al4  1  0.250000  0.634387  0.555506  1
  Al  Al5  1  0.750000  0.365613  0.444494  1
  Al  Al6  1  0.750000  0.872549  0.058160  1
  Al  Al7  1  0.250000  0.127451  0.941840  1
  Ru  Ru8  1  0.250000  0.752987  0.883413  1
  Ru  Ru9  1  0.750000  0.247013  0.116587  1
  Ru  Ru10  1  0.750000  0.724643  0.368317  1
  Ru  Ru11  1  0.250000  0.275357  0.631683  1
