# generated using pymatgen
data_ZrNi3GePd
_symmetry_space_group_name_H-M   'P 1'
_cell_length_a   4.83131364
_cell_length_b   4.83131369
_cell_length_c   4.83131463
_cell_angle_alpha   61.66217604
_cell_angle_beta   61.66217093
_cell_angle_gamma   61.66218245
_symmetry_Int_Tables_number   1
_chemical_formula_structural   ZrNi3GePd
_chemical_formula_sum   'Zr1 Ni3 Ge1 Pd1'
_cell_volume   82.71269704
_cell_formula_units_Z   1
loop_
 _symmetry_equiv_pos_site_id
 _symmetry_equiv_pos_as_xyz
  1  'x, y, z'
loop_
 _atom_site_type_symbol
 _atom_site_label
 _atom_site_symmetry_multiplicity
 _atom_site_fract_x
 _atom_site_fract_y
 _atom_site_fract_z
 _atom_site_occupancy
  Zr  Zr0  1  0.745568  0.745568  0.745568  1
  Ni  Ni1  1  0.625213  0.126459  0.126459  1
  Ni  Ni2  1  0.126459  0.625213  0.126459  1
  Ni  Ni3  1  0.126459  0.126459  0.625213  1
  Ge  Ge4  1  0.128492  0.128492  0.128492  1
  Pd  Pd5  1  0.497809  0.497809  0.497809  1
