# generated using pymatgen
data_MgAg3(PdO3)2
_symmetry_space_group_name_H-M   'P 1'
_cell_length_a   5.36106268
_cell_length_b   5.35705685
_cell_length_c   6.55106600
_cell_angle_alpha   74.18768117
_cell_angle_beta   97.82463123
_cell_angle_gamma   119.97529886
_symmetry_Int_Tables_number   1
_chemical_formula_structural   MgAg3(PdO3)2
_chemical_formula_sum   'Mg1 Ag3 Pd2 O6'
_cell_volume   156.81038870
_cell_formula_units_Z   1
loop_
 _symmetry_equiv_pos_site_id
 _symmetry_equiv_pos_as_xyz
  1  'x, y, z'
loop_
 _atom_site_type_symbol
 _atom_site_label
 _atom_site_symmetry_multiplicity
 _atom_site_fract_x
 _atom_site_fract_y
 _atom_site_fract_z
 _atom_site_occupancy
  Mg  Mg0  1  0.333333  0.166667  0.500000  1
  Ag  Ag1  1  0.669637  0.334818  0.000000  1
  Ag  Ag2  1  0.333333  0.666667  0.000000  1
  Ag  Ag3  1  0.997030  0.998515  0.000000  1
  Pd  Pd4  1  0.000360  0.500180  0.500000  1
  Pd  Pd5  1  0.666307  0.833153  0.500000  1
  O  O6  1  0.333333  0.775261  0.666185  1
  O  O7  1  0.995463  0.110558  0.666370  1
  O  O8  1  0.671204  0.448429  0.666370  1
  O  O9  1  0.671204  0.222775  0.333630  1
  O  O10  1  0.333333  0.558073  0.333815  1
  O  O11  1  0.995463  0.884904  0.333630  1
