# generated using pymatgen
data_Sr2TmLu3Se8
_symmetry_space_group_name_H-M   'P 1'
_cell_length_a   4.09321900
_cell_length_b   12.53057000
_cell_length_c   14.78642200
_cell_angle_alpha   90.00000000
_cell_angle_beta   90.00000000
_cell_angle_gamma   90.00000000
_symmetry_Int_Tables_number   1
_chemical_formula_structural   Sr2TmLu3Se8
_chemical_formula_sum   'Sr4 Tm2 Lu6 Se16'
_cell_volume   758.40101403
_cell_formula_units_Z   2
loop_
 _symmetry_equiv_pos_site_id
 _symmetry_equiv_pos_as_xyz
  1  'x, y, z'
loop_
 _atom_site_type_symbol
 _atom_site_label
 _atom_site_symmetry_multiplicity
 _atom_site_fract_x
 _atom_site_fract_y
 _atom_site_fract_z
 _atom_site_occupancy
  Sr  Sr0  1  0.250000  0.759981  0.333748  1
  Sr  Sr1  1  0.250000  0.259981  0.166252  1
  Sr  Sr2  1  0.750000  0.239979  0.666370  1
  Sr  Sr3  1  0.750000  0.739979  0.833630  1
  Tm  Tm4  1  0.250000  0.439098  0.389225  1
  Tm  Tm5  1  0.250000  0.939098  0.110775  1
  Lu  Lu6  1  0.750000  0.560584  0.610949  1
  Lu  Lu7  1  0.750000  0.060584  0.889051  1
  Lu  Lu8  1  0.250000  0.417296  0.902541  1
  Lu  Lu9  1  0.250000  0.917296  0.597459  1
  Lu  Lu10  1  0.750000  0.582719  0.097342  1
  Lu  Lu11  1  0.750000  0.082719  0.402658  1
  Se  Se12  1  0.250000  0.204502  0.832032  1
  Se  Se13  1  0.250000  0.704502  0.667968  1
  Se  Se14  1  0.750000  0.794694  0.168466  1
  Se  Se15  1  0.750000  0.294694  0.331534  1
  Se  Se16  1  0.250000  0.127519  0.530128  1
  Se  Se17  1  0.250000  0.627519  0.969872  1
  Se  Se18  1  0.750000  0.872556  0.469904  1
  Se  Se19  1  0.750000  0.372556  0.030096  1
  Se  Se20  1  0.250000  0.028501  0.285154  1
  Se  Se21  1  0.250000  0.528501  0.214846  1
  Se  Se22  1  0.750000  0.971720  0.715295  1
  Se  Se23  1  0.750000  0.471720  0.784705  1
  Se  Se24  1  0.250000  0.410061  0.576975  1
  Se  Se25  1  0.250000  0.910061  0.923025  1
  Se  Se26  1  0.750000  0.590790  0.423991  1
  Se  Se27  1  0.750000  0.090790  0.076009  1
