# generated using pymatgen
data_Dy5Lu3(Nb3Si4)4
_symmetry_space_group_name_H-M   'P 1'
_cell_length_a   7.05525466
_cell_length_b   7.05437654
_cell_length_c   13.00578450
_cell_angle_alpha   90.00886626
_cell_angle_beta   89.94872525
_cell_angle_gamma   89.97038814
_symmetry_Int_Tables_number   1
_chemical_formula_structural   Dy5Lu3(Nb3Si4)4
_chemical_formula_sum   'Dy5 Lu3 Nb12 Si16'
_cell_volume   647.30304183
_cell_formula_units_Z   1
loop_
 _symmetry_equiv_pos_site_id
 _symmetry_equiv_pos_as_xyz
  1  'x, y, z'
loop_
 _atom_site_type_symbol
 _atom_site_label
 _atom_site_symmetry_multiplicity
 _atom_site_fract_x
 _atom_site_fract_y
 _atom_site_fract_z
 _atom_site_occupancy
  Dy  Dy0  1  0.501743  0.840747  0.032194  1
  Dy  Dy1  1  0.840744  0.502030  0.967937  1
  Dy  Dy2  1  0.498412  0.158968  0.531986  1
  Dy  Dy3  1  0.340587  0.999130  0.781597  1
  Dy  Dy4  1  0.658916  0.001326  0.282359  1
  Lu  Lu5  1  0.000347  0.340953  0.218517  1
  Lu  Lu6  1  0.000120  0.658655  0.717693  1
  Lu  Lu7  1  0.158311  0.499699  0.468115  1
  Nb  Nb8  1  0.170364  0.171304  0.000142  1
  Nb  Nb9  1  0.829911  0.828218  0.500121  1
  Nb  Nb10  1  0.328478  0.669751  0.250425  1
  Nb  Nb11  1  0.671025  0.330060  0.749718  1
  Nb  Nb12  1  0.153221  0.992018  0.376045  1
  Nb  Nb13  1  0.846919  0.007930  0.875802  1
  Nb  Nb14  1  0.507513  0.653291  0.625601  1
  Nb  Nb15  1  0.345719  0.493889  0.873336  1
  Nb  Nb16  1  0.492104  0.346257  0.126647  1
  Nb  Nb17  1  0.653841  0.505534  0.373951  1
  Nb  Nb18  1  0.994374  0.154254  0.623311  1
  Nb  Nb19  1  0.006732  0.846208  0.124237  1
  Si  Si20  1  0.292663  0.045840  0.186563  1
  Si  Si21  1  0.707570  0.954626  0.686176  1
  Si  Si22  1  0.453795  0.792246  0.436372  1
  Si  Si23  1  0.204889  0.544295  0.064234  1
  Si  Si24  1  0.545077  0.206851  0.936396  1
  Si  Si25  1  0.796935  0.455740  0.563783  1
  Si  Si26  1  0.044755  0.296357  0.812861  1
  Si  Si27  1  0.955830  0.702716  0.313933  1
  Si  Si28  1  0.364274  0.296056  0.318943  1
  Si  Si29  1  0.633915  0.705293  0.817295  1
  Si  Si30  1  0.203509  0.864231  0.568621  1
  Si  Si31  1  0.132296  0.794975  0.931397  1
  Si  Si32  1  0.796233  0.134247  0.069127  1
  Si  Si33  1  0.869008  0.206234  0.431189  1
  Si  Si34  1  0.293540  0.369345  0.681054  1
  Si  Si35  1  0.706331  0.630729  0.182321  1
