# generated using pymatgen
data_Tb4Al4Rh3Au
_symmetry_space_group_name_H-M   'P 1'
_cell_length_a   4.36145400
_cell_length_b   6.89538574
_cell_length_c   7.91793067
_cell_angle_alpha   90.05021810
_cell_angle_beta   90.00000000
_cell_angle_gamma   90.00000000
_symmetry_Int_Tables_number   1
_chemical_formula_structural   Tb4Al4Rh3Au
_chemical_formula_sum   'Tb4 Al4 Rh3 Au1'
_cell_volume   238.12302501
_cell_formula_units_Z   1
loop_
 _symmetry_equiv_pos_site_id
 _symmetry_equiv_pos_as_xyz
  1  'x, y, z'
loop_
 _atom_site_type_symbol
 _atom_site_label
 _atom_site_symmetry_multiplicity
 _atom_site_fract_x
 _atom_site_fract_y
 _atom_site_fract_z
 _atom_site_occupancy
  Tb  Tb0  1  0.250000  0.027481  0.325992  1
  Tb  Tb1  1  0.250000  0.542211  0.181088  1
  Tb  Tb2  1  0.750000  0.966429  0.678336  1
  Tb  Tb3  1  0.750000  0.472943  0.814598  1
  Al  Al4  1  0.250000  0.135275  0.932226  1
  Al  Al5  1  0.250000  0.638712  0.562276  1
  Al  Al6  1  0.750000  0.849986  0.059732  1
  Al  Al7  1  0.750000  0.366566  0.443755  1
  Rh  Rh8  1  0.250000  0.269425  0.618578  1
  Rh  Rh9  1  0.250000  0.767637  0.881126  1
  Rh  Rh10  1  0.750000  0.734452  0.379749  1
  Au  Au11  1  0.750000  0.228881  0.122543  1
