# generated using pymatgen
data_Li4YbPr3Si5Ge3
_symmetry_space_group_name_H-M   'P 1'
_cell_length_a   3.91094700
_cell_length_b   7.81006537
_cell_length_c   10.60349803
_cell_angle_alpha   89.97053281
_cell_angle_beta   90.00000000
_cell_angle_gamma   90.00000000
_symmetry_Int_Tables_number   1
_chemical_formula_structural   Li4YbPr3Si5Ge3
_chemical_formula_sum   'Li4 Yb1 Pr3 Si5 Ge3'
_cell_volume   323.88117216
_cell_formula_units_Z   1
loop_
 _symmetry_equiv_pos_site_id
 _symmetry_equiv_pos_as_xyz
  1  'x, y, z'
loop_
 _atom_site_type_symbol
 _atom_site_label
 _atom_site_symmetry_multiplicity
 _atom_site_fract_x
 _atom_site_fract_y
 _atom_site_fract_z
 _atom_site_occupancy
  Li  Li0  1  0.750000  0.507966  0.113680  1
  Li  Li1  1  0.750000  0.006638  0.389791  1
  Li  Li2  1  0.250000  0.994641  0.604501  1
  Li  Li3  1  0.250000  0.495133  0.890555  1
  Yb  Yb4  1  0.750000  0.361809  0.631268  1
  Pr  Pr5  1  0.250000  0.135294  0.136714  1
  Pr  Pr6  1  0.250000  0.635911  0.366565  1
  Pr  Pr7  1  0.750000  0.861684  0.868348  1
  Si  Si8  1  0.250000  0.727370  0.072493  1
  Si  Si9  1  0.750000  0.835845  0.178511  1
  Si  Si10  1  0.750000  0.335597  0.322693  1
  Si  Si11  1  0.250000  0.232397  0.430104  1
  Si  Si12  1  0.750000  0.775706  0.569476  1
  Ge  Ge13  1  0.250000  0.654230  0.677373  1
  Ge  Ge14  1  0.250000  0.159402  0.814935  1
  Ge  Ge15  1  0.750000  0.280376  0.932993  1
