# generated using pymatgen
data_HoBi3Rh4F28
_symmetry_space_group_name_H-M   'P 1'
_cell_length_a   5.56921246
_cell_length_b   9.10431097
_cell_length_c   12.08681018
_cell_angle_alpha   62.10289424
_cell_angle_beta   89.96276493
_cell_angle_gamma   89.86109913
_symmetry_Int_Tables_number   1
_chemical_formula_structural   HoBi3Rh4F28
_chemical_formula_sum   'Ho1 Bi3 Rh4 F28'
_cell_volume   541.62655862
_cell_formula_units_Z   1
loop_
 _symmetry_equiv_pos_site_id
 _symmetry_equiv_pos_as_xyz
  1  'x, y, z'
loop_
 _atom_site_type_symbol
 _atom_site_label
 _atom_site_symmetry_multiplicity
 _atom_site_fract_x
 _atom_site_fract_y
 _atom_site_fract_z
 _atom_site_occupancy
  Ho  Ho0  1  0.738795  0.806359  0.265947  1
  Bi  Bi1  1  0.765462  0.814158  0.762298  1
  Bi  Bi2  1  0.263722  0.186557  0.736482  1
  Bi  Bi3  1  0.235782  0.177897  0.237266  1
  Rh  Rh4  1  0.755979  0.269232  0.959444  1
  Rh  Rh5  1  0.256604  0.726813  0.539091  1
  Rh  Rh6  1  0.241605  0.729375  0.045321  1
  Rh  Rh7  1  0.742972  0.276642  0.456201  1
  F  F8  1  0.436930  0.707817  0.920065  1
  F  F9  1  0.931370  0.296421  0.584633  1
  F  F10  1  0.571900  0.292256  0.086833  1
  F  F11  1  0.059446  0.707753  0.412730  1
  F  F12  1  0.442012  0.283505  0.539136  1
  F  F13  1  0.946877  0.721692  0.958522  1
  F  F14  1  0.552983  0.721161  0.451162  1
  F  F15  1  0.059206  0.276823  0.040408  1
  F  F16  1  0.770254  0.507357  0.863395  1
  F  F17  1  0.271369  0.488651  0.636220  1
  F  F18  1  0.229566  0.492272  0.141245  1
  F  F19  1  0.733424  0.518538  0.359397  1
  F  F20  1  0.754855  0.029400  0.053146  1
  F  F21  1  0.256200  0.968795  0.449293  1
  F  F22  1  0.241012  0.971078  0.950656  1
  F  F23  1  0.741404  0.034348  0.549237  1
  F  F24  1  0.965554  0.727623  0.629459  1
  F  F25  1  0.460051  0.270949  0.871934  1
  F  F26  1  0.035644  0.272422  0.369442  1
  F  F27  1  0.528060  0.733292  0.138729  1
  F  F28  1  0.044280  0.750036  0.172314  1
  F  F29  1  0.560468  0.258390  0.325545  1
  F  F30  1  0.934991  0.252596  0.826715  1
  F  F31  1  0.444628  0.743514  0.669353  1
  F  F32  1  0.413877  0.965809  0.229583  1
  F  F33  1  0.908354  0.020814  0.270026  1
  F  F34  1  0.602015  0.032009  0.772453  1
  F  F35  1  0.102348  0.967646  0.726321  1
