# generated using pymatgen
data_Dy3Er3Co14(P3Ir)4
_symmetry_space_group_name_H-M   'P 1'
_cell_length_a   3.73046000
_cell_length_b   10.63789212
_cell_length_c   12.38347614
_cell_angle_alpha   89.98291832
_cell_angle_beta   90.00000000
_cell_angle_gamma   90.00000000
_symmetry_Int_Tables_number   1
_chemical_formula_structural   Dy3Er3Co14(P3Ir)4
_chemical_formula_sum   'Dy3 Er3 Co14 P12 Ir4'
_cell_volume   491.42870617
_cell_formula_units_Z   1
loop_
 _symmetry_equiv_pos_site_id
 _symmetry_equiv_pos_as_xyz
  1  'x, y, z'
loop_
 _atom_site_type_symbol
 _atom_site_label
 _atom_site_symmetry_multiplicity
 _atom_site_fract_x
 _atom_site_fract_y
 _atom_site_fract_z
 _atom_site_occupancy
  Dy  Dy0  1  0.750000  0.249906  0.479956  1
  Dy  Dy1  1  0.250000  0.750098  0.520043  1
  Dy  Dy2  1  0.250000  0.936818  0.793968  1
  Er  Er3  1  0.250000  0.563214  0.793921  1
  Er  Er4  1  0.750000  0.063370  0.206136  1
  Er  Er5  1  0.750000  0.436656  0.206141  1
  Co  Co6  1  0.750000  0.250353  0.012014  1
  Co  Co7  1  0.250000  0.749747  0.988474  1
  Co  Co8  1  0.250000  0.417811  0.006786  1
  Co  Co9  1  0.250000  0.082564  0.007119  1
  Co  Co10  1  0.750000  0.582010  0.993349  1
  Co  Co11  1  0.750000  0.917756  0.993673  1
  Co  Co12  1  0.250000  0.449959  0.571349  1
  Co  Co13  1  0.250000  0.050045  0.570963  1
  Co  Co14  1  0.750000  0.549809  0.428590  1
  Co  Co15  1  0.750000  0.950109  0.428386  1
  Co  Co16  1  0.250000  0.869546  0.288431  1
  Co  Co17  1  0.250000  0.630402  0.288542  1
  Co  Co18  1  0.750000  0.131078  0.711058  1
  Co  Co19  1  0.750000  0.369607  0.711500  1
  P  P20  1  0.250000  0.250158  0.110571  1
  P  P21  1  0.750000  0.749650  0.889636  1
  P  P22  1  0.250000  0.249860  0.649484  1
  P  P23  1  0.750000  0.750006  0.350459  1
  P  P24  1  0.250000  0.447687  0.386568  1
  P  P25  1  0.250000  0.052315  0.386412  1
  P  P26  1  0.750000  0.551924  0.613317  1
  P  P27  1  0.750000  0.947748  0.612873  1
  P  P28  1  0.250000  0.905691  0.105604  1
  P  P29  1  0.250000  0.594262  0.105722  1
  P  P30  1  0.750000  0.095086  0.894900  1
  P  P31  1  0.750000  0.405624  0.894368  1
  Ir  Ir32  1  0.250000  0.250109  0.839343  1
  Ir  Ir33  1  0.750000  0.749863  0.160689  1
  Ir  Ir34  1  0.250000  0.250077  0.296071  1
  Ir  Ir35  1  0.750000  0.749082  0.703585  1
