# generated using pymatgen
data_YNbB6Os
_symmetry_space_group_name_H-M   'P 1'
_cell_length_a   3.51156700
_cell_length_b   9.01432800
_cell_length_c   11.31382900
_cell_angle_alpha   90.00000000
_cell_angle_beta   90.00000000
_cell_angle_gamma   90.00000000
_symmetry_Int_Tables_number   1
_chemical_formula_structural   YNbB6Os
_chemical_formula_sum   'Y4 Nb4 B24 Os4'
_cell_volume   358.13265800
_cell_formula_units_Z   4
loop_
 _symmetry_equiv_pos_site_id
 _symmetry_equiv_pos_as_xyz
  1  'x, y, z'
loop_
 _atom_site_type_symbol
 _atom_site_label
 _atom_site_symmetry_multiplicity
 _atom_site_fract_x
 _atom_site_fract_y
 _atom_site_fract_z
 _atom_site_occupancy
  Y  Y0  1  0.000000  0.323383  0.413347  1
  Y  Y1  1  0.000000  0.676617  0.586653  1
  Y  Y2  1  0.000000  0.823383  0.086653  1
  Y  Y3  1  0.000000  0.176617  0.913347  1
  Nb  Nb4  1  0.000000  0.946649  0.376949  1
  Nb  Nb5  1  0.000000  0.053351  0.623051  1
  Nb  Nb6  1  0.000000  0.446649  0.123051  1
  Nb  Nb7  1  0.000000  0.553351  0.876949  1
  B  B8  1  0.500000  0.554776  0.433911  1
  B  B9  1  0.500000  0.445224  0.566089  1
  B  B10  1  0.500000  0.054776  0.066089  1
  B  B11  1  0.500000  0.945224  0.933911  1
  B  B12  1  0.500000  0.753900  0.418759  1
  B  B13  1  0.500000  0.246100  0.581241  1
  B  B14  1  0.500000  0.253900  0.081241  1
  B  B15  1  0.500000  0.746100  0.918759  1
  B  B16  1  0.500000  0.797598  0.263101  1
  B  B17  1  0.500000  0.202402  0.736898  1
  B  B18  1  0.500000  0.297598  0.236899  1
  B  B19  1  0.500000  0.702402  0.763102  1
  B  B20  1  0.500000  0.629454  0.181389  1
  B  B21  1  0.500000  0.370546  0.818611  1
  B  B22  1  0.500000  0.129454  0.318611  1
  B  B23  1  0.500000  0.870546  0.681389  1
  B  B24  1  0.500000  0.981028  0.213813  1
  B  B25  1  0.500000  0.018972  0.786187  1
  B  B26  1  0.500000  0.481028  0.286187  1
  B  B27  1  0.500000  0.518972  0.713813  1
  B  B28  1  0.500000  0.600606  0.026828  1
  B  B29  1  0.500000  0.399394  0.973172  1
  B  B30  1  0.500000  0.100606  0.473172  1
  B  B31  1  0.500000  0.899394  0.526828  1
  Os  Os32  1  0.000000  0.643350  0.317617  1
  Os  Os33  1  0.000000  0.356650  0.682383  1
  Os  Os34  1  0.000000  0.143350  0.182383  1
  Os  Os35  1  0.000000  0.856650  0.817617  1
