# generated using pymatgen
data_TbY3AlRu
_symmetry_space_group_name_H-M   'P 1'
_cell_length_a   9.58915155
_cell_length_b   9.58915055
_cell_length_c   9.58914900
_cell_angle_alpha   59.94176761
_cell_angle_beta   59.94160536
_cell_angle_gamma   59.94185358
_symmetry_Int_Tables_number   1
_chemical_formula_structural   TbY3AlRu
_chemical_formula_sum   'Tb4 Y12 Al4 Ru4'
_cell_volume   622.66027834
_cell_formula_units_Z   4
loop_
 _symmetry_equiv_pos_site_id
 _symmetry_equiv_pos_as_xyz
  1  'x, y, z'
loop_
 _atom_site_type_symbol
 _atom_site_label
 _atom_site_symmetry_multiplicity
 _atom_site_fract_x
 _atom_site_fract_y
 _atom_site_fract_z
 _atom_site_occupancy
  Tb  Tb0  1  0.351394  0.351394  0.351394  1
  Tb  Tb1  1  0.351029  0.351030  0.948514  1
  Tb  Tb2  1  0.351030  0.948513  0.351030  1
  Tb  Tb3  1  0.948514  0.351030  0.351030  1
  Y  Y4  1  0.805438  0.194080  0.194080  1
  Y  Y5  1  0.191669  0.806086  0.806086  1
  Y  Y6  1  0.194080  0.805438  0.194080  1
  Y  Y7  1  0.806086  0.191669  0.806086  1
  Y  Y8  1  0.194080  0.194080  0.805438  1
  Y  Y9  1  0.806086  0.806086  0.191669  1
  Y  Y10  1  0.938003  0.560631  0.560631  1
  Y  Y11  1  0.559389  0.940872  0.940873  1
  Y  Y12  1  0.560631  0.938003  0.560632  1
  Y  Y13  1  0.940873  0.559389  0.940873  1
  Y  Y14  1  0.560631  0.560631  0.938003  1
  Y  Y15  1  0.940873  0.940872  0.559389  1
  Al  Al16  1  0.576730  0.576729  0.576730  1
  Al  Al17  1  0.575989  0.575989  0.269611  1
  Al  Al18  1  0.575989  0.269611  0.575989  1
  Al  Al19  1  0.269611  0.575989  0.575989  1
  Ru  Ru20  1  0.139893  0.139894  0.139892  1
  Ru  Ru21  1  0.142350  0.142350  0.577280  1
  Ru  Ru22  1  0.142350  0.577280  0.142350  1
  Ru  Ru23  1  0.577279  0.142351  0.142351  1
