# generated using pymatgen
data_YNiAgPt3
_symmetry_space_group_name_H-M   'P 1'
_cell_length_a   5.11127783
_cell_length_b   5.11127637
_cell_length_c   5.11127784
_cell_angle_alpha   63.49588070
_cell_angle_beta   63.49589199
_cell_angle_gamma   63.49587536
_symmetry_Int_Tables_number   1
_chemical_formula_structural   YNiAgPt3
_chemical_formula_sum   'Y1 Ni1 Ag1 Pt3'
_cell_volume   101.72162732
_cell_formula_units_Z   1
loop_
 _symmetry_equiv_pos_site_id
 _symmetry_equiv_pos_as_xyz
  1  'x, y, z'
loop_
 _atom_site_type_symbol
 _atom_site_label
 _atom_site_symmetry_multiplicity
 _atom_site_fract_x
 _atom_site_fract_y
 _atom_site_fract_z
 _atom_site_occupancy
  Y  Y0  1  0.001705  0.001705  0.001705  1
  Ni  Ni1  1  0.623618  0.623618  0.623618  1
  Ag  Ag2  1  0.252268  0.252268  0.252268  1
  Pt  Pt3  1  0.623582  0.623582  0.125247  1
  Pt  Pt4  1  0.623582  0.125247  0.623582  1
  Pt  Pt5  1  0.125247  0.623582  0.623582  1
