# generated using pymatgen
data_Sm7Y(Si3Pt)4
_symmetry_space_group_name_H-M   'P 1'
_cell_length_a   8.19833711
_cell_length_b   8.20410623
_cell_length_c   8.38689300
_cell_angle_alpha   90.00000000
_cell_angle_beta   90.00000000
_cell_angle_gamma   120.02327189
_symmetry_Int_Tables_number   1
_chemical_formula_structural   Sm7Y(Si3Pt)4
_chemical_formula_sum   'Sm7 Y1 Si12 Pt4'
_cell_volume   488.41263504
_cell_formula_units_Z   1
loop_
 _symmetry_equiv_pos_site_id
 _symmetry_equiv_pos_as_xyz
  1  'x, y, z'
loop_
 _atom_site_type_symbol
 _atom_site_label
 _atom_site_symmetry_multiplicity
 _atom_site_fract_x
 _atom_site_fract_y
 _atom_site_fract_z
 _atom_site_occupancy
  Sm  Sm0  1  0.000250  0.000125  0.250000  1
  Sm  Sm1  1  0.999910  0.999956  0.750000  1
  Sm  Sm2  1  0.500152  0.499628  0.250000  1
  Sm  Sm3  1  0.500152  0.000524  0.250000  1
  Sm  Sm4  1  0.999355  0.499678  0.250000  1
  Sm  Sm5  1  0.499628  0.500473  0.750000  1
  Sm  Sm6  1  0.499628  0.999154  0.750000  1
  Y  Y7  1  0.000583  0.500292  0.750000  1
  Si  Si8  1  0.165403  0.834295  0.499265  1
  Si  Si9  1  0.165403  0.331109  0.499265  1
  Si  Si10  1  0.668125  0.834063  0.498104  1
  Si  Si11  1  0.834604  0.165746  0.501942  1
  Si  Si12  1  0.834604  0.668856  0.501942  1
  Si  Si13  1  0.331987  0.165993  0.501302  1
  Si  Si14  1  0.834604  0.165746  0.998058  1
  Si  Si15  1  0.834604  0.668856  0.998058  1
  Si  Si16  1  0.331987  0.165993  0.998698  1
  Si  Si17  1  0.165403  0.834295  0.000735  1
  Si  Si18  1  0.165403  0.331109  0.000735  1
  Si  Si19  1  0.668125  0.834063  0.001896  1
  Pt  Pt20  1  0.332106  0.666054  0.503497  1
  Pt  Pt21  1  0.667940  0.333970  0.502464  1
  Pt  Pt22  1  0.667940  0.333970  0.997536  1
  Pt  Pt23  1  0.332106  0.666054  0.996503  1
