# generated using pymatgen
data_Lu4V4GaCo9
_symmetry_space_group_name_H-M   'P 1'
_cell_length_a   5.14565792
_cell_length_b   5.14565824
_cell_length_c   11.79255956
_cell_angle_alpha   77.39820142
_cell_angle_beta   77.39819776
_cell_angle_gamma   60.00000646
_symmetry_Int_Tables_number   1
_chemical_formula_structural   Lu4V4GaCo9
_chemical_formula_sum   'Lu4 V4 Ga1 Co9'
_cell_volume   261.68706219
_cell_formula_units_Z   1
loop_
 _symmetry_equiv_pos_site_id
 _symmetry_equiv_pos_as_xyz
  1  'x, y, z'
loop_
 _atom_site_type_symbol
 _atom_site_label
 _atom_site_symmetry_multiplicity
 _atom_site_fract_x
 _atom_site_fract_y
 _atom_site_fract_z
 _atom_site_occupancy
  Lu  Lu0  1  0.951380  0.951380  0.145860  1
  Lu  Lu1  1  0.048620  0.048620  0.854140  1
  Lu  Lu2  1  0.854543  0.854543  0.436372  1
  Lu  Lu3  1  0.145457  0.145457  0.563629  1
  V  V4  1  0.722701  0.722701  0.831897  1
  V  V5  1  0.277299  0.277299  0.168103  1
  V  V6  1  0.610261  0.610261  0.169219  1
  V  V7  1  0.389739  0.389739  0.830781  1
  Ga  Ga8  1  0.500000  0.500000  0.500000  1
  Co  Co9  1  0.000000  0.500000  0.000000  1
  Co  Co10  1  0.500000  0.000000  0.000000  1
  Co  Co11  1  0.500000  0.500000  0.000000  1
  Co  Co12  1  0.390860  0.390860  0.323259  1
  Co  Co13  1  0.895023  0.390860  0.323259  1
  Co  Co14  1  0.390860  0.895023  0.323259  1
  Co  Co15  1  0.609140  0.609140  0.676741  1
  Co  Co16  1  0.104977  0.609140  0.676741  1
  Co  Co17  1  0.609140  0.104977  0.676741  1
