# generated using pymatgen
data_Yb3DyYRu2
_symmetry_space_group_name_H-M   'P 1'
_cell_length_a   8.49012830
_cell_length_b   8.49012866
_cell_length_c   7.43626870
_cell_angle_alpha   83.18327672
_cell_angle_beta   83.18327090
_cell_angle_gamma   43.77435544
_symmetry_Int_Tables_number   1
_chemical_formula_structural   Yb3DyYRu2
_chemical_formula_sum   'Yb6 Dy2 Y2 Ru4'
_cell_volume   367.78533130
_cell_formula_units_Z   2
loop_
 _symmetry_equiv_pos_site_id
 _symmetry_equiv_pos_as_xyz
  1  'x, y, z'
loop_
 _atom_site_type_symbol
 _atom_site_label
 _atom_site_symmetry_multiplicity
 _atom_site_fract_x
 _atom_site_fract_y
 _atom_site_fract_z
 _atom_site_occupancy
  Yb  Yb0  1  0.202168  0.974899  0.583577  1
  Yb  Yb1  1  0.025101  0.797832  0.916423  1
  Yb  Yb2  1  0.202097  0.365405  0.317028  1
  Yb  Yb3  1  0.634595  0.797903  0.182972  1
  Yb  Yb4  1  0.804401  0.628476  0.678392  1
  Yb  Yb5  1  0.371524  0.195599  0.821608  1
  Dy  Dy6  1  0.564768  0.435232  0.750000  1
  Dy  Dy7  1  0.416424  0.583576  0.250000  1
  Y  Y8  1  0.968786  0.201042  0.080431  1
  Y  Y9  1  0.798958  0.031214  0.419569  1
  Ru  Ru10  1  0.179008  0.602091  0.573725  1
  Ru  Ru11  1  0.397909  0.820992  0.926275  1
  Ru  Ru12  1  0.816404  0.382145  0.419196  1
  Ru  Ru13  1  0.617855  0.183596  0.080804  1
