# generated using pymatgen
data_Dy4Ta2B4(IrRu)5
_symmetry_space_group_name_H-M   'P 1'
_cell_length_a   9.75885504
_cell_length_b   9.75160104
_cell_length_c   3.11486900
_cell_angle_alpha   90.00000000
_cell_angle_beta   90.00000000
_cell_angle_gamma   89.98921654
_symmetry_Int_Tables_number   1
_chemical_formula_structural   Dy4Ta2B4(IrRu)5
_chemical_formula_sum   'Dy4 Ta2 B4 Ir5 Ru5'
_cell_volume   296.42482428
_cell_formula_units_Z   1
loop_
 _symmetry_equiv_pos_site_id
 _symmetry_equiv_pos_as_xyz
  1  'x, y, z'
loop_
 _atom_site_type_symbol
 _atom_site_label
 _atom_site_symmetry_multiplicity
 _atom_site_fract_x
 _atom_site_fract_y
 _atom_site_fract_z
 _atom_site_occupancy
  Dy  Dy0  1  0.824407  0.675088  0.000000  1
  Dy  Dy1  1  0.173661  0.322292  0.000000  1
  Dy  Dy2  1  0.325691  0.828812  0.000000  1
  Dy  Dy3  1  0.675155  0.173973  0.000000  1
  Ta  Ta4  1  0.504992  0.498379  0.000000  1
  Ta  Ta5  1  0.999232  0.000079  0.000000  1
  B  B6  1  0.623565  0.886269  0.000000  1
  B  B7  1  0.375756  0.114452  0.000000  1
  B  B8  1  0.118630  0.616621  0.000000  1
  B  B9  1  0.877249  0.383763  0.000000  1
  Ir  Ir10  1  0.569618  0.720197  0.500000  1
  Ir  Ir11  1  0.429132  0.280523  0.500000  1
  Ir  Ir12  1  0.071879  0.779278  0.500000  1
  Ir  Ir13  1  0.929175  0.220185  0.500000  1
  Ir  Ir14  1  0.281921  0.569818  0.500000  1
  Ru  Ru15  1  0.719041  0.430168  0.500000  1
  Ru  Ru16  1  0.218081  0.070278  0.500000  1
  Ru  Ru17  1  0.781665  0.929120  0.500000  1
  Ru  Ru18  1  0.500270  0.000770  0.500000  1
  Ru  Ru19  1  0.000879  0.499932  0.500000  1
