# generated using pymatgen
data_Ho4Al18CuRh5
_symmetry_space_group_name_H-M   'P 1'
_cell_length_a   7.56546605
_cell_length_b   7.56546549
_cell_length_c   9.43215700
_cell_angle_alpha   90.07901927
_cell_angle_beta   90.07900872
_cell_angle_gamma   119.61087847
_symmetry_Int_Tables_number   1
_chemical_formula_structural   Ho4Al18CuRh5
_chemical_formula_sum   'Ho4 Al18 Cu1 Rh5'
_cell_volume   469.35444034
_cell_formula_units_Z   1
loop_
 _symmetry_equiv_pos_site_id
 _symmetry_equiv_pos_as_xyz
  1  'x, y, z'
loop_
 _atom_site_type_symbol
 _atom_site_label
 _atom_site_symmetry_multiplicity
 _atom_site_fract_x
 _atom_site_fract_y
 _atom_site_fract_z
 _atom_site_occupancy
  Ho  Ho0  1  0.994814  0.672250  0.749788  1
  Ho  Ho1  1  0.005186  0.327750  0.250212  1
  Ho  Ho2  1  0.672250  0.994814  0.749788  1
  Ho  Ho3  1  0.327750  0.005186  0.250212  1
  Al  Al4  1  0.128672  0.128672  0.751110  1
  Al  Al5  1  0.871328  0.871328  0.248890  1
  Al  Al6  1  0.000161  0.338259  0.577864  1
  Al  Al7  1  0.999839  0.661741  0.422136  1
  Al  Al8  1  0.000348  0.665212  0.074969  1
  Al  Al9  1  0.334788  0.999652  0.925031  1
  Al  Al10  1  0.999652  0.334788  0.925031  1
  Al  Al11  1  0.665212  0.000348  0.074969  1
  Al  Al12  1  0.661741  0.999839  0.422136  1
  Al  Al13  1  0.338259  0.000161  0.577864  1
  Al  Al14  1  0.332890  0.332890  0.051683  1
  Al  Al15  1  0.667110  0.667110  0.948317  1
  Al  Al16  1  0.664524  0.664524  0.553510  1
  Al  Al17  1  0.335476  0.335476  0.446490  1
  Al  Al18  1  0.339063  0.549822  0.750625  1
  Al  Al19  1  0.660937  0.450178  0.249375  1
  Al  Al20  1  0.549822  0.339063  0.750625  1
  Al  Al21  1  0.450178  0.660937  0.249375  1
  Cu  Cu22  1  0.000000  0.000000  0.500000  1
  Rh  Rh23  1  0.671960  0.328040  0.500000  1
  Rh  Rh24  1  0.328040  0.671960  0.500000  1
  Rh  Rh25  1  0.327738  0.672262  0.000000  1
  Rh  Rh26  1  0.672262  0.327738  0.000000  1
  Rh  Rh27  1  0.000000  0.000000  0.000000  1
