# generated using pymatgen
data_Lu8TlHg3
_symmetry_space_group_name_H-M   'P 1'
_cell_length_a   5.05069800
_cell_length_b   6.81601798
_cell_length_c   9.18524522
_cell_angle_alpha   89.79429778
_cell_angle_beta   90.00000000
_cell_angle_gamma   90.00000000
_symmetry_Int_Tables_number   1
_chemical_formula_structural   Lu8TlHg3
_chemical_formula_sum   'Lu8 Tl1 Hg3'
_cell_volume   316.20598416
_cell_formula_units_Z   1
loop_
 _symmetry_equiv_pos_site_id
 _symmetry_equiv_pos_as_xyz
  1  'x, y, z'
loop_
 _atom_site_type_symbol
 _atom_site_label
 _atom_site_symmetry_multiplicity
 _atom_site_fract_x
 _atom_site_fract_y
 _atom_site_fract_z
 _atom_site_occupancy
  Lu  Lu0  1  0.250000  0.824140  0.926300  1
  Lu  Lu1  1  0.250000  0.332484  0.578465  1
  Lu  Lu2  1  0.750000  0.169000  0.065555  1
  Lu  Lu3  1  0.750000  0.683800  0.428043  1
  Lu  Lu4  1  0.250000  0.478746  0.200655  1
  Lu  Lu5  1  0.250000  0.975999  0.295121  1
  Lu  Lu6  1  0.750000  0.520869  0.801929  1
  Lu  Lu7  1  0.750000  0.019155  0.704482  1
  Tl  Tl8  1  0.750000  0.226448  0.395096  1
  Hg  Hg9  1  0.250000  0.267066  0.899068  1
  Hg  Hg10  1  0.250000  0.772665  0.601715  1
  Hg  Hg11  1  0.750000  0.729627  0.103570  1
