# generated using pymatgen
data_Tb2Ho5Lu3Pb8
_symmetry_space_group_name_H-M   'P 1'
_cell_length_a   8.15770900
_cell_length_b   8.23738203
_cell_length_c   15.57116212
_cell_angle_alpha   90.00235264
_cell_angle_beta   90.00000000
_cell_angle_gamma   90.00000000
_symmetry_Int_Tables_number   1
_chemical_formula_structural   Tb2Ho5Lu3Pb8
_chemical_formula_sum   'Tb4 Ho10 Lu6 Pb16'
_cell_volume   1046.35352827
_cell_formula_units_Z   2
loop_
 _symmetry_equiv_pos_site_id
 _symmetry_equiv_pos_as_xyz
  1  'x, y, z'
loop_
 _atom_site_type_symbol
 _atom_site_label
 _atom_site_symmetry_multiplicity
 _atom_site_fract_x
 _atom_site_fract_y
 _atom_site_fract_z
 _atom_site_occupancy
  Tb  Tb0  1  0.468500  0.678657  0.096737  1
  Tb  Tb1  1  0.968500  0.821343  0.403263  1
  Tb  Tb2  1  0.533001  0.324831  0.599466  1
  Tb  Tb3  1  0.033001  0.175169  0.900534  1
  Ho  Ho4  1  0.626929  0.157129  0.379942  1
  Ho  Ho5  1  0.126929  0.342871  0.120058  1
  Ho  Ho6  1  0.625056  0.158703  0.121562  1
  Ho  Ho7  1  0.125056  0.341297  0.378438  1
  Ho  Ho8  1  0.375086  0.842738  0.621448  1
  Ho  Ho9  1  0.875086  0.657262  0.878552  1
  Ho  Ho10  1  0.533999  0.323484  0.901084  1
  Ho  Ho11  1  0.033999  0.176516  0.598916  1
  Ho  Ho12  1  0.465779  0.676753  0.401703  1
  Ho  Ho13  1  0.965779  0.823247  0.098297  1
  Lu  Lu14  1  0.372483  0.844000  0.876245  1
  Lu  Lu15  1  0.872483  0.656000  0.623755  1
  Lu  Lu16  1  0.206091  0.505589  0.749984  1
  Lu  Lu17  1  0.706091  0.994411  0.750016  1
  Lu  Lu18  1  0.793944  0.494966  0.250757  1
  Lu  Lu19  1  0.293944  0.005034  0.249243  1
  Pb  Pb20  1  0.283963  0.033199  0.041800  1
  Pb  Pb21  1  0.783963  0.466801  0.458200  1
  Pb  Pb22  1  0.718948  0.962169  0.544720  1
  Pb  Pb23  1  0.218948  0.537831  0.955280  1
  Pb  Pb24  1  0.711983  0.963902  0.956013  1
  Pb  Pb25  1  0.211983  0.536098  0.543987  1
  Pb  Pb26  1  0.284396  0.034581  0.456244  1
  Pb  Pb27  1  0.784396  0.465419  0.043756  1
  Pb  Pb28  1  0.568246  0.626578  0.750504  1
  Pb  Pb29  1  0.068246  0.873422  0.749496  1
  Pb  Pb30  1  0.431212  0.375094  0.250628  1
  Pb  Pb31  1  0.931212  0.124906  0.249372  1
  Pb  Pb32  1  0.346396  0.156391  0.750419  1
  Pb  Pb33  1  0.846396  0.343609  0.749581  1
  Pb  Pb34  1  0.653987  0.843991  0.250363  1
  Pb  Pb35  1  0.153987  0.656009  0.249637  1
