# generated using pymatgen
data_Yb8SmPd6
_symmetry_space_group_name_H-M   'P 1'
_cell_length_a   7.58113948
_cell_length_b   7.58113937
_cell_length_c   7.58113900
_cell_angle_alpha   70.78408868
_cell_angle_beta   70.78408097
_cell_angle_gamma   70.78408719
_symmetry_Int_Tables_number   1
_chemical_formula_structural   Yb8SmPd6
_chemical_formula_sum   'Yb8 Sm1 Pd6'
_cell_volume   376.41638399
_cell_formula_units_Z   1
loop_
 _symmetry_equiv_pos_site_id
 _symmetry_equiv_pos_as_xyz
  1  'x, y, z'
loop_
 _atom_site_type_symbol
 _atom_site_label
 _atom_site_symmetry_multiplicity
 _atom_site_fract_x
 _atom_site_fract_y
 _atom_site_fract_z
 _atom_site_occupancy
  Yb  Yb0  1  0.796922  0.796922  0.796922  1
  Yb  Yb1  1  0.203078  0.203078  0.203078  1
  Yb  Yb2  1  0.331479  0.602050  0.844587  1
  Yb  Yb3  1  0.844587  0.331479  0.602050  1
  Yb  Yb4  1  0.602050  0.844587  0.331479  1
  Yb  Yb5  1  0.668521  0.397950  0.155413  1
  Yb  Yb6  1  0.155413  0.668521  0.397950  1
  Yb  Yb7  1  0.397950  0.155413  0.668521  1
  Sm  Sm8  1  0.000000  0.000000  0.000000  1
  Pd  Pd9  1  0.153759  0.955229  0.595443  1
  Pd  Pd10  1  0.595443  0.153759  0.955229  1
  Pd  Pd11  1  0.955229  0.595443  0.153759  1
  Pd  Pd12  1  0.846241  0.044771  0.404557  1
  Pd  Pd13  1  0.404557  0.846241  0.044771  1
  Pd  Pd14  1  0.044771  0.404557  0.846241  1
