# generated using pymatgen
data_Li8Mn3TcBr24
_symmetry_space_group_name_H-M   'P 1'
_cell_length_a   6.60222900
_cell_length_b   6.60222922
_cell_length_c   26.80673500
_cell_angle_alpha   90.00000000
_cell_angle_beta   90.00000000
_cell_angle_gamma   120.00000391
_symmetry_Int_Tables_number   1
_chemical_formula_structural   Li8Mn3TcBr24
_chemical_formula_sum   'Li8 Mn3 Tc1 Br24'
_cell_volume   1011.94222474
_cell_formula_units_Z   1
loop_
 _symmetry_equiv_pos_site_id
 _symmetry_equiv_pos_as_xyz
  1  'x, y, z'
loop_
 _atom_site_type_symbol
 _atom_site_label
 _atom_site_symmetry_multiplicity
 _atom_site_fract_x
 _atom_site_fract_y
 _atom_site_fract_z
 _atom_site_occupancy
  Li  Li0  1  0.000000  0.000000  0.250000  1
  Li  Li1  1  0.000000  0.000000  0.750000  1
  Li  Li2  1  0.333333  0.666667  0.999942  1
  Li  Li3  1  0.333333  0.666667  0.500058  1
  Li  Li4  1  0.333333  0.666667  0.250000  1
  Li  Li5  1  0.666667  0.333333  0.750000  1
  Li  Li6  1  0.666667  0.333333  0.000064  1
  Li  Li7  1  0.666667  0.333333  0.499936  1
  Mn  Mn8  1  0.000000  0.000000  0.000056  1
  Mn  Mn9  1  0.000000  0.000000  0.499944  1
  Mn  Mn10  1  0.333333  0.666667  0.750000  1
  Tc  Tc11  1  0.666667  0.333333  0.250000  1
  Br  Br12  1  0.355016  0.021426  0.305129  1
  Br  Br13  1  0.333600  0.970918  0.803665  1
  Br  Br14  1  0.000640  0.304352  0.053592  1
  Br  Br15  1  0.999368  0.303674  0.553610  1
  Br  Br16  1  0.978574  0.333590  0.305129  1
  Br  Br17  1  0.029082  0.362682  0.803665  1
  Br  Br18  1  0.355016  0.333590  0.194871  1
  Br  Br19  1  0.333600  0.362682  0.696335  1
  Br  Br20  1  0.303712  0.304352  0.446408  1
  Br  Br21  1  0.304306  0.303674  0.946390  1
  Br  Br22  1  0.695648  0.999360  0.446408  1
  Br  Br23  1  0.303712  0.999360  0.053592  1
  Br  Br24  1  0.304306  0.000632  0.553610  1
  Br  Br25  1  0.695648  0.696288  0.053592  1
  Br  Br26  1  0.696326  0.695694  0.553610  1
  Br  Br27  1  0.666410  0.644984  0.305129  1
  Br  Br28  1  0.637318  0.666400  0.803665  1
  Br  Br29  1  0.978574  0.644984  0.194871  1
  Br  Br30  1  0.029082  0.666400  0.696335  1
  Br  Br31  1  0.000640  0.696288  0.446408  1
  Br  Br32  1  0.999368  0.695694  0.946390  1
  Br  Br33  1  0.696326  0.000632  0.946390  1
  Br  Br34  1  0.666410  0.021426  0.194871  1
  Br  Br35  1  0.637318  0.970918  0.696335  1
