# generated using pymatgen
data_LiNd4Mn(FeO6)2
_symmetry_space_group_name_H-M   'P 1'
_cell_length_a   5.45178760
_cell_length_b   5.65834740
_cell_length_c   7.72853262
_cell_angle_alpha   90.00603495
_cell_angle_beta   90.54042421
_cell_angle_gamma   90.70951519
_symmetry_Int_Tables_number   1
_chemical_formula_structural   LiNd4Mn(FeO6)2
_chemical_formula_sum   'Li1 Nd4 Mn1 Fe2 O12'
_cell_volume   238.38172022
_cell_formula_units_Z   1
loop_
 _symmetry_equiv_pos_site_id
 _symmetry_equiv_pos_as_xyz
  1  'x, y, z'
loop_
 _atom_site_type_symbol
 _atom_site_label
 _atom_site_symmetry_multiplicity
 _atom_site_fract_x
 _atom_site_fract_y
 _atom_site_fract_z
 _atom_site_occupancy
  Li  Li0  1  0.000000  0.500000  0.500000  1
  Nd  Nd1  1  0.015758  0.937678  0.738246  1
  Nd  Nd2  1  0.514602  0.554616  0.260102  1
  Nd  Nd3  1  0.485398  0.445384  0.739898  1
  Nd  Nd4  1  0.984242  0.062322  0.261754  1
  Mn  Mn5  1  0.500000  0.000000  0.500000  1
  Fe  Fe6  1  0.500000  0.000000  0.000000  1
  Fe  Fe7  1  0.000000  0.500000  0.000000  1
  O  O8  1  0.693501  0.282460  0.457276  1
  O  O9  1  0.219111  0.193185  0.540314  1
  O  O10  1  0.787786  0.798441  0.053240  1
  O  O11  1  0.291772  0.704729  0.951596  1
  O  O12  1  0.306499  0.717540  0.542724  1
  O  O13  1  0.780889  0.806815  0.459686  1
  O  O14  1  0.212214  0.201559  0.946760  1
  O  O15  1  0.708228  0.295271  0.048404  1
  O  O16  1  0.084947  0.479131  0.234755  1
  O  O17  1  0.589116  0.022456  0.745710  1
  O  O18  1  0.410884  0.977544  0.254290  1
  O  O19  1  0.915053  0.520869  0.765245  1
