# generated using pymatgen
data_HoHg4Se2Br5
_symmetry_space_group_name_H-M   'P 1'
_cell_length_a   8.66580828
_cell_length_b   11.00128400
_cell_length_c   9.40637868
_cell_angle_alpha   90.00000000
_cell_angle_beta   113.61778908
_cell_angle_gamma   90.00000000
_symmetry_Int_Tables_number   1
_chemical_formula_structural   HoHg4Se2Br5
_chemical_formula_sum   'Ho2 Hg8 Se4 Br10'
_cell_volume   821.64344277
_cell_formula_units_Z   2
loop_
 _symmetry_equiv_pos_site_id
 _symmetry_equiv_pos_as_xyz
  1  'x, y, z'
loop_
 _atom_site_type_symbol
 _atom_site_label
 _atom_site_symmetry_multiplicity
 _atom_site_fract_x
 _atom_site_fract_y
 _atom_site_fract_z
 _atom_site_occupancy
  Ho  Ho0  1  0.502072  0.431167  0.505711  1
  Ho  Ho1  1  0.497928  0.931167  0.494289  1
  Hg  Hg2  1  0.927214  0.183703  0.332186  1
  Hg  Hg3  1  0.072786  0.683703  0.667814  1
  Hg  Hg4  1  0.952603  0.665807  0.361493  1
  Hg  Hg5  1  0.047397  0.165807  0.638507  1
  Hg  Hg6  1  0.496592  0.182729  0.988889  1
  Hg  Hg7  1  0.503408  0.682729  0.011111  1
  Hg  Hg8  1  0.802922  0.432342  0.014147  1
  Hg  Hg9  1  0.197078  0.932342  0.985853  1
  Se  Se10  1  0.803517  0.198499  0.025917  1
  Se  Se11  1  0.196483  0.698499  0.974083  1
  Se  Se12  1  0.188226  0.164046  0.944474  1
  Se  Se13  1  0.811774  0.664046  0.055526  1
  Br  Br14  1  0.838799  0.925375  0.683616  1
  Br  Br15  1  0.161201  0.425375  0.316384  1
  Br  Br16  1  0.845503  0.438434  0.706003  1
  Br  Br17  1  0.154497  0.938434  0.293997  1
  Br  Br18  1  0.412216  0.458728  0.760594  1
  Br  Br19  1  0.587784  0.958728  0.239406  1
  Br  Br20  1  0.592573  0.392582  0.259313  1
  Br  Br21  1  0.407427  0.892582  0.740687  1
  Br  Br22  1  0.495432  0.180189  0.560321  1
  Br  Br23  1  0.504568  0.680189  0.439679  1
