# generated using pymatgen
data_DyTc6PbO24
_symmetry_space_group_name_H-M   'P 1'
_cell_length_a   10.03952200
_cell_length_b   10.03952278
_cell_length_c   6.09720100
_cell_angle_alpha   90.00000000
_cell_angle_beta   90.00000000
_cell_angle_gamma   119.99999741
_symmetry_Int_Tables_number   1
_chemical_formula_structural   DyTc6PbO24
_chemical_formula_sum   'Dy1 Tc6 Pb1 O24'
_cell_volume   532.21518388
_cell_formula_units_Z   1
loop_
 _symmetry_equiv_pos_site_id
 _symmetry_equiv_pos_as_xyz
  1  'x, y, z'
loop_
 _atom_site_type_symbol
 _atom_site_label
 _atom_site_symmetry_multiplicity
 _atom_site_fract_x
 _atom_site_fract_y
 _atom_site_fract_z
 _atom_site_occupancy
  Dy  Dy0  1  0.666667  0.333333  0.750000  1
  Tc  Tc1  1  0.086791  0.390568  0.750000  1
  Tc  Tc2  1  0.394168  0.296903  0.250000  1
  Tc  Tc3  1  0.609432  0.696221  0.750000  1
  Tc  Tc4  1  0.902733  0.605832  0.250000  1
  Tc  Tc5  1  0.303779  0.913209  0.750000  1
  Tc  Tc6  1  0.703097  0.097267  0.250000  1
  Pb  Pb7  1  0.333333  0.666667  0.250000  1
  O  O8  1  0.489289  0.637327  0.518870  1
  O  O9  1  0.362673  0.851964  0.518870  1
  O  O10  1  0.821664  0.720628  0.250000  1
  O  O11  1  0.108769  0.838621  0.750000  1
  O  O12  1  0.279372  0.101036  0.250000  1
  O  O13  1  0.161379  0.270149  0.750000  1
  O  O14  1  0.513010  0.355910  0.017772  1
  O  O15  1  0.898964  0.178336  0.250000  1
  O  O16  1  0.101746  0.719851  0.250000  1
  O  O17  1  0.148036  0.510711  0.981130  1
  O  O18  1  0.148036  0.510711  0.518870  1
  O  O19  1  0.887146  0.285704  0.750000  1
  O  O20  1  0.280149  0.381895  0.250000  1
  O  O21  1  0.714296  0.601442  0.750000  1
  O  O22  1  0.842901  0.486990  0.482228  1
  O  O23  1  0.398558  0.112854  0.750000  1
  O  O24  1  0.644090  0.157099  0.017772  1
  O  O25  1  0.489289  0.637327  0.981130  1
  O  O26  1  0.362673  0.851964  0.981130  1
  O  O27  1  0.644090  0.157099  0.482228  1
  O  O28  1  0.513010  0.355910  0.482228  1
  O  O29  1  0.842901  0.486990  0.017772  1
  O  O30  1  0.729851  0.891231  0.750000  1
  O  O31  1  0.618105  0.898254  0.250000  1
