# generated using pymatgen
data_Ho4Tm8Co4CuBi
_symmetry_space_group_name_H-M   'P 1'
_cell_length_a   8.27175772
_cell_length_b   8.27175653
_cell_length_c   8.27175627
_cell_angle_alpha   110.09793019
_cell_angle_beta   111.14396500
_cell_angle_gamma   107.19721381
_symmetry_Int_Tables_number   1
_chemical_formula_structural   Ho4Tm8Co4CuBi
_chemical_formula_sum   'Ho4 Tm8 Co4 Cu1 Bi1'
_cell_volume   435.13377762
_cell_formula_units_Z   1
loop_
 _symmetry_equiv_pos_site_id
 _symmetry_equiv_pos_as_xyz
  1  'x, y, z'
loop_
 _atom_site_type_symbol
 _atom_site_label
 _atom_site_symmetry_multiplicity
 _atom_site_fract_x
 _atom_site_fract_y
 _atom_site_fract_z
 _atom_site_occupancy
  Ho  Ho0  1  0.286832  0.183200  0.470032  1
  Ho  Ho1  1  0.713168  0.816800  0.529968  1
  Ho  Ho2  1  0.286832  0.816800  0.103631  1
  Ho  Ho3  1  0.713168  0.183200  0.896369  1
  Tm  Tm4  1  0.621774  0.313049  0.308724  1
  Tm  Tm5  1  0.378226  0.686951  0.691276  1
  Tm  Tm6  1  0.004325  0.313049  0.691276  1
  Tm  Tm7  1  0.995675  0.686951  0.308724  1
  Tm  Tm8  1  0.213561  0.415264  0.201706  1
  Tm  Tm9  1  0.786439  0.584736  0.798294  1
  Tm  Tm10  1  0.213561  0.011855  0.798294  1
  Tm  Tm11  1  0.786439  0.988145  0.201706  1
  Co  Co12  1  0.000000  0.376272  0.376272  1
  Co  Co13  1  0.000000  0.623728  0.623728  1
  Co  Co14  1  0.386476  0.886476  0.500000  1
  Co  Co15  1  0.613524  0.113524  0.500000  1
  Cu  Cu16  1  0.000000  0.000000  0.000000  1
  Bi  Bi17  1  0.500000  0.500000  0.000000  1
