# generated using pymatgen
data_Gd3YBe8(B5O11)4
_symmetry_space_group_name_H-M   'P 1'
_cell_length_a   4.37636778
_cell_length_b   6.76441110
_cell_length_c   25.90795041
_cell_angle_alpha   90.00991193
_cell_angle_beta   90.11169232
_cell_angle_gamma   89.93528162
_symmetry_Int_Tables_number   1
_chemical_formula_structural   Gd3YBe8(B5O11)4
_chemical_formula_sum   'Gd3 Y1 Be8 B20 O44'
_cell_volume   766.96536765
_cell_formula_units_Z   1
loop_
 _symmetry_equiv_pos_site_id
 _symmetry_equiv_pos_as_xyz
  1  'x, y, z'
loop_
 _atom_site_type_symbol
 _atom_site_label
 _atom_site_symmetry_multiplicity
 _atom_site_fract_x
 _atom_site_fract_y
 _atom_site_fract_z
 _atom_site_occupancy
  Gd  Gd0  1  0.863810  0.369155  0.919206  1
  Gd  Gd1  1  0.136238  0.868872  0.080823  1
  Gd  Gd2  1  0.365649  0.868743  0.580539  1
  Y  Y3  1  0.632154  0.367019  0.419433  1
  Be  Be4  1  0.166578  0.452694  0.790112  1
  Be  Be5  1  0.833406  0.952767  0.210068  1
  Be  Be6  1  0.665714  0.952816  0.709776  1
  Be  Be7  1  0.334691  0.452867  0.290692  1
  Be  Be8  1  0.662894  0.229140  0.792454  1
  Be  Be9  1  0.337205  0.729241  0.207811  1
  Be  Be10  1  0.161984  0.728999  0.707375  1
  Be  Be11  1  0.837416  0.229278  0.292880  1
  B  B12  1  0.375089  0.039698  0.869007  1
  B  B13  1  0.625025  0.539835  0.131082  1
  B  B14  1  0.874610  0.539439  0.630514  1
  B  B15  1  0.124893  0.040074  0.369345  1
  B  B16  1  0.150095  0.710663  0.869847  1
  B  B17  1  0.850256  0.210546  0.130216  1
  B  B18  1  0.649616  0.210780  0.629783  1
  B  B19  1  0.351892  0.710195  0.370552  1
  B  B20  1  0.030313  0.937675  0.942640  1
  B  B21  1  0.969590  0.437466  0.057415  1
  B  B22  1  0.529396  0.436533  0.556484  1
  B  B23  1  0.471624  0.938644  0.442834  1
  B  B24  1  0.541546  0.956550  0.997027  1
  B  B25  1  0.458429  0.456412  0.003016  1
  B  B26  1  0.039116  0.455621  0.501907  1
  B  B27  1  0.960282  0.957987  0.497069  1
  B  B28  1  0.177013  0.088054  0.751754  1
  B  B29  1  0.823224  0.588421  0.248643  1
  B  B30  1  0.677013  0.588114  0.748103  1
  B  B31  1  0.322707  0.088300  0.252033  1
  O  O32  1  0.353952  0.847340  0.849234  1
  O  O33  1  0.646327  0.347489  0.150833  1
  O  O34  1  0.853017  0.347659  0.650546  1
  O  O35  1  0.147463  0.847154  0.349706  1
  O  O36  1  0.632693  0.925854  0.046373  1
  O  O37  1  0.367245  0.425752  0.953644  1
  O  O38  1  0.127550  0.425200  0.452415  1
  O  O39  1  0.869545  0.925700  0.546304  1
  O  O40  1  0.998752  0.745973  0.916259  1
  O  O41  1  0.001323  0.245648  0.083776  1
  O  O42  1  0.499552  0.245154  0.583102  1
  O  O43  1  0.503557  0.745903  0.416985  1
  O  O44  1  0.226463  0.925159  0.989472  1
  O  O45  1  0.773734  0.425335  0.010508  1
  O  O46  1  0.723448  0.424353  0.509412  1
  O  O47  1  0.275412  0.927101  0.489613  1
  O  O48  1  0.159805  0.086039  0.907065  1
  O  O49  1  0.839861  0.586006  0.092974  1
  O  O50  1  0.660239  0.585064  0.592058  1
  O  O51  1  0.342277  0.087172  0.407135  1
  O  O52  1  0.090597  0.530340  0.848587  1
  O  O53  1  0.909851  0.030251  0.151530  1
  O  O54  1  0.589446  0.030928  0.651225  1
  O  O55  1  0.412510  0.529155  0.349508  1
  O  O56  1  0.576902  0.178651  0.852908  1
  O  O57  1  0.423061  0.678901  0.147271  1
  O  O58  1  0.076003  0.678623  0.646767  1
  O  O59  1  0.921002  0.178914  0.353495  1
  O  O60  1  0.727436  0.015818  0.956479  1
  O  O61  1  0.272471  0.515390  0.043591  1
  O  O62  1  0.225807  0.514021  0.542557  1
  O  O63  1  0.773580  0.018409  0.456630  1
  O  O64  1  0.027685  0.224808  0.782640  1
  O  O65  1  0.972303  0.724771  0.217652  1
  O  O66  1  0.526984  0.724966  0.717244  1
  O  O67  1  0.472649  0.225094  0.282854  1
  O  O68  1  0.490997  0.087146  0.751917  1
  O  O69  1  0.509091  0.587785  0.248557  1
  O  O70  1  0.991019  0.586988  0.747891  1
  O  O71  1  0.008686  0.086967  0.252355  1
  O  O72  1  0.026354  0.952976  0.721387  1
  O  O73  1  0.973969  0.453270  0.279026  1
  O  O74  1  0.527057  0.453212  0.778507  1
  O  O75  1  0.472853  0.953399  0.221572  1
