# generated using pymatgen
data_La5Sb4Te
_symmetry_space_group_name_H-M   'P 1'
_cell_length_a   12.17925085
_cell_length_b   12.17925117
_cell_length_c   12.17925036
_cell_angle_alpha   157.93515979
_cell_angle_beta   148.97610474
_cell_angle_gamma   38.39831567
_symmetry_Int_Tables_number   1
_chemical_formula_structural   La5Sb4Te
_chemical_formula_sum   'La5 Sb4 Te1'
_cell_volume   349.26531218
_cell_formula_units_Z   1
loop_
 _symmetry_equiv_pos_site_id
 _symmetry_equiv_pos_as_xyz
  1  'x, y, z'
loop_
 _atom_site_type_symbol
 _atom_site_label
 _atom_site_symmetry_multiplicity
 _atom_site_fract_x
 _atom_site_fract_y
 _atom_site_fract_z
 _atom_site_occupancy
  La  La0  1  0.895662  0.895662  0.000000  1
  La  La1  1  0.104338  0.104338  0.000000  1
  La  La2  1  0.300748  0.300748  0.000000  1
  La  La3  1  0.699252  0.699252  0.000000  1
  La  La4  1  0.500000  0.500000  0.000000  1
  Sb  Sb5  1  0.599059  0.099059  0.500000  1
  Sb  Sb6  1  0.400941  0.900941  0.500000  1
  Sb  Sb7  1  0.799334  0.299334  0.500000  1
  Sb  Sb8  1  0.200666  0.700666  0.500000  1
  Te  Te9  1  0.000000  0.500000  0.500000  1
