# generated using pymatgen
data_Th2CuNi2Sn4Pd
_symmetry_space_group_name_H-M   'P 1'
_cell_length_a   4.51796300
_cell_length_b   4.51796300
_cell_length_c   10.18941900
_cell_angle_alpha   90.00000000
_cell_angle_beta   90.00000000
_cell_angle_gamma   90.00000000
_symmetry_Int_Tables_number   1
_chemical_formula_structural   Th2CuNi2Sn4Pd
_chemical_formula_sum   'Th2 Cu1 Ni2 Sn4 Pd1'
_cell_volume   207.98631536
_cell_formula_units_Z   1
loop_
 _symmetry_equiv_pos_site_id
 _symmetry_equiv_pos_as_xyz
  1  'x, y, z'
loop_
 _atom_site_type_symbol
 _atom_site_label
 _atom_site_symmetry_multiplicity
 _atom_site_fract_x
 _atom_site_fract_y
 _atom_site_fract_z
 _atom_site_occupancy
  Th  Th0  1  0.000000  0.500000  0.245894  1
  Th  Th1  1  0.500000  0.000000  0.754106  1
  Cu  Cu2  1  0.000000  0.000000  0.000000  1
  Ni  Ni3  1  0.500000  0.000000  0.381818  1
  Ni  Ni4  1  0.000000  0.500000  0.618182  1
  Sn  Sn5  1  0.500000  0.000000  0.138460  1
  Sn  Sn6  1  0.000000  0.000000  0.500000  1
  Sn  Sn7  1  0.500000  0.500000  0.500000  1
  Sn  Sn8  1  0.000000  0.500000  0.861540  1
  Pd  Pd9  1  0.500000  0.500000  0.000000  1
