# generated using pymatgen
data_HI16
_symmetry_space_group_name_H-M   'P 1'
_cell_length_a   15.73573492
_cell_length_b   12.05746051
_cell_length_c   10.18712953
_cell_angle_alpha   91.42318975
_cell_angle_beta   128.25932165
_cell_angle_gamma   121.75015545
_symmetry_Int_Tables_number   1
_chemical_formula_structural   HI16
_chemical_formula_sum   'H1 I16'
_cell_volume   1098.24853877
_cell_formula_units_Z   1
loop_
 _symmetry_equiv_pos_site_id
 _symmetry_equiv_pos_as_xyz
  1  'x, y, z'
loop_
 _atom_site_type_symbol
 _atom_site_label
 _atom_site_symmetry_multiplicity
 _atom_site_fract_x
 _atom_site_fract_y
 _atom_site_fract_z
 _atom_site_occupancy
  H  H0  1  0.000000  0.000000  0.000000  1
  I  I1  1  0.999079  0.986204  0.810056  1
  I  I2  1  0.000921  0.013796  0.189944  1
  I  I3  1  0.978868  0.291887  0.036644  1
  I  I4  1  0.564853  0.749655  0.761017  1
  I  I5  1  0.435147  0.250345  0.238983  1
  I  I6  1  0.021132  0.708113  0.963356  1
  I  I7  1  0.542129  0.537763  0.310990  1
  I  I8  1  0.457871  0.462237  0.689010  1
  I  I9  1  0.712964  0.897097  0.451487  1
  I  I10  1  0.058685  0.434242  0.875501  1
  I  I11  1  0.941315  0.565758  0.124499  1
  I  I12  1  0.483032  0.882021  0.133871  1
  I  I13  1  0.516968  0.117979  0.866129  1
  I  I14  1  0.846865  0.394304  0.298721  1
  I  I15  1  0.153135  0.605696  0.701279  1
  I  I16  1  0.287036  0.102903  0.548513  1
