# generated using pymatgen
data_Dy7Lu13Sn11Sb5
_symmetry_space_group_name_H-M   'P 1'
_cell_length_a   8.02841255
_cell_length_b   8.03610723
_cell_length_c   15.15093594
_cell_angle_alpha   90.16656151
_cell_angle_beta   90.37400926
_cell_angle_gamma   89.82655556
_symmetry_Int_Tables_number   1
_chemical_formula_structural   Dy7Lu13Sn11Sb5
_chemical_formula_sum   'Dy7 Lu13 Sn11 Sb5'
_cell_volume   977.46634470
_cell_formula_units_Z   1
loop_
 _symmetry_equiv_pos_site_id
 _symmetry_equiv_pos_as_xyz
  1  'x, y, z'
loop_
 _atom_site_type_symbol
 _atom_site_label
 _atom_site_symmetry_multiplicity
 _atom_site_fract_x
 _atom_site_fract_y
 _atom_site_fract_z
 _atom_site_occupancy
  Dy  Dy0  1  0.038667  0.174584  0.602057  1
  Dy  Dy1  1  0.462004  0.674516  0.398459  1
  Dy  Dy2  1  0.959487  0.823809  0.102786  1
  Dy  Dy3  1  0.465415  0.669862  0.102345  1
  Dy  Dy4  1  0.971394  0.823310  0.400362  1
  Dy  Dy5  1  0.527403  0.323775  0.599349  1
  Dy  Dy6  1  0.034632  0.178449  0.899156  1
  Lu  Lu7  1  0.373652  0.841276  0.877541  1
  Lu  Lu8  1  0.872571  0.659442  0.624250  1
  Lu  Lu9  1  0.626995  0.158497  0.376235  1
  Lu  Lu10  1  0.124567  0.339544  0.123416  1
  Lu  Lu11  1  0.625299  0.160196  0.122139  1
  Lu  Lu12  1  0.129092  0.339014  0.376638  1
  Lu  Lu13  1  0.369758  0.840840  0.624360  1
  Lu  Lu14  1  0.873408  0.659434  0.876566  1
  Lu  Lu15  1  0.546077  0.334058  0.894570  1
  Lu  Lu16  1  0.203870  0.503445  0.747595  1
  Lu  Lu17  1  0.703202  0.998927  0.749845  1
  Lu  Lu18  1  0.796508  0.496607  0.248651  1
  Lu  Lu19  1  0.296569  0.001631  0.252363  1
  Sn  Sn20  1  0.210624  0.536952  0.542839  1
  Sn  Sn21  1  0.288254  0.035720  0.457734  1
  Sn  Sn22  1  0.785040  0.464707  0.041649  1
  Sn  Sn23  1  0.568042  0.626246  0.750191  1
  Sn  Sn24  1  0.067852  0.876461  0.751974  1
  Sn  Sn25  1  0.431529  0.374478  0.249153  1
  Sn  Sn26  1  0.931294  0.124124  0.249763  1
  Sn  Sn27  1  0.344315  0.150298  0.752947  1
  Sn  Sn28  1  0.842471  0.351651  0.749286  1
  Sn  Sn29  1  0.658293  0.851582  0.250332  1
  Sn  Sn30  1  0.157321  0.646967  0.249505  1
  Sb  Sb31  1  0.279350  0.027008  0.045700  1
  Sb  Sb32  1  0.784026  0.465808  0.456443  1
  Sb  Sb33  1  0.715007  0.966935  0.543879  1
  Sb  Sb34  1  0.220314  0.528716  0.955164  1
  Sb  Sb35  1  0.715695  0.971131  0.954756  1
