# generated using pymatgen
data_Sr3TbCoO6
_symmetry_space_group_name_H-M   'P 1'
_cell_length_a   6.78262154
_cell_length_b   6.78262201
_cell_length_c   6.78262385
_cell_angle_alpha   92.33989278
_cell_angle_beta   92.33989800
_cell_angle_gamma   92.33988301
_symmetry_Int_Tables_number   1
_chemical_formula_structural   Sr3TbCoO6
_chemical_formula_sum   'Sr6 Tb2 Co2 O12'
_cell_volume   311.22510762
_cell_formula_units_Z   2
loop_
 _symmetry_equiv_pos_site_id
 _symmetry_equiv_pos_as_xyz
  1  'x, y, z'
loop_
 _atom_site_type_symbol
 _atom_site_label
 _atom_site_symmetry_multiplicity
 _atom_site_fract_x
 _atom_site_fract_y
 _atom_site_fract_z
 _atom_site_occupancy
  Sr  Sr0  1  0.881111  0.618889  0.250000  1
  Sr  Sr1  1  0.250000  0.881111  0.618889  1
  Sr  Sr2  1  0.618889  0.250000  0.881111  1
  Sr  Sr3  1  0.750000  0.118889  0.381111  1
  Sr  Sr4  1  0.381111  0.750000  0.118889  1
  Sr  Sr5  1  0.118889  0.381111  0.750000  1
  Tb  Tb6  1  0.250000  0.250000  0.250000  1
  Tb  Tb7  1  0.750000  0.750000  0.750000  1
  Co  Co8  1  0.500000  0.500000  0.500000  1
  Co  Co9  1  0.000000  0.000000  0.000000  1
  O  O10  1  0.218601  0.546198  0.414469  1
  O  O11  1  0.414469  0.218601  0.546198  1
  O  O12  1  0.546198  0.414469  0.218601  1
  O  O13  1  0.914469  0.046198  0.718601  1
  O  O14  1  0.718601  0.914469  0.046198  1
  O  O15  1  0.046198  0.718601  0.914469  1
  O  O16  1  0.781399  0.453802  0.585531  1
  O  O17  1  0.585531  0.781399  0.453802  1
  O  O18  1  0.453802  0.585531  0.781399  1
  O  O19  1  0.085531  0.953802  0.281399  1
  O  O20  1  0.281399  0.085531  0.953802  1
  O  O21  1  0.953802  0.281399  0.085531  1
