# generated using pymatgen
data_PrDy15Cd4TcPt3
_symmetry_space_group_name_H-M   'P 1'
_cell_length_a   9.73973158
_cell_length_b   9.73973203
_cell_length_c   9.74315983
_cell_angle_alpha   59.47415526
_cell_angle_beta   59.47415287
_cell_angle_gamma   59.26969473
_symmetry_Int_Tables_number   1
_chemical_formula_structural   PrDy15Cd4TcPt3
_chemical_formula_sum   'Pr1 Dy15 Cd4 Tc1 Pt3'
_cell_volume   644.71053328
_cell_formula_units_Z   1
loop_
 _symmetry_equiv_pos_site_id
 _symmetry_equiv_pos_as_xyz
  1  'x, y, z'
loop_
 _atom_site_type_symbol
 _atom_site_label
 _atom_site_symmetry_multiplicity
 _atom_site_fract_x
 _atom_site_fract_y
 _atom_site_fract_z
 _atom_site_occupancy
  Pr  Pr0  1  0.935667  0.935667  0.559021  1
  Dy  Dy1  1  0.351948  0.351948  0.351830  1
  Dy  Dy2  1  0.350481  0.350481  0.950317  1
  Dy  Dy3  1  0.351259  0.950604  0.348838  1
  Dy  Dy4  1  0.950604  0.351259  0.348838  1
  Dy  Dy5  1  0.815252  0.189513  0.185879  1
  Dy  Dy6  1  0.189577  0.809471  0.809851  1
  Dy  Dy7  1  0.189513  0.815252  0.185879  1
  Dy  Dy8  1  0.809471  0.189577  0.809851  1
  Dy  Dy9  1  0.188095  0.188095  0.816211  1
  Dy  Dy10  1  0.809419  0.809419  0.187253  1
  Dy  Dy11  1  0.935133  0.561584  0.565700  1
  Dy  Dy12  1  0.553678  0.937990  0.939908  1
  Dy  Dy13  1  0.561584  0.935133  0.565700  1
  Dy  Dy14  1  0.937990  0.553678  0.939908  1
  Dy  Dy15  1  0.565013  0.565013  0.936130  1
  Cd  Cd16  1  0.580829  0.580829  0.579781  1
  Cd  Cd17  1  0.581630  0.581630  0.252592  1
  Cd  Cd18  1  0.577346  0.257011  0.581570  1
  Cd  Cd19  1  0.257011  0.577346  0.581570  1
  Tc  Tc20  1  0.144938  0.144938  0.140689  1
  Pt  Pt21  1  0.145379  0.145379  0.573647  1
  Pt  Pt22  1  0.144829  0.573352  0.144517  1
  Pt  Pt23  1  0.573352  0.144829  0.144517  1
