# generated using pymatgen
data_Ba3MnZn2O6
_symmetry_space_group_name_H-M   'P 1'
_cell_length_a   5.96992700
_cell_length_b   6.02597278
_cell_length_c   6.88047595
_cell_angle_alpha   89.32066330
_cell_angle_beta   90.00000000
_cell_angle_gamma   119.69281468
_symmetry_Int_Tables_number   1
_chemical_formula_structural   Ba3MnZn2O6
_chemical_formula_sum   'Ba3 Mn1 Zn2 O6'
_cell_volume   215.00118626
_cell_formula_units_Z   1
loop_
 _symmetry_equiv_pos_site_id
 _symmetry_equiv_pos_as_xyz
  1  'x, y, z'
loop_
 _atom_site_type_symbol
 _atom_site_label
 _atom_site_symmetry_multiplicity
 _atom_site_fract_x
 _atom_site_fract_y
 _atom_site_fract_z
 _atom_site_occupancy
  Ba  Ba0  1  0.654752  0.000000  0.833333  1
  Ba  Ba1  1  0.998694  0.652753  0.163529  1
  Ba  Ba2  1  0.345940  0.347247  0.503138  1
  Mn  Mn3  1  0.588031  0.000000  0.333333  1
  Zn  Zn4  1  0.415311  0.414815  0.999005  1
  Zn  Zn5  1  0.000496  0.585185  0.667662  1
  O  O6  1  0.121698  0.420059  0.877243  1
  O  O7  1  0.574700  0.693248  0.205867  1
  O  O8  1  0.297363  0.877440  0.545893  1
  O  O9  1  0.701640  0.579941  0.789424  1
  O  O10  1  0.419922  0.122560  0.120774  1
  O  O11  1  0.881453  0.306752  0.460799  1
