# generated using pymatgen
data_Dy3YAlGa17Ir6
_symmetry_space_group_name_H-M   'P 1'
_cell_length_a   7.59305328
_cell_length_b   7.59311485
_cell_length_c   9.49810240
_cell_angle_alpha   89.95510460
_cell_angle_beta   89.95508790
_cell_angle_gamma   119.87878723
_symmetry_Int_Tables_number   1
_chemical_formula_structural   Dy3YAlGa17Ir6
_chemical_formula_sum   'Dy3 Y1 Al1 Ga17 Ir6'
_cell_volume   474.82385036
_cell_formula_units_Z   1
loop_
 _symmetry_equiv_pos_site_id
 _symmetry_equiv_pos_as_xyz
  1  'x, y, z'
loop_
 _atom_site_type_symbol
 _atom_site_label
 _atom_site_symmetry_multiplicity
 _atom_site_fract_x
 _atom_site_fract_y
 _atom_site_fract_z
 _atom_site_occupancy
  Dy  Dy0  1  0.001684  0.330358  0.249344  1
  Dy  Dy1  1  0.669045  0.998230  0.749695  1
  Dy  Dy2  1  0.330357  0.001683  0.249344  1
  Y  Y3  1  0.998217  0.669042  0.749690  1
  Al  Al4  1  0.335396  0.335397  0.449667  1
  Ga  Ga5  1  0.126827  0.126868  0.749421  1
  Ga  Ga6  1  0.872788  0.872786  0.249338  1
  Ga  Ga7  1  0.998721  0.334298  0.579830  1
  Ga  Ga8  1  0.000164  0.664993  0.418770  1
  Ga  Ga9  1  0.999861  0.664964  0.080776  1
  Ga  Ga10  1  0.334643  0.999706  0.918455  1
  Ga  Ga11  1  0.999666  0.334563  0.918455  1
  Ga  Ga12  1  0.664964  0.999859  0.080746  1
  Ga  Ga13  1  0.664992  0.000159  0.418800  1
  Ga  Ga14  1  0.334378  0.998762  0.579829  1
  Ga  Ga15  1  0.331808  0.331809  0.063559  1
  Ga  Ga16  1  0.667721  0.667756  0.936210  1
  Ga  Ga17  1  0.670916  0.670953  0.563677  1
  Ga  Ga18  1  0.340733  0.547955  0.749796  1
  Ga  Ga19  1  0.656036  0.451135  0.250231  1
  Ga  Ga20  1  0.547907  0.340649  0.749796  1
  Ga  Ga21  1  0.451130  0.656036  0.250232  1
  Ir  Ir22  1  0.669103  0.328256  0.499049  1
  Ir  Ir23  1  0.328294  0.669120  0.499044  1
  Ir  Ir24  1  0.328461  0.671802  0.999721  1
  Ir  Ir25  1  0.671785  0.328419  0.999717  1
  Ir  Ir26  1  0.004544  0.004561  0.497457  1
  Ir  Ir27  1  0.999861  0.999884  0.999353  1
