# generated using pymatgen
data_Hf18Co2Re5MoW2
_symmetry_space_group_name_H-M   'P 1'
_cell_length_a   8.64277933
_cell_length_b   8.64277889
_cell_length_c   8.45484900
_cell_angle_alpha   90.00000000
_cell_angle_beta   90.00000000
_cell_angle_gamma   120.04599057
_symmetry_Int_Tables_number   1
_chemical_formula_structural   Hf18Co2Re5MoW2
_chemical_formula_sum   'Hf18 Co2 Re5 Mo1 W2'
_cell_volume   546.69092180
_cell_formula_units_Z   1
loop_
 _symmetry_equiv_pos_site_id
 _symmetry_equiv_pos_as_xyz
  1  'x, y, z'
loop_
 _atom_site_type_symbol
 _atom_site_label
 _atom_site_symmetry_multiplicity
 _atom_site_fract_x
 _atom_site_fract_y
 _atom_site_fract_z
 _atom_site_occupancy
  Hf  Hf0  1  0.200367  0.799633  0.440770  1
  Hf  Hf1  1  0.200959  0.401199  0.441864  1
  Hf  Hf2  1  0.598801  0.799041  0.441864  1
  Hf  Hf3  1  0.799558  0.200442  0.559910  1
  Hf  Hf4  1  0.799782  0.599510  0.559365  1
  Hf  Hf5  1  0.400490  0.200218  0.559365  1
  Hf  Hf6  1  0.799558  0.200442  0.940090  1
  Hf  Hf7  1  0.799782  0.599510  0.940635  1
  Hf  Hf8  1  0.400490  0.200218  0.940635  1
  Hf  Hf9  1  0.200367  0.799633  0.059230  1
  Hf  Hf10  1  0.200959  0.401199  0.058136  1
  Hf  Hf11  1  0.598801  0.799041  0.058136  1
  Hf  Hf12  1  0.541677  0.458323  0.250000  1
  Hf  Hf13  1  0.540421  0.083565  0.250000  1
  Hf  Hf14  1  0.916435  0.459579  0.250000  1
  Hf  Hf15  1  0.458146  0.541854  0.750000  1
  Hf  Hf16  1  0.457634  0.916100  0.750000  1
  Hf  Hf17  1  0.083900  0.542366  0.750000  1
  Co  Co18  1  0.333379  0.666621  0.250000  1
  Co  Co19  1  0.666267  0.333733  0.750000  1
  Re  Re20  1  0.888345  0.775597  0.250000  1
  Re  Re21  1  0.224403  0.111655  0.250000  1
  Re  Re22  1  0.111558  0.888442  0.750000  1
  Re  Re23  1  0.112059  0.223527  0.750000  1
  Re  Re24  1  0.776473  0.887941  0.750000  1
  Mo  Mo25  1  0.888521  0.111479  0.250000  1
  W  W26  1  0.000436  0.999564  0.499718  1
  W  W27  1  0.000436  0.999564  0.000282  1
