# generated using pymatgen
data_SmTh3(Pd5Pt)2
_symmetry_space_group_name_H-M   'P 1'
_cell_length_a   5.93426582
_cell_length_b   5.93485302
_cell_length_c   9.77588928
_cell_angle_alpha   89.90246864
_cell_angle_beta   90.20874640
_cell_angle_gamma   119.99364650
_symmetry_Int_Tables_number   1
_chemical_formula_structural   SmTh3(Pd5Pt)2
_chemical_formula_sum   'Sm1 Th3 Pd10 Pt2'
_cell_volume   298.18705429
_cell_formula_units_Z   1
loop_
 _symmetry_equiv_pos_site_id
 _symmetry_equiv_pos_as_xyz
  1  'x, y, z'
loop_
 _atom_site_type_symbol
 _atom_site_label
 _atom_site_symmetry_multiplicity
 _atom_site_fract_x
 _atom_site_fract_y
 _atom_site_fract_z
 _atom_site_occupancy
  Sm  Sm0  1  0.000000  0.000000  0.500000  1
  Th  Th1  1  0.000000  0.000000  0.000000  1
  Th  Th2  1  0.333164  0.666296  0.253632  1
  Th  Th3  1  0.666836  0.333704  0.746368  1
  Pd  Pd4  1  0.500000  0.000000  0.500000  1
  Pd  Pd5  1  0.000000  0.500000  0.500000  1
  Pd  Pd6  1  0.500000  0.500000  0.000000  1
  Pd  Pd7  1  0.500000  0.000000  0.000000  1
  Pd  Pd8  1  0.824991  0.650087  0.248933  1
  Pd  Pd9  1  0.349370  0.174554  0.249184  1
  Pd  Pd10  1  0.825114  0.174516  0.248583  1
  Pd  Pd11  1  0.175009  0.349913  0.751067  1
  Pd  Pd12  1  0.650630  0.825446  0.750816  1
  Pd  Pd13  1  0.174886  0.825484  0.751417  1
  Pt  Pt14  1  0.500000  0.500000  0.500000  1
  Pt  Pt15  1  0.000000  0.500000  0.000000  1
