# generated using pymatgen
data_Cr16Ir3Pt13
_symmetry_space_group_name_H-M   'P 1'
_cell_length_a   8.62845173
_cell_length_b   8.62845172
_cell_length_c   6.64019651
_cell_angle_alpha   74.41594308
_cell_angle_beta   74.41594391
_cell_angle_gamma   79.11053424
_symmetry_Int_Tables_number   1
_chemical_formula_structural   Cr16Ir3Pt13
_chemical_formula_sum   'Cr16 Ir3 Pt13'
_cell_volume   455.03846484
_cell_formula_units_Z   1
loop_
 _symmetry_equiv_pos_site_id
 _symmetry_equiv_pos_as_xyz
  1  'x, y, z'
loop_
 _atom_site_type_symbol
 _atom_site_label
 _atom_site_symmetry_multiplicity
 _atom_site_fract_x
 _atom_site_fract_y
 _atom_site_fract_z
 _atom_site_occupancy
  Cr  Cr0  1  0.993847  0.256420  0.247594  1
  Cr  Cr1  1  0.256420  0.993847  0.247594  1
  Cr  Cr2  1  0.752395  0.491171  0.238212  1
  Cr  Cr3  1  0.491171  0.752395  0.238212  1
  Cr  Cr4  1  0.869568  0.134522  0.000416  1
  Cr  Cr5  1  0.134522  0.869568  0.000416  1
  Cr  Cr6  1  0.633336  0.372460  0.999680  1
  Cr  Cr7  1  0.372460  0.633336  0.999680  1
  Cr  Cr8  1  0.119078  0.370358  0.498335  1
  Cr  Cr9  1  0.370358  0.119078  0.498335  1
  Cr  Cr10  1  0.877844  0.630184  0.513414  1
  Cr  Cr11  1  0.630184  0.877844  0.513414  1
  Cr  Cr12  1  0.741900  0.001730  0.749278  1
  Cr  Cr13  1  0.001730  0.741900  0.749278  1
  Cr  Cr14  1  0.509641  0.245309  0.756429  1
  Cr  Cr15  1  0.245309  0.509641  0.756429  1
  Ir  Ir16  1  0.687451  0.687451  0.874751  1
  Ir  Ir17  1  0.942766  0.440819  0.866115  1
  Ir  Ir18  1  0.440819  0.942766  0.866115  1
  Pt  Pt19  1  0.313250  0.313250  0.122563  1
  Pt  Pt20  1  0.060536  0.060536  0.627530  1
  Pt  Pt21  1  0.809381  0.809381  0.129874  1
  Pt  Pt22  1  0.564667  0.564667  0.621852  1
  Pt  Pt23  1  0.434647  0.434647  0.379403  1
  Pt  Pt24  1  0.189598  0.189598  0.871932  1
  Pt  Pt25  1  0.937819  0.937819  0.374615  1
  Pt  Pt26  1  0.057860  0.562146  0.128711  1
  Pt  Pt27  1  0.562146  0.057860  0.128711  1
  Pt  Pt28  1  0.813453  0.315417  0.622539  1
  Pt  Pt29  1  0.315417  0.813453  0.622539  1
  Pt  Pt30  1  0.185930  0.684503  0.378016  1
  Pt  Pt31  1  0.684503  0.185930  0.378016  1
