# generated using pymatgen
data_Ce2Ho14Cd3HgIr4
_symmetry_space_group_name_H-M   'P 1'
_cell_length_a   9.59779496
_cell_length_b   9.59779450
_cell_length_c   9.64813233
_cell_angle_alpha   59.97632394
_cell_angle_beta   59.97632605
_cell_angle_gamma   59.88588509
_symmetry_Int_Tables_number   1
_chemical_formula_structural   Ce2Ho14Cd3HgIr4
_chemical_formula_sum   'Ce2 Ho14 Cd3 Hg1 Ir4'
_cell_volume   627.68245046
_cell_formula_units_Z   1
loop_
 _symmetry_equiv_pos_site_id
 _symmetry_equiv_pos_as_xyz
  1  'x, y, z'
loop_
 _atom_site_type_symbol
 _atom_site_label
 _atom_site_symmetry_multiplicity
 _atom_site_fract_x
 _atom_site_fract_y
 _atom_site_fract_z
 _atom_site_occupancy
  Ce  Ce0  1  0.595207  0.595207  0.598572  1
  Ce  Ce1  1  0.597800  0.597800  0.204898  1
  Ho  Ho2  1  0.603287  0.195417  0.601435  1
  Ho  Ho3  1  0.195417  0.603287  0.601435  1
  Ho  Ho4  1  0.061394  0.438919  0.439694  1
  Ho  Ho5  1  0.438275  0.061790  0.059697  1
  Ho  Ho6  1  0.438919  0.061394  0.439694  1
  Ho  Ho7  1  0.061790  0.438275  0.059697  1
  Ho  Ho8  1  0.437270  0.437270  0.062730  1
  Ho  Ho9  1  0.061417  0.061417  0.437580  1
  Ho  Ho10  1  0.187894  0.813300  0.813531  1
  Ho  Ho11  1  0.812068  0.188623  0.186506  1
  Ho  Ho12  1  0.813300  0.187894  0.813531  1
  Ho  Ho13  1  0.188623  0.812068  0.186506  1
  Ho  Ho14  1  0.812993  0.812993  0.186836  1
  Ho  Ho15  1  0.189662  0.189662  0.810306  1
  Cd  Cd16  1  0.830606  0.830606  0.506140  1
  Cd  Cd17  1  0.829915  0.504973  0.831503  1
  Cd  Cd18  1  0.504973  0.829915  0.831503  1
  Hg  Hg19  1  0.833808  0.833808  0.833163  1
  Ir  Ir20  1  0.393042  0.393042  0.392283  1
  Ir  Ir21  1  0.393412  0.393412  0.822097  1
  Ir  Ir22  1  0.396203  0.822725  0.390331  1
  Ir  Ir23  1  0.822725  0.396203  0.390331  1
