# generated using pymatgen
data_PrNd5Ir18
_symmetry_space_group_name_H-M   'P 1'
_cell_length_a   5.39303810
_cell_length_b   5.39325216
_cell_length_c   17.66704765
_cell_angle_alpha   90.00010398
_cell_angle_beta   90.00291830
_cell_angle_gamma   120.00262099
_symmetry_Int_Tables_number   1
_chemical_formula_structural   PrNd5Ir18
_chemical_formula_sum   'Pr1 Nd5 Ir18'
_cell_volume   445.00752457
_cell_formula_units_Z   1
loop_
 _symmetry_equiv_pos_site_id
 _symmetry_equiv_pos_as_xyz
  1  'x, y, z'
loop_
 _atom_site_type_symbol
 _atom_site_label
 _atom_site_symmetry_multiplicity
 _atom_site_fract_x
 _atom_site_fract_y
 _atom_site_fract_z
 _atom_site_occupancy
  Pr  Pr0  1  0.333416  0.666707  0.540249  1
  Nd  Nd1  1  0.333284  0.666644  0.959072  1
  Nd  Nd2  1  0.666715  0.333357  0.041053  1
  Nd  Nd3  1  0.666619  0.333307  0.459128  1
  Nd  Nd4  1  0.333360  0.666684  0.749790  1
  Nd  Nd5  1  0.666667  0.333332  0.250429  1
  Ir  Ir6  1  0.166315  0.833708  0.371539  1
  Ir  Ir7  1  0.166318  0.332602  0.371537  1
  Ir  Ir8  1  0.667373  0.833682  0.371461  1
  Ir  Ir9  1  0.833736  0.166595  0.628560  1
  Ir  Ir10  1  0.833744  0.667152  0.628553  1
  Ir  Ir11  1  0.332949  0.166474  0.628480  1
  Ir  Ir12  1  0.833366  0.166360  0.871687  1
  Ir  Ir13  1  0.833366  0.667016  0.871695  1
  Ir  Ir14  1  0.332848  0.166428  0.871794  1
  Ir  Ir15  1  0.166503  0.833508  0.128320  1
  Ir  Ir16  1  0.166510  0.333003  0.128320  1
  Ir  Ir17  1  0.666896  0.833444  0.128352  1
  Ir  Ir18  1  0.333011  0.666517  0.250015  1
  Ir  Ir19  1  0.666243  0.333158  0.750090  1
  Ir  Ir20  1  0.000290  0.000135  0.249786  1
  Ir  Ir21  1  0.000622  0.000258  0.750099  1
  Ir  Ir22  1  0.999714  0.999863  0.499975  1
  Ir  Ir23  1  0.000137  0.000067  0.000015  1
