# generated using pymatgen
data_Tb4TmBiAu2
_symmetry_space_group_name_H-M   'P 1'
_cell_length_a   8.74157950
_cell_length_b   8.74157957
_cell_length_c   8.74157921
_cell_angle_alpha   124.28796545
_cell_angle_beta   124.28796250
_cell_angle_gamma   82.72077525
_symmetry_Int_Tables_number   1
_chemical_formula_structural   Tb4TmBiAu2
_chemical_formula_sum   'Tb8 Tm2 Bi2 Au4'
_cell_volume   437.84540836
_cell_formula_units_Z   2
loop_
 _symmetry_equiv_pos_site_id
 _symmetry_equiv_pos_as_xyz
  1  'x, y, z'
loop_
 _atom_site_type_symbol
 _atom_site_label
 _atom_site_symmetry_multiplicity
 _atom_site_fract_x
 _atom_site_fract_y
 _atom_site_fract_z
 _atom_site_occupancy
  Tb  Tb0  1  0.515770  0.015770  0.811578  1
  Tb  Tb1  1  0.204192  0.704192  0.188422  1
  Tb  Tb2  1  0.015770  0.204192  0.500000  1
  Tb  Tb3  1  0.704192  0.515770  0.500000  1
  Tb  Tb4  1  0.484230  0.984230  0.188422  1
  Tb  Tb5  1  0.795808  0.295808  0.811578  1
  Tb  Tb6  1  0.984230  0.795808  0.500000  1
  Tb  Tb7  1  0.295808  0.484230  0.500000  1
  Tm  Tm8  1  0.500000  0.500000  0.000000  1
  Tm  Tm9  1  0.000000  0.000000  0.000000  1
  Bi  Bi10  1  0.250000  0.250000  0.000000  1
  Bi  Bi11  1  0.750000  0.750000  0.000000  1
  Au  Au12  1  0.137757  0.637757  0.775515  1
  Au  Au13  1  0.862243  0.362243  0.224485  1
  Au  Au14  1  0.637757  0.862243  0.500000  1
  Au  Au15  1  0.362243  0.137757  0.500000  1
