# generated using pymatgen
data_TlAs(HO2)2
_symmetry_space_group_name_H-M   'P 1'
_cell_length_a   6.68785051
_cell_length_b   6.70407656
_cell_length_c   7.87271400
_cell_angle_alpha   53.89851377
_cell_angle_beta   54.08957825
_cell_angle_gamma   72.01190974
_symmetry_Int_Tables_number   1
_chemical_formula_structural   TlAs(HO2)2
_chemical_formula_sum   'Tl2 As2 H4 O8'
_cell_volume   230.62759804
_cell_formula_units_Z   2
loop_
 _symmetry_equiv_pos_site_id
 _symmetry_equiv_pos_as_xyz
  1  'x, y, z'
loop_
 _atom_site_type_symbol
 _atom_site_label
 _atom_site_symmetry_multiplicity
 _atom_site_fract_x
 _atom_site_fract_y
 _atom_site_fract_z
 _atom_site_occupancy
  Tl  Tl0  1  0.520594  0.520593  0.479407  1
  Tl  Tl1  1  0.770599  0.770600  0.729402  1
  As  As2  1  0.997679  0.997680  0.002320  1
  As  As3  1  0.247610  0.247610  0.252390  1
  H  H4  1  0.282658  0.982145  0.090874  1
  H  H5  1  0.982146  0.282657  0.644323  1
  H  H6  1  0.605629  0.159112  0.267863  1
  H  H7  1  0.159113  0.605627  0.967399  1
  O  O8  1  0.294747  0.987898  0.947670  1
  O  O9  1  0.987899  0.294746  0.769684  1
  O  O10  1  0.480156  0.302199  0.262319  1
  O  O11  1  0.302200  0.480156  0.955325  1
  O  O12  1  0.781743  0.966222  0.282337  1
  O  O13  1  0.966222  0.781744  0.969696  1
  O  O14  1  0.280233  0.967578  0.283906  1
  O  O15  1  0.967578  0.280232  0.468283  1
