# generated using pymatgen
data_Er2Tm10Os3Rh
_symmetry_space_group_name_H-M   'P 1'
_cell_length_a   7.29972347
_cell_length_b   8.93857600
_cell_length_c   6.26380402
_cell_angle_alpha   90.00000000
_cell_angle_beta   89.89814441
_cell_angle_gamma   90.00000000
_symmetry_Int_Tables_number   1
_chemical_formula_structural   Er2Tm10Os3Rh
_chemical_formula_sum   'Er2 Tm10 Os3 Rh1'
_cell_volume   408.70713614
_cell_formula_units_Z   1
loop_
 _symmetry_equiv_pos_site_id
 _symmetry_equiv_pos_as_xyz
  1  'x, y, z'
loop_
 _atom_site_type_symbol
 _atom_site_label
 _atom_site_symmetry_multiplicity
 _atom_site_fract_x
 _atom_site_fract_y
 _atom_site_fract_z
 _atom_site_occupancy
  Er  Er0  1  0.038962  0.250000  0.628802  1
  Er  Er1  1  0.539411  0.250000  0.870183  1
  Tm  Tm2  1  0.961457  0.750000  0.372647  1
  Tm  Tm3  1  0.462215  0.750000  0.129570  1
  Tm  Tm4  1  0.172668  0.060239  0.165763  1
  Tm  Tm5  1  0.824492  0.937068  0.830713  1
  Tm  Tm6  1  0.323184  0.933550  0.672115  1
  Tm  Tm7  1  0.824492  0.562932  0.830713  1
  Tm  Tm8  1  0.678308  0.061048  0.331548  1
  Tm  Tm9  1  0.172668  0.439761  0.165763  1
  Tm  Tm10  1  0.678308  0.438952  0.331548  1
  Tm  Tm11  1  0.323184  0.566450  0.672115  1
  Os  Os12  1  0.615865  0.750000  0.537616  1
  Os  Os13  1  0.116720  0.750000  0.963900  1
  Os  Os14  1  0.883582  0.250000  0.038674  1
  Rh  Rh15  1  0.384480  0.250000  0.458331  1
