# generated using pymatgen
data_ErMn3Bi5O18
_symmetry_space_group_name_H-M   'P 1'
_cell_length_a   9.00454536
_cell_length_b   9.00492837
_cell_length_c   5.11430411
_cell_angle_alpha   89.99999807
_cell_angle_beta   90.01492012
_cell_angle_gamma   120.00140843
_symmetry_Int_Tables_number   1
_chemical_formula_structural   ErMn3Bi5O18
_chemical_formula_sum   'Er1 Mn3 Bi5 O18'
_cell_volume   359.13112804
_cell_formula_units_Z   1
loop_
 _symmetry_equiv_pos_site_id
 _symmetry_equiv_pos_as_xyz
  1  'x, y, z'
loop_
 _atom_site_type_symbol
 _atom_site_label
 _atom_site_symmetry_multiplicity
 _atom_site_fract_x
 _atom_site_fract_y
 _atom_site_fract_z
 _atom_site_occupancy
  Er  Er0  1  0.000000  0.378040  0.500000  1
  Mn  Mn1  1  0.000000  0.001836  0.500000  1
  Mn  Mn2  1  0.332121  0.665256  0.996992  1
  Mn  Mn3  1  0.667879  0.333134  0.003008  1
  Bi  Bi4  1  0.288963  0.292645  0.000464  1
  Bi  Bi5  1  0.000000  0.703675  0.000000  1
  Bi  Bi6  1  0.622926  0.623100  0.496966  1
  Bi  Bi7  1  0.377074  0.000174  0.503034  1
  Bi  Bi8  1  0.711037  0.003683  0.999536  1
  O  O9  1  0.086103  0.204837  0.713128  1
  O  O10  1  0.226272  0.459640  0.218156  1
  O  O11  1  0.132558  0.594351  0.780331  1
  O  O12  1  0.397198  0.533132  0.785332  1
  O  O13  1  0.227988  0.766169  0.215273  1
  O  O14  1  0.112836  0.912271  0.720000  1
  O  O15  1  0.540004  0.771557  0.212851  1
  O  O16  1  0.199868  0.087446  0.280527  1
  O  O17  1  0.466655  0.864566  0.786087  1
  O  O18  1  0.800132  0.887579  0.719473  1
  O  O19  1  0.459996  0.231553  0.787149  1
  O  O20  1  0.602802  0.135934  0.214668  1
  O  O21  1  0.533345  0.397911  0.213913  1
  O  O22  1  0.773728  0.233367  0.781844  1
  O  O23  1  0.913897  0.118733  0.286872  1
  O  O24  1  0.772012  0.538181  0.784727  1
  O  O25  1  0.867442  0.461793  0.219669  1
  O  O26  1  0.887164  0.799435  0.280000  1
