# generated using pymatgen
data_Y3In3GaCu2
_symmetry_space_group_name_H-M   'P 1'
_cell_length_a   7.27442500
_cell_length_b   7.27442352
_cell_length_c   4.27483700
_cell_angle_alpha   90.00000000
_cell_angle_beta   90.00000000
_cell_angle_gamma   119.99999311
_symmetry_Int_Tables_number   1
_chemical_formula_structural   Y3In3GaCu2
_chemical_formula_sum   'Y3 In3 Ga1 Cu2'
_cell_volume   195.90588130
_cell_formula_units_Z   1
loop_
 _symmetry_equiv_pos_site_id
 _symmetry_equiv_pos_as_xyz
  1  'x, y, z'
loop_
 _atom_site_type_symbol
 _atom_site_label
 _atom_site_symmetry_multiplicity
 _atom_site_fract_x
 _atom_site_fract_y
 _atom_site_fract_z
 _atom_site_occupancy
  Y  Y0  1  0.411962  0.001734  0.500000  1
  Y  Y1  1  0.998266  0.410228  0.500000  1
  Y  Y2  1  0.589772  0.588038  0.500000  1
  In  In3  1  0.755001  0.010975  0.000000  1
  In  In4  1  0.989025  0.744026  0.000000  1
  In  In5  1  0.255974  0.244999  0.000000  1
  Ga  Ga6  1  0.333333  0.666667  0.000000  1
  Cu  Cu7  1  0.666667  0.333333  0.000000  1
  Cu  Cu8  1  0.000000  0.000000  0.500000  1
