# generated using pymatgen
data_Y4Bi5SbRh7
_symmetry_space_group_name_H-M   'P 1'
_cell_length_a   7.78285973
_cell_length_b   7.78286066
_cell_length_c   7.78285956
_cell_angle_alpha   110.25198517
_cell_angle_beta   110.25198279
_cell_angle_gamma   107.92073619
_symmetry_Int_Tables_number   1
_chemical_formula_structural   Y4Bi5SbRh7
_chemical_formula_sum   'Y4 Bi5 Sb1 Rh7'
_cell_volume   362.70866861
_cell_formula_units_Z   1
loop_
 _symmetry_equiv_pos_site_id
 _symmetry_equiv_pos_as_xyz
  1  'x, y, z'
loop_
 _atom_site_type_symbol
 _atom_site_label
 _atom_site_symmetry_multiplicity
 _atom_site_fract_x
 _atom_site_fract_y
 _atom_site_fract_z
 _atom_site_occupancy
  Y  Y0  1  0.479662  0.002803  0.000000  1
  Y  Y1  1  0.002803  0.479662  0.000000  1
  Y  Y2  1  0.002803  0.002803  0.523141  1
  Y  Y3  1  0.479662  0.479662  0.476859  1
  Bi  Bi4  1  0.988258  0.300753  0.312496  1
  Bi  Bi5  1  0.675761  0.988258  0.687504  1
  Bi  Bi6  1  0.698440  0.698440  0.000000  1
  Bi  Bi7  1  0.988258  0.675761  0.687504  1
  Bi  Bi8  1  0.300753  0.988258  0.312496  1
  Sb  Sb9  1  0.342751  0.342751  0.000000  1
  Rh  Rh10  1  0.057877  0.057877  0.000000  1
  Rh  Rh11  1  0.499966  0.749187  0.249221  1
  Rh  Rh12  1  0.749187  0.499966  0.249221  1
  Rh  Rh13  1  0.241552  0.741552  0.500000  1
  Rh  Rh14  1  0.250746  0.499966  0.750779  1
  Rh  Rh15  1  0.499966  0.250746  0.750779  1
  Rh  Rh16  1  0.741552  0.241552  0.500000  1
