# generated using pymatgen
data_Lu4ReBr4
_symmetry_space_group_name_H-M   'P 1'
_cell_length_a   8.81910004
_cell_length_b   8.81909931
_cell_length_c   6.49530492
_cell_angle_alpha   89.35933343
_cell_angle_beta   89.35934420
_cell_angle_gamma   89.24835821
_symmetry_Int_Tables_number   1
_chemical_formula_structural   Lu4ReBr4
_chemical_formula_sum   'Lu8 Re2 Br8'
_cell_volume   505.07639646
_cell_formula_units_Z   2
loop_
 _symmetry_equiv_pos_site_id
 _symmetry_equiv_pos_as_xyz
  1  'x, y, z'
loop_
 _atom_site_type_symbol
 _atom_site_label
 _atom_site_symmetry_multiplicity
 _atom_site_fract_x
 _atom_site_fract_y
 _atom_site_fract_z
 _atom_site_occupancy
  Lu  Lu0  1  0.753681  0.098067  0.988132  1
  Lu  Lu1  1  0.098067  0.753681  0.488132  1
  Lu  Lu2  1  0.096198  0.245696  0.991044  1
  Lu  Lu3  1  0.245696  0.096198  0.491044  1
  Lu  Lu4  1  0.903802  0.754304  0.008956  1
  Lu  Lu5  1  0.901933  0.246319  0.511868  1
  Lu  Lu6  1  0.246319  0.901933  0.011868  1
  Lu  Lu7  1  0.754304  0.903802  0.508956  1
  Re  Re8  1  0.994331  0.005669  0.250000  1
  Re  Re9  1  0.005669  0.994331  0.750000  1
  Br  Br10  1  0.578881  0.183769  0.591544  1
  Br  Br11  1  0.809100  0.583874  0.405742  1
  Br  Br12  1  0.416126  0.190900  0.094258  1
  Br  Br13  1  0.190900  0.416126  0.594258  1
  Br  Br14  1  0.583874  0.809100  0.905742  1
  Br  Br15  1  0.421119  0.816231  0.408456  1
  Br  Br16  1  0.183769  0.578881  0.091544  1
  Br  Br17  1  0.816231  0.421119  0.908456  1
