# generated using pymatgen
data_Er4NiAu3O14
_symmetry_space_group_name_H-M   'P 1'
_cell_length_a   7.30315747
_cell_length_b   7.30144414
_cell_length_c   7.30144500
_cell_angle_alpha   59.99999159
_cell_angle_beta   60.00775183
_cell_angle_gamma   60.00775065
_symmetry_Int_Tables_number   1
_chemical_formula_structural   Er4NiAu3O14
_chemical_formula_sum   'Er4 Ni1 Au3 O14'
_cell_volume   275.33669623
_cell_formula_units_Z   1
loop_
 _symmetry_equiv_pos_site_id
 _symmetry_equiv_pos_as_xyz
  1  'x, y, z'
loop_
 _atom_site_type_symbol
 _atom_site_label
 _atom_site_symmetry_multiplicity
 _atom_site_fract_x
 _atom_site_fract_y
 _atom_site_fract_z
 _atom_site_occupancy
  Er  Er0  1  0.125000  0.125000  0.125000  1
  Er  Er1  1  0.625000  0.125000  0.125000  1
  Er  Er2  1  0.125000  0.125000  0.625000  1
  Er  Er3  1  0.125000  0.625000  0.125000  1
  Ni  Ni4  1  0.125000  0.625000  0.625000  1
  Au  Au5  1  0.625000  0.625000  0.625000  1
  Au  Au6  1  0.625000  0.625000  0.125000  1
  Au  Au7  1  0.625000  0.125000  0.625000  1
  O  O8  1  0.994173  0.001943  0.001943  1
  O  O9  1  0.255827  0.248057  0.248057  1
  O  O10  1  0.282553  0.277053  0.720198  1
  O  O11  1  0.536727  0.526356  0.968458  1
  O  O12  1  0.713273  0.281542  0.723644  1
  O  O13  1  0.713273  0.281542  0.281542  1
  O  O14  1  0.282553  0.720198  0.720198  1
  O  O15  1  0.282553  0.720198  0.277053  1
  O  O16  1  0.713273  0.723644  0.281542  1
  O  O17  1  0.967447  0.529802  0.529802  1
  O  O18  1  0.536727  0.968458  0.968458  1
  O  O19  1  0.967447  0.972947  0.529802  1
  O  O20  1  0.967447  0.529802  0.972947  1
  O  O21  1  0.536727  0.968458  0.526356  1
