# generated using pymatgen
data_YEr(Al5Os)4
_symmetry_space_group_name_H-M   'P 1'
_cell_length_a   6.85367637
_cell_length_b   6.85367589
_cell_length_c   9.15348700
_cell_angle_alpha   90.00000000
_cell_angle_beta   90.00000000
_cell_angle_gamma   96.49305745
_symmetry_Int_Tables_number   1
_chemical_formula_structural   YEr(Al5Os)4
_chemical_formula_sum   'Y1 Er1 Al20 Os4'
_cell_volume   427.20762798
_cell_formula_units_Z   1
loop_
 _symmetry_equiv_pos_site_id
 _symmetry_equiv_pos_as_xyz
  1  'x, y, z'
loop_
 _atom_site_type_symbol
 _atom_site_label
 _atom_site_symmetry_multiplicity
 _atom_site_fract_x
 _atom_site_fract_y
 _atom_site_fract_z
 _atom_site_occupancy
  Y  Y0  1  0.370334  0.629666  0.250000  1
  Er  Er1  1  0.629468  0.370532  0.750000  1
  Al  Al2  1  0.281684  0.019561  0.750000  1
  Al  Al3  1  0.019165  0.281353  0.250000  1
  Al  Al4  1  0.718647  0.980835  0.250000  1
  Al  Al5  1  0.980439  0.718316  0.750000  1
  Al  Al6  1  0.876316  0.123684  0.952819  1
  Al  Al7  1  0.123484  0.876516  0.045361  1
  Al  Al8  1  0.876316  0.123684  0.547181  1
  Al  Al9  1  0.123484  0.876516  0.454639  1
  Al  Al10  1  0.646083  0.916367  0.750000  1
  Al  Al11  1  0.914960  0.645964  0.250000  1
  Al  Al12  1  0.354036  0.085040  0.250000  1
  Al  Al13  1  0.083633  0.353917  0.750000  1
  Al  Al14  1  0.344377  0.655623  0.898762  1
  Al  Al15  1  0.656449  0.343551  0.100810  1
  Al  Al16  1  0.344377  0.655623  0.601238  1
  Al  Al17  1  0.656449  0.343551  0.399190  1
  Al  Al18  1  0.723921  0.723671  0.999522  1
  Al  Al19  1  0.723921  0.723671  0.500478  1
  Al  Al20  1  0.276329  0.276079  0.999522  1
  Al  Al21  1  0.276329  0.276079  0.500478  1
  Os  Os22  1  0.500093  0.000194  0.999782  1
  Os  Os23  1  0.999806  0.499907  0.999782  1
  Os  Os24  1  0.500093  0.000194  0.500218  1
  Os  Os25  1  0.999806  0.499907  0.500218  1
