# generated using pymatgen
data_Y4Ni2IrPt
_symmetry_space_group_name_H-M   'P 1'
_cell_length_a   4.23243800
_cell_length_b   5.54933690
_cell_length_c   7.26238931
_cell_angle_alpha   89.98435842
_cell_angle_beta   90.00000000
_cell_angle_gamma   90.00000000
_symmetry_Int_Tables_number   1
_chemical_formula_structural   Y4Ni2IrPt
_chemical_formula_sum   'Y4 Ni2 Ir1 Pt1'
_cell_volume   170.57336070
_cell_formula_units_Z   1
loop_
 _symmetry_equiv_pos_site_id
 _symmetry_equiv_pos_as_xyz
  1  'x, y, z'
loop_
 _atom_site_type_symbol
 _atom_site_label
 _atom_site_symmetry_multiplicity
 _atom_site_fract_x
 _atom_site_fract_y
 _atom_site_fract_z
 _atom_site_occupancy
  Y  Y0  1  0.750000  0.868585  0.816411  1
  Y  Y1  1  0.250000  0.369985  0.676177  1
  Y  Y2  1  0.250000  0.128940  0.180189  1
  Y  Y3  1  0.750000  0.631562  0.325602  1
  Ni  Ni4  1  0.250000  0.635160  0.041979  1
  Ni  Ni5  1  0.750000  0.128978  0.460490  1
  Ir  Ir6  1  0.250000  0.868138  0.536702  1
  Pt  Pt7  1  0.750000  0.368653  0.962449  1
