# generated using pymatgen
data_Yb3Sm(ReRu3)2
_symmetry_space_group_name_H-M   'P 1'
_cell_length_a   5.51448800
_cell_length_b   5.51448690
_cell_length_c   8.15876000
_cell_angle_alpha   90.00000000
_cell_angle_beta   90.00000000
_cell_angle_gamma   119.99999462
_symmetry_Int_Tables_number   1
_chemical_formula_structural   Yb3Sm(ReRu3)2
_chemical_formula_sum   'Yb3 Sm1 Re2 Ru6'
_cell_volume   214.86472324
_cell_formula_units_Z   1
loop_
 _symmetry_equiv_pos_site_id
 _symmetry_equiv_pos_as_xyz
  1  'x, y, z'
loop_
 _atom_site_type_symbol
 _atom_site_label
 _atom_site_symmetry_multiplicity
 _atom_site_fract_x
 _atom_site_fract_y
 _atom_site_fract_z
 _atom_site_occupancy
  Yb  Yb0  1  0.666667  0.333333  0.570097  1
  Yb  Yb1  1  0.666667  0.333333  0.933895  1
  Yb  Yb2  1  0.333333  0.666667  0.060183  1
  Sm  Sm3  1  0.333333  0.666667  0.432706  1
  Re  Re4  1  0.000000  0.000000  0.498444  1
  Re  Re5  1  0.000000  0.000000  0.001710  1
  Ru  Ru6  1  0.827738  0.172262  0.249226  1
  Ru  Ru7  1  0.827738  0.655478  0.249226  1
  Ru  Ru8  1  0.344522  0.172262  0.249226  1
  Ru  Ru9  1  0.171319  0.828681  0.751762  1
  Ru  Ru10  1  0.171319  0.342638  0.751762  1
  Ru  Ru11  1  0.657362  0.828681  0.751762  1
