# generated using pymatgen
data_Er3Sc3B4Ir9Ru
_symmetry_space_group_name_H-M   'P 1'
_cell_length_a   3.11682200
_cell_length_b   9.74787610
_cell_length_c   9.74787616
_cell_angle_alpha   90.98506768
_cell_angle_beta   90.00000000
_cell_angle_gamma   90.00000000
_symmetry_Int_Tables_number   1
_chemical_formula_structural   Er3Sc3B4Ir9Ru
_chemical_formula_sum   'Er3 Sc3 B4 Ir9 Ru1'
_cell_volume   296.12005049
_cell_formula_units_Z   1
loop_
 _symmetry_equiv_pos_site_id
 _symmetry_equiv_pos_as_xyz
  1  'x, y, z'
loop_
 _atom_site_type_symbol
 _atom_site_label
 _atom_site_symmetry_multiplicity
 _atom_site_fract_x
 _atom_site_fract_y
 _atom_site_fract_z
 _atom_site_occupancy
  Er  Er0  1  0.000000  0.172901  0.672901  1
  Er  Er1  1  0.000000  0.322645  0.178664  1
  Er  Er2  1  0.000000  0.678664  0.822645  1
  Sc  Sc3  1  0.000000  0.826336  0.326336  1
  Sc  Sc4  1  0.000000  0.000129  0.999170  1
  Sc  Sc5  1  0.000000  0.499170  0.500129  1
  B  B6  1  0.000000  0.625069  0.125069  1
  B  B7  1  0.000000  0.379670  0.879670  1
  B  B8  1  0.000000  0.879018  0.615524  1
  B  B9  1  0.000000  0.115524  0.379018  1
  Ir  Ir10  1  0.500000  0.065215  0.223295  1
  Ir  Ir11  1  0.500000  0.930325  0.773712  1
  Ir  Ir12  1  0.500000  0.779301  0.076618  1
  Ir  Ir13  1  0.500000  0.429935  0.724992  1
  Ir  Ir14  1  0.500000  0.224992  0.929935  1
  Ir  Ir15  1  0.500000  0.576618  0.279301  1
  Ir  Ir16  1  0.500000  0.723295  0.565215  1
  Ir  Ir17  1  0.500000  0.273712  0.430325  1
  Ir  Ir18  1  0.500000  0.502362  0.002362  1
  Ru  Ru19  1  0.500000  0.995120  0.495120  1
