# generated using pymatgen
data_Sm3Fe(P3Rh4)2
_symmetry_space_group_name_H-M   'P 1'
_cell_length_a   3.90800300
_cell_length_b   11.27607200
_cell_length_c   12.79831000
_cell_angle_alpha   90.00000000
_cell_angle_beta   90.00000000
_cell_angle_gamma   90.00000000
_symmetry_Int_Tables_number   1
_chemical_formula_structural   Sm3Fe(P3Rh4)2
_chemical_formula_sum   'Sm6 Fe2 P12 Rh16'
_cell_volume   563.98214391
_cell_formula_units_Z   2
loop_
 _symmetry_equiv_pos_site_id
 _symmetry_equiv_pos_as_xyz
  1  'x, y, z'
loop_
 _atom_site_type_symbol
 _atom_site_label
 _atom_site_symmetry_multiplicity
 _atom_site_fract_x
 _atom_site_fract_y
 _atom_site_fract_z
 _atom_site_occupancy
  Sm  Sm0  1  0.000000  0.500000  0.520170  1
  Sm  Sm1  1  0.500000  0.000000  0.479830  1
  Sm  Sm2  1  0.500000  0.819527  0.201414  1
  Sm  Sm3  1  0.500000  0.180473  0.201414  1
  Sm  Sm4  1  0.000000  0.680473  0.798586  1
  Sm  Sm5  1  0.000000  0.319527  0.798586  1
  Fe  Fe6  1  0.000000  0.500000  0.989908  1
  Fe  Fe7  1  0.500000  0.000000  0.010092  1
  P  P8  1  0.500000  0.500000  0.887791  1
  P  P9  1  0.000000  0.000000  0.112209  1
  P  P10  1  0.500000  0.500000  0.346515  1
  P  P11  1  0.000000  0.000000  0.653485  1
  P  P12  1  0.500000  0.313072  0.619547  1
  P  P13  1  0.500000  0.686928  0.619547  1
  P  P14  1  0.000000  0.186928  0.380453  1
  P  P15  1  0.000000  0.813072  0.380453  1
  P  P16  1  0.500000  0.851057  0.896698  1
  P  P17  1  0.500000  0.148943  0.896698  1
  P  P18  1  0.000000  0.648943  0.103302  1
  P  P19  1  0.000000  0.351057  0.103302  1
  Rh  Rh20  1  0.500000  0.500000  0.161938  1
  Rh  Rh21  1  0.000000  0.000000  0.838062  1
  Rh  Rh22  1  0.500000  0.500000  0.703761  1
  Rh  Rh23  1  0.000000  0.000000  0.296239  1
  Rh  Rh24  1  0.500000  0.335032  0.994785  1
  Rh  Rh25  1  0.500000  0.664968  0.994785  1
  Rh  Rh26  1  0.000000  0.164968  0.005215  1
  Rh  Rh27  1  0.000000  0.835032  0.005215  1
  Rh  Rh28  1  0.500000  0.293305  0.429998  1
  Rh  Rh29  1  0.500000  0.706695  0.429998  1
  Rh  Rh30  1  0.000000  0.206695  0.570002  1
  Rh  Rh31  1  0.000000  0.793305  0.570002  1
  Rh  Rh32  1  0.500000  0.874397  0.712962  1
  Rh  Rh33  1  0.500000  0.125603  0.712962  1
  Rh  Rh34  1  0.000000  0.625603  0.287038  1
  Rh  Rh35  1  0.000000  0.374397  0.287038  1
