# generated using pymatgen
data_Y2Ho13Er(Al3Co)2
_symmetry_space_group_name_H-M   'P 1'
_cell_length_a   10.16570900
_cell_length_b   10.16577960
_cell_length_c   6.82600301
_cell_angle_alpha   90.00505786
_cell_angle_beta   89.99993261
_cell_angle_gamma   119.99985201
_symmetry_Int_Tables_number   1
_chemical_formula_structural   Y2Ho13Er(Al3Co)2
_chemical_formula_sum   'Y2 Ho13 Er1 Al6 Co2'
_cell_volume   610.90842683
_cell_formula_units_Z   1
loop_
 _symmetry_equiv_pos_site_id
 _symmetry_equiv_pos_as_xyz
  1  'x, y, z'
loop_
 _atom_site_type_symbol
 _atom_site_label
 _atom_site_symmetry_multiplicity
 _atom_site_fract_x
 _atom_site_fract_y
 _atom_site_fract_z
 _atom_site_occupancy
  Y  Y0  1  0.000006  0.000007  0.276430  1
  Y  Y1  1  0.000033  0.000072  0.776474  1
  Ho  Ho2  1  0.175742  0.824650  0.997861  1
  Ho  Ho3  1  0.824371  0.175394  0.498221  1
  Ho  Ho4  1  0.175547  0.351092  0.997854  1
  Ho  Ho5  1  0.648911  0.824653  0.997868  1
  Ho  Ho6  1  0.351031  0.175396  0.498220  1
  Ho  Ho7  1  0.824556  0.649116  0.497948  1
  Ho  Ho8  1  0.333423  0.666844  0.671648  1
  Ho  Ho9  1  0.666525  0.333059  0.171177  1
  Ho  Ho10  1  0.466598  0.533528  0.289871  1
  Ho  Ho11  1  0.533483  0.466590  0.790066  1
  Ho  Ho12  1  0.466652  0.933305  0.290172  1
  Ho  Ho13  1  0.066918  0.533521  0.289873  1
  Ho  Ho14  1  0.933102  0.466584  0.790065  1
  Er  Er15  1  0.533186  0.066370  0.790186  1
  Al  Al16  1  0.162866  0.837150  0.532287  1
  Al  Al17  1  0.836959  0.162886  0.031977  1
  Al  Al18  1  0.162902  0.325796  0.532112  1
  Al  Al19  1  0.674289  0.837150  0.532289  1
  Al  Al20  1  0.325923  0.162886  0.031966  1
  Al  Al21  1  0.837170  0.674341  0.032242  1
  Co  Co22  1  0.333417  0.666835  0.064601  1
  Co  Co23  1  0.666390  0.332772  0.564709  1
