# generated using pymatgen
data_Tb17Ho3(Ir3Pt)3
_symmetry_space_group_name_H-M   'P 1'
_cell_length_a   11.00972278
_cell_length_b   11.00930529
_cell_length_c   6.35886501
_cell_angle_alpha   89.98443483
_cell_angle_beta   89.98036537
_cell_angle_gamma   90.19623184
_symmetry_Int_Tables_number   1
_chemical_formula_structural   Tb17Ho3(Ir3Pt)3
_chemical_formula_sum   'Tb17 Ho3 Ir9 Pt3'
_cell_volume   770.74961413
_cell_formula_units_Z   1
loop_
 _symmetry_equiv_pos_site_id
 _symmetry_equiv_pos_as_xyz
  1  'x, y, z'
loop_
 _atom_site_type_symbol
 _atom_site_label
 _atom_site_symmetry_multiplicity
 _atom_site_fract_x
 _atom_site_fract_y
 _atom_site_fract_z
 _atom_site_occupancy
  Tb  Tb0  1  0.293539  0.086961  0.371856  1
  Tb  Tb1  1  0.292713  0.908575  0.876992  1
  Tb  Tb2  1  0.705546  0.089997  0.873894  1
  Tb  Tb3  1  0.704601  0.909782  0.373287  1
  Tb  Tb4  1  0.585212  0.790647  0.878279  1
  Tb  Tb5  1  0.585547  0.209348  0.378351  1
  Tb  Tb6  1  0.410840  0.790886  0.378171  1
  Tb  Tb7  1  0.414172  0.209409  0.878170  1
  Tb  Tb8  1  0.209344  0.414804  0.621616  1
  Tb  Tb9  1  0.209113  0.589182  0.121903  1
  Tb  Tb10  1  0.790634  0.414442  0.121728  1
  Tb  Tb11  1  0.790603  0.585826  0.621720  1
  Tb  Tb12  1  0.913099  0.706570  0.128068  1
  Tb  Tb13  1  0.909955  0.294514  0.626219  1
  Tb  Tb14  1  0.091476  0.707188  0.623104  1
  Tb  Tb15  1  0.090155  0.295308  0.126630  1
  Tb  Tb16  1  0.001206  0.998077  0.499525  1
  Ho  Ho17  1  0.001926  0.998792  0.000452  1
  Ho  Ho18  1  0.499752  0.499911  0.000415  1
  Ho  Ho19  1  0.500086  0.500248  0.499579  1
  Ir  Ir20  1  0.152188  0.847870  0.249568  1
  Ir  Ir21  1  0.653982  0.346026  0.750022  1
  Ir  Ir22  1  0.654381  0.653998  0.249584  1
  Ir  Ir23  1  0.346002  0.345606  0.250380  1
  Ir  Ir24  1  0.346875  0.653117  0.750007  1
  Ir  Ir25  1  0.500481  0.000070  0.122239  1
  Ir  Ir26  1  0.500270  0.000297  0.623416  1
  Ir  Ir27  1  0.999706  0.499721  0.876588  1
  Ir  Ir28  1  0.999938  0.499521  0.377757  1
  Pt  Pt29  1  0.847111  0.152857  0.249525  1
  Pt  Pt30  1  0.845896  0.846295  0.750386  1
  Pt  Pt31  1  0.153653  0.154153  0.750569  1
