# generated using pymatgen
data_Zr5SiGe2N
_symmetry_space_group_name_H-M   'P 1'
_cell_length_a   8.01163393
_cell_length_b   8.01163415
_cell_length_c   5.66787600
_cell_angle_alpha   90.00000000
_cell_angle_beta   90.00000000
_cell_angle_gamma   120.07956170
_symmetry_Int_Tables_number   1
_chemical_formula_structural   Zr5SiGe2N
_chemical_formula_sum   'Zr10 Si2 Ge4 N2'
_cell_volume   314.80704224
_cell_formula_units_Z   2
loop_
 _symmetry_equiv_pos_site_id
 _symmetry_equiv_pos_as_xyz
  1  'x, y, z'
loop_
 _atom_site_type_symbol
 _atom_site_label
 _atom_site_symmetry_multiplicity
 _atom_site_fract_x
 _atom_site_fract_y
 _atom_site_fract_z
 _atom_site_occupancy
  Zr  Zr0  1  0.232201  0.002299  0.750000  1
  Zr  Zr1  1  0.767799  0.997701  0.250000  1
  Zr  Zr2  1  0.002299  0.232201  0.750000  1
  Zr  Zr3  1  0.997701  0.767799  0.250000  1
  Zr  Zr4  1  0.764697  0.764697  0.750000  1
  Zr  Zr5  1  0.235303  0.235303  0.250000  1
  Zr  Zr6  1  0.335552  0.664448  0.500000  1
  Zr  Zr7  1  0.664448  0.335552  0.500000  1
  Zr  Zr8  1  0.664448  0.335552  0.000000  1
  Zr  Zr9  1  0.335552  0.664448  0.000000  1
  Si  Si10  1  0.404982  0.404982  0.750000  1
  Si  Si11  1  0.595018  0.595018  0.250000  1
  Ge  Ge12  1  0.596343  0.001056  0.750000  1
  Ge  Ge13  1  0.403657  0.998944  0.250000  1
  Ge  Ge14  1  0.001056  0.596343  0.750000  1
  Ge  Ge15  1  0.998944  0.403657  0.250000  1
  N  N16  1  0.000000  0.000000  0.500000  1
  N  N17  1  0.000000  0.000000  0.000000  1
