# generated using pymatgen
data_Nd8Sc12Si15Ru
_symmetry_space_group_name_H-M   'P 1'
_cell_length_a   7.20952908
_cell_length_b   7.56651046
_cell_length_c   14.15572100
_cell_angle_alpha   90.00000000
_cell_angle_beta   90.00000000
_cell_angle_gamma   90.15157659
_symmetry_Int_Tables_number   1
_chemical_formula_structural   Nd8Sc12Si15Ru
_chemical_formula_sum   'Nd8 Sc12 Si15 Ru1'
_cell_volume   772.20571065
_cell_formula_units_Z   1
loop_
 _symmetry_equiv_pos_site_id
 _symmetry_equiv_pos_as_xyz
  1  'x, y, z'
loop_
 _atom_site_type_symbol
 _atom_site_label
 _atom_site_symmetry_multiplicity
 _atom_site_fract_x
 _atom_site_fract_y
 _atom_site_fract_z
 _atom_site_occupancy
  Nd  Nd0  1  0.011119  0.176939  0.096539  1
  Nd  Nd1  1  0.990768  0.827981  0.902882  1
  Nd  Nd2  1  0.488736  0.673745  0.903542  1
  Nd  Nd3  1  0.990768  0.827981  0.597118  1
  Nd  Nd4  1  0.510960  0.325730  0.096281  1
  Nd  Nd5  1  0.011119  0.176939  0.403461  1
  Nd  Nd6  1  0.510960  0.325730  0.403719  1
  Nd  Nd7  1  0.488736  0.673745  0.596458  1
  Sc  Sc8  1  0.154846  0.493845  0.750000  1
  Sc  Sc9  1  0.839731  0.498217  0.250000  1
  Sc  Sc10  1  0.339448  0.002299  0.250000  1
  Sc  Sc11  1  0.668744  0.003025  0.750000  1
  Sc  Sc12  1  0.317348  0.171476  0.628235  1
  Sc  Sc13  1  0.671747  0.826203  0.373668  1
  Sc  Sc14  1  0.171568  0.677247  0.373895  1
  Sc  Sc15  1  0.671747  0.826203  0.126332  1
  Sc  Sc16  1  0.836814  0.319172  0.628121  1
  Sc  Sc17  1  0.317348  0.171476  0.871765  1
  Sc  Sc18  1  0.836814  0.319172  0.871879  1
  Sc  Sc19  1  0.171568  0.677247  0.126105  1
  Si  Si20  1  0.967813  0.878151  0.250000  1
  Si  Si21  1  0.468200  0.620385  0.250000  1
  Si  Si22  1  0.529900  0.382855  0.750000  1
  Si  Si23  1  0.288246  0.876064  0.750000  1
  Si  Si24  1  0.711519  0.122128  0.250000  1
  Si  Si25  1  0.212722  0.378040  0.250000  1
  Si  Si26  1  0.781250  0.620700  0.750000  1
  Si  Si27  1  0.154752  0.467329  0.537654  1
  Si  Si28  1  0.848997  0.537663  0.461265  1
  Si  Si29  1  0.348901  0.964018  0.460076  1
  Si  Si30  1  0.848997  0.537663  0.038735  1
  Si  Si31  1  0.651925  0.035606  0.538770  1
  Si  Si32  1  0.154752  0.467329  0.962346  1
  Si  Si33  1  0.651925  0.035606  0.961230  1
  Si  Si34  1  0.348901  0.964018  0.039924  1
  Ru  Ru35  1  0.030312  0.118072  0.750000  1
