# generated using pymatgen
data_Zr8Co5Si16Rh7
_symmetry_space_group_name_H-M   'P 1'
_cell_length_a   5.40149508
_cell_length_b   6.86533464
_cell_length_c   14.09067419
_cell_angle_alpha   90.12705803
_cell_angle_beta   90.03444577
_cell_angle_gamma   89.74708660
_symmetry_Int_Tables_number   1
_chemical_formula_structural   Zr8Co5Si16Rh7
_chemical_formula_sum   'Zr8 Co5 Si16 Rh7'
_cell_volume   522.51900868
_cell_formula_units_Z   1
loop_
 _symmetry_equiv_pos_site_id
 _symmetry_equiv_pos_as_xyz
  1  'x, y, z'
loop_
 _atom_site_type_symbol
 _atom_site_label
 _atom_site_symmetry_multiplicity
 _atom_site_fract_x
 _atom_site_fract_y
 _atom_site_fract_z
 _atom_site_occupancy
  Zr  Zr0  1  0.234634  0.398183  0.150426  1
  Zr  Zr1  1  0.738581  0.096700  0.149337  1
  Zr  Zr2  1  0.266171  0.102168  0.649647  1
  Zr  Zr3  1  0.761711  0.403230  0.648440  1
  Zr  Zr4  1  0.235376  0.598884  0.351069  1
  Zr  Zr5  1  0.736977  0.899762  0.349812  1
  Zr  Zr6  1  0.265286  0.901812  0.852553  1
  Zr  Zr7  1  0.762921  0.601118  0.850318  1
  Co  Co8  1  0.726090  0.499980  0.249967  1
  Co  Co9  1  0.229466  0.997179  0.250353  1
  Co  Co10  1  0.269413  0.503850  0.750300  1
  Co  Co11  1  0.505850  0.774579  0.021394  1
  Co  Co12  1  0.993818  0.722819  0.518843  1
  Si  Si13  1  0.226368  0.015258  0.075317  1
  Si  Si14  1  0.722421  0.525081  0.426376  1
  Si  Si15  1  0.796196  0.016213  0.566704  1
  Si  Si16  1  0.483428  0.752930  0.188491  1
  Si  Si17  1  0.025365  0.262646  0.809112  1
  Si  Si18  1  0.506260  0.255354  0.809345  1
  Si  Si19  1  0.211268  0.973014  0.428287  1
  Si  Si20  1  0.289189  0.527975  0.929798  1
  Si  Si21  1  0.982961  0.744333  0.194108  1
  Si  Si22  1  0.708456  0.483613  0.073858  1
  Si  Si23  1  0.274428  0.482635  0.573393  1
  Si  Si24  1  0.483138  0.245303  0.306434  1
  Si  Si25  1  0.023950  0.740899  0.684970  1
  Si  Si26  1  0.779157  0.973000  0.933584  1
  Si  Si27  1  0.506885  0.748510  0.691362  1
  Si  Si28  1  0.983671  0.252946  0.306409  1
  Rh  Rh29  1  0.991181  0.278711  0.979788  1
  Rh  Rh30  1  0.507992  0.221949  0.477951  1
  Rh  Rh31  1  0.772340  0.000606  0.750053  1
  Rh  Rh32  1  0.490407  0.222377  0.980382  1
  Rh  Rh33  1  0.493999  0.773081  0.520732  1
  Rh  Rh34  1  0.008557  0.278537  0.478446  1
  Rh  Rh35  1  0.006091  0.724766  0.022642  1
