# generated using pymatgen
data_TmSc3(SiMo)4
_symmetry_space_group_name_H-M   'P 1'
_cell_length_a   3.55721100
_cell_length_b   7.11243843
_cell_length_c   8.26533153
_cell_angle_alpha   89.92024879
_cell_angle_beta   90.00000000
_cell_angle_gamma   90.00000000
_symmetry_Int_Tables_number   1
_chemical_formula_structural   TmSc3(SiMo)4
_chemical_formula_sum   'Tm1 Sc3 Si4 Mo4'
_cell_volume   209.11635664
_cell_formula_units_Z   1
loop_
 _symmetry_equiv_pos_site_id
 _symmetry_equiv_pos_as_xyz
  1  'x, y, z'
loop_
 _atom_site_type_symbol
 _atom_site_label
 _atom_site_symmetry_multiplicity
 _atom_site_fract_x
 _atom_site_fract_y
 _atom_site_fract_z
 _atom_site_occupancy
  Tm  Tm0  1  0.750000  0.456808  0.835314  1
  Sc  Sc1  1  0.250000  0.042279  0.333818  1
  Sc  Sc2  1  0.250000  0.543772  0.168678  1
  Sc  Sc3  1  0.750000  0.955689  0.665053  1
  Si  Si4  1  0.250000  0.253120  0.631280  1
  Si  Si5  1  0.250000  0.764422  0.863325  1
  Si  Si6  1  0.750000  0.742827  0.362893  1
  Si  Si7  1  0.750000  0.240484  0.140094  1
  Mo  Mo8  1  0.250000  0.124092  0.942692  1
  Mo  Mo9  1  0.250000  0.626699  0.557450  1
  Mo  Mo10  1  0.750000  0.875039  0.060585  1
  Mo  Mo11  1  0.750000  0.374771  0.438818  1
