# generated using pymatgen
data_Tb2GaIrRh
_symmetry_space_group_name_H-M   'P 1'
_cell_length_a   4.16084205
_cell_length_b   5.84509585
_cell_length_c   5.54324690
_cell_angle_alpha   121.81826495
_cell_angle_beta   112.04331296
_cell_angle_gamma   90.00001412
_symmetry_Int_Tables_number   1
_chemical_formula_structural   Tb2GaIrRh
_chemical_formula_sum   'Tb2 Ga1 Ir1 Rh1'
_cell_volume   102.77583799
_cell_formula_units_Z   1
loop_
 _symmetry_equiv_pos_site_id
 _symmetry_equiv_pos_as_xyz
  1  'x, y, z'
loop_
 _atom_site_type_symbol
 _atom_site_label
 _atom_site_symmetry_multiplicity
 _atom_site_fract_x
 _atom_site_fract_y
 _atom_site_fract_z
 _atom_site_occupancy
  Tb  Tb0  1  0.799160  0.295576  0.598321  1
  Tb  Tb1  1  0.200840  0.697255  0.401679  1
  Ga  Ga2  1  0.000000  0.000880  0.000000  1
  Ir  Ir3  1  0.500000  0.265787  0.000000  1
  Rh  Rh4  1  0.500000  0.740501  0.000000  1
