# generated using pymatgen
data_Ho16Cd4CoRu3
_symmetry_space_group_name_H-M   'P 1'
_cell_length_a   9.58787001
_cell_length_b   9.58786975
_cell_length_c   9.48945749
_cell_angle_alpha   59.65634310
_cell_angle_beta   59.65633969
_cell_angle_gamma   60.00000311
_symmetry_Int_Tables_number   1
_chemical_formula_structural   Ho16Cd4CoRu3
_chemical_formula_sum   'Ho16 Cd4 Co1 Ru3'
_cell_volume   613.61380539
_cell_formula_units_Z   1
loop_
 _symmetry_equiv_pos_site_id
 _symmetry_equiv_pos_as_xyz
  1  'x, y, z'
loop_
 _atom_site_type_symbol
 _atom_site_label
 _atom_site_symmetry_multiplicity
 _atom_site_fract_x
 _atom_site_fract_y
 _atom_site_fract_z
 _atom_site_occupancy
  Ho  Ho0  1  0.937388  0.937388  0.561464  1
  Ho  Ho1  1  0.811611  0.189495  0.187283  1
  Ho  Ho2  1  0.937388  0.563760  0.561464  1
  Ho  Ho3  1  0.938300  0.561900  0.937899  1
  Ho  Ho4  1  0.811611  0.811611  0.187283  1
  Ho  Ho5  1  0.344065  0.344065  0.351024  1
  Ho  Ho6  1  0.561900  0.938300  0.937899  1
  Ho  Ho7  1  0.563760  0.937388  0.561464  1
  Ho  Ho8  1  0.188289  0.816142  0.807279  1
  Ho  Ho9  1  0.188289  0.188289  0.807279  1
  Ho  Ho10  1  0.346190  0.346190  0.961430  1
  Ho  Ho11  1  0.344065  0.960847  0.351024  1
  Ho  Ho12  1  0.816142  0.188289  0.807279  1
  Ho  Ho13  1  0.561900  0.561900  0.937899  1
  Ho  Ho14  1  0.189495  0.811611  0.187283  1
  Ho  Ho15  1  0.960847  0.344065  0.351024  1
  Cd  Cd16  1  0.580628  0.580628  0.258117  1
  Cd  Cd17  1  0.259885  0.580263  0.579591  1
  Cd  Cd18  1  0.580263  0.580263  0.579591  1
  Cd  Cd19  1  0.580263  0.259885  0.579591  1
  Co  Co20  1  0.140285  0.140285  0.579145  1
  Ru  Ru21  1  0.580174  0.138632  0.142563  1
  Ru  Ru22  1  0.138632  0.138632  0.142563  1
  Ru  Ru23  1  0.138632  0.580174  0.142563  1
