# generated using pymatgen
data_LiSc3(B4Ru5)2
_symmetry_space_group_name_H-M   'P 1'
_cell_length_a   2.99696800
_cell_length_b   8.41535412
_cell_length_c   10.06474397
_cell_angle_alpha   89.01789096
_cell_angle_beta   90.00000000
_cell_angle_gamma   90.00000000
_symmetry_Int_Tables_number   1
_chemical_formula_structural   LiSc3(B4Ru5)2
_chemical_formula_sum   'Li1 Sc3 B8 Ru10'
_cell_volume   253.80105863
_cell_formula_units_Z   1
loop_
 _symmetry_equiv_pos_site_id
 _symmetry_equiv_pos_as_xyz
  1  'x, y, z'
loop_
 _atom_site_type_symbol
 _atom_site_label
 _atom_site_symmetry_multiplicity
 _atom_site_fract_x
 _atom_site_fract_y
 _atom_site_fract_z
 _atom_site_occupancy
  Li  Li0  1  0.500000  0.852814  0.188894  1
  Sc  Sc1  1  0.500000  0.152547  0.827522  1
  Sc  Sc2  1  0.500000  0.656239  0.677866  1
  Sc  Sc3  1  0.500000  0.348522  0.310634  1
  B  B4  1  0.500000  0.962470  0.590713  1
  B  B5  1  0.500000  0.036005  0.410441  1
  B  B6  1  0.500000  0.849234  0.903053  1
  B  B7  1  0.500000  0.139148  0.103714  1
  B  B8  1  0.500000  0.653981  0.390908  1
  B  B9  1  0.500000  0.351341  0.598641  1
  B  B10  1  0.500000  0.461828  0.909971  1
  B  B11  1  0.500000  0.541576  0.088690  1
  Ru  Ru12  1  0.000000  0.653068  0.948177  1
  Ru  Ru13  1  0.000000  0.338998  0.046858  1
  Ru  Ru14  1  0.000000  0.842530  0.457286  1
  Ru  Ru15  1  0.000000  0.158599  0.547389  1
  Ru  Ru16  1  0.000000  0.990264  0.005836  1
  Ru  Ru17  1  0.000000  0.400469  0.759517  1
  Ru  Ru18  1  0.000000  0.612140  0.234060  1
  Ru  Ru19  1  0.000000  0.500875  0.496462  1
  Ru  Ru20  1  0.000000  0.901647  0.741315  1
  Ru  Ru21  1  0.000000  0.095703  0.262053  1
