# generated using pymatgen
data_Ta3Ti16Si16Au
_symmetry_space_group_name_H-M   'P 1'
_cell_length_a   6.74032770
_cell_length_b   6.74032762
_cell_length_c   12.22669291
_cell_angle_alpha   90.40849456
_cell_angle_beta   89.59150466
_cell_angle_gamma   89.75793758
_symmetry_Int_Tables_number   1
_chemical_formula_structural   Ta3Ti16Si16Au
_chemical_formula_sum   'Ta3 Ti16 Si16 Au1'
_cell_volume   555.45000616
_cell_formula_units_Z   1
loop_
 _symmetry_equiv_pos_site_id
 _symmetry_equiv_pos_as_xyz
  1  'x, y, z'
loop_
 _atom_site_type_symbol
 _atom_site_label
 _atom_site_symmetry_multiplicity
 _atom_site_fract_x
 _atom_site_fract_y
 _atom_site_fract_z
 _atom_site_occupancy
  Ta  Ta0  1  0.169809  0.169809  0.000000  1
  Ta  Ta1  1  0.327776  0.671435  0.251006  1
  Ta  Ta2  1  0.671435  0.327776  0.748994  1
  Ti  Ti3  1  0.996207  0.150114  0.619767  1
  Ti  Ti4  1  0.351234  0.494319  0.870888  1
  Ti  Ti5  1  0.645271  0.504363  0.370894  1
  Ti  Ti6  1  0.494319  0.351234  0.129112  1
  Ti  Ti7  1  0.504363  0.645271  0.629106  1
  Ti  Ti8  1  0.003634  0.852225  0.122696  1
  Ti  Ti9  1  0.150114  0.996207  0.380233  1
  Ti  Ti10  1  0.852225  0.003634  0.877304  1
  Ti  Ti11  1  0.003873  0.343529  0.219651  1
  Ti  Ti12  1  0.161849  0.501321  0.470866  1
  Ti  Ti13  1  0.844793  0.496217  0.968720  1
  Ti  Ti14  1  0.501321  0.161849  0.529134  1
  Ti  Ti15  1  0.496217  0.844793  0.031280  1
  Ti  Ti16  1  0.001330  0.652527  0.719480  1
  Ti  Ti17  1  0.343529  0.003873  0.780349  1
  Ti  Ti18  1  0.652527  0.001330  0.280520  1
  Si  Si19  1  0.045458  0.300866  0.811858  1
  Si  Si20  1  0.197215  0.545695  0.062345  1
  Si  Si21  1  0.796618  0.445922  0.560618  1
  Si  Si22  1  0.545695  0.197215  0.937655  1
  Si  Si23  1  0.445922  0.796618  0.439382  1
  Si  Si24  1  0.953406  0.696283  0.311798  1
  Si  Si25  1  0.300866  0.045458  0.188142  1
  Si  Si26  1  0.696283  0.953406  0.688202  1
  Si  Si27  1  0.292381  0.358113  0.671315  1
  Si  Si28  1  0.141388  0.791907  0.922026  1
  Si  Si29  1  0.867221  0.220917  0.417406  1
  Si  Si30  1  0.791907  0.141388  0.077974  1
  Si  Si31  1  0.220917  0.867221  0.582594  1
  Si  Si32  1  0.706847  0.642251  0.171926  1
  Si  Si33  1  0.358113  0.292381  0.328685  1
  Si  Si34  1  0.642251  0.706847  0.828074  1
  Au  Au35  1  0.825682  0.825682  0.500000  1
