# generated using pymatgen
data_Pr6Al24Ir3Os3Pt2
_symmetry_space_group_name_H-M   'P 1'
_cell_length_a   8.93653343
_cell_length_b   8.94872658
_cell_length_c   9.68193237
_cell_angle_alpha   90.13732820
_cell_angle_beta   89.97581613
_cell_angle_gamma   119.78200873
_symmetry_Int_Tables_number   1
_chemical_formula_structural   Pr6Al24Ir3Os3Pt2
_chemical_formula_sum   'Pr6 Al24 Ir3 Os3 Pt2'
_cell_volume   672.00325880
_cell_formula_units_Z   1
loop_
 _symmetry_equiv_pos_site_id
 _symmetry_equiv_pos_as_xyz
  1  'x, y, z'
loop_
 _atom_site_type_symbol
 _atom_site_label
 _atom_site_symmetry_multiplicity
 _atom_site_fract_x
 _atom_site_fract_y
 _atom_site_fract_z
 _atom_site_occupancy
  Pr  Pr0  1  0.190161  0.380097  0.252193  1
  Pr  Pr1  1  0.809839  0.619903  0.747807  1
  Pr  Pr2  1  0.619884  0.810907  0.250315  1
  Pr  Pr3  1  0.380116  0.189093  0.749685  1
  Pr  Pr4  1  0.191404  0.810617  0.248714  1
  Pr  Pr5  1  0.808596  0.189383  0.751286  1
  Al  Al6  1  0.331519  0.663255  0.025292  1
  Al  Al7  1  0.668481  0.336745  0.974708  1
  Al  Al8  1  0.667783  0.330257  0.524538  1
  Al  Al9  1  0.332217  0.669743  0.475462  1
  Al  Al10  1  0.160156  0.326654  0.574562  1
  Al  Al11  1  0.839844  0.673346  0.425438  1
  Al  Al12  1  0.673039  0.841742  0.573305  1
  Al  Al13  1  0.836024  0.672694  0.073246  1
  Al  Al14  1  0.326961  0.158258  0.426695  1
  Al  Al15  1  0.163976  0.327306  0.926754  1
  Al  Al16  1  0.165739  0.837508  0.574547  1
  Al  Al17  1  0.326310  0.167684  0.074295  1
  Al  Al18  1  0.834261  0.162492  0.425453  1
  Al  Al19  1  0.673690  0.832316  0.925705  1
  Al  Al20  1  0.840540  0.167319  0.077044  1
  Al  Al21  1  0.159460  0.832681  0.922956  1
  Al  Al22  1  0.564761  0.128765  0.253173  1
  Al  Al23  1  0.435239  0.871235  0.746827  1
  Al  Al24  1  0.873894  0.436989  0.250044  1
  Al  Al25  1  0.126106  0.563011  0.749956  1
  Al  Al26  1  0.564323  0.436569  0.247404  1
  Al  Al27  1  0.435677  0.563431  0.752596  1
  Al  Al28  1  0.999417  0.000933  0.250209  1
  Al  Al29  1  0.000583  0.999067  0.749791  1
  Ir  Ir30  1  0.000000  0.500000  0.000000  1
  Ir  Ir31  1  0.500000  0.500000  0.000000  1
  Ir  Ir32  1  0.000000  0.500000  0.500000  1
  Os  Os33  1  0.500000  0.000000  0.500000  1
  Os  Os34  1  0.000000  0.000000  0.000000  1
  Os  Os35  1  0.000000  0.000000  0.500000  1
  Pt  Pt36  1  0.500000  0.000000  0.000000  1
  Pt  Pt37  1  0.500000  0.500000  0.500000  1
