# generated using pymatgen
data_DyTm2(Co3P2)3
_symmetry_space_group_name_H-M   'P 1'
_cell_length_a   3.67986900
_cell_length_b   10.48390400
_cell_length_c   12.13172900
_cell_angle_alpha   90.00000000
_cell_angle_beta   90.00000000
_cell_angle_gamma   90.00000000
_symmetry_Int_Tables_number   1
_chemical_formula_structural   DyTm2(Co3P2)3
_chemical_formula_sum   'Dy2 Tm4 Co18 P12'
_cell_volume   468.03474485
_cell_formula_units_Z   2
loop_
 _symmetry_equiv_pos_site_id
 _symmetry_equiv_pos_as_xyz
  1  'x, y, z'
loop_
 _atom_site_type_symbol
 _atom_site_label
 _atom_site_symmetry_multiplicity
 _atom_site_fract_x
 _atom_site_fract_y
 _atom_site_fract_z
 _atom_site_occupancy
  Dy  Dy0  1  0.000000  0.500000  0.522853  1
  Dy  Dy1  1  0.500000  0.000000  0.477147  1
  Tm  Tm2  1  0.500000  0.817476  0.205738  1
  Tm  Tm3  1  0.500000  0.182524  0.205738  1
  Tm  Tm4  1  0.000000  0.682524  0.794262  1
  Tm  Tm5  1  0.000000  0.317476  0.794262  1
  Co  Co6  1  0.500000  0.500000  0.159208  1
  Co  Co7  1  0.000000  0.000000  0.840792  1
  Co  Co8  1  0.500000  0.500000  0.703965  1
  Co  Co9  1  0.000000  0.000000  0.296035  1
  Co  Co10  1  0.000000  0.500000  0.985821  1
  Co  Co11  1  0.500000  0.000000  0.014179  1
  Co  Co12  1  0.500000  0.333172  0.994364  1
  Co  Co13  1  0.500000  0.666828  0.994364  1
  Co  Co14  1  0.000000  0.166828  0.005636  1
  Co  Co15  1  0.000000  0.833172  0.005636  1
  Co  Co16  1  0.500000  0.297217  0.430438  1
  Co  Co17  1  0.500000  0.702783  0.430438  1
  Co  Co18  1  0.000000  0.202783  0.569562  1
  Co  Co19  1  0.000000  0.797217  0.569562  1
  Co  Co20  1  0.500000  0.878628  0.709784  1
  Co  Co21  1  0.500000  0.121372  0.709784  1
  Co  Co22  1  0.000000  0.621372  0.290216  1
  Co  Co23  1  0.000000  0.378628  0.290216  1
  P  P24  1  0.500000  0.500000  0.882025  1
  P  P25  1  0.000000  0.000000  0.117975  1
  P  P26  1  0.500000  0.500000  0.344357  1
  P  P27  1  0.000000  0.000000  0.655643  1
  P  P28  1  0.500000  0.310801  0.616879  1
  P  P29  1  0.500000  0.689199  0.616879  1
  P  P30  1  0.000000  0.189199  0.383121  1
  P  P31  1  0.000000  0.810801  0.383121  1
  P  P32  1  0.500000  0.847051  0.892556  1
  P  P33  1  0.500000  0.152949  0.892556  1
  P  P34  1  0.000000  0.652949  0.107444  1
  P  P35  1  0.000000  0.347051  0.107444  1
