# generated using pymatgen
data_Tm7LuRe2(B12Ru)2
_symmetry_space_group_name_H-M   'P 1'
_cell_length_a   3.62703100
_cell_length_b   9.07798054
_cell_length_c   11.45218101
_cell_angle_alpha   90.20465643
_cell_angle_beta   90.00000000
_cell_angle_gamma   90.00000000
_symmetry_Int_Tables_number   1
_chemical_formula_structural   Tm7LuRe2(B12Ru)2
_chemical_formula_sum   'Tm7 Lu1 Re2 B24 Ru2'
_cell_volume   377.07344440
_cell_formula_units_Z   1
loop_
 _symmetry_equiv_pos_site_id
 _symmetry_equiv_pos_as_xyz
  1  'x, y, z'
loop_
 _atom_site_type_symbol
 _atom_site_label
 _atom_site_symmetry_multiplicity
 _atom_site_fract_x
 _atom_site_fract_y
 _atom_site_fract_z
 _atom_site_occupancy
  Tm  Tm0  1  0.000000  0.320611  0.412422  1
  Tm  Tm1  1  0.000000  0.679351  0.587782  1
  Tm  Tm2  1  0.000000  0.824154  0.084232  1
  Tm  Tm3  1  0.000000  0.175740  0.915495  1
  Tm  Tm4  1  0.000000  0.942807  0.370798  1
  Tm  Tm5  1  0.000000  0.057211  0.629426  1
  Tm  Tm6  1  0.000000  0.443220  0.128646  1
  Lu  Lu7  1  0.000000  0.556970  0.870887  1
  Re  Re8  1  0.000000  0.138514  0.179699  1
  Re  Re9  1  0.000000  0.860927  0.820211  1
  B  B10  1  0.500000  0.553662  0.433614  1
  B  B11  1  0.500000  0.446476  0.566639  1
  B  B12  1  0.500000  0.052860  0.066343  1
  B  B13  1  0.500000  0.946688  0.933499  1
  B  B14  1  0.500000  0.749112  0.419371  1
  B  B15  1  0.500000  0.251074  0.580778  1
  B  B16  1  0.500000  0.249785  0.080300  1
  B  B17  1  0.500000  0.749632  0.919473  1
  B  B18  1  0.500000  0.791260  0.265358  1
  B  B19  1  0.500000  0.209003  0.734754  1
  B  B20  1  0.500000  0.292776  0.235221  1
  B  B21  1  0.500000  0.706737  0.764894  1
  B  B22  1  0.500000  0.630785  0.185125  1
  B  B23  1  0.500000  0.369818  0.814980  1
  B  B24  1  0.500000  0.131131  0.315688  1
  B  B25  1  0.500000  0.868682  0.684436  1
  B  B26  1  0.500000  0.981565  0.212472  1
  B  B27  1  0.500000  0.018252  0.787602  1
  B  B28  1  0.500000  0.482461  0.288038  1
  B  B29  1  0.500000  0.517845  0.712301  1
  B  B30  1  0.500000  0.602374  0.027954  1
  B  B31  1  0.500000  0.398171  0.971050  1
  B  B32  1  0.500000  0.103145  0.471818  1
  B  B33  1  0.500000  0.896875  0.528352  1
  Ru  Ru34  1  0.000000  0.637755  0.321369  1
  Ru  Ru35  1  0.000000  0.362570  0.678973  1
