# generated using pymatgen
data_Tb16MgCd3Co3Pd
_symmetry_space_group_name_H-M   'P 1'
_cell_length_a   9.62611124
_cell_length_b   9.62560302
_cell_length_c   9.63368339
_cell_angle_alpha   59.89428701
_cell_angle_beta   59.89641705
_cell_angle_gamma   59.87062654
_symmetry_Int_Tables_number   1
_chemical_formula_structural   Tb16MgCd3Co3Pd
_chemical_formula_sum   'Tb16 Mg1 Cd3 Co3 Pd1'
_cell_volume   629.56757427
_cell_formula_units_Z   1
loop_
 _symmetry_equiv_pos_site_id
 _symmetry_equiv_pos_as_xyz
  1  'x, y, z'
loop_
 _atom_site_type_symbol
 _atom_site_label
 _atom_site_symmetry_multiplicity
 _atom_site_fract_x
 _atom_site_fract_y
 _atom_site_fract_z
 _atom_site_occupancy
  Tb  Tb0  1  0.439382  0.439381  0.048759  1
  Tb  Tb1  1  0.593487  0.593442  0.594248  1
  Tb  Tb2  1  0.188103  0.814754  0.814405  1
  Tb  Tb3  1  0.061992  0.062055  0.434737  1
  Tb  Tb4  1  0.437181  0.060407  0.059860  1
  Tb  Tb5  1  0.814754  0.188108  0.814399  1
  Tb  Tb6  1  0.438557  0.050609  0.437040  1
  Tb  Tb7  1  0.604152  0.206679  0.604868  1
  Tb  Tb8  1  0.815376  0.815369  0.186408  1
  Tb  Tb9  1  0.206663  0.604123  0.604892  1
  Tb  Tb10  1  0.812125  0.188937  0.186741  1
  Tb  Tb11  1  0.050579  0.438552  0.437038  1
  Tb  Tb12  1  0.188932  0.812126  0.186742  1
  Tb  Tb13  1  0.605339  0.605283  0.204141  1
  Tb  Tb14  1  0.188059  0.188064  0.811923  1
  Tb  Tb15  1  0.060378  0.437179  0.059892  1
  Mg  Mg16  1  0.824428  0.824426  0.522071  1
  Cd  Cd17  1  0.831529  0.831530  0.831146  1
  Cd  Cd18  1  0.506337  0.830035  0.830044  1
  Cd  Cd19  1  0.830032  0.506338  0.830045  1
  Co  Co20  1  0.826909  0.391325  0.391103  1
  Co  Co21  1  0.391326  0.826907  0.391102  1
  Co  Co22  1  0.391336  0.391329  0.826612  1
  Pd  Pd23  1  0.393044  0.393040  0.391783  1
