# generated using pymatgen
data_Pa3Ga3CoNi2
_symmetry_space_group_name_H-M   'P 1'
_cell_length_a   4.04641900
_cell_length_b   6.70868969
_cell_length_c   6.70857315
_cell_angle_alpha   120.01684517
_cell_angle_beta   90.00000000
_cell_angle_gamma   90.00000000
_symmetry_Int_Tables_number   1
_chemical_formula_structural   Pa3Ga3CoNi2
_chemical_formula_sum   'Pa3 Ga3 Co1 Ni2'
_cell_volume   157.68689562
_cell_formula_units_Z   1
loop_
 _symmetry_equiv_pos_site_id
 _symmetry_equiv_pos_as_xyz
  1  'x, y, z'
loop_
 _atom_site_type_symbol
 _atom_site_label
 _atom_site_symmetry_multiplicity
 _atom_site_fract_x
 _atom_site_fract_y
 _atom_site_fract_z
 _atom_site_occupancy
  Pa  Pa0  1  0.500000  0.578326  0.007133  1
  Pa  Pa1  1  0.500000  0.428790  0.421663  1
  Pa  Pa2  1  0.500000  0.992879  0.571239  1
  Ga  Ga3  1  0.000000  0.239165  0.999367  1
  Ga  Ga4  1  0.000000  0.760276  0.760748  1
  Ga  Ga5  1  0.000000  0.000466  0.239837  1
  Co  Co6  1  0.000000  0.666740  0.333372  1
  Ni  Ni7  1  0.000000  0.333294  0.666688  1
  Ni  Ni8  1  0.500000  0.999965  0.999954  1
