# generated using pymatgen
data_Tb3Pr2YTa2O14
_symmetry_space_group_name_H-M   'P 1'
_cell_length_a   6.53718585
_cell_length_b   6.54113332
_cell_length_c   7.64513400
_cell_angle_alpha   90.00000000
_cell_angle_beta   90.00000000
_cell_angle_gamma   109.34281092
_symmetry_Int_Tables_number   1
_chemical_formula_structural   Tb3Pr2YTa2O14
_chemical_formula_sum   'Tb3 Pr2 Y1 Ta2 O14'
_cell_volume   308.45766815
_cell_formula_units_Z   1
loop_
 _symmetry_equiv_pos_site_id
 _symmetry_equiv_pos_as_xyz
  1  'x, y, z'
loop_
 _atom_site_type_symbol
 _atom_site_label
 _atom_site_symmetry_multiplicity
 _atom_site_fract_x
 _atom_site_fract_y
 _atom_site_fract_z
 _atom_site_occupancy
  Tb  Tb0  1  0.533593  0.000507  0.750000  1
  Tb  Tb1  1  0.000450  0.533431  0.250000  1
  Tb  Tb2  1  0.466528  0.999566  0.250000  1
  Pr  Pr3  1  0.499923  0.499951  0.500001  1
  Pr  Pr4  1  0.499923  0.499951  0.999999  1
  Y  Y5  1  0.999511  0.467179  0.750000  1
  Ta  Ta6  1  0.999988  0.999940  0.500101  1
  Ta  Ta7  1  0.999988  0.999940  0.999899  1
  O  O8  1  0.681236  0.931526  0.468295  1
  O  O9  1  0.931710  0.681360  0.531829  1
  O  O10  1  0.681236  0.931526  0.031705  1
  O  O11  1  0.931710  0.681360  0.968171  1
  O  O12  1  0.318805  0.068448  0.531740  1
  O  O13  1  0.068384  0.318716  0.468464  1
  O  O14  1  0.318805  0.068448  0.968260  1
  O  O15  1  0.068384  0.318716  0.031536  1
  O  O16  1  0.937629  0.062258  0.750000  1
  O  O17  1  0.062353  0.937671  0.250000  1
  O  O18  1  0.362642  0.635752  0.750000  1
  O  O19  1  0.636238  0.363676  0.250000  1
  O  O20  1  0.643742  0.357194  0.750000  1
  O  O21  1  0.357221  0.642884  0.250000  1
