# generated using pymatgen
data_La18HoTmGa12
_symmetry_space_group_name_H-M   'P 1'
_cell_length_a   7.94348800
_cell_length_b   7.94348800
_cell_length_c   15.03811600
_cell_angle_alpha   90.00000000
_cell_angle_beta   90.00000000
_cell_angle_gamma   90.00000000
_symmetry_Int_Tables_number   1
_chemical_formula_structural   La18HoTmGa12
_chemical_formula_sum   'La18 Ho1 Tm1 Ga12'
_cell_volume   948.89010564
_cell_formula_units_Z   1
loop_
 _symmetry_equiv_pos_site_id
 _symmetry_equiv_pos_as_xyz
  1  'x, y, z'
loop_
 _atom_site_type_symbol
 _atom_site_label
 _atom_site_symmetry_multiplicity
 _atom_site_fract_x
 _atom_site_fract_y
 _atom_site_fract_z
 _atom_site_occupancy
  La  La0  1  0.338585  0.311554  0.103526  1
  La  La1  1  0.837500  0.812833  0.896309  1
  La  La2  1  0.840793  0.184344  0.395580  1
  La  La3  1  0.162500  0.187167  0.896309  1
  La  La4  1  0.661415  0.688446  0.103526  1
  La  La5  1  0.000000  0.500000  0.709647  1
  La  La6  1  0.816542  0.840248  0.604578  1
  La  La7  1  0.315656  0.340793  0.395580  1
  La  La8  1  0.188446  0.838585  0.103526  1
  La  La9  1  0.183458  0.159752  0.604578  1
  La  La10  1  0.811554  0.161415  0.103526  1
  La  La11  1  0.340248  0.683458  0.604578  1
  La  La12  1  0.500000  0.000000  0.292666  1
  La  La13  1  0.687167  0.337500  0.896309  1
  La  La14  1  0.659752  0.316542  0.604578  1
  La  La15  1  0.312833  0.662500  0.896309  1
  La  La16  1  0.159207  0.815656  0.395580  1
  La  La17  1  0.684344  0.659207  0.395580  1
  Ho  Ho18  1  0.000000  0.500000  0.222049  1
  Tm  Tm19  1  0.500000  0.000000  0.774462  1
  Ga  Ga20  1  0.623670  0.383358  0.248059  1
  Ga  Ga21  1  0.875330  0.116256  0.752211  1
  Ga  Ga22  1  0.500000  0.000000  0.498961  1
  Ga  Ga23  1  0.883358  0.876330  0.248059  1
  Ga  Ga24  1  0.000000  0.500000  0.017488  1
  Ga  Ga25  1  0.124670  0.883744  0.752211  1
  Ga  Ga26  1  0.383744  0.375330  0.752211  1
  Ga  Ga27  1  0.116642  0.123670  0.248059  1
  Ga  Ga28  1  0.376330  0.616642  0.248059  1
  Ga  Ga29  1  0.616256  0.624670  0.752211  1
  Ga  Ga30  1  0.500000  0.000000  0.980488  1
  Ga  Ga31  1  0.000000  0.500000  0.503186  1
