# generated using pymatgen
data_Nd3Dy5Cd2CoPt
_symmetry_space_group_name_H-M   'P 1'
_cell_length_a   9.70306732
_cell_length_b   9.70306667
_cell_length_c   9.67951200
_cell_angle_alpha   60.08026343
_cell_angle_beta   60.08026562
_cell_angle_gamma   60.30534092
_symmetry_Int_Tables_number   1
_chemical_formula_structural   Nd3Dy5Cd2CoPt
_chemical_formula_sum   'Nd6 Dy10 Cd4 Co2 Pt2'
_cell_volume   646.66142677
_cell_formula_units_Z   2
loop_
 _symmetry_equiv_pos_site_id
 _symmetry_equiv_pos_as_xyz
  1  'x, y, z'
loop_
 _atom_site_type_symbol
 _atom_site_label
 _atom_site_symmetry_multiplicity
 _atom_site_fract_x
 _atom_site_fract_y
 _atom_site_fract_z
 _atom_site_occupancy
  Nd  Nd0  1  0.938699  0.559484  0.561510  1
  Nd  Nd1  1  0.559484  0.938699  0.940307  1
  Nd  Nd2  1  0.559484  0.938699  0.561510  1
  Nd  Nd3  1  0.938699  0.559484  0.940307  1
  Nd  Nd4  1  0.558580  0.558580  0.941420  1
  Nd  Nd5  1  0.938193  0.938193  0.561807  1
  Dy  Dy6  1  0.344595  0.344595  0.357467  1
  Dy  Dy7  1  0.344595  0.344595  0.953342  1
  Dy  Dy8  1  0.339191  0.960501  0.350153  1
  Dy  Dy9  1  0.960501  0.339191  0.350153  1
  Dy  Dy10  1  0.821361  0.186772  0.187423  1
  Dy  Dy11  1  0.186772  0.821361  0.804443  1
  Dy  Dy12  1  0.186772  0.821361  0.187423  1
  Dy  Dy13  1  0.821361  0.186772  0.804443  1
  Dy  Dy14  1  0.186752  0.186752  0.813248  1
  Dy  Dy15  1  0.812111  0.812111  0.187889  1
  Cd  Cd16  1  0.579579  0.579579  0.578455  1
  Cd  Cd17  1  0.579579  0.579579  0.262390  1
  Cd  Cd18  1  0.581051  0.260010  0.579470  1
  Cd  Cd19  1  0.260010  0.581051  0.579470  1
  Co  Co20  1  0.142330  0.142330  0.140528  1
  Co  Co21  1  0.142330  0.142330  0.574813  1
  Pt  Pt22  1  0.144561  0.573412  0.141014  1
  Pt  Pt23  1  0.573412  0.144561  0.141014  1
