# generated using pymatgen
data_Ce6CoCu5Sb8
_symmetry_space_group_name_H-M   'P 1'
_cell_length_a   8.39580123
_cell_length_b   8.39580136
_cell_length_c   8.39580280
_cell_angle_alpha   109.58889828
_cell_angle_beta   109.23614422
_cell_angle_gamma   109.58887197
_symmetry_Int_Tables_number   1
_chemical_formula_structural   Ce6CoCu5Sb8
_chemical_formula_sum   'Ce6 Co1 Cu5 Sb8'
_cell_volume   455.57425778
_cell_formula_units_Z   1
loop_
 _symmetry_equiv_pos_site_id
 _symmetry_equiv_pos_as_xyz
  1  'x, y, z'
loop_
 _atom_site_type_symbol
 _atom_site_label
 _atom_site_symmetry_multiplicity
 _atom_site_fract_x
 _atom_site_fract_y
 _atom_site_fract_z
 _atom_site_occupancy
  Ce  Ce0  1  0.875000  0.250000  0.125000  1
  Ce  Ce1  1  0.625000  0.750000  0.375000  1
  Ce  Ce2  1  0.253769  0.129740  0.867837  1
  Ce  Ce3  1  0.738097  0.370260  0.624029  1
  Ce  Ce4  1  0.132163  0.885931  0.261903  1
  Ce  Ce5  1  0.375971  0.614069  0.746231  1
  Co  Co6  1  0.375000  0.250000  0.625000  1
  Cu  Cu7  1  0.125000  0.750000  0.875000  1
  Cu  Cu8  1  0.251361  0.622084  0.372548  1
  Cu  Cu9  1  0.750463  0.877916  0.129277  1
  Cu  Cu10  1  0.627452  0.378814  0.249537  1
  Cu  Cu11  1  0.870723  0.121186  0.748639  1
  Sb  Sb12  1  0.660114  0.497639  0.994776  1
  Sb  Sb13  1  0.497138  0.002361  0.662475  1
  Sb  Sb14  1  0.002705  0.661638  0.502528  1
  Sb  Sb15  1  0.840890  0.838362  0.841067  1
  Sb  Sb16  1  0.497472  0.000177  0.159110  1
  Sb  Sb17  1  0.158933  0.499823  0.997295  1
  Sb  Sb18  1  0.005224  0.165338  0.502862  1
  Sb  Sb19  1  0.337525  0.334662  0.339886  1
