# generated using pymatgen
data_TbHf(Co5As3)2
_symmetry_space_group_name_H-M   'P 1'
_cell_length_a   3.75736900
_cell_length_b   10.62883000
_cell_length_c   12.12245100
_cell_angle_alpha   90.00000000
_cell_angle_beta   90.00000000
_cell_angle_gamma   90.00000000
_symmetry_Int_Tables_number   1
_chemical_formula_structural   TbHf(Co5As3)2
_chemical_formula_sum   'Tb2 Hf2 Co20 As12'
_cell_volume   484.12749275
_cell_formula_units_Z   2
loop_
 _symmetry_equiv_pos_site_id
 _symmetry_equiv_pos_as_xyz
  1  'x, y, z'
loop_
 _atom_site_type_symbol
 _atom_site_label
 _atom_site_symmetry_multiplicity
 _atom_site_fract_x
 _atom_site_fract_y
 _atom_site_fract_z
 _atom_site_occupancy
  Tb  Tb0  1  0.750000  0.418574  0.297292  1
  Tb  Tb1  1  0.750000  0.081426  0.797292  1
  Hf  Hf2  1  0.250000  0.577208  0.698779  1
  Hf  Hf3  1  0.250000  0.922792  0.198779  1
  Co  Co4  1  0.250000  0.716560  0.994883  1
  Co  Co5  1  0.250000  0.783440  0.494883  1
  Co  Co6  1  0.750000  0.285488  0.008396  1
  Co  Co7  1  0.750000  0.214512  0.508396  1
  Co  Co8  1  0.250000  0.410433  0.491515  1
  Co  Co9  1  0.250000  0.089567  0.991515  1
  Co  Co10  1  0.750000  0.592449  0.518042  1
  Co  Co11  1  0.750000  0.907551  0.018042  1
  Co  Co12  1  0.250000  0.216123  0.179422  1
  Co  Co13  1  0.250000  0.283877  0.679422  1
  Co  Co14  1  0.750000  0.783348  0.821856  1
  Co  Co15  1  0.750000  0.716652  0.321856  1
  Co  Co16  1  0.250000  0.882033  0.696851  1
  Co  Co17  1  0.250000  0.617967  0.196851  1
  Co  Co18  1  0.750000  0.111605  0.300961  1
  Co  Co19  1  0.750000  0.388395  0.800961  1
  Co  Co20  1  0.250000  0.473481  0.926828  1
  Co  Co21  1  0.250000  0.026519  0.426828  1
  Co  Co22  1  0.750000  0.533827  0.065727  1
  Co  Co23  1  0.750000  0.966173  0.565727  1
  As  As24  1  0.250000  0.415995  0.110717  1
  As  As25  1  0.250000  0.084005  0.610717  1
  As  As26  1  0.750000  0.586752  0.882016  1
  As  As27  1  0.750000  0.913248  0.382016  1
  As  As28  1  0.250000  0.269183  0.872978  1
  As  As29  1  0.250000  0.230817  0.372978  1
  As  As30  1  0.750000  0.734182  0.131861  1
  As  As31  1  0.750000  0.765818  0.631861  1
  As  As32  1  0.250000  0.600862  0.390597  1
  As  As33  1  0.250000  0.899138  0.890597  1
  As  As34  1  0.750000  0.399819  0.611278  1
  As  As35  1  0.750000  0.100181  0.111278  1
