# generated using pymatgen
data_Tb5Dy2Y(ReB6)4
_symmetry_space_group_name_H-M   'P 1'
_cell_length_a   3.69254700
_cell_length_b   9.19695605
_cell_length_c   11.59125000
_cell_angle_alpha   90.00452409
_cell_angle_beta   90.00000000
_cell_angle_gamma   90.00000000
_symmetry_Int_Tables_number   1
_chemical_formula_structural   Tb5Dy2Y(ReB6)4
_chemical_formula_sum   'Tb5 Dy2 Y1 Re4 B24'
_cell_volume   393.64107967
_cell_formula_units_Z   1
loop_
 _symmetry_equiv_pos_site_id
 _symmetry_equiv_pos_as_xyz
  1  'x, y, z'
loop_
 _atom_site_type_symbol
 _atom_site_label
 _atom_site_symmetry_multiplicity
 _atom_site_fract_x
 _atom_site_fract_y
 _atom_site_fract_z
 _atom_site_occupancy
  Tb  Tb0  1  0.000000  0.323858  0.413888  1
  Tb  Tb1  1  0.000000  0.676099  0.586203  1
  Tb  Tb2  1  0.000000  0.823764  0.086027  1
  Tb  Tb3  1  0.000000  0.176238  0.913853  1
  Tb  Tb4  1  0.000000  0.943167  0.370017  1
  Dy  Dy5  1  0.000000  0.443149  0.130019  1
  Dy  Dy6  1  0.000000  0.556903  0.869856  1
  Y  Y7  1  0.000000  0.056867  0.630260  1
  Re  Re8  1  0.000000  0.638264  0.320739  1
  Re  Re9  1  0.000000  0.361582  0.679357  1
  Re  Re10  1  0.000000  0.138838  0.179007  1
  Re  Re11  1  0.000000  0.861248  0.820887  1
  B  B12  1  0.500000  0.553221  0.432644  1
  B  B13  1  0.500000  0.446479  0.567422  1
  B  B14  1  0.500000  0.053561  0.067214  1
  B  B15  1  0.500000  0.946506  0.932610  1
  B  B16  1  0.500000  0.748563  0.418343  1
  B  B17  1  0.500000  0.251003  0.581650  1
  B  B18  1  0.500000  0.249191  0.081542  1
  B  B19  1  0.500000  0.750911  0.918339  1
  B  B20  1  0.500000  0.791586  0.265558  1
  B  B21  1  0.500000  0.208112  0.734457  1
  B  B22  1  0.500000  0.292135  0.234219  1
  B  B23  1  0.500000  0.708016  0.765714  1
  B  B24  1  0.500000  0.630875  0.185867  1
  B  B25  1  0.500000  0.369024  0.814047  1
  B  B26  1  0.500000  0.131435  0.313796  1
  B  B27  1  0.500000  0.868868  0.686042  1
  B  B28  1  0.500000  0.983200  0.211771  1
  B  B29  1  0.500000  0.017028  0.788083  1
  B  B30  1  0.500000  0.482833  0.287878  1
  B  B31  1  0.500000  0.517062  0.712050  1
  B  B32  1  0.500000  0.599887  0.027889  1
  B  B33  1  0.500000  0.400156  0.972012  1
  B  B34  1  0.500000  0.100618  0.472316  1
  B  B35  1  0.500000  0.899754  0.528421  1
