# generated using pymatgen
data_LiPr3Mg2Si2Ag
_symmetry_space_group_name_H-M   'P 1'
_cell_length_a   7.43894803
_cell_length_b   7.43894848
_cell_length_c   4.46477900
_cell_angle_alpha   90.00000000
_cell_angle_beta   90.00000000
_cell_angle_gamma   120.25233353
_symmetry_Int_Tables_number   1
_chemical_formula_structural   LiPr3Mg2Si2Ag
_chemical_formula_sum   'Li1 Pr3 Mg2 Si2 Ag1'
_cell_volume   213.42425653
_cell_formula_units_Z   1
loop_
 _symmetry_equiv_pos_site_id
 _symmetry_equiv_pos_as_xyz
  1  'x, y, z'
loop_
 _atom_site_type_symbol
 _atom_site_label
 _atom_site_symmetry_multiplicity
 _atom_site_fract_x
 _atom_site_fract_y
 _atom_site_fract_z
 _atom_site_occupancy
  Li  Li0  1  0.751912  0.751912  0.000000  1
  Pr  Pr1  1  0.425258  0.425258  0.500000  1
  Pr  Pr2  1  0.579109  0.994822  0.500000  1
  Pr  Pr3  1  0.994822  0.579109  0.500000  1
  Mg  Mg4  1  0.245622  0.999464  0.000000  1
  Mg  Mg5  1  0.999464  0.245622  0.000000  1
  Si  Si6  1  0.667829  0.333022  0.000000  1
  Si  Si7  1  0.333022  0.667829  0.000000  1
  Ag  Ag8  1  0.002962  0.002962  0.500000  1
