# generated using pymatgen
data_Pr3Mg2ScSi2Pt
_symmetry_space_group_name_H-M   'P 1'
_cell_length_a   7.54362190
_cell_length_b   7.44664461
_cell_length_c   4.40328600
_cell_angle_alpha   90.00000000
_cell_angle_beta   90.00000000
_cell_angle_gamma   119.57564747
_symmetry_Int_Tables_number   1
_chemical_formula_structural   Pr3Mg2ScSi2Pt
_chemical_formula_sum   'Pr3 Mg2 Sc1 Si2 Pt1'
_cell_volume   215.12421464
_cell_formula_units_Z   1
loop_
 _symmetry_equiv_pos_site_id
 _symmetry_equiv_pos_as_xyz
  1  'x, y, z'
loop_
 _atom_site_type_symbol
 _atom_site_label
 _atom_site_symmetry_multiplicity
 _atom_site_fract_x
 _atom_site_fract_y
 _atom_site_fract_z
 _atom_site_occupancy
  Pr  Pr0  1  0.415974  0.410217  0.000000  1
  Pr  Pr1  1  0.584026  0.994242  0.000000  1
  Pr  Pr2  1  0.000000  0.594728  0.000000  1
  Mg  Mg3  1  0.757366  0.756348  0.500000  1
  Mg  Mg4  1  0.242634  0.998982  0.500000  1
  Sc  Sc5  1  0.000000  0.237205  0.500000  1
  Si  Si6  1  0.673856  0.332343  0.500000  1
  Si  Si7  1  0.326144  0.658488  0.500000  1
  Pt  Pt8  1  0.000000  0.017446  0.000000  1
