# generated using pymatgen
data_Tb5Y5Si5Bi
_symmetry_space_group_name_H-M   'P 1'
_cell_length_a   8.55716100
_cell_length_b   8.61172866
_cell_length_c   6.40838500
_cell_angle_alpha   90.00000000
_cell_angle_beta   90.00000000
_cell_angle_gamma   119.79060901
_symmetry_Int_Tables_number   1
_chemical_formula_structural   Tb5Y5Si5Bi
_chemical_formula_sum   'Tb5 Y5 Si5 Bi1'
_cell_volume   409.83755422
_cell_formula_units_Z   1
loop_
 _symmetry_equiv_pos_site_id
 _symmetry_equiv_pos_as_xyz
  1  'x, y, z'
loop_
 _atom_site_type_symbol
 _atom_site_label
 _atom_site_symmetry_multiplicity
 _atom_site_fract_x
 _atom_site_fract_y
 _atom_site_fract_z
 _atom_site_occupancy
  Tb  Tb0  1  0.240831  0.000000  0.250000  1
  Tb  Tb1  1  0.330722  0.653886  0.494867  1
  Tb  Tb2  1  0.676837  0.346114  0.005133  1
  Tb  Tb3  1  0.676837  0.346114  0.494867  1
  Tb  Tb4  1  0.330722  0.653886  0.005133  1
  Y  Y5  1  0.985012  0.744406  0.750000  1
  Y  Y6  1  0.998088  0.243611  0.250000  1
  Y  Y7  1  0.754477  0.756389  0.250000  1
  Y  Y8  1  0.767276  0.000000  0.750000  1
  Y  Y9  1  0.240607  0.255594  0.750000  1
  Si  Si10  1  0.392612  0.390200  0.250000  1
  Si  Si11  1  0.002413  0.609800  0.250000  1
  Si  Si12  1  0.998638  0.393868  0.750000  1
  Si  Si13  1  0.604770  0.606132  0.750000  1
  Si  Si14  1  0.607562  0.000000  0.250000  1
  Bi  Bi15  1  0.392592  0.000000  0.750000  1
