# generated using pymatgen
data_NdSnHRh
_symmetry_space_group_name_H-M   'P 1'
_cell_length_a   4.50880400
_cell_length_b   7.41047200
_cell_length_c   8.52247800
_cell_angle_alpha   90.00000000
_cell_angle_beta   90.00000000
_cell_angle_gamma   90.00000000
_symmetry_Int_Tables_number   1
_chemical_formula_structural   NdSnHRh
_chemical_formula_sum   'Nd4 Sn4 H4 Rh4'
_cell_volume   284.75615242
_cell_formula_units_Z   4
loop_
 _symmetry_equiv_pos_site_id
 _symmetry_equiv_pos_as_xyz
  1  'x, y, z'
loop_
 _atom_site_type_symbol
 _atom_site_label
 _atom_site_symmetry_multiplicity
 _atom_site_fract_x
 _atom_site_fract_y
 _atom_site_fract_z
 _atom_site_occupancy
  Nd  Nd0  1  0.750000  0.013823  0.689872  1
  Nd  Nd1  1  0.250000  0.986177  0.310128  1
  Nd  Nd2  1  0.250000  0.486177  0.189872  1
  Nd  Nd3  1  0.750000  0.513823  0.810128  1
  Sn  Sn4  1  0.750000  0.656722  0.424341  1
  Sn  Sn5  1  0.250000  0.343278  0.575659  1
  Sn  Sn6  1  0.250000  0.843278  0.924341  1
  Sn  Sn7  1  0.750000  0.156722  0.075659  1
  H  H8  1  0.250000  0.450669  0.917222  1
  H  H9  1  0.750000  0.549331  0.082778  1
  H  H10  1  0.750000  0.049331  0.417222  1
  H  H11  1  0.250000  0.950669  0.582778  1
  Rh  Rh12  1  0.750000  0.778859  0.099446  1
  Rh  Rh13  1  0.250000  0.221141  0.900554  1
  Rh  Rh14  1  0.250000  0.721141  0.599446  1
  Rh  Rh15  1  0.750000  0.278859  0.400554  1
