# generated using pymatgen
data_Li3Pr2SmAgSn4
_symmetry_space_group_name_H-M   'P 1'
_cell_length_a   8.87957427
_cell_length_b   8.88947735
_cell_length_c   8.88947894
_cell_angle_alpha   149.23666840
_cell_angle_beta   132.27419613
_cell_angle_gamma   57.87218359
_symmetry_Int_Tables_number   1
_chemical_formula_structural   Li3Pr2SmAgSn4
_chemical_formula_sum   'Li3 Pr2 Sm1 Ag1 Sn4'
_cell_volume   263.58168253
_cell_formula_units_Z   1
loop_
 _symmetry_equiv_pos_site_id
 _symmetry_equiv_pos_as_xyz
  1  'x, y, z'
loop_
 _atom_site_type_symbol
 _atom_site_label
 _atom_site_symmetry_multiplicity
 _atom_site_fract_x
 _atom_site_fract_y
 _atom_site_fract_z
 _atom_site_occupancy
  Li  Li0  1  0.640362  0.328405  0.311958  1
  Li  Li1  1  0.359251  0.669694  0.689556  1
  Li  Li2  1  0.018020  0.327363  0.690658  1
  Pr  Pr3  1  0.365914  0.869493  0.496420  1
  Pr  Pr4  1  0.629595  0.130365  0.499230  1
  Sm  Sm5  1  0.001275  0.002048  0.999226  1
  Ag  Ag6  1  0.981648  0.672329  0.309319  1
  Sn  Sn7  1  0.224213  0.213903  0.010310  1
  Sn  Sn8  1  0.785216  0.789307  0.995910  1
  Sn  Sn9  1  0.696217  0.497881  0.198336  1
  Sn  Sn10  1  0.298290  0.499211  0.799079  1
