# generated using pymatgen
data_Tb19SmSn11Sb5
_symmetry_space_group_name_H-M   'P 1'
_cell_length_a   8.16173861
_cell_length_b   8.19502882
_cell_length_c   15.47704788
_cell_angle_alpha   90.16575072
_cell_angle_beta   90.10418881
_cell_angle_gamma   89.78989764
_symmetry_Int_Tables_number   1
_chemical_formula_structural   Tb19SmSn11Sb5
_chemical_formula_sum   'Tb19 Sm1 Sn11 Sb5'
_cell_volume   1035.17993703
_cell_formula_units_Z   1
loop_
 _symmetry_equiv_pos_site_id
 _symmetry_equiv_pos_as_xyz
  1  'x, y, z'
loop_
 _atom_site_type_symbol
 _atom_site_label
 _atom_site_symmetry_multiplicity
 _atom_site_fract_x
 _atom_site_fract_y
 _atom_site_fract_z
 _atom_site_occupancy
  Tb  Tb0  1  0.379505  0.839925  0.880334  1
  Tb  Tb1  1  0.879055  0.660770  0.620681  1
  Tb  Tb2  1  0.621368  0.160013  0.378958  1
  Tb  Tb3  1  0.120557  0.339048  0.121185  1
  Tb  Tb4  1  0.621183  0.160211  0.120331  1
  Tb  Tb5  1  0.121427  0.338429  0.378902  1
  Tb  Tb6  1  0.377501  0.839211  0.621111  1
  Tb  Tb7  1  0.879182  0.660310  0.878850  1
  Tb  Tb8  1  0.545201  0.332726  0.893704  1
  Tb  Tb9  1  0.043870  0.171118  0.605364  1
  Tb  Tb10  1  0.456370  0.672104  0.394524  1
  Tb  Tb11  1  0.957315  0.825724  0.105357  1
  Tb  Tb12  1  0.462330  0.670209  0.105272  1
  Tb  Tb13  1  0.967332  0.824362  0.397630  1
  Tb  Tb14  1  0.532073  0.324053  0.602005  1
  Tb  Tb15  1  0.209197  0.501462  0.746889  1
  Tb  Tb16  1  0.709176  0.999858  0.749579  1
  Tb  Tb17  1  0.790744  0.498655  0.248599  1
  Tb  Tb18  1  0.291114  0.000323  0.252959  1
  Sm  Sm19  1  0.035456  0.179925  0.898134  1
  Sn  Sn20  1  0.218622  0.531808  0.542956  1
  Sn  Sn21  1  0.281987  0.031164  0.456804  1
  Sn  Sn22  1  0.779944  0.469289  0.043049  1
  Sn  Sn23  1  0.575003  0.625280  0.749940  1
  Sn  Sn24  1  0.075489  0.876084  0.751602  1
  Sn  Sn25  1  0.424744  0.374831  0.249356  1
  Sn  Sn26  1  0.924598  0.123235  0.249902  1
  Sn  Sn27  1  0.344777  0.145303  0.751520  1
  Sn  Sn28  1  0.842611  0.355741  0.748028  1
  Sn  Sn29  1  0.657035  0.854435  0.250442  1
  Sn  Sn30  1  0.155589  0.644592  0.249358  1
  Sb  Sb31  1  0.275461  0.021827  0.047450  1
  Sb  Sb32  1  0.775384  0.473730  0.454695  1
  Sb  Sb33  1  0.723745  0.974162  0.544980  1
  Sb  Sb34  1  0.224471  0.527714  0.955031  1
  Sb  Sb35  1  0.720584  0.972369  0.954523  1
