# generated using pymatgen
data_Hf4Nb4SiGe3
_symmetry_space_group_name_H-M   'P 1'
_cell_length_a   3.66114800
_cell_length_b   7.02026281
_cell_length_c   8.55660668
_cell_angle_alpha   89.77105316
_cell_angle_beta   90.00000000
_cell_angle_gamma   90.00000000
_symmetry_Int_Tables_number   1
_chemical_formula_structural   Hf4Nb4SiGe3
_chemical_formula_sum   'Hf4 Nb4 Si1 Ge3'
_cell_volume   219.92204121
_cell_formula_units_Z   1
loop_
 _symmetry_equiv_pos_site_id
 _symmetry_equiv_pos_as_xyz
  1  'x, y, z'
loop_
 _atom_site_type_symbol
 _atom_site_label
 _atom_site_symmetry_multiplicity
 _atom_site_fract_x
 _atom_site_fract_y
 _atom_site_fract_z
 _atom_site_occupancy
  Hf  Hf0  1  0.250000  0.050114  0.668059  1
  Hf  Hf1  1  0.250000  0.542236  0.835962  1
  Hf  Hf2  1  0.750000  0.451703  0.161236  1
  Hf  Hf3  1  0.750000  0.951090  0.336335  1
  Nb  Nb4  1  0.750000  0.871856  0.941654  1
  Nb  Nb5  1  0.250000  0.631176  0.442928  1
  Nb  Nb6  1  0.750000  0.367890  0.559588  1
  Nb  Nb7  1  0.250000  0.134880  0.054115  1
  Si  Si8  1  0.750000  0.248763  0.856754  1
  Ge  Ge9  1  0.250000  0.249520  0.356581  1
  Ge  Ge10  1  0.250000  0.750767  0.142862  1
  Ge  Ge11  1  0.750000  0.750005  0.643927  1
