# generated using pymatgen
data_Dy8Sc12Si15Bi
_symmetry_space_group_name_H-M   'P 1'
_cell_length_a   7.16555663
_cell_length_b   7.41463347
_cell_length_c   14.06645304
_cell_angle_alpha   90.07653077
_cell_angle_beta   88.84567566
_cell_angle_gamma   90.16562288
_symmetry_Int_Tables_number   1
_chemical_formula_structural   Dy8Sc12Si15Bi
_chemical_formula_sum   'Dy8 Sc12 Si15 Bi1'
_cell_volume   747.19491453
_cell_formula_units_Z   1
loop_
 _symmetry_equiv_pos_site_id
 _symmetry_equiv_pos_as_xyz
  1  'x, y, z'
loop_
 _atom_site_type_symbol
 _atom_site_label
 _atom_site_symmetry_multiplicity
 _atom_site_fract_x
 _atom_site_fract_y
 _atom_site_fract_z
 _atom_site_occupancy
  Dy  Dy0  1  0.012870  0.176599  0.096815  1
  Dy  Dy1  1  0.987393  0.824768  0.903881  1
  Dy  Dy2  1  0.488107  0.675770  0.903703  1
  Dy  Dy3  1  0.990946  0.831434  0.598524  1
  Dy  Dy4  1  0.512395  0.324388  0.097480  1
  Dy  Dy5  1  0.001480  0.169754  0.398801  1
  Dy  Dy6  1  0.512519  0.318360  0.397586  1
  Dy  Dy7  1  0.510183  0.685898  0.601294  1
  Sc  Sc8  1  0.162851  0.501091  0.756377  1
  Sc  Sc9  1  0.836554  0.498761  0.251260  1
  Sc  Sc10  1  0.336774  0.001763  0.249822  1
  Sc  Sc11  1  0.664985  0.998936  0.751480  1
  Sc  Sc12  1  0.346887  0.156208  0.632195  1
  Sc  Sc13  1  0.660911  0.826850  0.372269  1
  Sc  Sc14  1  0.157094  0.683503  0.369233  1
  Sc  Sc15  1  0.668318  0.823055  0.123957  1
  Sc  Sc16  1  0.824398  0.325700  0.625869  1
  Sc  Sc17  1  0.330064  0.175375  0.875314  1
  Sc  Sc18  1  0.830767  0.323534  0.875559  1
  Sc  Sc19  1  0.169338  0.676428  0.124901  1
  Si  Si20  1  0.034743  0.119944  0.751019  1
  Si  Si21  1  0.962232  0.884662  0.246157  1
  Si  Si22  1  0.462277  0.616901  0.247490  1
  Si  Si23  1  0.534500  0.383604  0.752960  1
  Si  Si24  1  0.288087  0.867577  0.752956  1
  Si  Si25  1  0.712068  0.125920  0.246581  1
  Si  Si26  1  0.210929  0.374194  0.248973  1
  Si  Si27  1  0.792555  0.627913  0.751676  1
  Si  Si28  1  0.814433  0.541273  0.456440  1
  Si  Si29  1  0.333469  0.963756  0.460073  1
  Si  Si30  1  0.844141  0.534442  0.039770  1
  Si  Si31  1  0.667729  0.038555  0.538532  1
  Si  Si32  1  0.155008  0.465315  0.961265  1
  Si  Si33  1  0.654875  0.034694  0.960169  1
  Si  Si34  1  0.343698  0.966060  0.040032  1
  Bi  Bi35  1  0.184420  0.457016  0.539587  1
