# generated using pymatgen
data_DyEr3Co17(P4Ru)3
_symmetry_space_group_name_H-M   'P 1'
_cell_length_a   3.67655700
_cell_length_b   10.35006104
_cell_length_c   11.75168914
_cell_angle_alpha   90.08565254
_cell_angle_beta   90.00000000
_cell_angle_gamma   90.00000000
_symmetry_Int_Tables_number   1
_chemical_formula_structural   DyEr3Co17(P4Ru)3
_chemical_formula_sum   'Dy1 Er3 Co17 P12 Ru3'
_cell_volume   447.18170148
_cell_formula_units_Z   1
loop_
 _symmetry_equiv_pos_site_id
 _symmetry_equiv_pos_as_xyz
  1  'x, y, z'
loop_
 _atom_site_type_symbol
 _atom_site_label
 _atom_site_symmetry_multiplicity
 _atom_site_fract_x
 _atom_site_fract_y
 _atom_site_fract_z
 _atom_site_occupancy
  Dy  Dy0  1  0.250000  0.582995  0.701839  1
  Er  Er1  1  0.250000  0.914354  0.204140  1
  Er  Er2  1  0.750000  0.412997  0.295523  1
  Er  Er3  1  0.750000  0.085982  0.796151  1
  Co  Co4  1  0.750000  0.217615  0.507068  1
  Co  Co5  1  0.250000  0.405898  0.487278  1
  Co  Co6  1  0.250000  0.091513  0.988598  1
  Co  Co7  1  0.750000  0.590533  0.509497  1
  Co  Co8  1  0.750000  0.909407  0.011713  1
  Co  Co9  1  0.250000  0.219857  0.177288  1
  Co  Co10  1  0.250000  0.278310  0.676476  1
  Co  Co11  1  0.750000  0.780077  0.822953  1
  Co  Co12  1  0.750000  0.721790  0.322988  1
  Co  Co13  1  0.250000  0.887988  0.701826  1
  Co  Co14  1  0.250000  0.612419  0.203179  1
  Co  Co15  1  0.750000  0.115302  0.300554  1
  Co  Co16  1  0.750000  0.386323  0.797407  1
  Co  Co17  1  0.250000  0.465305  0.931037  1
  Co  Co18  1  0.250000  0.035171  0.431616  1
  Co  Co19  1  0.750000  0.534973  0.070140  1
  Co  Co20  1  0.750000  0.968109  0.568990  1
  P  P21  1  0.250000  0.419007  0.112739  1
  P  P22  1  0.250000  0.082586  0.611958  1
  P  P23  1  0.750000  0.580419  0.887802  1
  P  P24  1  0.750000  0.920505  0.387322  1
  P  P25  1  0.250000  0.271100  0.866380  1
  P  P26  1  0.250000  0.229765  0.369830  1
  P  P27  1  0.750000  0.729543  0.133269  1
  P  P28  1  0.750000  0.772092  0.632545  1
  P  P29  1  0.250000  0.594016  0.390413  1
  P  P30  1  0.250000  0.905238  0.889739  1
  P  P31  1  0.750000  0.397909  0.607044  1
  P  P32  1  0.750000  0.095967  0.111695  1
  Ru  Ru33  1  0.250000  0.717730  0.992809  1
  Ru  Ru34  1  0.250000  0.784186  0.491861  1
  Ru  Ru35  1  0.750000  0.283019  0.008332  1
