# generated using pymatgen
data_Sr3Th5(Si3Pt)4
_symmetry_space_group_name_H-M   'P 1'
_cell_length_a   8.28913800
_cell_length_b   8.28913829
_cell_length_c   8.74518700
_cell_angle_alpha   90.00000000
_cell_angle_beta   90.00000000
_cell_angle_gamma   119.99999085
_symmetry_Int_Tables_number   1
_chemical_formula_structural   Sr3Th5(Si3Pt)4
_chemical_formula_sum   'Sr3 Th5 Si12 Pt4'
_cell_volume   520.37752065
_cell_formula_units_Z   1
loop_
 _symmetry_equiv_pos_site_id
 _symmetry_equiv_pos_as_xyz
  1  'x, y, z'
loop_
 _atom_site_type_symbol
 _atom_site_label
 _atom_site_symmetry_multiplicity
 _atom_site_fract_x
 _atom_site_fract_y
 _atom_site_fract_z
 _atom_site_occupancy
  Sr  Sr0  1  0.499938  0.500062  0.750000  1
  Sr  Sr1  1  0.000126  0.500062  0.750000  1
  Sr  Sr2  1  0.499938  0.999874  0.750000  1
  Th  Th3  1  0.500083  0.499917  0.250000  1
  Th  Th4  1  0.999834  0.499917  0.250000  1
  Th  Th5  1  0.500083  0.000166  0.250000  1
  Th  Th6  1  0.000000  0.000000  0.750000  1
  Th  Th7  1  0.000000  0.000000  0.250000  1
  Si  Si8  1  0.835105  0.164895  0.007209  1
  Si  Si9  1  0.164902  0.835098  0.007791  1
  Si  Si10  1  0.329790  0.164895  0.007209  1
  Si  Si11  1  0.164902  0.835098  0.492209  1
  Si  Si12  1  0.670196  0.835098  0.007791  1
  Si  Si13  1  0.835105  0.164895  0.492791  1
  Si  Si14  1  0.835105  0.670210  0.007209  1
  Si  Si15  1  0.670196  0.835098  0.492209  1
  Si  Si16  1  0.164902  0.329804  0.007791  1
  Si  Si17  1  0.329790  0.164895  0.492791  1
  Si  Si18  1  0.164902  0.329804  0.492209  1
  Si  Si19  1  0.835105  0.670210  0.492791  1
  Pt  Pt20  1  0.666667  0.333333  0.012575  1
  Pt  Pt21  1  0.333333  0.666667  0.012641  1
  Pt  Pt22  1  0.333333  0.666667  0.487359  1
  Pt  Pt23  1  0.666667  0.333333  0.487425  1
