# generated using pymatgen
data_Li4CaSm3Si7Ge
_symmetry_space_group_name_H-M   'P 1'
_cell_length_a   3.83973100
_cell_length_b   7.77925679
_cell_length_c   10.42287339
_cell_angle_alpha   89.80662339
_cell_angle_beta   90.00000000
_cell_angle_gamma   90.00000000
_symmetry_Int_Tables_number   1
_chemical_formula_structural   Li4CaSm3Si7Ge
_chemical_formula_sum   'Li4 Ca1 Sm3 Si7 Ge1'
_cell_volume   311.33209683
_cell_formula_units_Z   1
loop_
 _symmetry_equiv_pos_site_id
 _symmetry_equiv_pos_as_xyz
  1  'x, y, z'
loop_
 _atom_site_type_symbol
 _atom_site_label
 _atom_site_symmetry_multiplicity
 _atom_site_fract_x
 _atom_site_fract_y
 _atom_site_fract_z
 _atom_site_occupancy
  Li  Li0  1  0.250000  0.997793  0.391898  1
  Li  Li1  1  0.750000  0.008226  0.608939  1
  Li  Li2  1  0.250000  0.490459  0.112409  1
  Li  Li3  1  0.750000  0.504806  0.890706  1
  Ca  Ca4  1  0.750000  0.364092  0.365265  1
  Sm  Sm5  1  0.250000  0.133241  0.863742  1
  Sm  Sm6  1  0.750000  0.867748  0.135621  1
  Sm  Sm7  1  0.250000  0.633453  0.633339  1
  Si  Si8  1  0.750000  0.266152  0.066670  1
  Si  Si9  1  0.750000  0.773698  0.431302  1
  Si  Si10  1  0.250000  0.234120  0.570638  1
  Si  Si11  1  0.750000  0.837937  0.815975  1
  Si  Si12  1  0.250000  0.159419  0.174878  1
  Si  Si13  1  0.750000  0.337057  0.681463  1
  Si  Si14  1  0.250000  0.666339  0.322731  1
  Ge  Ge15  1  0.250000  0.725458  0.934422  1
