# generated using pymatgen
data_Ce2Nd5Th(Si3Pd)4
_symmetry_space_group_name_H-M   'P 1'
_cell_length_a   8.24202704
_cell_length_b   8.24202865
_cell_length_c   8.48558300
_cell_angle_alpha   90.00000000
_cell_angle_beta   90.00000000
_cell_angle_gamma   119.86879568
_symmetry_Int_Tables_number   1
_chemical_formula_structural   Ce2Nd5Th(Si3Pd)4
_chemical_formula_sum   'Ce2 Nd5 Th1 Si12 Pd4'
_cell_volume   499.86546974
_cell_formula_units_Z   1
loop_
 _symmetry_equiv_pos_site_id
 _symmetry_equiv_pos_as_xyz
  1  'x, y, z'
loop_
 _atom_site_type_symbol
 _atom_site_label
 _atom_site_symmetry_multiplicity
 _atom_site_fract_x
 _atom_site_fract_y
 _atom_site_fract_z
 _atom_site_occupancy
  Ce  Ce0  1  0.999983  0.000017  0.750000  1
  Ce  Ce1  1  0.999981  0.000019  0.250000  1
  Nd  Nd2  1  0.500312  0.499688  0.250000  1
  Nd  Nd3  1  0.000661  0.500372  0.750000  1
  Nd  Nd4  1  0.999325  0.499632  0.250000  1
  Nd  Nd5  1  0.499628  0.999339  0.750000  1
  Nd  Nd6  1  0.500368  0.000675  0.250000  1
  Th  Th7  1  0.499786  0.500214  0.750000  1
  Si  Si8  1  0.834533  0.165467  0.999132  1
  Si  Si9  1  0.165472  0.834528  0.000347  1
  Si  Si10  1  0.328790  0.164034  0.998808  1
  Si  Si11  1  0.165472  0.834528  0.499653  1
  Si  Si12  1  0.671140  0.835906  0.999852  1
  Si  Si13  1  0.834533  0.165467  0.500868  1
  Si  Si14  1  0.835966  0.671210  0.998808  1
  Si  Si15  1  0.671140  0.835906  0.500148  1
  Si  Si16  1  0.164094  0.328860  0.999852  1
  Si  Si17  1  0.328790  0.164034  0.501192  1
  Si  Si18  1  0.164094  0.328860  0.500148  1
  Si  Si19  1  0.835966  0.671210  0.501192  1
  Pd  Pd20  1  0.665536  0.334464  0.997721  1
  Pd  Pd21  1  0.334448  0.665552  0.999277  1
  Pd  Pd22  1  0.334448  0.665552  0.500723  1
  Pd  Pd23  1  0.665536  0.334464  0.502279  1
