# generated using pymatgen
data_CaLa4Ir3
_symmetry_space_group_name_H-M   'P 1'
_cell_length_a   11.41021100
_cell_length_b   11.41021100
_cell_length_c   6.53424600
_cell_angle_alpha   90.00000000
_cell_angle_beta   90.00000000
_cell_angle_gamma   90.00000000
_symmetry_Int_Tables_number   1
_chemical_formula_structural   CaLa4Ir3
_chemical_formula_sum   'Ca4 La16 Ir12'
_cell_volume   850.71253449
_cell_formula_units_Z   4
loop_
 _symmetry_equiv_pos_site_id
 _symmetry_equiv_pos_as_xyz
  1  'x, y, z'
loop_
 _atom_site_type_symbol
 _atom_site_label
 _atom_site_symmetry_multiplicity
 _atom_site_fract_x
 _atom_site_fract_y
 _atom_site_fract_z
 _atom_site_occupancy
  Ca  Ca0  1  0.000000  0.000000  0.500000  1
  Ca  Ca1  1  0.000000  0.000000  0.000000  1
  Ca  Ca2  1  0.500000  0.500000  0.000000  1
  Ca  Ca3  1  0.500000  0.500000  0.500000  1
  La  La4  1  0.288990  0.090144  0.387925  1
  La  La5  1  0.288990  0.909856  0.887925  1
  La  La6  1  0.711010  0.090144  0.887925  1
  La  La7  1  0.711010  0.909856  0.387925  1
  La  La8  1  0.590144  0.788990  0.887925  1
  La  La9  1  0.590144  0.211010  0.387925  1
  La  La10  1  0.409856  0.788990  0.387925  1
  La  La11  1  0.409856  0.211010  0.887925  1
  La  La12  1  0.211010  0.409856  0.612075  1
  La  La13  1  0.211010  0.590144  0.112075  1
  La  La14  1  0.788990  0.409856  0.112075  1
  La  La15  1  0.788990  0.590144  0.612075  1
  La  La16  1  0.909856  0.711010  0.112075  1
  La  La17  1  0.909856  0.288990  0.612075  1
  La  La18  1  0.090144  0.711010  0.612075  1
  La  La19  1  0.090144  0.288990  0.112075  1
  Ir  Ir20  1  0.841494  0.158506  0.250000  1
  Ir  Ir21  1  0.841494  0.841494  0.750000  1
  Ir  Ir22  1  0.158506  0.158506  0.750000  1
  Ir  Ir23  1  0.158506  0.841494  0.250000  1
  Ir  Ir24  1  0.658506  0.341494  0.750000  1
  Ir  Ir25  1  0.658506  0.658506  0.250000  1
  Ir  Ir26  1  0.341494  0.341494  0.250000  1
  Ir  Ir27  1  0.341494  0.658506  0.750000  1
  Ir  Ir28  1  0.500000  0.000000  0.113114  1
  Ir  Ir29  1  0.500000  0.000000  0.613114  1
  Ir  Ir30  1  0.000000  0.500000  0.886886  1
  Ir  Ir31  1  0.000000  0.500000  0.386886  1
