# generated using pymatgen
data_DyTm11IrOs3
_symmetry_space_group_name_H-M   'P 1'
_cell_length_a   6.30298002
_cell_length_b   7.30160286
_cell_length_c   8.93994900
_cell_angle_alpha   90.00000000
_cell_angle_beta   90.00000000
_cell_angle_gamma   90.05492103
_symmetry_Int_Tables_number   1
_chemical_formula_structural   DyTm11IrOs3
_chemical_formula_sum   'Dy1 Tm11 Ir1 Os3'
_cell_volume   411.43286480
_cell_formula_units_Z   1
loop_
 _symmetry_equiv_pos_site_id
 _symmetry_equiv_pos_as_xyz
  1  'x, y, z'
loop_
 _atom_site_type_symbol
 _atom_site_label
 _atom_site_symmetry_multiplicity
 _atom_site_fract_x
 _atom_site_fract_y
 _atom_site_fract_z
 _atom_site_occupancy
  Dy  Dy0  1  0.628766  0.039132  0.250000  1
  Tm  Tm1  1  0.331439  0.673304  0.061803  1
  Tm  Tm2  1  0.169415  0.176623  0.438812  1
  Tm  Tm3  1  0.669971  0.325433  0.563038  1
  Tm  Tm4  1  0.828083  0.823967  0.934910  1
  Tm  Tm5  1  0.669971  0.325433  0.936962  1
  Tm  Tm6  1  0.828083  0.823967  0.565090  1
  Tm  Tm7  1  0.331439  0.673304  0.438197  1
  Tm  Tm8  1  0.169415  0.176623  0.061188  1
  Tm  Tm9  1  0.871498  0.538104  0.250000  1
  Tm  Tm10  1  0.129139  0.461742  0.750000  1
  Tm  Tm11  1  0.369731  0.961265  0.750000  1
  Ir  Ir12  1  0.041990  0.883115  0.250000  1
  Os  Os13  1  0.460998  0.384843  0.250000  1
  Os  Os14  1  0.963583  0.116311  0.750000  1
  Os  Os15  1  0.536478  0.616834  0.750000  1
