# generated using pymatgen
data_Gd2ErTm(B6Ru)2
_symmetry_space_group_name_H-M   'P 1'
_cell_length_a   3.65603600
_cell_length_b   9.13273807
_cell_length_c   11.52304209
_cell_angle_alpha   89.98580904
_cell_angle_beta   90.00000000
_cell_angle_gamma   90.00000000
_symmetry_Int_Tables_number   1
_chemical_formula_structural   Gd2ErTm(B6Ru)2
_chemical_formula_sum   'Gd4 Er2 Tm2 B24 Ru4'
_cell_volume   384.74997512
_cell_formula_units_Z   2
loop_
 _symmetry_equiv_pos_site_id
 _symmetry_equiv_pos_as_xyz
  1  'x, y, z'
loop_
 _atom_site_type_symbol
 _atom_site_label
 _atom_site_symmetry_multiplicity
 _atom_site_fract_x
 _atom_site_fract_y
 _atom_site_fract_z
 _atom_site_occupancy
  Gd  Gd0  1  0.000000  0.322529  0.414224  1
  Gd  Gd1  1  0.000000  0.677471  0.585776  1
  Gd  Gd2  1  0.000000  0.822697  0.085896  1
  Gd  Gd3  1  0.000000  0.177303  0.914104  1
  Er  Er4  1  0.000000  0.444113  0.127756  1
  Er  Er5  1  0.000000  0.555887  0.872244  1
  Tm  Tm6  1  0.000000  0.944153  0.372545  1
  Tm  Tm7  1  0.000000  0.055847  0.627455  1
  B  B8  1  0.500000  0.554908  0.432359  1
  B  B9  1  0.500000  0.445092  0.567641  1
  B  B10  1  0.500000  0.054802  0.067771  1
  B  B11  1  0.500000  0.945198  0.932229  1
  B  B12  1  0.500000  0.749492  0.419168  1
  B  B13  1  0.500000  0.250508  0.580832  1
  B  B14  1  0.500000  0.249010  0.080919  1
  B  B15  1  0.500000  0.750990  0.919081  1
  B  B16  1  0.500000  0.791844  0.266332  1
  B  B17  1  0.500000  0.208156  0.733668  1
  B  B18  1  0.500000  0.291353  0.233940  1
  B  B19  1  0.500000  0.708647  0.766060  1
  B  B20  1  0.500000  0.631757  0.184902  1
  B  B21  1  0.500000  0.368243  0.815098  1
  B  B22  1  0.500000  0.131312  0.315446  1
  B  B23  1  0.500000  0.868688  0.684554  1
  B  B24  1  0.500000  0.983982  0.213581  1
  B  B25  1  0.500000  0.016018  0.786419  1
  B  B26  1  0.500000  0.484280  0.286831  1
  B  B27  1  0.500000  0.515720  0.713169  1
  B  B28  1  0.500000  0.605816  0.029034  1
  B  B29  1  0.500000  0.394184  0.970966  1
  B  B30  1  0.500000  0.105049  0.471168  1
  B  B31  1  0.500000  0.894951  0.528832  1
  Ru  Ru32  1  0.000000  0.639184  0.320406  1
  Ru  Ru33  1  0.000000  0.360816  0.679594  1
  Ru  Ru34  1  0.000000  0.138650  0.180020  1
  Ru  Ru35  1  0.000000  0.861350  0.819980  1
