# generated using pymatgen
data_Tb4S3N2
_symmetry_space_group_name_H-M   'P 1'
_cell_length_a   6.78390369
_cell_length_b   6.78390342
_cell_length_c   9.95426489
_cell_angle_alpha   53.20519789
_cell_angle_beta   53.20519981
_cell_angle_gamma   33.03029924
_symmetry_Int_Tables_number   1
_chemical_formula_structural   Tb4S3N2
_chemical_formula_sum   'Tb4 S3 N2'
_cell_volume   194.98259554
_cell_formula_units_Z   1
loop_
 _symmetry_equiv_pos_site_id
 _symmetry_equiv_pos_as_xyz
  1  'x, y, z'
loop_
 _atom_site_type_symbol
 _atom_site_label
 _atom_site_symmetry_multiplicity
 _atom_site_fract_x
 _atom_site_fract_y
 _atom_site_fract_z
 _atom_site_occupancy
  Tb  Tb0  1  0.242929  0.242929  0.646957  1
  Tb  Tb1  1  0.757071  0.757071  0.353043  1
  Tb  Tb2  1  0.562894  0.562894  0.144494  1
  Tb  Tb3  1  0.437106  0.437106  0.855506  1
  S  S4  1  0.000000  0.000000  0.000000  1
  S  S5  1  0.829768  0.829768  0.781704  1
  S  S6  1  0.170232  0.170232  0.218296  1
  N  N7  1  0.354441  0.354441  0.360439  1
  N  N8  1  0.645559  0.645559  0.639561  1
