# generated using pymatgen
data_Tm2MnC2
_symmetry_space_group_name_H-M   'P 1'
_cell_length_a   4.95854900
_cell_length_b   6.27255500
_cell_length_c   9.58557400
_cell_angle_alpha   90.00000000
_cell_angle_beta   90.00000000
_cell_angle_gamma   90.00000000
_symmetry_Int_Tables_number   1
_chemical_formula_structural   Tm2MnC2
_chemical_formula_sum   'Tm8 Mn4 C8'
_cell_volume   298.13791612
_cell_formula_units_Z   4
loop_
 _symmetry_equiv_pos_site_id
 _symmetry_equiv_pos_as_xyz
  1  'x, y, z'
loop_
 _atom_site_type_symbol
 _atom_site_label
 _atom_site_symmetry_multiplicity
 _atom_site_fract_x
 _atom_site_fract_y
 _atom_site_fract_z
 _atom_site_occupancy
  Tm  Tm0  1  0.250000  0.817535  0.944541  1
  Tm  Tm1  1  0.250000  0.317535  0.555459  1
  Tm  Tm2  1  0.750000  0.182465  0.055459  1
  Tm  Tm3  1  0.750000  0.682465  0.444541  1
  Tm  Tm4  1  0.250000  0.473041  0.216509  1
  Tm  Tm5  1  0.250000  0.973041  0.283491  1
  Tm  Tm6  1  0.750000  0.526959  0.783491  1
  Tm  Tm7  1  0.750000  0.026959  0.716509  1
  Mn  Mn8  1  0.250000  0.272184  0.858582  1
  Mn  Mn9  1  0.250000  0.772184  0.641418  1
  Mn  Mn10  1  0.750000  0.727816  0.141418  1
  Mn  Mn11  1  0.750000  0.227816  0.358582  1
  C  C12  1  0.250000  0.037963  0.739252  1
  C  C13  1  0.250000  0.537963  0.760748  1
  C  C14  1  0.750000  0.962037  0.260748  1
  C  C15  1  0.750000  0.462037  0.239252  1
  C  C16  1  0.250000  0.689719  0.462135  1
  C  C17  1  0.250000  0.189719  0.037865  1
  C  C18  1  0.750000  0.310281  0.537865  1
  C  C19  1  0.750000  0.810281  0.962135  1
