# generated using pymatgen
data_Pr17Tm3Si15Os
_symmetry_space_group_name_H-M   'P 1'
_cell_length_a   7.89304648
_cell_length_b   7.85437024
_cell_length_c   15.14371638
_cell_angle_alpha   90.22247743
_cell_angle_beta   89.83122330
_cell_angle_gamma   90.14539400
_symmetry_Int_Tables_number   1
_chemical_formula_structural   Pr17Tm3Si15Os
_chemical_formula_sum   'Pr17 Tm3 Si15 Os1'
_cell_volume   938.81917782
_cell_formula_units_Z   1
loop_
 _symmetry_equiv_pos_site_id
 _symmetry_equiv_pos_as_xyz
  1  'x, y, z'
loop_
 _atom_site_type_symbol
 _atom_site_label
 _atom_site_symmetry_multiplicity
 _atom_site_fract_x
 _atom_site_fract_y
 _atom_site_fract_z
 _atom_site_occupancy
  Pr  Pr0  1  0.696840  0.688170  0.501552  1
  Pr  Pr1  1  0.372396  0.011599  0.449743  1
  Pr  Pr2  1  0.486510  0.880592  0.699531  1
  Pr  Pr3  1  0.511213  0.124826  0.198146  1
  Pr  Pr4  1  0.875826  0.487325  0.299419  1
  Pr  Pr5  1  0.127300  0.501326  0.798425  1
  Pr  Pr6  1  0.625708  0.989117  0.948664  1
  Pr  Pr7  1  0.006313  0.373847  0.552683  1
  Pr  Pr8  1  0.988625  0.626250  0.050831  1
  Pr  Pr9  1  0.132895  0.984615  0.872522  1
  Pr  Pr10  1  0.518181  0.630947  0.125897  1
  Pr  Pr11  1  0.471181  0.361717  0.630754  1
  Pr  Pr12  1  0.628463  0.515482  0.874668  1
  Pr  Pr13  1  0.374439  0.481759  0.371952  1
  Pr  Pr14  1  0.873673  0.021187  0.376480  1
  Pr  Pr15  1  0.981430  0.127332  0.123074  1
  Pr  Pr16  1  0.026947  0.882649  0.626355  1
  Tm  Tm17  1  0.309435  0.308268  0.999076  1
  Tm  Tm18  1  0.188909  0.810298  0.250296  1
  Tm  Tm19  1  0.825635  0.189865  0.748458  1
  Si  Si20  1  0.330723  0.690687  0.952740  1
  Si  Si21  1  0.663521  0.302161  0.452508  1
  Si  Si22  1  0.692900  0.331029  0.048195  1
  Si  Si23  1  0.305146  0.669045  0.546299  1
  Si  Si24  1  0.809884  0.830726  0.203836  1
  Si  Si25  1  0.169778  0.192458  0.295542  1
  Si  Si26  1  0.829748  0.806185  0.798598  1
  Si  Si27  1  0.287310  0.923419  0.061896  1
  Si  Si28  1  0.574627  0.788720  0.309621  1
  Si  Si29  1  0.424801  0.210036  0.815848  1
  Si  Si30  1  0.780886  0.578334  0.691739  1
  Si  Si31  1  0.212661  0.424345  0.186208  1
  Si  Si32  1  0.705960  0.076048  0.562408  1
  Si  Si33  1  0.921706  0.285313  0.938748  1
  Si  Si34  1  0.083917  0.717876  0.435978  1
  Os  Os35  1  0.184513  0.176448  0.701310  1
