# generated using pymatgen
data_La2Pr2PRu3I2
_symmetry_space_group_name_H-M   'P 1'
_cell_length_a   4.30864900
_cell_length_b   4.30864919
_cell_length_c   17.48515300
_cell_angle_alpha   90.00000000
_cell_angle_beta   90.00000000
_cell_angle_gamma   119.99999085
_symmetry_Int_Tables_number   1
_chemical_formula_structural   La2Pr2PRu3I2
_chemical_formula_sum   'La2 Pr2 P1 Ru3 I2'
_cell_volume   281.11392581
_cell_formula_units_Z   1
loop_
 _symmetry_equiv_pos_site_id
 _symmetry_equiv_pos_as_xyz
  1  'x, y, z'
loop_
 _atom_site_type_symbol
 _atom_site_label
 _atom_site_symmetry_multiplicity
 _atom_site_fract_x
 _atom_site_fract_y
 _atom_site_fract_z
 _atom_site_occupancy
  La  La0  1  0.000000  0.000000  0.601174  1
  La  La1  1  0.000000  0.000000  0.402906  1
  Pr  Pr2  1  0.000000  0.000000  0.107281  1
  Pr  Pr3  1  0.000000  0.000000  0.892435  1
  P  P4  1  0.333333  0.666667  0.508396  1
  Ru  Ru5  1  0.666667  0.333333  0.493730  1
  Ru  Ru6  1  0.666667  0.333333  0.003008  1
  Ru  Ru7  1  0.333333  0.666667  0.995552  1
  I  I8  1  0.333333  0.666667  0.252821  1
  I  I9  1  0.666667  0.333333  0.742701  1
