# generated using pymatgen
data_LiDy16Ni4Hg3
_symmetry_space_group_name_H-M   'P 1'
_cell_length_a   9.52561800
_cell_length_b   9.51185539
_cell_length_c   9.51185500
_cell_angle_alpha   59.99999788
_cell_angle_beta   60.04777997
_cell_angle_gamma   60.04777280
_symmetry_Int_Tables_number   1
_chemical_formula_structural   LiDy16Ni4Hg3
_chemical_formula_sum   'Li1 Dy16 Ni4 Hg3'
_cell_volume   609.84836075
_cell_formula_units_Z   1
loop_
 _symmetry_equiv_pos_site_id
 _symmetry_equiv_pos_as_xyz
  1  'x, y, z'
loop_
 _atom_site_type_symbol
 _atom_site_label
 _atom_site_symmetry_multiplicity
 _atom_site_fract_x
 _atom_site_fract_y
 _atom_site_fract_z
 _atom_site_occupancy
  Li  Li0  1  0.296021  0.567994  0.567994  1
  Dy  Dy1  1  0.348884  0.347080  0.347080  1
  Dy  Dy2  1  0.348884  0.347080  0.956956  1
  Dy  Dy3  1  0.348884  0.956956  0.347080  1
  Dy  Dy4  1  0.949669  0.350110  0.350110  1
  Dy  Dy5  1  0.807774  0.190609  0.190609  1
  Dy  Dy6  1  0.185008  0.813768  0.813768  1
  Dy  Dy7  1  0.185008  0.813768  0.187456  1
  Dy  Dy8  1  0.807774  0.190609  0.811008  1
  Dy  Dy9  1  0.185008  0.187456  0.813768  1
  Dy  Dy10  1  0.807774  0.811008  0.190609  1
  Dy  Dy11  1  0.934487  0.565154  0.565154  1
  Dy  Dy12  1  0.562729  0.936013  0.936013  1
  Dy  Dy13  1  0.562729  0.936013  0.565244  1
  Dy  Dy14  1  0.934487  0.565154  0.935205  1
  Dy  Dy15  1  0.562729  0.565244  0.936013  1
  Dy  Dy16  1  0.934487  0.935205  0.565154  1
  Ni  Ni17  1  0.140278  0.142635  0.142635  1
  Ni  Ni18  1  0.140278  0.142635  0.574453  1
  Ni  Ni19  1  0.140278  0.574453  0.142635  1
  Ni  Ni20  1  0.573730  0.142091  0.142091  1
  Hg  Hg21  1  0.581032  0.586788  0.586788  1
  Hg  Hg22  1  0.581032  0.586788  0.245393  1
  Hg  Hg23  1  0.581032  0.245393  0.586788  1
