# generated using pymatgen
data_K3Rb6InSb4
_symmetry_space_group_name_H-M   'P 1'
_cell_length_a   10.97134700
_cell_length_b   10.97134743
_cell_length_c   11.54250800
_cell_angle_alpha   90.00000000
_cell_angle_beta   90.00000000
_cell_angle_gamma   119.99999569
_symmetry_Int_Tables_number   1
_chemical_formula_structural   K3Rb6InSb4
_chemical_formula_sum   'K6 Rb12 In2 Sb8'
_cell_volume   1203.23582456
_cell_formula_units_Z   2
loop_
 _symmetry_equiv_pos_site_id
 _symmetry_equiv_pos_as_xyz
  1  'x, y, z'
loop_
 _atom_site_type_symbol
 _atom_site_label
 _atom_site_symmetry_multiplicity
 _atom_site_fract_x
 _atom_site_fract_y
 _atom_site_fract_z
 _atom_site_occupancy
  K  K0  1  0.118660  0.237319  0.250000  1
  K  K1  1  0.881340  0.118660  0.750000  1
  K  K2  1  0.237319  0.118660  0.750000  1
  K  K3  1  0.762681  0.881340  0.250000  1
  K  K4  1  0.118660  0.881340  0.250000  1
  K  K5  1  0.881340  0.762681  0.750000  1
  Rb  Rb6  1  0.207763  0.415526  0.542735  1
  Rb  Rb7  1  0.792237  0.207763  0.042735  1
  Rb  Rb8  1  0.415526  0.207763  0.042735  1
  Rb  Rb9  1  0.584474  0.792237  0.542735  1
  Rb  Rb10  1  0.207763  0.792237  0.542735  1
  Rb  Rb11  1  0.792237  0.584474  0.457265  1
  Rb  Rb12  1  0.792237  0.207763  0.457265  1
  Rb  Rb13  1  0.792237  0.584474  0.042735  1
  Rb  Rb14  1  0.415526  0.207763  0.457265  1
  Rb  Rb15  1  0.584474  0.792237  0.957265  1
  Rb  Rb16  1  0.207763  0.415526  0.957265  1
  Rb  Rb17  1  0.207763  0.792237  0.957265  1
  In  In18  1  0.333333  0.666667  0.250000  1
  In  In19  1  0.666667  0.333333  0.750000  1
  Sb  Sb20  1  0.483442  0.516558  0.250000  1
  Sb  Sb21  1  0.966882  0.483442  0.750000  1
  Sb  Sb22  1  0.516558  0.033118  0.750000  1
  Sb  Sb23  1  0.483442  0.966882  0.250000  1
  Sb  Sb24  1  0.033118  0.516558  0.250000  1
  Sb  Sb25  1  0.516558  0.483442  0.750000  1
  Sb  Sb26  1  0.000000  0.000000  0.000000  1
  Sb  Sb27  1  0.000000  0.000000  0.500000  1
