# generated using pymatgen
data_Tb6Co17Si12Mo
_symmetry_space_group_name_H-M   'P 1'
_cell_length_a   3.80762400
_cell_length_b   10.75540300
_cell_length_c   12.47571900
_cell_angle_alpha   90.00000000
_cell_angle_beta   90.00000000
_cell_angle_gamma   90.00000000
_symmetry_Int_Tables_number   1
_chemical_formula_structural   Tb6Co17Si12Mo
_chemical_formula_sum   'Tb6 Co17 Si12 Mo1'
_cell_volume   510.91226401
_cell_formula_units_Z   1
loop_
 _symmetry_equiv_pos_site_id
 _symmetry_equiv_pos_as_xyz
  1  'x, y, z'
loop_
 _atom_site_type_symbol
 _atom_site_label
 _atom_site_symmetry_multiplicity
 _atom_site_fract_x
 _atom_site_fract_y
 _atom_site_fract_z
 _atom_site_occupancy
  Tb  Tb0  1  0.000000  0.500000  0.526429  1
  Tb  Tb1  1  0.500000  0.000000  0.474208  1
  Tb  Tb2  1  0.500000  0.819342  0.207061  1
  Tb  Tb3  1  0.500000  0.180658  0.207061  1
  Tb  Tb4  1  0.000000  0.682446  0.797207  1
  Tb  Tb5  1  0.000000  0.317554  0.797207  1
  Co  Co6  1  0.000000  0.000000  0.846439  1
  Co  Co7  1  0.500000  0.500000  0.696999  1
  Co  Co8  1  0.000000  0.000000  0.302784  1
  Co  Co9  1  0.000000  0.500000  0.983232  1
  Co  Co10  1  0.500000  0.000000  0.017100  1
  Co  Co11  1  0.500000  0.326794  0.992195  1
  Co  Co12  1  0.500000  0.673206  0.992195  1
  Co  Co13  1  0.000000  0.165106  0.002482  1
  Co  Co14  1  0.000000  0.834894  0.002482  1
  Co  Co15  1  0.500000  0.300552  0.432038  1
  Co  Co16  1  0.500000  0.699448  0.432038  1
  Co  Co17  1  0.000000  0.197649  0.571978  1
  Co  Co18  1  0.000000  0.802351  0.571978  1
  Co  Co19  1  0.500000  0.883921  0.707644  1
  Co  Co20  1  0.500000  0.116079  0.707644  1
  Co  Co21  1  0.000000  0.619359  0.292885  1
  Co  Co22  1  0.000000  0.380641  0.292885  1
  Si  Si23  1  0.500000  0.500000  0.885339  1
  Si  Si24  1  0.000000  0.000000  0.115512  1
  Si  Si25  1  0.500000  0.500000  0.343622  1
  Si  Si26  1  0.000000  0.000000  0.662095  1
  Si  Si27  1  0.500000  0.302402  0.615230  1
  Si  Si28  1  0.500000  0.697598  0.615230  1
  Si  Si29  1  0.000000  0.197190  0.387959  1
  Si  Si30  1  0.000000  0.802810  0.387959  1
  Si  Si31  1  0.500000  0.855723  0.891441  1
  Si  Si32  1  0.500000  0.144277  0.891441  1
  Si  Si33  1  0.000000  0.656698  0.102305  1
  Si  Si34  1  0.000000  0.343302  0.102305  1
  Mo  Mo35  1  0.500000  0.500000  0.145397  1
