# generated using pymatgen
data_DyLu3(ScIr)4
_symmetry_space_group_name_H-M   'P 1'
_cell_length_a   4.19499600
_cell_length_b   7.12049642
_cell_length_c   8.63757930
_cell_angle_alpha   90.26357845
_cell_angle_beta   90.00000000
_cell_angle_gamma   90.00000000
_symmetry_Int_Tables_number   1
_chemical_formula_structural   DyLu3(ScIr)4
_chemical_formula_sum   'Dy1 Lu3 Sc4 Ir4'
_cell_volume   258.00568523
_cell_formula_units_Z   1
loop_
 _symmetry_equiv_pos_site_id
 _symmetry_equiv_pos_as_xyz
  1  'x, y, z'
loop_
 _atom_site_type_symbol
 _atom_site_label
 _atom_site_symmetry_multiplicity
 _atom_site_fract_x
 _atom_site_fract_y
 _atom_site_fract_z
 _atom_site_occupancy
  Dy  Dy0  1  0.750000  0.516564  0.826493  1
  Lu  Lu1  1  0.250000  0.981307  0.329713  1
  Lu  Lu2  1  0.250000  0.481334  0.171395  1
  Lu  Lu3  1  0.750000  0.019294  0.669629  1
  Sc  Sc4  1  0.250000  0.358009  0.564063  1
  Sc  Sc5  1  0.250000  0.857980  0.934320  1
  Sc  Sc6  1  0.750000  0.644092  0.432424  1
  Sc  Sc7  1  0.750000  0.141960  0.067986  1
  Ir  Ir8  1  0.250000  0.239222  0.893431  1
  Ir  Ir9  1  0.250000  0.744426  0.608144  1
  Ir  Ir10  1  0.750000  0.758122  0.110574  1
  Ir  Ir11  1  0.750000  0.257691  0.391830  1
