# generated using pymatgen
data_Y6MnFe4Os7
_symmetry_space_group_name_H-M   'P 1'
_cell_length_a   5.29877195
_cell_length_b   5.26934517
_cell_length_c   12.97432077
_cell_angle_alpha   90.45194422
_cell_angle_beta   90.34669995
_cell_angle_gamma   119.56168585
_symmetry_Int_Tables_number   1
_chemical_formula_structural   Y6MnFe4Os7
_chemical_formula_sum   'Y6 Mn1 Fe4 Os7'
_cell_volume   315.06961816
_cell_formula_units_Z   1
loop_
 _symmetry_equiv_pos_site_id
 _symmetry_equiv_pos_as_xyz
  1  'x, y, z'
loop_
 _atom_site_type_symbol
 _atom_site_label
 _atom_site_symmetry_multiplicity
 _atom_site_fract_x
 _atom_site_fract_y
 _atom_site_fract_z
 _atom_site_occupancy
  Y  Y0  1  0.332891  0.667484  0.917656  1
  Y  Y1  1  0.996818  0.998489  0.249917  1
  Y  Y2  1  0.663197  0.330429  0.584086  1
  Y  Y3  1  0.334131  0.665232  0.666962  1
  Y  Y4  1  0.003318  0.000866  0.999797  1
  Y  Y5  1  0.669436  0.337275  0.331648  1
  Mn  Mn6  1  0.167105  0.336089  0.457318  1
  Fe  Fe7  1  0.499834  0.498897  0.124891  1
  Fe  Fe8  1  0.167387  0.835769  0.458253  1
  Fe  Fe9  1  0.833258  0.165918  0.791834  1
  Fe  Fe10  1  0.499620  0.998272  0.125674  1
  Os  Os11  1  0.833102  0.665603  0.791969  1
  Os  Os12  1  0.334325  0.669433  0.291625  1
  Os  Os13  1  0.997753  0.998844  0.621367  1
  Os  Os14  1  0.667969  0.331221  0.962018  1
  Os  Os15  1  0.001879  0.500341  0.126324  1
  Os  Os16  1  0.665479  0.834267  0.456777  1
  Os  Os17  1  0.332498  0.165572  0.791883  1
