# generated using pymatgen
data_Ho2LuHf(Al3Rh)6
_symmetry_space_group_name_H-M   'P 1'
_cell_length_a   7.52636536
_cell_length_b   7.51360101
_cell_length_c   9.38343900
_cell_angle_alpha   90.00000000
_cell_angle_beta   90.00000000
_cell_angle_gamma   119.48367053
_symmetry_Int_Tables_number   1
_chemical_formula_structural   Ho2LuHf(Al3Rh)6
_chemical_formula_sum   'Ho2 Lu1 Hf1 Al18 Rh6'
_cell_volume   461.91518821
_cell_formula_units_Z   1
loop_
 _symmetry_equiv_pos_site_id
 _symmetry_equiv_pos_as_xyz
  1  'x, y, z'
loop_
 _atom_site_type_symbol
 _atom_site_label
 _atom_site_symmetry_multiplicity
 _atom_site_fract_x
 _atom_site_fract_y
 _atom_site_fract_z
 _atom_site_occupancy
  Ho  Ho0  1  0.006256  0.327423  0.750000  1
  Ho  Ho1  1  0.328333  0.006401  0.750000  1
  Lu  Lu2  1  0.673011  0.995860  0.250000  1
  Hf  Hf3  1  0.996022  0.672586  0.250000  1
  Al  Al4  1  0.124397  0.122123  0.250000  1
  Al  Al5  1  0.870572  0.869769  0.750000  1
  Al  Al6  1  0.999279  0.338366  0.081315  1
  Al  Al7  1  0.999469  0.664558  0.928384  1
  Al  Al8  1  0.999469  0.664558  0.571616  1
  Al  Al9  1  0.333008  0.997226  0.418542  1
  Al  Al10  1  0.999279  0.338366  0.418685  1
  Al  Al11  1  0.664259  0.998510  0.574222  1
  Al  Al12  1  0.664259  0.998510  0.925778  1
  Al  Al13  1  0.333008  0.997226  0.081458  1
  Al  Al14  1  0.333690  0.333680  0.548271  1
  Al  Al15  1  0.669702  0.667753  0.442023  1
  Al  Al16  1  0.669702  0.667753  0.057977  1
  Al  Al17  1  0.333690  0.333680  0.951729  1
  Al  Al18  1  0.336671  0.552462  0.250000  1
  Al  Al19  1  0.660768  0.450872  0.750000  1
  Al  Al20  1  0.557166  0.344301  0.250000  1
  Al  Al21  1  0.449580  0.659228  0.750000  1
  Rh  Rh22  1  0.673240  0.328118  0.001607  1
  Rh  Rh23  1  0.327502  0.673091  0.002307  1
  Rh  Rh24  1  0.327502  0.673091  0.497693  1
  Rh  Rh25  1  0.673240  0.328118  0.498393  1
  Rh  Rh26  1  0.998461  0.998183  0.002138  1
  Rh  Rh27  1  0.998461  0.998183  0.497862  1
