# generated using pymatgen
data_TaGa2PdPt8
_symmetry_space_group_name_H-M   'P 1'
_cell_length_a   3.97845500
_cell_length_b   3.97845500
_cell_length_c   11.85220300
_cell_angle_alpha   90.00000000
_cell_angle_beta   90.00000000
_cell_angle_gamma   90.00000000
_symmetry_Int_Tables_number   1
_chemical_formula_structural   TaGa2PdPt8
_chemical_formula_sum   'Ta1 Ga2 Pd1 Pt8'
_cell_volume   187.59790393
_cell_formula_units_Z   1
loop_
 _symmetry_equiv_pos_site_id
 _symmetry_equiv_pos_as_xyz
  1  'x, y, z'
loop_
 _atom_site_type_symbol
 _atom_site_label
 _atom_site_symmetry_multiplicity
 _atom_site_fract_x
 _atom_site_fract_y
 _atom_site_fract_z
 _atom_site_occupancy
  Ta  Ta0  1  0.000000  0.000000  0.999068  1
  Ga  Ga1  1  0.000000  0.000000  0.342041  1
  Ga  Ga2  1  0.000000  0.000000  0.658548  1
  Pd  Pd3  1  0.500000  0.500000  0.667505  1
  Pt  Pt4  1  0.500000  0.500000  0.000185  1
  Pt  Pt5  1  0.500000  0.500000  0.332483  1
  Pt  Pt6  1  0.500000  0.000000  0.164143  1
  Pt  Pt7  1  0.500000  0.000000  0.500478  1
  Pt  Pt8  1  0.500000  0.000000  0.835463  1
  Pt  Pt9  1  0.000000  0.500000  0.164143  1
  Pt  Pt10  1  0.000000  0.500000  0.500478  1
  Pt  Pt11  1  0.000000  0.500000  0.835463  1
