# generated using pymatgen
data_Hf3MoAs3Ru2
_symmetry_space_group_name_H-M   'P 1'
_cell_length_a   7.73386084
_cell_length_b   7.73406879
_cell_length_c   7.73375914
_cell_angle_alpha   126.72548326
_cell_angle_beta   123.14412328
_cell_angle_gamma   81.67734140
_symmetry_Int_Tables_number   1
_chemical_formula_structural   Hf3MoAs3Ru2
_chemical_formula_sum   'Hf6 Mo2 As6 Ru4'
_cell_volume   298.78457668
_cell_formula_units_Z   2
loop_
 _symmetry_equiv_pos_site_id
 _symmetry_equiv_pos_as_xyz
  1  'x, y, z'
loop_
 _atom_site_type_symbol
 _atom_site_label
 _atom_site_symmetry_multiplicity
 _atom_site_fract_x
 _atom_site_fract_y
 _atom_site_fract_z
 _atom_site_occupancy
  Hf  Hf0  1  0.462733  0.688093  0.725348  1
  Hf  Hf1  1  0.537289  0.262684  0.225372  1
  Hf  Hf2  1  0.748556  0.837771  0.589221  1
  Hf  Hf3  1  0.251444  0.840676  0.089208  1
  Hf  Hf4  1  0.055236  0.264027  0.708760  1
  Hf  Hf5  1  0.944779  0.653558  0.208794  1
  Mo  Mo6  1  0.499955  0.497574  0.997548  1
  Mo  Mo7  1  0.000035  0.497595  0.497634  1
  As  As8  1  0.275987  0.261968  0.486033  1
  As  As9  1  0.724023  0.210040  0.985995  1
  As  As10  1  0.327672  0.589741  0.253769  1
  As  As11  1  0.672309  0.926094  0.262062  1
  As  As12  1  0.164003  0.926104  0.753765  1
  As  As13  1  0.835956  0.589752  0.762073  1
  Ru  Ru14  1  0.095593  0.252842  0.099753  1
  Ru  Ru15  1  0.904437  0.004191  0.157307  1
  Ru  Ru16  1  0.346841  0.004084  0.599692  1
  Ru  Ru17  1  0.653152  0.252804  0.657266  1
