# generated using pymatgen
data_CeYTh6(Si3Rh)4
_symmetry_space_group_name_H-M   'P 1'
_cell_length_a   8.24008902
_cell_length_b   8.20472559
_cell_length_c   8.39198900
_cell_angle_alpha   90.00000000
_cell_angle_beta   90.00000000
_cell_angle_gamma   119.85813588
_symmetry_Int_Tables_number   1
_chemical_formula_structural   CeYTh6(Si3Rh)4
_chemical_formula_sum   'Ce1 Y1 Th6 Si12 Rh4'
_cell_volume   492.05149929
_cell_formula_units_Z   1
loop_
 _symmetry_equiv_pos_site_id
 _symmetry_equiv_pos_as_xyz
  1  'x, y, z'
loop_
 _atom_site_type_symbol
 _atom_site_label
 _atom_site_symmetry_multiplicity
 _atom_site_fract_x
 _atom_site_fract_y
 _atom_site_fract_z
 _atom_site_occupancy
  Ce  Ce0  1  0.000005  0.000002  0.750000  1
  Y  Y1  1  0.998998  0.499500  0.750000  1
  Th  Th2  1  0.000019  0.000009  0.250000  1
  Th  Th3  1  0.000583  0.500292  0.250000  1
  Th  Th4  1  0.499698  0.500365  0.250000  1
  Th  Th5  1  0.500433  0.000796  0.750000  1
  Th  Th6  1  0.499698  0.999332  0.250000  1
  Th  Th7  1  0.500433  0.499638  0.750000  1
  Si  Si8  1  0.165172  0.333319  0.997932  1
  Si  Si9  1  0.670724  0.835363  0.000371  1
  Si  Si10  1  0.165172  0.333319  0.502068  1
  Si  Si11  1  0.329232  0.164616  0.000671  1
  Si  Si12  1  0.165172  0.831853  0.997932  1
  Si  Si13  1  0.670724  0.835363  0.499629  1
  Si  Si14  1  0.834879  0.666764  0.998290  1
  Si  Si15  1  0.329232  0.164616  0.499329  1
  Si  Si16  1  0.165172  0.831853  0.502068  1
  Si  Si17  1  0.834879  0.666764  0.501710  1
  Si  Si18  1  0.834879  0.168116  0.998290  1
  Si  Si19  1  0.834879  0.168116  0.501710  1
  Rh  Rh20  1  0.336656  0.668329  0.994859  1
  Rh  Rh21  1  0.336656  0.668329  0.505141  1
  Rh  Rh22  1  0.663352  0.331676  0.997844  1
  Rh  Rh23  1  0.663352  0.331676  0.502156  1
