# generated using pymatgen
data_SrNdIn2Pt3
_symmetry_space_group_name_H-M   'P 1'
_cell_length_a   4.42487600
_cell_length_b   8.10455200
_cell_length_c   9.18251100
_cell_angle_alpha   90.00000000
_cell_angle_beta   90.00000000
_cell_angle_gamma   90.00000000
_symmetry_Int_Tables_number   1
_chemical_formula_structural   SrNdIn2Pt3
_chemical_formula_sum   'Sr2 Nd2 In4 Pt6'
_cell_volume   329.29988207
_cell_formula_units_Z   2
loop_
 _symmetry_equiv_pos_site_id
 _symmetry_equiv_pos_as_xyz
  1  'x, y, z'
loop_
 _atom_site_type_symbol
 _atom_site_label
 _atom_site_symmetry_multiplicity
 _atom_site_fract_x
 _atom_site_fract_y
 _atom_site_fract_z
 _atom_site_occupancy
  Sr  Sr0  1  0.000000  0.000000  0.278771  1
  Sr  Sr1  1  0.500001  0.500000  0.721230  1
  Nd  Nd2  1  0.000000  0.500000  0.349326  1
  Nd  Nd3  1  0.500001  0.000000  0.650675  1
  In  In4  1  0.500001  0.304463  0.110891  1
  In  In5  1  0.500001  0.695538  0.110891  1
  In  In6  1  0.000000  0.195537  0.889109  1
  In  In7  1  0.000000  0.804462  0.889109  1
  Pt  Pt8  1  0.000000  0.500000  0.021478  1
  Pt  Pt9  1  0.500001  0.260036  0.408479  1
  Pt  Pt10  1  0.500001  0.739964  0.408479  1
  Pt  Pt11  1  0.000000  0.239964  0.591522  1
  Pt  Pt12  1  0.000000  0.760036  0.591522  1
  Pt  Pt13  1  0.500001  0.000000  0.978523  1
