# generated using pymatgen
data_Nb12Ir3Os
_symmetry_space_group_name_H-M   'P 1'
_cell_length_a   5.18795700
_cell_length_b   5.18775300
_cell_length_c   10.37499900
_cell_angle_alpha   90.00000000
_cell_angle_beta   90.00000000
_cell_angle_gamma   90.00000000
_symmetry_Int_Tables_number   1
_chemical_formula_structural   Nb12Ir3Os
_chemical_formula_sum   'Nb12 Ir3 Os1'
_cell_volume   279.23105780
_cell_formula_units_Z   1
loop_
 _symmetry_equiv_pos_site_id
 _symmetry_equiv_pos_as_xyz
  1  'x, y, z'
loop_
 _atom_site_type_symbol
 _atom_site_label
 _atom_site_symmetry_multiplicity
 _atom_site_fract_x
 _atom_site_fract_y
 _atom_site_fract_z
 _atom_site_occupancy
  Nb  Nb0  1  0.500000  0.000000  0.374871  1
  Nb  Nb1  1  0.500000  0.000000  0.875605  1
  Nb  Nb2  1  0.749956  0.500000  0.000000  1
  Nb  Nb3  1  0.751169  0.500000  0.500000  1
  Nb  Nb4  1  0.000000  0.750590  0.251197  1
  Nb  Nb5  1  0.000000  0.750590  0.748803  1
  Nb  Nb6  1  0.500000  0.000000  0.124395  1
  Nb  Nb7  1  0.500000  0.000000  0.625129  1
  Nb  Nb8  1  0.250044  0.500000  0.000000  1
  Nb  Nb9  1  0.248831  0.500000  0.500000  1
  Nb  Nb10  1  0.000000  0.249410  0.251197  1
  Nb  Nb11  1  0.000000  0.249410  0.748803  1
  Ir  Ir12  1  0.500000  0.500000  0.248970  1
  Ir  Ir13  1  0.500000  0.500000  0.751030  1
  Ir  Ir14  1  0.000000  0.000000  0.000000  1
  Os  Os15  1  0.000000  0.000000  0.500000  1
