# generated using pymatgen
data_Y2Tm3(TcO6)2
_symmetry_space_group_name_H-M   'P 1'
_cell_length_a   6.76833765
_cell_length_b   6.76833725
_cell_length_c   7.46872098
_cell_angle_alpha   73.96858724
_cell_angle_beta   73.96858015
_cell_angle_gamma   49.37888805
_symmetry_Int_Tables_number   1
_chemical_formula_structural   Y2Tm3(TcO6)2
_chemical_formula_sum   'Y2 Tm3 Tc2 O12'
_cell_volume   247.41197654
_cell_formula_units_Z   1
loop_
 _symmetry_equiv_pos_site_id
 _symmetry_equiv_pos_as_xyz
  1  'x, y, z'
loop_
 _atom_site_type_symbol
 _atom_site_label
 _atom_site_symmetry_multiplicity
 _atom_site_fract_x
 _atom_site_fract_y
 _atom_site_fract_z
 _atom_site_occupancy
  Y  Y0  1  0.804411  0.804411  0.357208  1
  Y  Y1  1  0.195589  0.195589  0.642792  1
  Tm  Tm2  1  0.184171  0.184171  0.176258  1
  Tm  Tm3  1  0.815829  0.815829  0.823742  1
  Tm  Tm4  1  0.500000  0.500000  0.500000  1
  Tc  Tc5  1  0.286286  0.713714  0.000000  1
  Tc  Tc6  1  0.713714  0.286286  0.000000  1
  O  O7  1  0.415952  0.916234  0.916498  1
  O  O8  1  0.083766  0.584048  0.083502  1
  O  O9  1  0.584048  0.083766  0.083502  1
  O  O10  1  0.916234  0.415952  0.916498  1
  O  O11  1  0.600367  0.095849  0.575899  1
  O  O12  1  0.904151  0.399633  0.424101  1
  O  O13  1  0.399633  0.904151  0.424101  1
  O  O14  1  0.999718  0.999718  0.821598  1
  O  O15  1  0.000282  0.000282  0.178402  1
  O  O16  1  0.498847  0.498847  0.793417  1
  O  O17  1  0.501153  0.501153  0.206583  1
  O  O18  1  0.095849  0.600367  0.575899  1
