# generated using pymatgen
data_YbHo4Tm2PtI12
_symmetry_space_group_name_H-M   'P 1'
_cell_length_a   9.74064172
_cell_length_b   9.75749049
_cell_length_c   9.74571677
_cell_angle_alpha   106.90751397
_cell_angle_beta   106.81535203
_cell_angle_gamma   106.87491904
_symmetry_Int_Tables_number   1
_chemical_formula_structural   YbHo4Tm2PtI12
_chemical_formula_sum   'Yb1 Ho4 Tm2 Pt1 I12'
_cell_volume   774.21345557
_cell_formula_units_Z   1
loop_
 _symmetry_equiv_pos_site_id
 _symmetry_equiv_pos_as_xyz
  1  'x, y, z'
loop_
 _atom_site_type_symbol
 _atom_site_label
 _atom_site_symmetry_multiplicity
 _atom_site_fract_x
 _atom_site_fract_y
 _atom_site_fract_z
 _atom_site_occupancy
  Yb  Yb0  1  0.999560  0.000281  0.999922  1
  Ho  Ho1  1  0.474803  0.199581  0.401963  1
  Ho  Ho2  1  0.596673  0.525103  0.800508  1
  Ho  Ho3  1  0.801575  0.597970  0.525507  1
  Ho  Ho4  1  0.524850  0.799559  0.596853  1
  Tm  Tm5  1  0.402502  0.474041  0.202055  1
  Tm  Tm6  1  0.202467  0.402953  0.474752  1
  Pt  Pt7  1  0.500515  0.499883  0.500043  1
  I  I8  1  0.043195  0.349635  0.121083  1
  I  I9  1  0.119254  0.043479  0.349364  1
  I  I10  1  0.348428  0.120981  0.041115  1
  I  I11  1  0.958370  0.651858  0.880803  1
  I  I12  1  0.880423  0.958413  0.651067  1
  I  I13  1  0.650677  0.880523  0.958088  1
  I  I14  1  0.720734  0.572337  0.175846  1
  I  I15  1  0.175926  0.720989  0.572023  1
  I  I16  1  0.572721  0.176201  0.722931  1
  I  I17  1  0.275750  0.427202  0.823753  1
  I  I18  1  0.825683  0.277426  0.427325  1
  I  I19  1  0.425893  0.821585  0.274997  1
