# generated using pymatgen
data_Dy6Tm10Cd4Co3Ir
_symmetry_space_group_name_H-M   'P 1'
_cell_length_a   9.46877110
_cell_length_b   9.42752611
_cell_length_c   9.42752600
_cell_angle_alpha   60.00000039
_cell_angle_beta   60.14398799
_cell_angle_gamma   60.14399074
_symmetry_Int_Tables_number   1
_chemical_formula_structural   Dy6Tm10Cd4Co3Ir
_chemical_formula_sum   'Dy6 Tm10 Cd4 Co3 Ir1'
_cell_volume   596.37012763
_cell_formula_units_Z   1
loop_
 _symmetry_equiv_pos_site_id
 _symmetry_equiv_pos_as_xyz
  1  'x, y, z'
loop_
 _atom_site_type_symbol
 _atom_site_label
 _atom_site_symmetry_multiplicity
 _atom_site_fract_x
 _atom_site_fract_y
 _atom_site_fract_z
 _atom_site_occupancy
  Dy  Dy0  1  0.187831  0.811807  0.811807  1
  Dy  Dy1  1  0.811412  0.189009  0.189009  1
  Dy  Dy2  1  0.811412  0.189009  0.810571  1
  Dy  Dy3  1  0.187831  0.811807  0.188555  1
  Dy  Dy4  1  0.811412  0.810571  0.189009  1
  Dy  Dy5  1  0.187831  0.188555  0.811807  1
  Tm  Tm6  1  0.592382  0.600346  0.600346  1
  Tm  Tm7  1  0.592382  0.600346  0.206928  1
  Tm  Tm8  1  0.592382  0.206928  0.600346  1
  Tm  Tm9  1  0.210555  0.596482  0.596482  1
  Tm  Tm10  1  0.067941  0.436958  0.436958  1
  Tm  Tm11  1  0.437010  0.063461  0.063461  1
  Tm  Tm12  1  0.437010  0.063461  0.436068  1
  Tm  Tm13  1  0.067941  0.436958  0.058143  1
  Tm  Tm14  1  0.437010  0.436068  0.063461  1
  Tm  Tm15  1  0.067941  0.058143  0.436958  1
  Cd  Cd16  1  0.830496  0.829919  0.829919  1
  Cd  Cd17  1  0.830496  0.829919  0.509665  1
  Cd  Cd18  1  0.830496  0.509665  0.829919  1
  Cd  Cd19  1  0.509493  0.830169  0.830169  1
  Co  Co20  1  0.391473  0.391561  0.391561  1
  Co  Co21  1  0.391473  0.391561  0.825406  1
  Co  Co22  1  0.391473  0.825406  0.391561  1
  Ir  Ir23  1  0.824322  0.391893  0.391893  1
