# generated using pymatgen
data_Yb12CuAg11Ge12
_symmetry_space_group_name_H-M   'P 1'
_cell_length_a   4.54746500
_cell_length_b   7.81211063
_cell_length_c   21.25801811
_cell_angle_alpha   89.77983899
_cell_angle_beta   90.00000000
_cell_angle_gamma   90.00000000
_symmetry_Int_Tables_number   1
_chemical_formula_structural   Yb12CuAg11Ge12
_chemical_formula_sum   'Yb12 Cu1 Ag11 Ge12'
_cell_volume   755.19188846
_cell_formula_units_Z   1
loop_
 _symmetry_equiv_pos_site_id
 _symmetry_equiv_pos_as_xyz
  1  'x, y, z'
loop_
 _atom_site_type_symbol
 _atom_site_label
 _atom_site_symmetry_multiplicity
 _atom_site_fract_x
 _atom_site_fract_y
 _atom_site_fract_z
 _atom_site_occupancy
  Yb  Yb0  1  0.250000  0.788278  0.165842  1
  Yb  Yb1  1  0.250000  0.777299  0.500461  1
  Yb  Yb2  1  0.250000  0.711469  0.333065  1
  Yb  Yb3  1  0.750000  0.222266  0.500845  1
  Yb  Yb4  1  0.750000  0.291259  0.668935  1
  Yb  Yb5  1  0.750000  0.277345  0.999352  1
  Yb  Yb6  1  0.250000  0.784565  0.831419  1
  Yb  Yb7  1  0.250000  0.723421  0.999237  1
  Yb  Yb8  1  0.750000  0.211628  0.166769  1
  Yb  Yb9  1  0.750000  0.288041  0.334044  1
  Yb  Yb10  1  0.250000  0.709123  0.667361  1
  Yb  Yb11  1  0.750000  0.216018  0.832888  1
  Cu  Cu12  1  0.750000  0.586393  0.761587  1
  Ag  Ag13  1  0.750000  0.583329  0.904294  1
  Ag  Ag14  1  0.250000  0.416085  0.434515  1
  Ag  Ag15  1  0.750000  0.583655  0.566286  1
  Ag  Ag16  1  0.750000  0.917991  0.406428  1
  Ag  Ag17  1  0.250000  0.418000  0.093300  1
  Ag  Ag18  1  0.250000  0.412107  0.237864  1
  Ag  Ag19  1  0.750000  0.912204  0.261877  1
  Ag  Ag20  1  0.250000  0.088250  0.738752  1
  Ag  Ag21  1  0.250000  0.083892  0.933050  1
  Ag  Ag22  1  0.750000  0.916281  0.065093  1
  Ag  Ag23  1  0.250000  0.081306  0.594915  1
  Ge  Ge24  1  0.250000  0.414176  0.896833  1
  Ge  Ge25  1  0.750000  0.906487  0.731412  1
  Ge  Ge26  1  0.750000  0.581797  0.228690  1
  Ge  Ge27  1  0.250000  0.088971  0.071901  1
  Ge  Ge28  1  0.750000  0.911963  0.926964  1
  Ge  Ge29  1  0.750000  0.912209  0.604398  1
  Ge  Ge30  1  0.250000  0.410600  0.572604  1
  Ge  Ge31  1  0.250000  0.087030  0.397504  1
  Ge  Ge32  1  0.250000  0.081871  0.271352  1
  Ge  Ge33  1  0.750000  0.588546  0.427821  1
  Ge  Ge34  1  0.250000  0.429081  0.769949  1
  Ge  Ge35  1  0.750000  0.587063  0.102395  1
