# generated using pymatgen
data_La4Ho6Ga5Si3
_symmetry_space_group_name_H-M   'P 1'
_cell_length_a   7.63109466
_cell_length_b   7.99862177
_cell_length_c   15.17233100
_cell_angle_alpha   89.95804510
_cell_angle_beta   90.11971082
_cell_angle_gamma   90.16119520
_symmetry_Int_Tables_number   1
_chemical_formula_structural   La4Ho6Ga5Si3
_chemical_formula_sum   'La8 Ho12 Ga10 Si6'
_cell_volume   926.08644731
_cell_formula_units_Z   2
loop_
 _symmetry_equiv_pos_site_id
 _symmetry_equiv_pos_as_xyz
  1  'x, y, z'
loop_
 _atom_site_type_symbol
 _atom_site_label
 _atom_site_symmetry_multiplicity
 _atom_site_fract_x
 _atom_site_fract_y
 _atom_site_fract_z
 _atom_site_occupancy
  La  La0  1  0.022653  0.179311  0.404051  1
  La  La1  1  0.522327  0.320300  0.404648  1
  La  La2  1  0.481564  0.678561  0.906118  1
  La  La3  1  0.480068  0.681573  0.592808  1
  La  La4  1  0.978606  0.816534  0.593104  1
  La  La5  1  0.977627  0.822021  0.905924  1
  La  La6  1  0.520756  0.317431  0.097117  1
  La  La7  1  0.020496  0.182301  0.097009  1
  Ho  Ho8  1  0.321506  0.175107  0.620942  1
  Ho  Ho9  1  0.679481  0.823172  0.377772  1
  Ho  Ho10  1  0.657215  0.982058  0.751593  1
  Ho  Ho11  1  0.178880  0.677279  0.377547  1
  Ho  Ho12  1  0.818554  0.323883  0.878034  1
  Ho  Ho13  1  0.819603  0.326735  0.621424  1
  Ho  Ho14  1  0.845234  0.483263  0.251044  1
  Ho  Ho15  1  0.346671  0.016253  0.251568  1
  Ho  Ho16  1  0.323729  0.177000  0.877108  1
  Ho  Ho17  1  0.177979  0.672771  0.123927  1
  Ho  Ho18  1  0.678560  0.827122  0.123142  1
  Ho  Ho19  1  0.153170  0.513732  0.750680  1
  Ga  Ga20  1  0.269108  0.880596  0.749203  1
  Ga  Ga21  1  0.473777  0.610802  0.251604  1
  Ga  Ga22  1  0.024443  0.115524  0.748442  1
  Ga  Ga23  1  0.525613  0.391054  0.748890  1
  Ga  Ga24  1  0.149406  0.468341  0.539542  1
  Ga  Ga25  1  0.973972  0.889649  0.250637  1
  Ga  Ga26  1  0.847669  0.532057  0.042385  1
  Ga  Ga27  1  0.348778  0.967426  0.041210  1
  Ga  Ga28  1  0.150535  0.468487  0.958292  1
  Ga  Ga29  1  0.650971  0.032781  0.539704  1
  Si  Si30  1  0.728809  0.116141  0.251031  1
  Si  Si31  1  0.352529  0.969414  0.457208  1
  Si  Si32  1  0.853308  0.530175  0.456510  1
  Si  Si33  1  0.770080  0.615974  0.749041  1
  Si  Si34  1  0.229191  0.383095  0.251434  1
  Si  Si35  1  0.647132  0.032078  0.959308  1
