# generated using pymatgen
data_Hf13Zr7(CoAs3)4
_symmetry_space_group_name_H-M   'P 1'
_cell_length_a   3.70591100
_cell_length_b   10.51048401
_cell_length_c   17.47379201
_cell_angle_alpha   90.00385779
_cell_angle_beta   90.00000000
_cell_angle_gamma   90.00000000
_symmetry_Int_Tables_number   1
_chemical_formula_structural   Hf13Zr7(CoAs3)4
_chemical_formula_sum   'Hf13 Zr7 Co4 As12'
_cell_volume   680.62024330
_cell_formula_units_Z   1
loop_
 _symmetry_equiv_pos_site_id
 _symmetry_equiv_pos_as_xyz
  1  'x, y, z'
loop_
 _atom_site_type_symbol
 _atom_site_label
 _atom_site_symmetry_multiplicity
 _atom_site_fract_x
 _atom_site_fract_y
 _atom_site_fract_z
 _atom_site_occupancy
  Hf  Hf0  1  0.250000  0.621725  0.977193  1
  Hf  Hf1  1  0.250000  0.943417  0.076974  1
  Hf  Hf2  1  0.750000  0.055778  0.923148  1
  Hf  Hf3  1  0.750000  0.443748  0.423008  1
  Hf  Hf4  1  0.250000  0.556282  0.577023  1
  Hf  Hf5  1  0.250000  0.241957  0.166622  1
  Hf  Hf6  1  0.750000  0.758118  0.833354  1
  Hf  Hf7  1  0.750000  0.741724  0.333230  1
  Hf  Hf8  1  0.250000  0.258399  0.666794  1
  Hf  Hf9  1  0.250000  0.515641  0.276482  1
  Hf  Hf10  1  0.750000  0.484553  0.723466  1
  Hf  Hf11  1  0.750000  0.015607  0.223341  1
  Hf  Hf12  1  0.250000  0.984450  0.776655  1
  Zr  Zr13  1  0.250000  0.185044  0.367143  1
  Zr  Zr14  1  0.750000  0.815030  0.632824  1
  Zr  Zr15  1  0.750000  0.684884  0.132229  1
  Zr  Zr16  1  0.250000  0.315453  0.867478  1
  Zr  Zr17  1  0.250000  0.878823  0.477286  1
  Zr  Zr18  1  0.750000  0.121194  0.522701  1
  Zr  Zr19  1  0.750000  0.379345  0.022501  1
  Co  Co20  1  0.250000  0.629545  0.407483  1
  Co  Co21  1  0.750000  0.370403  0.592455  1
  Co  Co22  1  0.750000  0.129129  0.092391  1
  Co  Co23  1  0.250000  0.868925  0.907917  1
  As  As24  1  0.250000  0.491522  0.119027  1
  As  As25  1  0.750000  0.510230  0.881057  1
  As  As26  1  0.750000  0.991107  0.380313  1
  As  As27  1  0.250000  0.008933  0.619740  1
  As  As28  1  0.250000  0.816189  0.219590  1
  As  As29  1  0.750000  0.183776  0.780483  1
  As  As30  1  0.750000  0.316470  0.280196  1
  As  As31  1  0.250000  0.683670  0.719774  1
  As  As32  1  0.250000  0.187380  0.008161  1
  As  As33  1  0.750000  0.811575  0.991998  1
  As  As34  1  0.750000  0.687230  0.491885  1
  As  As35  1  0.250000  0.312742  0.508075  1
