# generated using pymatgen
data_CeTm11Tc3P
_symmetry_space_group_name_H-M   'P 1'
_cell_length_a   6.22067200
_cell_length_b   7.30285726
_cell_length_c   9.08961700
_cell_angle_alpha   90.00000000
_cell_angle_beta   90.00000000
_cell_angle_gamma   88.88844261
_symmetry_Int_Tables_number   1
_chemical_formula_structural   CeTm11Tc3P
_chemical_formula_sum   'Ce1 Tm11 Tc3 P1'
_cell_volume   412.85159358
_cell_formula_units_Z   1
loop_
 _symmetry_equiv_pos_site_id
 _symmetry_equiv_pos_as_xyz
  1  'x, y, z'
loop_
 _atom_site_type_symbol
 _atom_site_label
 _atom_site_symmetry_multiplicity
 _atom_site_fract_x
 _atom_site_fract_y
 _atom_site_fract_z
 _atom_site_occupancy
  Ce  Ce0  1  0.357483  0.944206  0.750000  1
  Tm  Tm1  1  0.636181  0.041786  0.250000  1
  Tm  Tm2  1  0.117186  0.467030  0.750000  1
  Tm  Tm3  1  0.868600  0.532315  0.250000  1
  Tm  Tm4  1  0.161335  0.184991  0.065285  1
  Tm  Tm5  1  0.830125  0.824913  0.937954  1
  Tm  Tm6  1  0.661662  0.320757  0.937781  1
  Tm  Tm7  1  0.830125  0.824913  0.562046  1
  Tm  Tm8  1  0.341248  0.670007  0.065795  1
  Tm  Tm9  1  0.161335  0.184991  0.434715  1
  Tm  Tm10  1  0.341248  0.670007  0.434205  1
  Tm  Tm11  1  0.661662  0.320757  0.562219  1
  Tc  Tc12  1  0.455798  0.380614  0.250000  1
  Tc  Tc13  1  0.520736  0.641759  0.750000  1
  Tc  Tc14  1  0.998295  0.111076  0.750000  1
  P  P15  1  0.056977  0.879878  0.250000  1
