# generated using pymatgen
data_CaNd3(FeO3)4
_symmetry_space_group_name_H-M   'P 1'
_cell_length_a   5.46822701
_cell_length_b   5.62637502
_cell_length_c   7.80655300
_cell_angle_alpha   90.00000000
_cell_angle_beta   90.00000000
_cell_angle_gamma   90.00847339
_symmetry_Int_Tables_number   1
_chemical_formula_structural   CaNd3(FeO3)4
_chemical_formula_sum   'Ca1 Nd3 Fe4 O12'
_cell_volume   240.17871659
_cell_formula_units_Z   1
loop_
 _symmetry_equiv_pos_site_id
 _symmetry_equiv_pos_as_xyz
  1  'x, y, z'
loop_
 _atom_site_type_symbol
 _atom_site_label
 _atom_site_symmetry_multiplicity
 _atom_site_fract_x
 _atom_site_fract_y
 _atom_site_fract_z
 _atom_site_occupancy
  Ca  Ca0  1  0.011844  0.949533  0.750000  1
  Nd  Nd1  1  0.511745  0.553896  0.250000  1
  Nd  Nd2  1  0.487187  0.445639  0.750000  1
  Nd  Nd3  1  0.986310  0.054297  0.250000  1
  Fe  Fe4  1  0.000165  0.502389  0.503262  1
  Fe  Fe5  1  0.498676  0.998603  0.503976  1
  Fe  Fe6  1  0.498676  0.998603  0.996024  1
  Fe  Fe7  1  0.000165  0.502389  0.996738  1
  O  O8  1  0.707602  0.293018  0.453641  1
  O  O9  1  0.207314  0.206472  0.546522  1
  O  O10  1  0.789234  0.790827  0.051295  1
  O  O11  1  0.299589  0.700385  0.958635  1
  O  O12  1  0.299589  0.700385  0.541365  1
  O  O13  1  0.789234  0.790827  0.448705  1
  O  O14  1  0.207314  0.206472  0.953478  1
  O  O15  1  0.707602  0.293018  0.046359  1
  O  O16  1  0.083634  0.477848  0.250000  1
  O  O17  1  0.589970  0.025381  0.750000  1
  O  O18  1  0.412149  0.980080  0.250000  1
  O  O19  1  0.912001  0.529938  0.750000  1
