# generated using pymatgen
data_Tb4Y3BeI12
_symmetry_space_group_name_H-M   'P 1'
_cell_length_a   9.71140694
_cell_length_b   9.70549401
_cell_length_c   9.70624417
_cell_angle_alpha   107.44549925
_cell_angle_beta   107.46543486
_cell_angle_gamma   107.46634138
_symmetry_Int_Tables_number   1
_chemical_formula_structural   Tb4Y3BeI12
_chemical_formula_sum   'Tb4 Y3 Be1 I12'
_cell_volume   752.15216899
_cell_formula_units_Z   1
loop_
 _symmetry_equiv_pos_site_id
 _symmetry_equiv_pos_as_xyz
  1  'x, y, z'
loop_
 _atom_site_type_symbol
 _atom_site_label
 _atom_site_symmetry_multiplicity
 _atom_site_fract_x
 _atom_site_fract_y
 _atom_site_fract_z
 _atom_site_occupancy
  Tb  Tb0  1  0.300010  0.027067  0.097907  1
  Tb  Tb1  1  0.972541  0.902004  0.700248  1
  Tb  Tb2  1  0.901841  0.700182  0.972596  1
  Tb  Tb3  1  0.700059  0.972698  0.902031  1
  Y  Y4  1  0.500776  0.500805  0.500813  1
  Y  Y5  1  0.027342  0.097905  0.299736  1
  Y  Y6  1  0.097876  0.299714  0.027271  1
  Be  Be7  1  0.000125  0.000066  0.000078  1
  I  I8  1  0.155088  0.466010  0.385801  1
  I  I9  1  0.465930  0.386175  0.155093  1
  I  I10  1  0.385748  0.155340  0.466602  1
  I  I11  1  0.844672  0.532965  0.613532  1
  I  I12  1  0.533044  0.613657  0.844896  1
  I  I13  1  0.613635  0.844967  0.533096  1
  I  I14  1  0.681271  0.073897  0.228587  1
  I  I15  1  0.073690  0.228416  0.680524  1
  I  I16  1  0.228073  0.679933  0.073496  1
  I  I17  1  0.319212  0.926328  0.771671  1
  I  I18  1  0.926570  0.772450  0.319417  1
  I  I19  1  0.772498  0.319420  0.926606  1
