# generated using pymatgen
data_Fe4Rh
_symmetry_space_group_name_H-M   'P 1'
_cell_length_a   2.92696910
_cell_length_b   6.38930527
_cell_length_c   6.55695996
_cell_angle_alpha   59.03863330
_cell_angle_beta   90.03777204
_cell_angle_gamma   46.56300310
_symmetry_Int_Tables_number   1
_chemical_formula_structural   Fe4Rh
_chemical_formula_sum   'Fe4 Rh1'
_cell_volume   62.78165733
_cell_formula_units_Z   1
loop_
 _symmetry_equiv_pos_site_id
 _symmetry_equiv_pos_as_xyz
  1  'x, y, z'
loop_
 _atom_site_type_symbol
 _atom_site_label
 _atom_site_symmetry_multiplicity
 _atom_site_fract_x
 _atom_site_fract_y
 _atom_site_fract_z
 _atom_site_occupancy
  Fe  Fe0  1  0.137478  0.997759  0.502277  1
  Fe  Fe1  1  0.976114  0.771875  0.321713  1
  Fe  Fe2  1  0.367037  0.178013  0.708920  1
  Fe  Fe3  1  0.746227  0.591820  0.115048  1
  Rh  Rh4  1  0.556621  0.384865  0.911910  1
