# generated using pymatgen
data_Hf3FeSn3IrRh
_symmetry_space_group_name_H-M   'P 1'
_cell_length_a   7.42925000
_cell_length_b   7.42924930
_cell_length_c   6.93821200
_cell_angle_alpha   90.00000000
_cell_angle_beta   90.00000000
_cell_angle_gamma   119.99999421
_symmetry_Int_Tables_number   1
_chemical_formula_structural   Hf3FeSn3IrRh
_chemical_formula_sum   'Hf6 Fe2 Sn6 Ir2 Rh2'
_cell_volume   331.64093259
_cell_formula_units_Z   2
loop_
 _symmetry_equiv_pos_site_id
 _symmetry_equiv_pos_as_xyz
  1  'x, y, z'
loop_
 _atom_site_type_symbol
 _atom_site_label
 _atom_site_symmetry_multiplicity
 _atom_site_fract_x
 _atom_site_fract_y
 _atom_site_fract_z
 _atom_site_occupancy
  Hf  Hf0  1  0.005603  0.392609  0.749146  1
  Hf  Hf1  1  0.607391  0.612994  0.749146  1
  Hf  Hf2  1  0.387006  0.994397  0.749146  1
  Hf  Hf3  1  0.994397  0.387006  0.250854  1
  Hf  Hf4  1  0.612994  0.607391  0.250854  1
  Hf  Hf5  1  0.392609  0.005603  0.250854  1
  Fe  Fe6  1  0.000000  0.000000  0.749871  1
  Fe  Fe7  1  0.000000  0.000000  0.250129  1
  Sn  Sn8  1  0.263810  0.263810  0.500000  1
  Sn  Sn9  1  0.000000  0.736190  0.500000  1
  Sn  Sn10  1  0.000000  0.734612  0.000000  1
  Sn  Sn11  1  0.736190  0.000000  0.500000  1
  Sn  Sn12  1  0.734612  0.000000  0.000000  1
  Sn  Sn13  1  0.265388  0.265388  0.000000  1
  Ir  Ir14  1  0.333333  0.666667  0.489092  1
  Ir  Ir15  1  0.666667  0.333333  0.510908  1
  Rh  Rh16  1  0.333333  0.666667  0.011886  1
  Rh  Rh17  1  0.666667  0.333333  0.988114  1
