# generated using pymatgen
data_Ba4YOsO8
_symmetry_space_group_name_H-M   'P 1'
_cell_length_a   7.43142544
_cell_length_b   7.43142380
_cell_length_c   5.98558000
_cell_angle_alpha   90.00000000
_cell_angle_beta   90.00000000
_cell_angle_gamma   132.66109440
_symmetry_Int_Tables_number   1
_chemical_formula_structural   Ba4YOsO8
_chemical_formula_sum   'Ba4 Y1 Os1 O8'
_cell_volume   243.08558491
_cell_formula_units_Z   1
loop_
 _symmetry_equiv_pos_site_id
 _symmetry_equiv_pos_as_xyz
  1  'x, y, z'
loop_
 _atom_site_type_symbol
 _atom_site_label
 _atom_site_symmetry_multiplicity
 _atom_site_fract_x
 _atom_site_fract_y
 _atom_site_fract_z
 _atom_site_occupancy
  Ba  Ba0  1  0.354474  0.645526  0.000000  1
  Ba  Ba1  1  0.853228  0.146772  0.500000  1
  Ba  Ba2  1  0.146772  0.853228  0.500000  1
  Ba  Ba3  1  0.645526  0.354474  0.000000  1
  Y  Y4  1  0.000000  0.000000  0.000000  1
  Os  Os5  1  0.500000  0.500000  0.500000  1
  O  O6  1  0.262644  0.262644  0.731914  1
  O  O7  1  0.737356  0.737356  0.268086  1
  O  O8  1  0.737356  0.737356  0.731914  1
  O  O9  1  0.262644  0.262644  0.268086  1
  O  O10  1  0.166018  0.833982  0.000000  1
  O  O11  1  0.649367  0.350633  0.500000  1
  O  O12  1  0.350633  0.649367  0.500000  1
  O  O13  1  0.833982  0.166018  0.000000  1
