# generated using pymatgen
data_YbScBrO2
_symmetry_space_group_name_H-M   'P 1'
_cell_length_a   5.82990842
_cell_length_b   5.82990894
_cell_length_c   8.68915900
_cell_angle_alpha   78.31796029
_cell_angle_beta   78.31796965
_cell_angle_gamma   39.17088049
_symmetry_Int_Tables_number   1
_chemical_formula_structural   YbScBrO2
_chemical_formula_sum   'Yb2 Sc2 Br2 O4'
_cell_volume   182.17929263
_cell_formula_units_Z   2
loop_
 _symmetry_equiv_pos_site_id
 _symmetry_equiv_pos_as_xyz
  1  'x, y, z'
loop_
 _atom_site_type_symbol
 _atom_site_label
 _atom_site_symmetry_multiplicity
 _atom_site_fract_x
 _atom_site_fract_y
 _atom_site_fract_z
 _atom_site_occupancy
  Yb  Yb0  1  0.390977  0.390977  0.782758  1
  Yb  Yb1  1  0.609023  0.609023  0.217242  1
  Sc  Sc2  1  0.865100  0.865100  0.484337  1
  Sc  Sc3  1  0.134900  0.134900  0.515663  1
  Br  Br4  1  0.661585  0.661585  0.864544  1
  Br  Br5  1  0.338415  0.338415  0.135456  1
  O  O6  1  0.318464  0.318464  0.555640  1
  O  O7  1  0.967043  0.967043  0.664722  1
  O  O8  1  0.032957  0.032957  0.335278  1
  O  O9  1  0.681536  0.681536  0.444360  1
