# generated using pymatgen
data_Ho5Lu3Sc8(In3Co)2
_symmetry_space_group_name_H-M   'P 1'
_cell_length_a   9.94221992
_cell_length_b   9.94234353
_cell_length_c   6.85615254
_cell_angle_alpha   89.93463970
_cell_angle_beta   90.06539409
_cell_angle_gamma   120.15180414
_symmetry_Int_Tables_number   1
_chemical_formula_structural   Ho5Lu3Sc8(In3Co)2
_chemical_formula_sum   'Ho5 Lu3 Sc8 In6 Co2'
_cell_volume   586.02546960
_cell_formula_units_Z   1
loop_
 _symmetry_equiv_pos_site_id
 _symmetry_equiv_pos_as_xyz
  1  'x, y, z'
loop_
 _atom_site_type_symbol
 _atom_site_label
 _atom_site_symmetry_multiplicity
 _atom_site_fract_x
 _atom_site_fract_y
 _atom_site_fract_z
 _atom_site_occupancy
  Ho  Ho0  1  0.534149  0.068406  0.518310  1
  Ho  Ho1  1  0.931599  0.465866  0.518306  1
  Ho  Ho2  1  0.533231  0.466782  0.519117  1
  Ho  Ho3  1  0.468080  0.935856  0.017490  1
  Ho  Ho4  1  0.064142  0.531921  0.017481  1
  Lu  Lu5  1  0.334003  0.665963  0.412091  1
  Lu  Lu6  1  0.999787  0.000279  0.510138  1
  Lu  Lu7  1  0.999902  0.000055  0.011950  1
  Sc  Sc8  1  0.466037  0.533970  0.018374  1
  Sc  Sc9  1  0.182200  0.359651  0.733128  1
  Sc  Sc10  1  0.640327  0.817811  0.733141  1
  Sc  Sc11  1  0.178991  0.821062  0.729592  1
  Sc  Sc12  1  0.817734  0.640125  0.224671  1
  Sc  Sc13  1  0.359864  0.182247  0.224743  1
  Sc  Sc14  1  0.821146  0.178852  0.226233  1
  Sc  Sc15  1  0.665506  0.334464  0.919037  1
  In  In16  1  0.836955  0.674372  0.776129  1
  In  In17  1  0.325600  0.163072  0.776138  1
  In  In18  1  0.837530  0.162487  0.775535  1
  In  In19  1  0.163584  0.323995  0.270697  1
  In  In20  1  0.676034  0.836404  0.270759  1
  In  In21  1  0.160531  0.839422  0.274509  1
  Co  Co22  1  0.667171  0.332834  0.283218  1
  Co  Co23  1  0.335895  0.664105  0.794892  1
