# generated using pymatgen
data_Zr3Ta(AlRh5)2
_symmetry_space_group_name_H-M   'P 1'
_cell_length_a   5.55264608
_cell_length_b   5.55264556
_cell_length_c   8.13400500
_cell_angle_alpha   90.00003972
_cell_angle_beta   90.00003472
_cell_angle_gamma   97.62515215
_symmetry_Int_Tables_number   1
_chemical_formula_structural   Zr3Ta(AlRh5)2
_chemical_formula_sum   'Zr3 Ta1 Al2 Rh10'
_cell_volume   248.56902089
_cell_formula_units_Z   1
loop_
 _symmetry_equiv_pos_site_id
 _symmetry_equiv_pos_as_xyz
  1  'x, y, z'
loop_
 _atom_site_type_symbol
 _atom_site_label
 _atom_site_symmetry_multiplicity
 _atom_site_fract_x
 _atom_site_fract_y
 _atom_site_fract_z
 _atom_site_occupancy
  Zr  Zr0  1  0.221307  0.778693  0.000000  1
  Zr  Zr1  1  0.221270  0.778730  0.500000  1
  Zr  Zr2  1  0.779831  0.220169  0.000000  1
  Ta  Ta3  1  0.782008  0.217992  0.500000  1
  Al  Al4  1  0.501512  0.499014  0.749111  1
  Al  Al5  1  0.500986  0.498488  0.250889  1
  Rh  Rh6  1  0.716183  0.716860  0.000098  1
  Rh  Rh7  1  0.715577  0.714931  0.499903  1
  Rh  Rh8  1  0.283140  0.283817  0.999902  1
  Rh  Rh9  1  0.285069  0.284423  0.500097  1
  Rh  Rh10  1  0.503202  0.004662  0.745603  1
  Rh  Rh11  1  0.503220  0.004560  0.254398  1
  Rh  Rh12  1  0.998013  0.002094  0.254962  1
  Rh  Rh13  1  0.997906  0.001987  0.745038  1
  Rh  Rh14  1  0.995440  0.496780  0.745602  1
  Rh  Rh15  1  0.995338  0.496798  0.254397  1
