# generated using pymatgen
data_HoTm4Lu3InPb3Au8
_symmetry_space_group_name_H-M   'P 1'
_cell_length_a   8.03696394
_cell_length_b   8.02977599
_cell_length_c   7.25386328
_cell_angle_alpha   89.96080338
_cell_angle_beta   90.02247514
_cell_angle_gamma   89.71629200
_symmetry_Int_Tables_number   1
_chemical_formula_structural   HoTm4Lu3InPb3Au8
_chemical_formula_sum   'Ho1 Tm4 Lu3 In1 Pb3 Au8'
_cell_volume   468.12232749
_cell_formula_units_Z   1
loop_
 _symmetry_equiv_pos_site_id
 _symmetry_equiv_pos_as_xyz
  1  'x, y, z'
loop_
 _atom_site_type_symbol
 _atom_site_label
 _atom_site_symmetry_multiplicity
 _atom_site_fract_x
 _atom_site_fract_y
 _atom_site_fract_z
 _atom_site_occupancy
  Ho  Ho0  1  0.682777  0.680641  0.498852  1
  Tm  Tm1  1  0.848857  0.157035  0.497263  1
  Tm  Tm2  1  0.151055  0.842982  0.497545  1
  Tm  Tm3  1  0.343182  0.347762  0.002355  1
  Tm  Tm4  1  0.656824  0.650958  0.002631  1
  Lu  Lu5  1  0.317188  0.320877  0.498509  1
  Lu  Lu6  1  0.179791  0.818310  0.001387  1
  Lu  Lu7  1  0.821993  0.183347  0.001556  1
  In  In8  1  0.000113  0.500062  0.248586  1
  Pb  Pb9  1  0.499899  0.000326  0.248684  1
  Pb  Pb10  1  0.000091  0.499873  0.750890  1
  Pb  Pb11  1  0.500489  0.999737  0.751749  1
  Au  Au12  1  0.630613  0.374348  0.277261  1
  Au  Au13  1  0.365970  0.623574  0.276698  1
  Au  Au14  1  0.128807  0.126909  0.778597  1
  Au  Au15  1  0.873485  0.875157  0.782486  1
  Au  Au16  1  0.372349  0.626866  0.722146  1
  Au  Au17  1  0.624649  0.370198  0.721765  1
  Au  Au18  1  0.876520  0.869084  0.218693  1
  Au  Au19  1  0.125352  0.131952  0.222343  1
