# generated using pymatgen
data_Tb6Al24ZnOs7
_symmetry_space_group_name_H-M   'P 1'
_cell_length_a   8.87814400
_cell_length_b   8.87212588
_cell_length_c   9.56014311
_cell_angle_alpha   90.04798009
_cell_angle_beta   90.00000000
_cell_angle_gamma   120.02243366
_symmetry_Int_Tables_number   1
_chemical_formula_structural   Tb6Al24ZnOs7
_chemical_formula_sum   'Tb6 Al24 Zn1 Os7'
_cell_volume   651.99832847
_cell_formula_units_Z   1
loop_
 _symmetry_equiv_pos_site_id
 _symmetry_equiv_pos_as_xyz
  1  'x, y, z'
loop_
 _atom_site_type_symbol
 _atom_site_label
 _atom_site_symmetry_multiplicity
 _atom_site_fract_x
 _atom_site_fract_y
 _atom_site_fract_z
 _atom_site_occupancy
  Tb  Tb0  1  0.193959  0.387918  0.253597  1
  Tb  Tb1  1  0.806041  0.612082  0.746403  1
  Tb  Tb2  1  0.614526  0.805366  0.248094  1
  Tb  Tb3  1  0.385474  0.194634  0.751906  1
  Tb  Tb4  1  0.190840  0.805366  0.248094  1
  Tb  Tb5  1  0.809160  0.194634  0.751906  1
  Al  Al6  1  0.329484  0.658969  0.019566  1
  Al  Al7  1  0.670516  0.341031  0.980434  1
  Al  Al8  1  0.666190  0.332379  0.516676  1
  Al  Al9  1  0.333810  0.667621  0.483324  1
  Al  Al10  1  0.163063  0.326124  0.574776  1
  Al  Al11  1  0.836937  0.673876  0.425224  1
  Al  Al12  1  0.674298  0.836737  0.573623  1
  Al  Al13  1  0.836758  0.673517  0.076264  1
  Al  Al14  1  0.325702  0.163263  0.426377  1
  Al  Al15  1  0.163242  0.326483  0.923736  1
  Al  Al16  1  0.162440  0.836737  0.573623  1
  Al  Al17  1  0.322586  0.171945  0.080709  1
  Al  Al18  1  0.837560  0.163263  0.426377  1
  Al  Al19  1  0.677414  0.828055  0.919291  1
  Al  Al20  1  0.849358  0.171945  0.080709  1
  Al  Al21  1  0.150642  0.828055  0.919291  1
  Al  Al22  1  0.563808  0.127616  0.254804  1
  Al  Al23  1  0.436192  0.872384  0.745196  1
  Al  Al24  1  0.878330  0.439928  0.249346  1
  Al  Al25  1  0.121670  0.560072  0.750654  1
  Al  Al26  1  0.561597  0.439928  0.249346  1
  Al  Al27  1  0.438403  0.560072  0.750654  1
  Al  Al28  1  0.998988  0.997975  0.250590  1
  Al  Al29  1  0.001012  0.002025  0.749410  1
  Zn  Zn30  1  0.500000  0.000000  0.000000  1
  Os  Os31  1  0.000000  0.500000  0.000000  1
  Os  Os32  1  0.500000  0.000000  0.500000  1
  Os  Os33  1  0.500000  0.500000  0.000000  1
  Os  Os34  1  0.000000  0.500000  0.500000  1
  Os  Os35  1  0.500000  0.500000  0.500000  1
  Os  Os36  1  0.000000  0.000000  0.000000  1
  Os  Os37  1  0.000000  0.000000  0.500000  1
