# generated using pymatgen
data_Ho5(GaBi)2
_symmetry_space_group_name_H-M   'P 1'
_cell_length_a   8.67809100
_cell_length_b   8.67809101
_cell_length_c   7.94576800
_cell_angle_alpha   90.00000000
_cell_angle_beta   90.00000000
_cell_angle_gamma   125.52606847
_symmetry_Int_Tables_number   1
_chemical_formula_structural   Ho5(GaBi)2
_chemical_formula_sum   'Ho10 Ga4 Bi4'
_cell_volume   487.00038246
_cell_formula_units_Z   2
loop_
 _symmetry_equiv_pos_site_id
 _symmetry_equiv_pos_as_xyz
  1  'x, y, z'
loop_
 _atom_site_type_symbol
 _atom_site_label
 _atom_site_symmetry_multiplicity
 _atom_site_fract_x
 _atom_site_fract_y
 _atom_site_fract_z
 _atom_site_occupancy
  Ho  Ho0  1  0.043103  0.294553  0.331741  1
  Ho  Ho1  1  0.956897  0.705447  0.668259  1
  Ho  Ho2  1  0.456897  0.205447  0.831741  1
  Ho  Ho3  1  0.794553  0.543103  0.168259  1
  Ho  Ho4  1  0.543103  0.794553  0.168259  1
  Ho  Ho5  1  0.205447  0.456897  0.831741  1
  Ho  Ho6  1  0.705447  0.956897  0.668259  1
  Ho  Ho7  1  0.294553  0.043103  0.331741  1
  Ho  Ho8  1  0.000000  0.000000  0.000000  1
  Ho  Ho9  1  0.500000  0.500000  0.500000  1
  Ga  Ga10  1  0.373199  0.373199  0.126550  1
  Ga  Ga11  1  0.626801  0.626801  0.873450  1
  Ga  Ga12  1  0.126801  0.126801  0.626550  1
  Ga  Ga13  1  0.873199  0.873199  0.373450  1
  Bi  Bi14  1  0.791957  0.208043  0.000000  1
  Bi  Bi15  1  0.208043  0.791957  0.000000  1
  Bi  Bi16  1  0.708043  0.291957  0.500000  1
  Bi  Bi17  1  0.291957  0.708043  0.500000  1
