# generated using pymatgen
data_HoErTc2F14
_symmetry_space_group_name_H-M   'P 1'
_cell_length_a   5.55848300
_cell_length_b   8.85366384
_cell_length_c   11.97971074
_cell_angle_alpha   62.70827749
_cell_angle_beta   90.00000000
_cell_angle_gamma   90.00000000
_symmetry_Int_Tables_number   1
_chemical_formula_structural   HoErTc2F14
_chemical_formula_sum   'Ho2 Er2 Tc4 F28'
_cell_volume   523.92937825
_cell_formula_units_Z   2
loop_
 _symmetry_equiv_pos_site_id
 _symmetry_equiv_pos_as_xyz
  1  'x, y, z'
loop_
 _atom_site_type_symbol
 _atom_site_label
 _atom_site_symmetry_multiplicity
 _atom_site_fract_x
 _atom_site_fract_y
 _atom_site_fract_z
 _atom_site_occupancy
  Ho  Ho0  1  0.758715  0.813535  0.764730  1
  Ho  Ho1  1  0.258715  0.186465  0.735270  1
  Er  Er2  1  0.241304  0.185800  0.235465  1
  Er  Er3  1  0.741304  0.814200  0.264535  1
  Tc  Tc4  1  0.758387  0.272602  0.957252  1
  Tc  Tc5  1  0.258387  0.727398  0.542748  1
  Tc  Tc6  1  0.241657  0.727002  0.043359  1
  Tc  Tc7  1  0.741657  0.272998  0.456641  1
  F  F8  1  0.441474  0.706282  0.916764  1
  F  F9  1  0.941474  0.293718  0.583236  1
  F  F10  1  0.557742  0.293497  0.083619  1
  F  F11  1  0.057742  0.706503  0.416381  1
  F  F12  1  0.443368  0.274892  0.545353  1
  F  F13  1  0.943368  0.725108  0.954647  1
  F  F14  1  0.557205  0.725474  0.453973  1
  F  F15  1  0.057205  0.274526  0.046027  1
  F  F16  1  0.776726  0.521128  0.859689  1
  F  F17  1  0.276726  0.478872  0.640311  1
  F  F18  1  0.223367  0.478021  0.140617  1
  F  F19  1  0.723367  0.521979  0.359383  1
  F  F20  1  0.754942  0.024930  0.053263  1
  F  F21  1  0.254942  0.975070  0.446737  1
  F  F22  1  0.245008  0.974514  0.947266  1
  F  F23  1  0.745008  0.025486  0.552734  1
  F  F24  1  0.972308  0.727443  0.638737  1
  F  F25  1  0.472308  0.272557  0.861263  1
  F  F26  1  0.028204  0.272292  0.360832  1
  F  F27  1  0.528204  0.727708  0.139168  1
  F  F28  1  0.046546  0.747424  0.173660  1
  F  F29  1  0.546546  0.252576  0.326340  1
  F  F30  1  0.952328  0.252812  0.826689  1
  F  F31  1  0.452328  0.747188  0.673311  1
  F  F32  1  0.419470  0.971001  0.232492  1
  F  F33  1  0.919470  0.028999  0.267508  1
  F  F34  1  0.581250  0.029373  0.767683  1
  F  F35  1  0.081250  0.970627  0.732317  1
