# generated using pymatgen
data_Tb3ErZr4F28
_symmetry_space_group_name_H-M   'P 1'
_cell_length_a   5.76487792
_cell_length_b   9.12354930
_cell_length_c   12.25615564
_cell_angle_alpha   62.36288428
_cell_angle_beta   90.01640119
_cell_angle_gamma   89.99896336
_symmetry_Int_Tables_number   1
_chemical_formula_structural   Tb3ErZr4F28
_chemical_formula_sum   'Tb3 Er1 Zr4 F28'
_cell_volume   571.07676211
_cell_formula_units_Z   1
loop_
 _symmetry_equiv_pos_site_id
 _symmetry_equiv_pos_as_xyz
  1  'x, y, z'
loop_
 _atom_site_type_symbol
 _atom_site_label
 _atom_site_symmetry_multiplicity
 _atom_site_fract_x
 _atom_site_fract_y
 _atom_site_fract_z
 _atom_site_occupancy
  Tb  Tb0  1  0.743485  0.815098  0.266348  1
  Tb  Tb1  1  0.243445  0.184148  0.233617  1
  Tb  Tb2  1  0.256289  0.182758  0.733850  1
  Er  Er3  1  0.756678  0.815774  0.766086  1
  Zr  Zr4  1  0.744811  0.272545  0.455818  1
  Zr  Zr5  1  0.244641  0.726048  0.043232  1
  Zr  Zr6  1  0.256007  0.725895  0.547062  1
  Zr  Zr7  1  0.755650  0.276025  0.953847  1
  F  F8  1  0.468991  0.712495  0.919780  1
  F  F9  1  0.967454  0.287666  0.579224  1
  F  F10  1  0.533067  0.289291  0.077998  1
  F  F11  1  0.032903  0.711957  0.423090  1
  F  F12  1  0.453929  0.279141  0.550261  1
  F  F13  1  0.953486  0.721374  0.947402  1
  F  F14  1  0.545572  0.720082  0.451238  1
  F  F15  1  0.046453  0.280906  0.049053  1
  F  F16  1  0.766781  0.527634  0.857323  1
  F  F17  1  0.267176  0.474797  0.643116  1
  F  F18  1  0.231146  0.475147  0.140438  1
  F  F19  1  0.732323  0.524076  0.359374  1
  F  F20  1  0.759414  0.025531  0.057818  1
  F  F21  1  0.259620  0.976184  0.442619  1
  F  F22  1  0.240780  0.976764  0.941086  1
  F  F23  1  0.740889  0.022106  0.560011  1
  F  F24  1  0.986653  0.735466  0.652155  1
  F  F25  1  0.486741  0.265399  0.849354  1
  F  F26  1  0.014904  0.264923  0.351065  1
  F  F27  1  0.514201  0.734792  0.148395  1
  F  F28  1  0.032807  0.747356  0.170570  1
  F  F29  1  0.533690  0.252007  0.328157  1
  F  F30  1  0.966121  0.254155  0.826668  1
  F  F31  1  0.469717  0.748241  0.673683  1
  F  F32  1  0.429360  0.972801  0.234948  1
  F  F33  1  0.929120  0.026611  0.265096  1
  F  F34  1  0.570258  0.022696  0.764715  1
  F  F35  1  0.065441  0.972109  0.735506  1
