# generated using pymatgen
data_PrTaTiBi2O9
_symmetry_space_group_name_H-M   'P 1'
_cell_length_a   5.49751800
_cell_length_b   5.48120108
_cell_length_c   13.07406834
_cell_angle_alpha   77.99104405
_cell_angle_beta   90.00000000
_cell_angle_gamma   90.00000000
_symmetry_Int_Tables_number   1
_chemical_formula_structural   PrTaTiBi2O9
_chemical_formula_sum   'Pr2 Ta2 Ti2 Bi4 O18'
_cell_volume   385.33912276
_cell_formula_units_Z   2
loop_
 _symmetry_equiv_pos_site_id
 _symmetry_equiv_pos_as_xyz
  1  'x, y, z'
loop_
 _atom_site_type_symbol
 _atom_site_label
 _atom_site_symmetry_multiplicity
 _atom_site_fract_x
 _atom_site_fract_y
 _atom_site_fract_z
 _atom_site_occupancy
  Pr  Pr0  1  0.509934  0.247337  0.999614  1
  Pr  Pr1  1  0.009934  0.752663  0.000386  1
  Ta  Ta2  1  0.538573  0.827674  0.830751  1
  Ta  Ta3  1  0.038573  0.172326  0.169249  1
  Ti  Ti4  1  0.535818  0.667807  0.173913  1
  Ti  Ti5  1  0.035818  0.332193  0.826087  1
  Bi  Bi6  1  0.464328  0.023258  0.399210  1
  Bi  Bi7  1  0.462969  0.421882  0.601379  1
  Bi  Bi8  1  0.964328  0.976742  0.600790  1
  Bi  Bi9  1  0.962969  0.578118  0.398621  1
  O  O10  1  0.561704  0.681271  0.995995  1
  O  O11  1  0.061704  0.318729  0.004005  1
  O  O12  1  0.836193  0.460056  0.170518  1
  O  O13  1  0.840933  0.621903  0.829418  1
  O  O14  1  0.336193  0.539944  0.829482  1
  O  O15  1  0.340933  0.378097  0.170582  1
  O  O16  1  0.545472  0.671899  0.310383  1
  O  O17  1  0.544833  0.981324  0.686848  1
  O  O18  1  0.045472  0.328101  0.689617  1
  O  O19  1  0.044833  0.018676  0.313152  1
  O  O20  1  0.774043  0.964869  0.125769  1
  O  O21  1  0.775887  0.088605  0.874252  1
  O  O22  1  0.274043  0.035131  0.874231  1
  O  O23  1  0.275887  0.911395  0.125748  1
  O  O24  1  0.735130  0.261233  0.498670  1
  O  O25  1  0.734884  0.759538  0.500913  1
  O  O26  1  0.235130  0.738767  0.501330  1
  O  O27  1  0.234884  0.240462  0.499087  1
