# generated using pymatgen
data_Zr3ScFeOs7
_symmetry_space_group_name_H-M   'P 1'
_cell_length_a   5.24983200
_cell_length_b   5.16726542
_cell_length_c   8.57096664
_cell_angle_alpha   89.92285653
_cell_angle_beta   90.00000000
_cell_angle_gamma   120.53000932
_symmetry_Int_Tables_number   1
_chemical_formula_structural   Zr3ScFeOs7
_chemical_formula_sum   'Zr3 Sc1 Fe1 Os7'
_cell_volume   200.27270801
_cell_formula_units_Z   1
loop_
 _symmetry_equiv_pos_site_id
 _symmetry_equiv_pos_as_xyz
  1  'x, y, z'
loop_
 _atom_site_type_symbol
 _atom_site_label
 _atom_site_symmetry_multiplicity
 _atom_site_fract_x
 _atom_site_fract_y
 _atom_site_fract_z
 _atom_site_occupancy
  Zr  Zr0  1  0.332186  0.664374  0.432379  1
  Zr  Zr1  1  0.666433  0.332866  0.568710  1
  Zr  Zr2  1  0.666113  0.332227  0.935300  1
  Sc  Sc3  1  0.331645  0.663292  0.062024  1
  Fe  Fe4  1  0.169374  0.338748  0.749531  1
  Os  Os5  1  0.173193  0.825491  0.750088  1
  Os  Os6  1  0.343402  0.171425  0.249661  1
  Os  Os7  1  0.828788  0.657576  0.250774  1
  Os  Os8  1  0.652298  0.825491  0.750088  1
  Os  Os9  1  0.003776  0.007553  0.998061  1
  Os  Os10  1  0.828021  0.171425  0.249661  1
  Os  Os11  1  0.004766  0.009533  0.503723  1
