# generated using pymatgen
data_CePr3Dy4(CdRu)2
_symmetry_space_group_name_H-M   'P 1'
_cell_length_a   9.88578354
_cell_length_b   9.75720565
_cell_length_c   9.75720551
_cell_angle_alpha   59.67600151
_cell_angle_beta   59.56311795
_cell_angle_gamma   59.56311188
_symmetry_Int_Tables_number   1
_chemical_formula_structural   CePr3Dy4(CdRu)2
_chemical_formula_sum   'Ce2 Pr6 Dy8 Cd4 Ru4'
_cell_volume   659.45753931
_cell_formula_units_Z   2
loop_
 _symmetry_equiv_pos_site_id
 _symmetry_equiv_pos_as_xyz
  1  'x, y, z'
loop_
 _atom_site_type_symbol
 _atom_site_label
 _atom_site_symmetry_multiplicity
 _atom_site_fract_x
 _atom_site_fract_y
 _atom_site_fract_z
 _atom_site_occupancy
  Ce  Ce0  1  0.976398  0.339228  0.339228  1
  Ce  Ce1  1  0.345145  0.339228  0.339228  1
  Pr  Pr2  1  0.559452  0.556955  0.942219  1
  Pr  Pr3  1  0.941375  0.556955  0.942219  1
  Pr  Pr4  1  0.558099  0.941901  0.941901  1
  Pr  Pr5  1  0.941375  0.942219  0.556955  1
  Pr  Pr6  1  0.559452  0.942219  0.556955  1
  Pr  Pr7  1  0.942081  0.557919  0.557919  1
  Dy  Dy8  1  0.186120  0.187838  0.813899  1
  Dy  Dy9  1  0.812144  0.187838  0.813899  1
  Dy  Dy10  1  0.185905  0.814095  0.814094  1
  Dy  Dy11  1  0.812144  0.813900  0.187838  1
  Dy  Dy12  1  0.186119  0.813899  0.187837  1
  Dy  Dy13  1  0.812707  0.187293  0.187293  1
  Dy  Dy14  1  0.347946  0.348091  0.956017  1
  Dy  Dy15  1  0.347946  0.956017  0.348091  1
  Cd  Cd16  1  0.579608  0.577887  0.262897  1
  Cd  Cd17  1  0.579608  0.262897  0.577887  1
  Cd  Cd18  1  0.263411  0.578483  0.578483  1
  Cd  Cd19  1  0.579622  0.578483  0.578483  1
  Ru  Ru20  1  0.138778  0.150390  0.572054  1
  Ru  Ru21  1  0.138778  0.572054  0.150390  1
  Ru  Ru22  1  0.574011  0.147107  0.147107  1
  Ru  Ru23  1  0.131776  0.147107  0.147107  1
