# generated using pymatgen
data_TbNd15MgAg3Rh4
_symmetry_space_group_name_H-M   'P 1'
_cell_length_a   9.85169429
_cell_length_b   9.90886094
_cell_length_c   9.90886027
_cell_angle_alpha   60.15671056
_cell_angle_beta   59.86396675
_cell_angle_gamma   59.86396275
_symmetry_Int_Tables_number   1
_chemical_formula_structural   TbNd15MgAg3Rh4
_chemical_formula_sum   'Tb1 Nd15 Mg1 Ag3 Rh4'
_cell_volume   683.37155206
_cell_formula_units_Z   1
loop_
 _symmetry_equiv_pos_site_id
 _symmetry_equiv_pos_as_xyz
  1  'x, y, z'
loop_
 _atom_site_type_symbol
 _atom_site_label
 _atom_site_symmetry_multiplicity
 _atom_site_fract_x
 _atom_site_fract_y
 _atom_site_fract_z
 _atom_site_occupancy
  Tb  Tb0  1  0.597659  0.596965  0.596965  1
  Nd  Nd1  1  0.598093  0.598931  0.204575  1
  Nd  Nd2  1  0.598093  0.204575  0.598931  1
  Nd  Nd3  1  0.191271  0.602838  0.602838  1
  Nd  Nd4  1  0.057305  0.441204  0.441204  1
  Nd  Nd5  1  0.436107  0.062231  0.062231  1
  Nd  Nd6  1  0.438195  0.060127  0.438468  1
  Nd  Nd7  1  0.057654  0.441235  0.059272  1
  Nd  Nd8  1  0.438195  0.438468  0.060127  1
  Nd  Nd9  1  0.057654  0.059272  0.441235  1
  Nd  Nd10  1  0.188230  0.813134  0.813134  1
  Nd  Nd11  1  0.813467  0.186365  0.186365  1
  Nd  Nd12  1  0.811632  0.189505  0.813308  1
  Nd  Nd13  1  0.186496  0.813046  0.185822  1
  Nd  Nd14  1  0.811632  0.813308  0.189505  1
  Nd  Nd15  1  0.186496  0.185822  0.813046  1
  Mg  Mg16  1  0.543407  0.817356  0.817356  1
  Ag  Ag17  1  0.831341  0.834419  0.834419  1
  Ag  Ag18  1  0.829617  0.832466  0.501835  1
  Ag  Ag19  1  0.829617  0.501835  0.832466  1
  Rh  Rh20  1  0.389392  0.392839  0.392839  1
  Rh  Rh21  1  0.393443  0.397227  0.821380  1
  Rh  Rh22  1  0.393443  0.821380  0.397227  1
  Rh  Rh23  1  0.821552  0.395452  0.395452  1
