# generated using pymatgen
data_Sm4Gd4Be3Si12Rh
_symmetry_space_group_name_H-M   'P 1'
_cell_length_a   7.97985653
_cell_length_b   7.98371317
_cell_length_c   8.28793216
_cell_angle_alpha   90.00000199
_cell_angle_beta   89.95510804
_cell_angle_gamma   120.01598880
_symmetry_Int_Tables_number   1
_chemical_formula_structural   Sm4Gd4Be3Si12Rh
_chemical_formula_sum   'Sm4 Gd4 Be3 Si12 Rh1'
_cell_volume   457.20045800
_cell_formula_units_Z   1
loop_
 _symmetry_equiv_pos_site_id
 _symmetry_equiv_pos_as_xyz
  1  'x, y, z'
loop_
 _atom_site_type_symbol
 _atom_site_label
 _atom_site_symmetry_multiplicity
 _atom_site_fract_x
 _atom_site_fract_y
 _atom_site_fract_z
 _atom_site_occupancy
  Sm  Sm0  1  0.000081  0.000040  0.251107  1
  Sm  Sm1  1  0.999879  0.999939  0.748689  1
  Sm  Sm2  1  0.500217  0.499596  0.251367  1
  Sm  Sm3  1  0.500217  0.000620  0.251367  1
  Gd  Gd4  1  0.000644  0.500323  0.250733  1
  Gd  Gd5  1  0.499996  0.500249  0.749034  1
  Gd  Gd6  1  0.499996  0.999746  0.749034  1
  Gd  Gd7  1  0.999850  0.499925  0.748671  1
  Be  Be8  1  0.333332  0.666666  0.501024  1
  Be  Be9  1  0.666779  0.333389  0.502823  1
  Be  Be10  1  0.666884  0.333442  0.997823  1
  Si  Si11  1  0.172940  0.826511  0.501000  1
  Si  Si12  1  0.172940  0.346428  0.501000  1
  Si  Si13  1  0.654141  0.827070  0.502313  1
  Si  Si14  1  0.827613  0.173229  0.501110  1
  Si  Si15  1  0.827613  0.654385  0.501110  1
  Si  Si16  1  0.345016  0.172509  0.502618  1
  Si  Si17  1  0.829798  0.170522  0.998901  1
  Si  Si18  1  0.829798  0.659277  0.998901  1
  Si  Si19  1  0.340183  0.170093  0.997367  1
  Si  Si20  1  0.168283  0.831225  0.999511  1
  Si  Si21  1  0.168283  0.337057  0.999511  1
  Si  Si22  1  0.663170  0.831585  0.998280  1
  Rh  Rh23  1  0.332348  0.666175  0.996707  1
