# generated using pymatgen
data_Sc6Ga7Co16
_symmetry_space_group_name_H-M   'P 1'
_cell_length_a   8.26784683
_cell_length_b   8.27698444
_cell_length_c   8.26560500
_cell_angle_alpha   59.99497747
_cell_angle_beta   59.95453948
_cell_angle_gamma   59.99023044
_symmetry_Int_Tables_number   1
_chemical_formula_structural   Sc6Ga7Co16
_chemical_formula_sum   'Sc6 Ga7 Co16'
_cell_volume   399.78477586
_cell_formula_units_Z   1
loop_
 _symmetry_equiv_pos_site_id
 _symmetry_equiv_pos_as_xyz
  1  'x, y, z'
loop_
 _atom_site_type_symbol
 _atom_site_label
 _atom_site_symmetry_multiplicity
 _atom_site_fract_x
 _atom_site_fract_y
 _atom_site_fract_z
 _atom_site_occupancy
  Sc  Sc0  1  0.721637  0.721570  0.278521  1
  Sc  Sc1  1  0.278287  0.721567  0.278505  1
  Sc  Sc2  1  0.721570  0.278329  0.278497  1
  Sc  Sc3  1  0.278363  0.278430  0.721479  1
  Sc  Sc4  1  0.721713  0.278433  0.721495  1
  Sc  Sc5  1  0.278430  0.721671  0.721503  1
  Ga  Ga6  1  0.000000  0.000000  0.000000  1
  Ga  Ga7  1  0.000000  0.000000  0.500000  1
  Ga  Ga8  1  0.500000  0.000000  0.500000  1
  Ga  Ga9  1  0.000000  0.500000  0.500000  1
  Ga  Ga10  1  0.500000  0.500000  0.000000  1
  Ga  Ga11  1  0.000000  0.500000  0.000000  1
  Ga  Ga12  1  0.500000  0.000000  0.000000  1
  Co  Co13  1  0.876473  0.876242  0.370903  1
  Co  Co14  1  0.876370  0.371040  0.876360  1
  Co  Co15  1  0.370972  0.876223  0.876449  1
  Co  Co16  1  0.876418  0.876139  0.876418  1
  Co  Co17  1  0.123527  0.123758  0.629097  1
  Co  Co18  1  0.123630  0.628960  0.123640  1
  Co  Co19  1  0.629028  0.123777  0.123551  1
  Co  Co20  1  0.123582  0.123861  0.123582  1
  Co  Co21  1  0.676042  0.676125  0.971706  1
  Co  Co22  1  0.676265  0.971239  0.676156  1
  Co  Co23  1  0.971745  0.676136  0.675961  1
  Co  Co24  1  0.676126  0.676182  0.676000  1
  Co  Co25  1  0.323958  0.323875  0.028294  1
  Co  Co26  1  0.323735  0.028761  0.323844  1
  Co  Co27  1  0.028255  0.323864  0.324039  1
  Co  Co28  1  0.323874  0.323818  0.324000  1
