# generated using pymatgen
data_Nb8PdSe20
_symmetry_space_group_name_H-M   'P 1'
_cell_length_a   10.82217398
_cell_length_b   10.82217519
_cell_length_c   19.80132925
_cell_angle_alpha   76.02647983
_cell_angle_beta   76.02647855
_cell_angle_gamma   18.57120800
_symmetry_Int_Tables_number   1
_chemical_formula_structural   Nb8PdSe20
_chemical_formula_sum   'Nb8 Pd1 Se20'
_cell_volume   716.15010512
_cell_formula_units_Z   1
loop_
 _symmetry_equiv_pos_site_id
 _symmetry_equiv_pos_as_xyz
  1  'x, y, z'
loop_
 _atom_site_type_symbol
 _atom_site_label
 _atom_site_symmetry_multiplicity
 _atom_site_fract_x
 _atom_site_fract_y
 _atom_site_fract_z
 _atom_site_occupancy
  Nb  Nb0  1  0.079740  0.079740  0.093604  1
  Nb  Nb1  1  0.920260  0.920260  0.906396  1
  Nb  Nb2  1  0.329334  0.329334  0.808809  1
  Nb  Nb3  1  0.670666  0.670666  0.191191  1
  Nb  Nb4  1  0.264777  0.264777  0.281553  1
  Nb  Nb5  1  0.735223  0.735223  0.718447  1
  Nb  Nb6  1  0.157498  0.157498  0.554535  1
  Nb  Nb7  1  0.842502  0.842502  0.445465  1
  Pd  Pd8  1  0.500000  0.500000  0.000000  1
  Se  Se9  1  0.437546  0.437546  0.394296  1
  Se  Se10  1  0.562454  0.562454  0.605704  1
  Se  Se11  1  0.398230  0.398230  0.516558  1
  Se  Se12  1  0.601770  0.601770  0.483442  1
  Se  Se13  1  0.149962  0.149962  0.692963  1
  Se  Se14  1  0.850038  0.850038  0.307037  1
  Se  Se15  1  0.382942  0.382942  0.006172  1
  Se  Se16  1  0.617058  0.617058  0.993828  1
  Se  Se17  1  0.204899  0.204899  0.820875  1
  Se  Se18  1  0.795101  0.795101  0.179125  1
  Se  Se19  1  0.253182  0.253182  0.429372  1
  Se  Se20  1  0.746818  0.746818  0.570628  1
  Se  Se21  1  0.329369  0.329369  0.675982  1
  Se  Se22  1  0.670631  0.670631  0.324018  1
  Se  Se23  1  0.486318  0.486318  0.128456  1
  Se  Se24  1  0.513682  0.513682  0.871544  1
  Se  Se25  1  0.203238  0.203238  0.090637  1
  Se  Se26  1  0.796762  0.796762  0.909363  1
  Se  Se27  1  0.076829  0.076829  0.227792  1
  Se  Se28  1  0.923171  0.923171  0.772208  1
