# generated using pymatgen
data_Dy10TlBi5Se2
_symmetry_space_group_name_H-M   'P 1'
_cell_length_a   9.24948200
_cell_length_b   9.25918128
_cell_length_c   6.65265900
_cell_angle_alpha   90.00000000
_cell_angle_beta   90.00000000
_cell_angle_gamma   120.03469900
_symmetry_Int_Tables_number   1
_chemical_formula_structural   Dy10TlBi5Se2
_chemical_formula_sum   'Dy10 Tl1 Bi5 Se2'
_cell_volume   493.24641327
_cell_formula_units_Z   1
loop_
 _symmetry_equiv_pos_site_id
 _symmetry_equiv_pos_as_xyz
  1  'x, y, z'
loop_
 _atom_site_type_symbol
 _atom_site_label
 _atom_site_symmetry_multiplicity
 _atom_site_fract_x
 _atom_site_fract_y
 _atom_site_fract_z
 _atom_site_occupancy
  Dy  Dy0  1  0.670285  0.334389  0.001347  1
  Dy  Dy1  1  0.329715  0.664105  0.001347  1
  Dy  Dy2  1  0.329715  0.664105  0.498653  1
  Dy  Dy3  1  0.670285  0.334389  0.498653  1
  Dy  Dy4  1  0.746741  0.746967  0.750000  1
  Dy  Dy5  1  0.253259  0.000225  0.750000  1
  Dy  Dy6  1  0.000000  0.252660  0.750000  1
  Dy  Dy7  1  0.249788  0.255329  0.250000  1
  Dy  Dy8  1  0.750212  0.005542  0.250000  1
  Dy  Dy9  1  0.000000  0.744401  0.250000  1
  Tl  Tl10  1  0.000000  0.395903  0.250000  1
  Bi  Bi11  1  0.394618  0.394136  0.750000  1
  Bi  Bi12  1  0.605382  0.999519  0.750000  1
  Bi  Bi13  1  0.000000  0.603744  0.750000  1
  Bi  Bi14  1  0.605789  0.606563  0.250000  1
  Bi  Bi15  1  0.394211  0.000774  0.250000  1
  Se  Se16  1  0.000000  0.998623  0.999738  1
  Se  Se17  1  0.000000  0.998623  0.500262  1
