# generated using pymatgen
data_Tb12AlNi4Pd
_symmetry_space_group_name_H-M   'P 1'
_cell_length_a   8.33676739
_cell_length_b   8.33684372
_cell_length_c   8.33676897
_cell_angle_alpha   106.73220770
_cell_angle_beta   109.79175358
_cell_angle_gamma   111.93117567
_symmetry_Int_Tables_number   1
_chemical_formula_structural   Tb12AlNi4Pd
_chemical_formula_sum   'Tb12 Al1 Ni4 Pd1'
_cell_volume   445.12022025
_cell_formula_units_Z   1
loop_
 _symmetry_equiv_pos_site_id
 _symmetry_equiv_pos_as_xyz
  1  'x, y, z'
loop_
 _atom_site_type_symbol
 _atom_site_label
 _atom_site_symmetry_multiplicity
 _atom_site_fract_x
 _atom_site_fract_y
 _atom_site_fract_z
 _atom_site_occupancy
  Tb  Tb0  1  0.692048  0.280674  0.972717  1
  Tb  Tb1  1  0.307952  0.719326  0.027283  1
  Tb  Tb2  1  0.692043  0.719326  0.411374  1
  Tb  Tb3  1  0.307957  0.280674  0.588626  1
  Tb  Tb4  1  0.805396  0.128522  0.323126  1
  Tb  Tb5  1  0.805400  0.482292  0.676891  1
  Tb  Tb6  1  0.194604  0.871478  0.676874  1
  Tb  Tb7  1  0.194600  0.517708  0.323109  1
  Tb  Tb8  1  0.612875  0.796042  0.816834  1
  Tb  Tb9  1  0.979210  0.796042  0.183167  1
  Tb  Tb10  1  0.020790  0.203958  0.816833  1
  Tb  Tb11  1  0.387125  0.203958  0.183166  1
  Al  Al12  1  0.500000  0.000000  0.500000  1
  Ni  Ni13  1  0.862259  0.500000  0.362259  1
  Ni  Ni14  1  0.137741  0.500000  0.637741  1
  Ni  Ni15  1  0.000001  0.124834  0.124832  1
  Ni  Ni16  1  0.999999  0.875166  0.875168  1
  Pd  Pd17  1  0.500000  0.500000  0.000000  1
