# generated using pymatgen
data_Dy3Er(ScIr)4
_symmetry_space_group_name_H-M   'P 1'
_cell_length_a   4.26866000
_cell_length_b   7.13237887
_cell_length_c   8.66306393
_cell_angle_alpha   89.95974317
_cell_angle_beta   90.00000000
_cell_angle_gamma   90.00000000
_symmetry_Int_Tables_number   1
_chemical_formula_structural   Dy3Er(ScIr)4
_chemical_formula_sum   'Dy3 Er1 Sc4 Ir4'
_cell_volume   263.75298359
_cell_formula_units_Z   1
loop_
 _symmetry_equiv_pos_site_id
 _symmetry_equiv_pos_as_xyz
  1  'x, y, z'
loop_
 _atom_site_type_symbol
 _atom_site_label
 _atom_site_symmetry_multiplicity
 _atom_site_fract_x
 _atom_site_fract_y
 _atom_site_fract_z
 _atom_site_occupancy
  Dy  Dy0  1  0.250000  0.981429  0.326833  1
  Dy  Dy1  1  0.250000  0.481310  0.172315  1
  Dy  Dy2  1  0.750000  0.019068  0.673108  1
  Er  Er3  1  0.750000  0.518068  0.827833  1
  Sc  Sc4  1  0.250000  0.359944  0.565868  1
  Sc  Sc5  1  0.250000  0.857799  0.934449  1
  Sc  Sc6  1  0.750000  0.641392  0.434798  1
  Sc  Sc7  1  0.750000  0.140827  0.065623  1
  Ir  Ir8  1  0.250000  0.239992  0.892532  1
  Ir  Ir9  1  0.250000  0.740048  0.606952  1
  Ir  Ir10  1  0.750000  0.759504  0.106730  1
  Ir  Ir11  1  0.750000  0.260620  0.392958  1
