# generated using pymatgen
data_Pa2AsS
_symmetry_space_group_name_H-M   'P 1'
_cell_length_a   6.74044888
_cell_length_b   6.74044933
_cell_length_c   6.74044966
_cell_angle_alpha   35.07844918
_cell_angle_beta   35.07844361
_cell_angle_gamma   35.07844651
_symmetry_Int_Tables_number   1
_chemical_formula_structural   Pa2AsS
_chemical_formula_sum   'Pa2 As1 S1'
_cell_volume   90.32266766
_cell_formula_units_Z   1
loop_
 _symmetry_equiv_pos_site_id
 _symmetry_equiv_pos_as_xyz
  1  'x, y, z'
loop_
 _atom_site_type_symbol
 _atom_site_label
 _atom_site_symmetry_multiplicity
 _atom_site_fract_x
 _atom_site_fract_y
 _atom_site_fract_z
 _atom_site_occupancy
  Pa  Pa0  1  0.243570  0.243570  0.243570  1
  Pa  Pa1  1  0.756430  0.756430  0.756430  1
  As  As2  1  0.000000  0.000000  0.000000  1
  S  S3  1  0.500000  0.500000  0.500000  1
