# generated using pymatgen
data_SrLaBO4
_symmetry_space_group_name_H-M   'P 1'
_cell_length_a   3.88555800
_cell_length_b   10.08659100
_cell_length_c   11.12683600
_cell_angle_alpha   90.00000000
_cell_angle_beta   90.00000000
_cell_angle_gamma   90.00000000
_symmetry_Int_Tables_number   1
_chemical_formula_structural   SrLaBO4
_chemical_formula_sum   'Sr4 La4 B4 O16'
_cell_volume   436.08333875
_cell_formula_units_Z   4
loop_
 _symmetry_equiv_pos_site_id
 _symmetry_equiv_pos_as_xyz
  1  'x, y, z'
loop_
 _atom_site_type_symbol
 _atom_site_label
 _atom_site_symmetry_multiplicity
 _atom_site_fract_x
 _atom_site_fract_y
 _atom_site_fract_z
 _atom_site_occupancy
  Sr  Sr0  1  0.250000  0.669204  0.078372  1
  Sr  Sr1  1  0.750000  0.330796  0.921628  1
  Sr  Sr2  1  0.750000  0.169204  0.421628  1
  Sr  Sr3  1  0.250000  0.830796  0.578372  1
  La  La4  1  0.250000  0.083339  0.118201  1
  La  La5  1  0.750000  0.916661  0.881799  1
  La  La6  1  0.750000  0.583339  0.381799  1
  La  La7  1  0.250000  0.416661  0.618201  1
  B  B8  1  0.250000  0.368215  0.200913  1
  B  B9  1  0.750000  0.631785  0.799087  1
  B  B10  1  0.750000  0.868215  0.299087  1
  B  B11  1  0.250000  0.131785  0.700913  1
  O  O12  1  0.250000  0.496619  0.246621  1
  O  O13  1  0.750000  0.503381  0.753379  1
  O  O14  1  0.750000  0.996619  0.253379  1
  O  O15  1  0.250000  0.003381  0.746621  1
  O  O16  1  0.250000  0.257788  0.277349  1
  O  O17  1  0.750000  0.742212  0.722651  1
  O  O18  1  0.750000  0.757788  0.222651  1
  O  O19  1  0.250000  0.242212  0.777349  1
  O  O20  1  0.250000  0.349384  0.075469  1
  O  O21  1  0.750000  0.650616  0.924531  1
  O  O22  1  0.750000  0.849384  0.424531  1
  O  O23  1  0.250000  0.150616  0.575469  1
  O  O24  1  0.250000  0.610626  0.497989  1
  O  O25  1  0.750000  0.389374  0.502011  1
  O  O26  1  0.750000  0.110626  0.002011  1
  O  O27  1  0.250000  0.889374  0.997989  1
