# generated using pymatgen
data_Nd5Si12Ir16Ru3
_symmetry_space_group_name_H-M   'P 1'
_cell_length_a   12.85812100
_cell_length_b   12.85812174
_cell_length_c   4.05801100
_cell_angle_alpha   90.00000000
_cell_angle_beta   90.00000000
_cell_angle_gamma   120.00000066
_symmetry_Int_Tables_number   1
_chemical_formula_structural   Nd5Si12Ir16Ru3
_chemical_formula_sum   'Nd5 Si12 Ir16 Ru3'
_cell_volume   581.03044661
_cell_formula_units_Z   1
loop_
 _symmetry_equiv_pos_site_id
 _symmetry_equiv_pos_as_xyz
  1  'x, y, z'
loop_
 _atom_site_type_symbol
 _atom_site_label
 _atom_site_symmetry_multiplicity
 _atom_site_fract_x
 _atom_site_fract_y
 _atom_site_fract_z
 _atom_site_occupancy
  Nd  Nd0  1  0.000000  0.815334  0.500000  1
  Nd  Nd1  1  0.184666  0.184666  0.500000  1
  Nd  Nd2  1  0.815334  0.000000  0.500000  1
  Nd  Nd3  1  0.333333  0.666667  0.000000  1
  Nd  Nd4  1  0.666667  0.333333  0.000000  1
  Si  Si5  1  0.000000  0.186465  0.000000  1
  Si  Si6  1  0.813535  0.813535  0.000000  1
  Si  Si7  1  0.186465  0.000000  0.000000  1
  Si  Si8  1  0.523428  0.689838  0.500000  1
  Si  Si9  1  0.310162  0.833590  0.500000  1
  Si  Si10  1  0.166410  0.476572  0.500000  1
  Si  Si11  1  0.476572  0.166410  0.500000  1
  Si  Si12  1  0.689838  0.523428  0.500000  1
  Si  Si13  1  0.833590  0.310162  0.500000  1
  Si  Si14  1  0.000000  0.628237  0.000000  1
  Si  Si15  1  0.371763  0.371763  0.000000  1
  Si  Si16  1  0.628237  0.000000  0.000000  1
  Ir  Ir17  1  0.621600  0.805727  0.000000  1
  Ir  Ir18  1  0.194273  0.815873  0.000000  1
  Ir  Ir19  1  0.184127  0.378400  0.000000  1
  Ir  Ir20  1  0.378400  0.184127  0.000000  1
  Ir  Ir21  1  0.805727  0.621600  0.000000  1
  Ir  Ir22  1  0.815873  0.194273  0.000000  1
  Ir  Ir23  1  0.511753  0.875018  0.500000  1
  Ir  Ir24  1  0.124982  0.636736  0.500000  1
  Ir  Ir25  1  0.363264  0.488247  0.500000  1
  Ir  Ir26  1  0.488247  0.363264  0.500000  1
  Ir  Ir27  1  0.875018  0.511753  0.500000  1
  Ir  Ir28  1  0.636736  0.124982  0.500000  1
  Ir  Ir29  1  0.000000  0.000000  0.000000  1
  Ir  Ir30  1  0.000000  0.444689  0.000000  1
  Ir  Ir31  1  0.555311  0.555311  0.000000  1
  Ir  Ir32  1  0.444689  0.000000  0.000000  1
  Ru  Ru33  1  0.000000  0.283136  0.500000  1
  Ru  Ru34  1  0.716864  0.716864  0.500000  1
  Ru  Ru35  1  0.283136  0.000000  0.500000  1
