# generated using pymatgen
data_Ta(PdPt3)2
_symmetry_space_group_name_H-M   'P 1'
_cell_length_a   6.32541706
_cell_length_b   6.32541593
_cell_length_c   6.28549345
_cell_angle_alpha   95.92762715
_cell_angle_beta   95.30305636
_cell_angle_gamma   143.66237416
_symmetry_Int_Tables_number   1
_chemical_formula_structural   Ta(PdPt3)2
_chemical_formula_sum   'Ta1 Pd2 Pt6'
_cell_volume   141.48792092
_cell_formula_units_Z   1
loop_
 _symmetry_equiv_pos_site_id
 _symmetry_equiv_pos_as_xyz
  1  'x, y, z'
loop_
 _atom_site_type_symbol
 _atom_site_label
 _atom_site_symmetry_multiplicity
 _atom_site_fract_x
 _atom_site_fract_y
 _atom_site_fract_z
 _atom_site_occupancy
  Ta  Ta0  1  0.000810  0.002680  0.003490  1
  Pd  Pd1  1  0.999918  0.670017  0.669935  1
  Pd  Pd2  1  0.336971  0.335592  0.672562  1
  Pt  Pt3  1  0.660197  0.337287  0.997485  1
  Pt  Pt4  1  0.337425  0.660995  0.998421  1
  Pt  Pt5  1  0.663035  0.663090  0.326127  1
  Pt  Pt6  1  0.329465  0.999683  0.329148  1
  Pt  Pt7  1  0.000251  0.330540  0.330791  1
  Pt  Pt8  1  0.671927  0.000116  0.672043  1
