# generated using pymatgen
data_Tb5Tm5Si5Sn
_symmetry_space_group_name_H-M   'P 1'
_cell_length_a   8.50200204
_cell_length_b   8.52141865
_cell_length_c   6.34320700
_cell_angle_alpha   90.00000000
_cell_angle_beta   90.00000000
_cell_angle_gamma   120.24202344
_symmetry_Int_Tables_number   1
_chemical_formula_structural   Tb5Tm5Si5Sn
_chemical_formula_sum   'Tb5 Tm5 Si5 Sn1'
_cell_volume   397.01626178
_cell_formula_units_Z   1
loop_
 _symmetry_equiv_pos_site_id
 _symmetry_equiv_pos_as_xyz
  1  'x, y, z'
loop_
 _atom_site_type_symbol
 _atom_site_label
 _atom_site_symmetry_multiplicity
 _atom_site_fract_x
 _atom_site_fract_y
 _atom_site_fract_z
 _atom_site_occupancy
  Tb  Tb0  1  0.764585  0.765002  0.250000  1
  Tb  Tb1  1  0.241524  0.989997  0.250000  1
  Tb  Tb2  1  0.241443  0.242010  0.750000  1
  Tb  Tb3  1  0.755587  0.999139  0.750000  1
  Tb  Tb4  1  0.998660  0.754086  0.750000  1
  Tm  Tm5  1  0.674175  0.331212  0.502512  1
  Tm  Tm6  1  0.331101  0.673426  0.502668  1
  Tm  Tm7  1  0.331101  0.673426  0.997332  1
  Tm  Tm8  1  0.674175  0.331212  0.997488  1
  Tm  Tm9  1  0.989221  0.241963  0.250000  1
  Si  Si10  1  0.604931  0.999858  0.250000  1
  Si  Si11  1  0.998358  0.601412  0.250000  1
  Si  Si12  1  0.604107  0.604325  0.750000  1
  Si  Si13  1  0.395062  0.001657  0.750000  1
  Si  Si14  1  0.001413  0.395295  0.750000  1
  Sn  Sn15  1  0.394559  0.395981  0.250000  1
