# generated using pymatgen
data_SmZn2Pt2Au
_symmetry_space_group_name_H-M   'P 1'
_cell_length_a   5.27718312
_cell_length_b   5.27718334
_cell_length_c   5.27718296
_cell_angle_alpha   119.41625267
_cell_angle_beta   116.47368519
_cell_angle_gamma   93.61562103
_symmetry_Int_Tables_number   1
_chemical_formula_structural   SmZn2Pt2Au
_chemical_formula_sum   'Sm1 Zn2 Pt2 Au1'
_cell_volume   106.83406566
_cell_formula_units_Z   1
loop_
 _symmetry_equiv_pos_site_id
 _symmetry_equiv_pos_as_xyz
  1  'x, y, z'
loop_
 _atom_site_type_symbol
 _atom_site_label
 _atom_site_symmetry_multiplicity
 _atom_site_fract_x
 _atom_site_fract_y
 _atom_site_fract_z
 _atom_site_occupancy
  Sm  Sm0  1  0.006890  0.006890  0.000000  1
  Zn  Zn1  1  0.618093  0.869103  0.251010  1
  Zn  Zn2  1  0.618093  0.367083  0.748990  1
  Pt  Pt3  1  0.122871  0.372626  0.750245  1
  Pt  Pt4  1  0.622380  0.372626  0.249755  1
  Au  Au5  1  0.261673  0.761673  0.500000  1
