# generated using pymatgen
data_PrAg3Ir3RhO14
_symmetry_space_group_name_H-M   'P 1'
_cell_length_a   7.22830098
_cell_length_b   7.30521568
_cell_length_c   7.24284900
_cell_angle_alpha   60.28200692
_cell_angle_beta   59.93339523
_cell_angle_gamma   60.20263377
_symmetry_Int_Tables_number   1
_chemical_formula_structural   PrAg3Ir3RhO14
_chemical_formula_sum   'Pr1 Ag3 Ir3 Rh1 O14'
_cell_volume   271.28365124
_cell_formula_units_Z   1
loop_
 _symmetry_equiv_pos_site_id
 _symmetry_equiv_pos_as_xyz
  1  'x, y, z'
loop_
 _atom_site_type_symbol
 _atom_site_label
 _atom_site_symmetry_multiplicity
 _atom_site_fract_x
 _atom_site_fract_y
 _atom_site_fract_z
 _atom_site_occupancy
  Pr  Pr0  1  0.125000  0.625000  0.125000  1
  Ag  Ag1  1  0.125000  0.125000  0.625000  1
  Ag  Ag2  1  0.125000  0.125000  0.125000  1
  Ag  Ag3  1  0.625000  0.125000  0.125000  1
  Ir  Ir4  1  0.625000  0.625000  0.625000  1
  Ir  Ir5  1  0.625000  0.125000  0.625000  1
  Ir  Ir6  1  0.625000  0.625000  0.125000  1
  Rh  Rh7  1  0.125000  0.625000  0.625000  1
  O  O8  1  0.952384  0.544605  0.544964  1
  O  O9  1  0.306257  0.299377  0.697183  1
  O  O10  1  0.952384  0.544605  0.958045  1
  O  O11  1  0.687780  0.308837  0.306317  1
  O  O12  1  0.550411  0.545945  0.951821  1
  O  O13  1  0.562220  0.941163  0.552934  1
  O  O14  1  0.562220  0.941163  0.943683  1
  O  O15  1  0.260482  0.219228  0.260144  1
  O  O16  1  0.297616  0.705395  0.705036  1
  O  O17  1  0.687780  0.308837  0.697066  1
  O  O18  1  0.989518  0.030772  0.989856  1
  O  O19  1  0.943743  0.950623  0.552817  1
  O  O20  1  0.297616  0.705395  0.291955  1
  O  O21  1  0.699589  0.704055  0.298179  1
