# generated using pymatgen
data_Tb2HfVF14
_symmetry_space_group_name_H-M   'P 1'
_cell_length_a   5.63073145
_cell_length_b   8.99539854
_cell_length_c   12.00438457
_cell_angle_alpha   62.60214231
_cell_angle_beta   89.89800376
_cell_angle_gamma   89.98628203
_symmetry_Int_Tables_number   1
_chemical_formula_structural   Tb2HfVF14
_chemical_formula_sum   'Tb4 Hf2 V2 F28'
_cell_volume   539.82802474
_cell_formula_units_Z   2
loop_
 _symmetry_equiv_pos_site_id
 _symmetry_equiv_pos_as_xyz
  1  'x, y, z'
loop_
 _atom_site_type_symbol
 _atom_site_label
 _atom_site_symmetry_multiplicity
 _atom_site_fract_x
 _atom_site_fract_y
 _atom_site_fract_z
 _atom_site_occupancy
  Tb  Tb0  1  0.257240  0.813195  0.272968  1
  Tb  Tb1  1  0.742760  0.186805  0.727032  1
  Tb  Tb2  1  0.757671  0.188696  0.238738  1
  Tb  Tb3  1  0.242329  0.811304  0.761262  1
  Hf  Hf4  1  0.754961  0.727226  0.044921  1
  Hf  Hf5  1  0.245039  0.272774  0.955079  1
  V  V6  1  0.254755  0.274517  0.455878  1
  V  V7  1  0.745245  0.725483  0.544122  1
  F  F8  1  0.949876  0.711982  0.423421  1
  F  F9  1  0.050124  0.288018  0.576579  1
  F  F10  1  0.462183  0.294281  0.078564  1
  F  F11  1  0.537817  0.705719  0.921436  1
  F  F12  1  0.481719  0.727469  0.152599  1
  F  F13  1  0.518281  0.272531  0.847401  1
  F  F14  1  0.985906  0.262633  0.365141  1
  F  F15  1  0.014094  0.737367  0.634859  1
  F  F16  1  0.964646  0.746466  0.174128  1
  F  F17  1  0.035354  0.253534  0.825872  1
  F  F18  1  0.457023  0.255428  0.334382  1
  F  F19  1  0.542977  0.744572  0.665618  1
  F  F20  1  0.777427  0.477165  0.144234  1
  F  F21  1  0.222573  0.522835  0.855766  1
  F  F22  1  0.259672  0.504030  0.366687  1
  F  F23  1  0.740328  0.495970  0.633313  1
  F  F24  1  0.951652  0.277835  0.049862  1
  F  F25  1  0.048348  0.722165  0.950138  1
  F  F26  1  0.467698  0.713985  0.455428  1
  F  F27  1  0.532302  0.286015  0.544572  1
  F  F28  1  0.737520  0.955316  0.453997  1
  F  F29  1  0.262480  0.044684  0.546003  1
  F  F30  1  0.243553  0.023877  0.058338  1
  F  F31  1  0.756447  0.976123  0.941662  1
  F  F32  1  0.575898  0.975642  0.235116  1
  F  F33  1  0.424102  0.024358  0.764884  1
  F  F34  1  0.079748  0.030257  0.271853  1
  F  F35  1  0.920252  0.969743  0.728147  1
