# generated using pymatgen
data_Zr10Si2SnBi3Pb2
_symmetry_space_group_name_H-M   'P 1'
_cell_length_a   8.82481310
_cell_length_b   8.80409618
_cell_length_c   5.94018300
_cell_angle_alpha   90.00000000
_cell_angle_beta   90.00000000
_cell_angle_gamma   119.92237405
_symmetry_Int_Tables_number   1
_chemical_formula_structural   Zr10Si2SnBi3Pb2
_chemical_formula_sum   'Zr10 Si2 Sn1 Bi3 Pb2'
_cell_volume   399.99994288
_cell_formula_units_Z   1
loop_
 _symmetry_equiv_pos_site_id
 _symmetry_equiv_pos_as_xyz
  1  'x, y, z'
loop_
 _atom_site_type_symbol
 _atom_site_label
 _atom_site_symmetry_multiplicity
 _atom_site_fract_x
 _atom_site_fract_y
 _atom_site_fract_z
 _atom_site_occupancy
  Zr  Zr0  1  0.669780  0.333826  0.005200  1
  Zr  Zr1  1  0.330220  0.664047  0.005200  1
  Zr  Zr2  1  0.330220  0.664047  0.494800  1
  Zr  Zr3  1  0.669780  0.333826  0.494800  1
  Zr  Zr4  1  0.749037  0.748212  0.750000  1
  Zr  Zr5  1  0.250963  0.999175  0.750000  1
  Zr  Zr6  1  0.000000  0.252988  0.750000  1
  Zr  Zr7  1  0.256042  0.260831  0.250000  1
  Zr  Zr8  1  0.743958  0.004789  0.250000  1
  Zr  Zr9  1  0.000000  0.737920  0.250000  1
  Si  Si10  1  0.000000  0.999433  0.003881  1
  Si  Si11  1  0.000000  0.999433  0.496119  1
  Sn  Sn12  1  0.000000  0.390905  0.250000  1
  Bi  Bi13  1  0.399422  0.397905  0.750000  1
  Bi  Bi14  1  0.600578  0.998483  0.750000  1
  Bi  Bi15  1  0.000000  0.601872  0.750000  1
  Pb  Pb16  1  0.610975  0.611642  0.250000  1
  Pb  Pb17  1  0.389025  0.000667  0.250000  1
