# generated using pymatgen
data_Dy6TaO12
_symmetry_space_group_name_H-M   'P 1'
_cell_length_a   6.48849232
_cell_length_b   6.48849150
_cell_length_c   6.48849100
_cell_angle_alpha   98.78519471
_cell_angle_beta   98.78518160
_cell_angle_gamma   98.78518774
_symmetry_Int_Tables_number   1
_chemical_formula_structural   Dy6TaO12
_chemical_formula_sum   'Dy6 Ta1 O12'
_cell_volume   262.42631376
_cell_formula_units_Z   1
loop_
 _symmetry_equiv_pos_site_id
 _symmetry_equiv_pos_as_xyz
  1  'x, y, z'
loop_
 _atom_site_type_symbol
 _atom_site_label
 _atom_site_symmetry_multiplicity
 _atom_site_fract_x
 _atom_site_fract_y
 _atom_site_fract_z
 _atom_site_occupancy
  Dy  Dy0  1  0.860688  0.388927  0.697214  1
  Dy  Dy1  1  0.611073  0.302786  0.139312  1
  Dy  Dy2  1  0.302786  0.139312  0.611073  1
  Dy  Dy3  1  0.697214  0.860688  0.388927  1
  Dy  Dy4  1  0.388927  0.697214  0.860688  1
  Dy  Dy5  1  0.139312  0.611073  0.302786  1
  Ta  Ta6  1  0.000000  0.000000  0.000000  1
  O  O7  1  0.927495  0.041429  0.696769  1
  O  O8  1  0.958571  0.303231  0.072505  1
  O  O9  1  0.587376  0.177974  0.436804  1
  O  O10  1  0.822026  0.563196  0.412624  1
  O  O11  1  0.303231  0.072505  0.958571  1
  O  O12  1  0.563196  0.412624  0.822026  1
  O  O13  1  0.436804  0.587376  0.177974  1
  O  O14  1  0.696769  0.927495  0.041429  1
  O  O15  1  0.177974  0.436804  0.587376  1
  O  O16  1  0.412624  0.822026  0.563196  1
  O  O17  1  0.041429  0.696769  0.927495  1
  O  O18  1  0.072505  0.958571  0.303231  1
