# generated using pymatgen
data_Er7Sn22Ru6Pb
_symmetry_space_group_name_H-M   'P 1'
_cell_length_a   9.83202500
_cell_length_b   9.83202489
_cell_length_c   10.07839200
_cell_angle_alpha   90.00000000
_cell_angle_beta   90.00000000
_cell_angle_gamma   120.00000375
_symmetry_Int_Tables_number   1
_chemical_formula_structural   Er7Sn22Ru6Pb
_chemical_formula_sum   'Er7 Sn22 Ru6 Pb1'
_cell_volume   843.73838017
_cell_formula_units_Z   1
loop_
 _symmetry_equiv_pos_site_id
 _symmetry_equiv_pos_as_xyz
  1  'x, y, z'
loop_
 _atom_site_type_symbol
 _atom_site_label
 _atom_site_symmetry_multiplicity
 _atom_site_fract_x
 _atom_site_fract_y
 _atom_site_fract_z
 _atom_site_occupancy
  Er  Er0  1  0.484920  0.515080  0.302747  1
  Er  Er1  1  0.515080  0.484920  0.697253  1
  Er  Er2  1  0.484920  0.969842  0.302747  1
  Er  Er3  1  0.515080  0.030158  0.697253  1
  Er  Er4  1  0.030158  0.515080  0.302747  1
  Er  Er5  1  0.969842  0.484920  0.697253  1
  Er  Er6  1  0.000000  0.000000  0.000000  1
  Sn  Sn7  1  0.119507  0.880493  0.272334  1
  Sn  Sn8  1  0.880493  0.119507  0.727666  1
  Sn  Sn9  1  0.119507  0.239015  0.272334  1
  Sn  Sn10  1  0.880493  0.760985  0.727666  1
  Sn  Sn11  1  0.760985  0.880493  0.272334  1
  Sn  Sn12  1  0.239015  0.119507  0.727666  1
  Sn  Sn13  1  0.779629  0.220371  0.462731  1
  Sn  Sn14  1  0.220371  0.779629  0.537269  1
  Sn  Sn15  1  0.779629  0.559259  0.462731  1
  Sn  Sn16  1  0.220371  0.440741  0.537269  1
  Sn  Sn17  1  0.440741  0.220371  0.462731  1
  Sn  Sn18  1  0.559259  0.779629  0.537269  1
  Sn  Sn19  1  0.348893  0.000000  0.000000  1
  Sn  Sn20  1  0.651107  0.000000  0.000000  1
  Sn  Sn21  1  0.000000  0.348893  0.000000  1
  Sn  Sn22  1  0.000000  0.651107  0.000000  1
  Sn  Sn23  1  0.651107  0.651107  0.000000  1
  Sn  Sn24  1  0.348893  0.348893  0.000000  1
  Sn  Sn25  1  0.333333  0.666667  0.129130  1
  Sn  Sn26  1  0.666667  0.333333  0.870870  1
  Sn  Sn27  1  0.333333  0.666667  0.822354  1
  Sn  Sn28  1  0.666667  0.333333  0.177646  1
  Ru  Ru29  1  0.829993  0.170007  0.202633  1
  Ru  Ru30  1  0.170007  0.829993  0.797367  1
  Ru  Ru31  1  0.829993  0.659988  0.202633  1
  Ru  Ru32  1  0.170007  0.340012  0.797367  1
  Ru  Ru33  1  0.340012  0.170007  0.202633  1
  Ru  Ru34  1  0.659988  0.829993  0.797367  1
  Pb  Pb35  1  0.000000  0.000000  0.500000  1
