# generated using pymatgen
data_HoSc7(WC2)4
_symmetry_space_group_name_H-M   'P 1'
_cell_length_a   5.56807086
_cell_length_b   5.56807187
_cell_length_c   9.53569800
_cell_angle_alpha   89.93253837
_cell_angle_beta   89.93252807
_cell_angle_gamma   89.99643223
_symmetry_Int_Tables_number   1
_chemical_formula_structural   HoSc7(WC2)4
_chemical_formula_sum   'Ho1 Sc7 W4 C8'
_cell_volume   295.63882751
_cell_formula_units_Z   1
loop_
 _symmetry_equiv_pos_site_id
 _symmetry_equiv_pos_as_xyz
  1  'x, y, z'
loop_
 _atom_site_type_symbol
 _atom_site_label
 _atom_site_symmetry_multiplicity
 _atom_site_fract_x
 _atom_site_fract_y
 _atom_site_fract_z
 _atom_site_occupancy
  Ho  Ho0  1  0.800206  0.800206  0.658031  1
  Sc  Sc1  1  0.201601  0.201601  0.342037  1
  Sc  Sc2  1  0.299363  0.703237  0.845159  1
  Sc  Sc3  1  0.703237  0.299363  0.845159  1
  Sc  Sc4  1  0.703859  0.298137  0.157971  1
  Sc  Sc5  1  0.298137  0.703859  0.157971  1
  Sc  Sc6  1  0.203367  0.203367  0.657173  1
  Sc  Sc7  1  0.795298  0.795298  0.339060  1
  W  W8  1  0.319829  0.673806  0.497244  1
  W  W9  1  0.824724  0.824724  0.002036  1
  W  W10  1  0.180740  0.180740  0.003830  1
  W  W11  1  0.673806  0.319829  0.497244  1
  C  C12  1  0.001365  0.001365  0.167300  1
  C  C13  1  0.493044  0.493044  0.664715  1
  C  C14  1  0.491842  0.998802  0.495141  1
  C  C15  1  0.498450  0.498450  0.331899  1
  C  C16  1  0.008021  0.008021  0.840197  1
  C  C17  1  0.502400  0.001909  0.001347  1
  C  C18  1  0.001909  0.502400  0.001347  1
  C  C19  1  0.998802  0.491842  0.495141  1
