# generated using pymatgen
data_Li7Ca6Zn9N
_symmetry_space_group_name_H-M   'P 1'
_cell_length_a   8.28963910
_cell_length_b   8.42905072
_cell_length_c   8.42905128
_cell_angle_alpha   111.06574879
_cell_angle_beta   109.00597994
_cell_angle_gamma   109.00598049
_symmetry_Int_Tables_number   1
_chemical_formula_structural   Li7Ca6Zn9N
_chemical_formula_sum   'Li7 Ca6 Zn9 N1'
_cell_volume   449.48942170
_cell_formula_units_Z   1
loop_
 _symmetry_equiv_pos_site_id
 _symmetry_equiv_pos_as_xyz
  1  'x, y, z'
loop_
 _atom_site_type_symbol
 _atom_site_label
 _atom_site_symmetry_multiplicity
 _atom_site_fract_x
 _atom_site_fract_y
 _atom_site_fract_z
 _atom_site_occupancy
  Li  Li0  1  0.669185  0.334593  0.334593  1
  Li  Li1  1  0.347809  0.007252  0.666500  1
  Li  Li2  1  0.347809  0.681308  0.340558  1
  Li  Li3  1  0.347809  0.340558  0.681308  1
  Li  Li4  1  0.347809  0.666500  0.007252  1
  Li  Li5  1  0.999129  0.343724  0.655405  1
  Li  Li6  1  0.999129  0.655405  0.343724  1
  Ca  Ca7  1  0.998582  0.251593  0.251593  1
  Ca  Ca8  1  0.252054  0.002934  0.249120  1
  Ca  Ca9  1  0.746436  0.998854  0.747583  1
  Ca  Ca10  1  0.746436  0.747583  0.998854  1
  Ca  Ca11  1  0.252054  0.249120  0.002934  1
  Ca  Ca12  1  0.998582  0.746989  0.746989  1
  Zn  Zn13  1  0.503241  0.504915  0.504915  1
  Zn  Zn14  1  0.503241  0.998326  0.998326  1
  Zn  Zn15  1  0.985578  0.492789  0.992789  1
  Zn  Zn16  1  0.985578  0.992789  0.492789  1
  Zn  Zn17  1  0.660027  0.654603  0.318763  1
  Zn  Zn18  1  0.660027  0.005424  0.341265  1
  Zn  Zn19  1  0.660027  0.341265  0.005424  1
  Zn  Zn20  1  0.660027  0.318763  0.654603  1
  Zn  Zn21  1  0.327812  0.663905  0.663905  1
  N  N22  1  0.001617  0.000809  0.000809  1
