# generated using pymatgen
data_Rb4Na2(TcH9)3
_symmetry_space_group_name_H-M   'P 1'
_cell_length_a   9.59192800
_cell_length_b   9.34766291
_cell_length_c   5.75091700
_cell_angle_alpha   90.00000000
_cell_angle_beta   90.00000000
_cell_angle_gamma   120.86824245
_symmetry_Int_Tables_number   1
_chemical_formula_structural   Rb4Na2(TcH9)3
_chemical_formula_sum   'Rb4 Na2 Tc3 H27'
_cell_volume   442.59873526
_cell_formula_units_Z   1
loop_
 _symmetry_equiv_pos_site_id
 _symmetry_equiv_pos_as_xyz
  1  'x, y, z'
loop_
 _atom_site_type_symbol
 _atom_site_label
 _atom_site_symmetry_multiplicity
 _atom_site_fract_x
 _atom_site_fract_y
 _atom_site_fract_z
 _atom_site_occupancy
  Rb  Rb0  1  0.253052  0.000000  0.500000  1
  Rb  Rb1  1  0.591993  0.000000  0.000000  1
  Rb  Rb2  1  0.000938  0.586146  0.000000  1
  Rb  Rb3  1  0.414791  0.413854  0.000000  1
  Na  Na4  1  0.996815  0.269396  0.500000  1
  Na  Na5  1  0.727421  0.730604  0.500000  1
  Tc  Tc6  1  0.982318  0.000000  0.000000  1
  Tc  Tc7  1  0.337386  0.653572  0.500000  1
  Tc  Tc8  1  0.683817  0.346428  0.500000  1
  H  H9  1  0.862004  0.000000  0.215182  1
  H  H10  1  0.976345  0.866934  0.205394  1
  H  H11  1  0.862004  0.000000  0.784818  1
  H  H12  1  0.976345  0.866934  0.794606  1
  H  H13  1  0.109412  0.133066  0.205394  1
  H  H14  1  0.109412  0.133066  0.794606  1
  H  H15  1  0.156452  0.000000  0.000000  1
  H  H16  1  0.979812  0.176952  0.000000  1
  H  H17  1  0.802859  0.823048  0.000000  1
  H  H18  1  0.222502  0.511483  0.294063  1
  H  H19  1  0.479235  0.687208  0.296186  1
  H  H20  1  0.222502  0.511483  0.705937  1
  H  H21  1  0.553199  0.241462  0.718135  1
  H  H22  1  0.311737  0.758538  0.281865  1
  H  H23  1  0.479235  0.687208  0.703814  1
  H  H24  1  0.711020  0.488517  0.705937  1
  H  H25  1  0.553199  0.241462  0.281865  1
  H  H26  1  0.311737  0.758538  0.718135  1
  H  H27  1  0.711020  0.488517  0.294063  1
  H  H28  1  0.792025  0.312792  0.703814  1
  H  H29  1  0.792025  0.312792  0.296186  1
  H  H30  1  0.371508  0.496851  0.500000  1
  H  H31  1  0.483816  0.853629  0.500000  1
  H  H32  1  0.526291  0.375358  0.500000  1
  H  H33  1  0.150935  0.624642  0.500000  1
  H  H34  1  0.874656  0.503149  0.500000  1
  H  H35  1  0.630187  0.146371  0.500000  1
