# generated using pymatgen
data_Li7Dy7YCdSn8
_symmetry_space_group_name_H-M   'P 1'
_cell_length_a   9.45022100
_cell_length_b   9.43967625
_cell_length_c   7.30363787
_cell_angle_alpha   90.15336668
_cell_angle_beta   90.00000000
_cell_angle_gamma   120.03696265
_symmetry_Int_Tables_number   1
_chemical_formula_structural   Li7Dy7YCdSn8
_chemical_formula_sum   'Li7 Dy7 Y1 Cd1 Sn8'
_cell_volume   564.03359766
_cell_formula_units_Z   1
loop_
 _symmetry_equiv_pos_site_id
 _symmetry_equiv_pos_as_xyz
  1  'x, y, z'
loop_
 _atom_site_type_symbol
 _atom_site_label
 _atom_site_symmetry_multiplicity
 _atom_site_fract_x
 _atom_site_fract_y
 _atom_site_fract_z
 _atom_site_occupancy
  Li  Li0  1  0.164219  0.832223  0.289827  1
  Li  Li1  1  0.668004  0.832223  0.289827  1
  Li  Li2  1  0.833175  0.666351  0.791228  1
  Li  Li3  1  0.831698  0.165861  0.788490  1
  Li  Li4  1  0.334164  0.165861  0.788490  1
  Li  Li5  1  0.333297  0.666597  0.675861  1
  Li  Li6  1  0.668921  0.337841  0.172714  1
  Dy  Dy7  1  0.516629  0.490186  0.494745  1
  Dy  Dy8  1  0.973558  0.490186  0.494745  1
  Dy  Dy9  1  0.488639  0.977277  0.988638  1
  Dy  Dy10  1  0.488547  0.512132  0.992639  1
  Dy  Dy11  1  0.023585  0.512132  0.992639  1
  Dy  Dy12  1  0.996651  0.993303  0.502610  1
  Dy  Dy13  1  0.000558  0.001116  0.999459  1
  Y  Y14  1  0.511549  0.023098  0.497465  1
  Cd  Cd15  1  0.166712  0.333422  0.297420  1
  Sn  Sn16  1  0.166118  0.332234  0.735427  1
  Sn  Sn17  1  0.165800  0.832172  0.728534  1
  Sn  Sn18  1  0.666372  0.832172  0.728534  1
  Sn  Sn19  1  0.833789  0.667576  0.229932  1
  Sn  Sn20  1  0.822833  0.161934  0.223919  1
  Sn  Sn21  1  0.339101  0.161934  0.223919  1
  Sn  Sn22  1  0.339091  0.678183  0.255016  1
  Sn  Sn23  1  0.666993  0.333985  0.759921  1
