# generated using pymatgen
data_PrErFe3P7Ru9
_symmetry_space_group_name_H-M   'P 1'
_cell_length_a   9.32687200
_cell_length_b   9.32687056
_cell_length_c   3.86363400
_cell_angle_alpha   90.00000000
_cell_angle_beta   90.00000000
_cell_angle_gamma   119.99999803
_symmetry_Int_Tables_number   1
_chemical_formula_structural   PrErFe3P7Ru9
_chemical_formula_sum   'Pr1 Er1 Fe3 P7 Ru9'
_cell_volume   291.07076384
_cell_formula_units_Z   1
loop_
 _symmetry_equiv_pos_site_id
 _symmetry_equiv_pos_as_xyz
  1  'x, y, z'
loop_
 _atom_site_type_symbol
 _atom_site_label
 _atom_site_symmetry_multiplicity
 _atom_site_fract_x
 _atom_site_fract_y
 _atom_site_fract_z
 _atom_site_occupancy
  Pr  Pr0  1  0.000000  0.000000  0.000000  1
  Er  Er1  1  0.333333  0.666667  0.500000  1
  Fe  Fe2  1  0.823598  0.223685  0.000000  1
  Fe  Fe3  1  0.776315  0.599913  0.000000  1
  Fe  Fe4  1  0.400087  0.176402  0.000000  1
  P  P5  1  0.080700  0.441676  0.000000  1
  P  P6  1  0.558324  0.639024  0.000000  1
  P  P7  1  0.360976  0.919300  0.000000  1
  P  P8  1  0.779577  0.054090  0.500000  1
  P  P9  1  0.945910  0.725486  0.500000  1
  P  P10  1  0.274514  0.220423  0.500000  1
  P  P11  1  0.666667  0.333333  0.000000  1
  Ru  Ru12  1  0.087399  0.691532  0.000000  1
  Ru  Ru13  1  0.308468  0.395867  0.000000  1
  Ru  Ru14  1  0.604133  0.912601  0.000000  1
  Ru  Ru15  1  0.053872  0.285709  0.500000  1
  Ru  Ru16  1  0.714291  0.768162  0.500000  1
  Ru  Ru17  1  0.231838  0.946128  0.500000  1
  Ru  Ru18  1  0.869763  0.448543  0.500000  1
  Ru  Ru19  1  0.551457  0.421220  0.500000  1
  Ru  Ru20  1  0.578780  0.130237  0.500000  1
