# generated using pymatgen
data_Dy16In4CoNi2Ir
_symmetry_space_group_name_H-M   'P 1'
_cell_length_a   9.60173227
_cell_length_b   9.58077672
_cell_length_c   9.57808600
_cell_angle_alpha   60.00922727
_cell_angle_beta   60.08170067
_cell_angle_gamma   60.16042228
_symmetry_Int_Tables_number   1
_chemical_formula_structural   Dy16In4CoNi2Ir
_chemical_formula_sum   'Dy16 In4 Co1 Ni2 Ir1'
_cell_volume   624.21800958
_cell_formula_units_Z   1
loop_
 _symmetry_equiv_pos_site_id
 _symmetry_equiv_pos_as_xyz
  1  'x, y, z'
loop_
 _atom_site_type_symbol
 _atom_site_label
 _atom_site_symmetry_multiplicity
 _atom_site_fract_x
 _atom_site_fract_y
 _atom_site_fract_z
 _atom_site_occupancy
  Dy  Dy0  1  0.594709  0.600988  0.596272  1
  Dy  Dy1  1  0.594715  0.600995  0.208023  1
  Dy  Dy2  1  0.597316  0.201772  0.600465  1
  Dy  Dy3  1  0.205389  0.600540  0.597042  1
  Dy  Dy4  1  0.061266  0.440611  0.438873  1
  Dy  Dy5  1  0.440590  0.057473  0.064373  1
  Dy  Dy6  1  0.440592  0.057458  0.437564  1
  Dy  Dy7  1  0.061279  0.440610  0.059238  1
  Dy  Dy8  1  0.440364  0.439141  0.060236  1
  Dy  Dy9  1  0.064502  0.056194  0.439652  1
  Dy  Dy10  1  0.187857  0.814286  0.809840  1
  Dy  Dy11  1  0.813625  0.189916  0.189096  1
  Dy  Dy12  1  0.813622  0.189914  0.807363  1
  Dy  Dy13  1  0.187858  0.814290  0.188011  1
  Dy  Dy14  1  0.811775  0.810296  0.188961  1
  Dy  Dy15  1  0.187726  0.188687  0.811795  1
  In  In16  1  0.832749  0.832095  0.832665  1
  In  In17  1  0.832748  0.832094  0.502490  1
  In  In18  1  0.832026  0.503921  0.832025  1
  In  In19  1  0.503388  0.831563  0.832523  1
  Co  Co20  1  0.389982  0.825162  0.392429  1
  Ni  Ni21  1  0.390717  0.390848  0.393528  1
  Ni  Ni22  1  0.390721  0.390851  0.824925  1
  Ir  Ir23  1  0.824484  0.390295  0.392610  1
