# generated using pymatgen
data_Ho9Er(AlBi2)2
_symmetry_space_group_name_H-M   'P 1'
_cell_length_a   8.98918900
_cell_length_b   8.98304344
_cell_length_c   6.45423200
_cell_angle_alpha   89.99957904
_cell_angle_beta   90.00031869
_cell_angle_gamma   119.83650255
_symmetry_Int_Tables_number   1
_chemical_formula_structural   Ho9Er(AlBi2)2
_chemical_formula_sum   'Ho9 Er1 Al2 Bi4'
_cell_volume   452.09776966
_cell_formula_units_Z   1
loop_
 _symmetry_equiv_pos_site_id
 _symmetry_equiv_pos_as_xyz
  1  'x, y, z'
loop_
 _atom_site_type_symbol
 _atom_site_label
 _atom_site_symmetry_multiplicity
 _atom_site_fract_x
 _atom_site_fract_y
 _atom_site_fract_z
 _atom_site_occupancy
  Ho  Ho0  1  0.669025  0.325895  0.507054  1
  Ho  Ho1  1  0.325885  0.669098  0.507054  1
  Ho  Ho2  1  0.325886  0.669100  0.992944  1
  Ho  Ho3  1  0.669025  0.325898  0.992942  1
  Ho  Ho4  1  0.761850  0.761800  0.249997  1
  Ho  Ho5  1  0.236678  0.998655  0.250001  1
  Ho  Ho6  1  0.232888  0.232903  0.750005  1
  Ho  Ho7  1  0.765890  0.013750  0.750004  1
  Ho  Ho8  1  0.013787  0.766075  0.749999  1
  Er  Er9  1  0.998568  0.236444  0.250009  1
  Al  Al10  1  0.397393  0.001480  0.749997  1
  Al  Al11  1  0.001450  0.397408  0.750001  1
  Bi  Bi12  1  0.394666  0.394845  0.250004  1
  Bi  Bi13  1  0.601034  0.995512  0.249998  1
  Bi  Bi14  1  0.995394  0.600539  0.249996  1
  Bi  Bi15  1  0.610580  0.610599  0.749999  1
