# generated using pymatgen
data_Ca3Si2(PPd5)4
_symmetry_space_group_name_H-M   'P 1'
_cell_length_a   8.68854486
_cell_length_b   8.68336454
_cell_length_c   8.68854400
_cell_angle_alpha   60.01971073
_cell_angle_beta   59.92923111
_cell_angle_gamma   60.01971721
_symmetry_Int_Tables_number   1
_chemical_formula_structural   Ca3Si2(PPd5)4
_chemical_formula_sum   'Ca3 Si2 P4 Pd20'
_cell_volume   463.40795083
_cell_formula_units_Z   1
loop_
 _symmetry_equiv_pos_site_id
 _symmetry_equiv_pos_as_xyz
  1  'x, y, z'
loop_
 _atom_site_type_symbol
 _atom_site_label
 _atom_site_symmetry_multiplicity
 _atom_site_fract_x
 _atom_site_fract_y
 _atom_site_fract_z
 _atom_site_occupancy
  Ca  Ca0  1  0.998984  0.000000  0.001016  1
  Ca  Ca1  1  0.751434  0.749900  0.748768  1
  Ca  Ca2  1  0.251232  0.250100  0.248566  1
  Si  Si3  1  0.735404  0.266161  0.264596  1
  Si  Si4  1  0.735404  0.733839  0.264596  1
  P  P5  1  0.738014  0.263747  0.734491  1
  P  P6  1  0.265509  0.736253  0.261986  1
  P  P7  1  0.264384  0.737622  0.735616  1
  P  P8  1  0.264384  0.262378  0.735616  1
  Pd  Pd9  1  0.344118  0.001279  0.001208  1
  Pd  Pd10  1  0.000414  0.655175  0.346871  1
  Pd  Pd11  1  0.345824  0.000000  0.654176  1
  Pd  Pd12  1  0.001534  0.653751  0.998466  1
  Pd  Pd13  1  0.653129  0.344825  0.999586  1
  Pd  Pd14  1  0.613417  0.615764  0.155053  1
  Pd  Pd15  1  0.384327  0.843310  0.386048  1
  Pd  Pd16  1  0.158577  0.613853  0.613715  1
  Pd  Pd17  1  0.653669  0.000000  0.346331  1
  Pd  Pd18  1  0.998792  0.346605  0.655882  1
  Pd  Pd19  1  0.653129  0.002458  0.999586  1
  Pd  Pd20  1  0.000414  0.997542  0.346871  1
  Pd  Pd21  1  0.613952  0.156690  0.615673  1
  Pd  Pd22  1  0.344118  0.653395  0.001208  1
  Pd  Pd23  1  0.384327  0.386316  0.386048  1
  Pd  Pd24  1  0.613952  0.613684  0.615673  1
  Pd  Pd25  1  0.386285  0.386147  0.841423  1
  Pd  Pd26  1  0.998792  0.998721  0.655882  1
  Pd  Pd27  1  0.844947  0.384236  0.386583  1
  Pd  Pd28  1  0.001534  0.346249  0.998466  1
