# generated using pymatgen
data_Dy8Tm12Si15Ag
_symmetry_space_group_name_H-M   'P 1'
_cell_length_a   7.34782507
_cell_length_b   7.62025835
_cell_length_c   14.50754131
_cell_angle_alpha   89.76666113
_cell_angle_beta   89.42554347
_cell_angle_gamma   90.10297476
_symmetry_Int_Tables_number   1
_chemical_formula_structural   Dy8Tm12Si15Ag
_chemical_formula_sum   'Dy8 Tm12 Si15 Ag1'
_cell_volume   812.26203707
_cell_formula_units_Z   1
loop_
 _symmetry_equiv_pos_site_id
 _symmetry_equiv_pos_as_xyz
  1  'x, y, z'
loop_
 _atom_site_type_symbol
 _atom_site_label
 _atom_site_symmetry_multiplicity
 _atom_site_fract_x
 _atom_site_fract_y
 _atom_site_fract_z
 _atom_site_occupancy
  Dy  Dy0  1  0.017107  0.179440  0.098934  1
  Dy  Dy1  1  0.982907  0.822177  0.903470  1
  Dy  Dy2  1  0.482881  0.680006  0.903465  1
  Dy  Dy3  1  0.985669  0.829891  0.598664  1
  Dy  Dy4  1  0.515690  0.319851  0.097209  1
  Dy  Dy5  1  0.011593  0.172570  0.398064  1
  Dy  Dy6  1  0.515331  0.317919  0.399302  1
  Dy  Dy7  1  0.490475  0.682996  0.600636  1
  Tm  Tm8  1  0.164199  0.509752  0.751436  1
  Tm  Tm9  1  0.837383  0.491419  0.251432  1
  Tm  Tm10  1  0.336697  0.006422  0.249438  1
  Tm  Tm11  1  0.665863  0.989702  0.750727  1
  Tm  Tm12  1  0.339062  0.175010  0.623969  1
  Tm  Tm13  1  0.664632  0.822091  0.376049  1
  Tm  Tm14  1  0.168728  0.674294  0.374332  1
  Tm  Tm15  1  0.671228  0.822567  0.123313  1
  Tm  Tm16  1  0.828201  0.325404  0.622977  1
  Tm  Tm17  1  0.328102  0.178337  0.877702  1
  Tm  Tm18  1  0.828317  0.320812  0.878040  1
  Tm  Tm19  1  0.170473  0.677935  0.123419  1
  Si  Si20  1  0.037494  0.113175  0.750984  1
  Si  Si21  1  0.964223  0.890897  0.249177  1
  Si  Si22  1  0.465552  0.606476  0.248147  1
  Si  Si23  1  0.536148  0.393581  0.751756  1
  Si  Si24  1  0.281264  0.874568  0.751236  1
  Si  Si25  1  0.717133  0.128337  0.248156  1
  Si  Si26  1  0.219295  0.368871  0.248066  1
  Si  Si27  1  0.783106  0.628088  0.753233  1
  Si  Si28  1  0.834506  0.532505  0.458814  1
  Si  Si29  1  0.333779  0.965661  0.460494  1
  Si  Si30  1  0.843441  0.532487  0.038714  1
  Si  Si31  1  0.663199  0.033348  0.538161  1
  Si  Si32  1  0.154573  0.467777  0.962270  1
  Si  Si33  1  0.656194  0.030699  0.960581  1
  Si  Si34  1  0.343402  0.968273  0.039771  1
  Ag  Ag35  1  0.162156  0.466660  0.537861  1
