# generated using pymatgen
data_Tb5Tl4
_symmetry_space_group_name_H-M   'P 1'
_cell_length_a   9.35080500
_cell_length_b   9.35080503
_cell_length_c   6.69625300
_cell_angle_alpha   90.00000000
_cell_angle_beta   90.00000000
_cell_angle_gamma   119.99999635
_symmetry_Int_Tables_number   1
_chemical_formula_structural   Tb5Tl4
_chemical_formula_sum   'Tb10 Tl8'
_cell_volume   507.06134470
_cell_formula_units_Z   2
loop_
 _symmetry_equiv_pos_site_id
 _symmetry_equiv_pos_as_xyz
  1  'x, y, z'
loop_
 _atom_site_type_symbol
 _atom_site_label
 _atom_site_symmetry_multiplicity
 _atom_site_fract_x
 _atom_site_fract_y
 _atom_site_fract_z
 _atom_site_occupancy
  Tb  Tb0  1  0.333333  0.666667  0.500000  1
  Tb  Tb1  1  0.666667  0.333333  0.500000  1
  Tb  Tb2  1  0.666667  0.333333  0.000000  1
  Tb  Tb3  1  0.333333  0.666667  0.000000  1
  Tb  Tb4  1  0.289034  0.000000  0.750000  1
  Tb  Tb5  1  0.710966  0.000000  0.250000  1
  Tb  Tb6  1  0.000000  0.289034  0.750000  1
  Tb  Tb7  1  0.000000  0.710966  0.250000  1
  Tb  Tb8  1  0.710966  0.710966  0.750000  1
  Tb  Tb9  1  0.289034  0.289034  0.250000  1
  Tl  Tl10  1  0.000000  0.000000  0.500000  1
  Tl  Tl11  1  0.000000  0.000000  0.000000  1
  Tl  Tl12  1  0.627893  0.000000  0.750000  1
  Tl  Tl13  1  0.372107  0.000000  0.250000  1
  Tl  Tl14  1  0.000000  0.627893  0.750000  1
  Tl  Tl15  1  0.000000  0.372107  0.250000  1
  Tl  Tl16  1  0.372107  0.372107  0.750000  1
  Tl  Tl17  1  0.627893  0.627893  0.250000  1
