# generated using pymatgen
data_Ce4Al6ZnIr
_symmetry_space_group_name_H-M   'P 1'
_cell_length_a   5.72040000
_cell_length_b   5.72040111
_cell_length_c   8.52910100
_cell_angle_alpha   90.00000000
_cell_angle_beta   90.00000000
_cell_angle_gamma   119.99999359
_symmetry_Int_Tables_number   1
_chemical_formula_structural   Ce4Al6ZnIr
_chemical_formula_sum   'Ce4 Al6 Zn1 Ir1'
_cell_volume   241.70564708
_cell_formula_units_Z   1
loop_
 _symmetry_equiv_pos_site_id
 _symmetry_equiv_pos_as_xyz
  1  'x, y, z'
loop_
 _atom_site_type_symbol
 _atom_site_label
 _atom_site_symmetry_multiplicity
 _atom_site_fract_x
 _atom_site_fract_y
 _atom_site_fract_z
 _atom_site_occupancy
  Ce  Ce0  1  0.333333  0.666667  0.915276  1
  Ce  Ce1  1  0.666667  0.333333  0.084724  1
  Ce  Ce2  1  0.666667  0.333333  0.412064  1
  Ce  Ce3  1  0.333333  0.666667  0.587936  1
  Al  Al4  1  0.833759  0.166241  0.741120  1
  Al  Al5  1  0.833759  0.667518  0.741120  1
  Al  Al6  1  0.332482  0.166241  0.741120  1
  Al  Al7  1  0.166241  0.833759  0.258880  1
  Al  Al8  1  0.166241  0.332482  0.258880  1
  Al  Al9  1  0.667518  0.833759  0.258880  1
  Zn  Zn10  1  0.000000  0.000000  0.000000  1
  Ir  Ir11  1  0.000000  0.000000  0.500000  1
