# generated using pymatgen
data_DyHo3(CuPt)2
_symmetry_space_group_name_H-M   'P 1'
_cell_length_a   4.44949700
_cell_length_b   5.49369854
_cell_length_c   7.12741506
_cell_angle_alpha   90.10464510
_cell_angle_beta   90.00000000
_cell_angle_gamma   90.00000000
_symmetry_Int_Tables_number   1
_chemical_formula_structural   DyHo3(CuPt)2
_chemical_formula_sum   'Dy1 Ho3 Cu2 Pt2'
_cell_volume   174.22363412
_cell_formula_units_Z   1
loop_
 _symmetry_equiv_pos_site_id
 _symmetry_equiv_pos_as_xyz
  1  'x, y, z'
loop_
 _atom_site_type_symbol
 _atom_site_label
 _atom_site_symmetry_multiplicity
 _atom_site_fract_x
 _atom_site_fract_y
 _atom_site_fract_z
 _atom_site_occupancy
  Dy  Dy0  1  0.500000  0.605690  0.815913  1
  Ho  Ho1  1  0.000000  0.115495  0.684033  1
  Ho  Ho2  1  0.000000  0.884878  0.184614  1
  Ho  Ho3  1  0.500000  0.394324  0.315901  1
  Cu  Cu4  1  0.500000  0.893153  0.463436  1
  Cu  Cu5  1  0.500000  0.107259  0.964380  1
  Pt  Pt6  1  0.000000  0.614717  0.534626  1
  Pt  Pt7  1  0.000000  0.384484  0.037098  1
