# generated using pymatgen
data_Tm5Lu5(CoRu)2
_symmetry_space_group_name_H-M   'P 1'
_cell_length_a   6.18269241
_cell_length_b   7.06974028
_cell_length_c   8.31517769
_cell_angle_alpha   96.76924362
_cell_angle_beta   112.34647382
_cell_angle_gamma   89.61432535
_symmetry_Int_Tables_number   1
_chemical_formula_structural   Tm5Lu5(CoRu)2
_chemical_formula_sum   'Tm5 Lu5 Co2 Ru2'
_cell_volume   333.53114757
_cell_formula_units_Z   1
loop_
 _symmetry_equiv_pos_site_id
 _symmetry_equiv_pos_as_xyz
  1  'x, y, z'
loop_
 _atom_site_type_symbol
 _atom_site_label
 _atom_site_symmetry_multiplicity
 _atom_site_fract_x
 _atom_site_fract_y
 _atom_site_fract_z
 _atom_site_occupancy
  Tm  Tm0  1  0.526167  0.088232  0.815341  1
  Tm  Tm1  1  0.474188  0.911449  0.184827  1
  Tm  Tm2  1  0.700159  0.417801  0.188849  1
  Tm  Tm3  1  0.299373  0.582658  0.811155  1
  Tm  Tm4  1  0.289263  0.320191  0.433028  1
  Lu  Lu5  1  0.711063  0.680044  0.567313  1
  Lu  Lu6  1  0.856575  0.186096  0.564776  1
  Lu  Lu7  1  0.143449  0.813680  0.435375  1
  Lu  Lu8  1  0.077965  0.258459  0.999714  1
  Lu  Lu9  1  0.921594  0.741188  0.999616  1
  Co  Co10  1  0.325813  0.577793  0.226770  1
  Co  Co11  1  0.674889  0.422799  0.773528  1
  Ru  Ru12  1  0.104062  0.925395  0.783814  1
  Ru  Ru13  1  0.895440  0.074215  0.215893  1
