# generated using pymatgen
data_Ho3Mg2ZnSi2Ag
_symmetry_space_group_name_H-M   'P 1'
_cell_length_a   7.02855300
_cell_length_b   7.07808864
_cell_length_c   4.33682400
_cell_angle_alpha   90.00000000
_cell_angle_beta   90.00000000
_cell_angle_gamma   119.76875731
_symmetry_Int_Tables_number   1
_chemical_formula_structural   Ho3Mg2ZnSi2Ag
_chemical_formula_sum   'Ho3 Mg2 Zn1 Si2 Ag1'
_cell_volume   187.28009233
_cell_formula_units_Z   1
loop_
 _symmetry_equiv_pos_site_id
 _symmetry_equiv_pos_as_xyz
  1  'x, y, z'
loop_
 _atom_site_type_symbol
 _atom_site_label
 _atom_site_symmetry_multiplicity
 _atom_site_fract_x
 _atom_site_fract_y
 _atom_site_fract_z
 _atom_site_occupancy
  Ho  Ho0  1  0.567231  0.000000  0.000000  1
  Ho  Ho1  1  0.000250  0.576987  0.000000  1
  Ho  Ho2  1  0.423263  0.423013  0.000000  1
  Mg  Mg3  1  0.003416  0.244202  0.500000  1
  Mg  Mg4  1  0.759214  0.755798  0.500000  1
  Zn  Zn5  1  0.254043  0.000000  0.500000  1
  Si  Si6  1  0.330288  0.672622  0.500000  1
  Si  Si7  1  0.657666  0.327378  0.500000  1
  Ag  Ag8  1  0.004629  0.000000  0.000000  1
