# generated using pymatgen
data_TaTiHRh6
_symmetry_space_group_name_H-M   'P 1'
_cell_length_a   5.52703053
_cell_length_b   5.52703070
_cell_length_c   5.52703000
_cell_angle_alpha   60.00000419
_cell_angle_beta   60.00000317
_cell_angle_gamma   60.00000658
_symmetry_Int_Tables_number   1
_chemical_formula_structural   TaTiHRh6
_chemical_formula_sum   'Ta1 Ti1 H1 Rh6'
_cell_volume   119.38798167
_cell_formula_units_Z   1
loop_
 _symmetry_equiv_pos_site_id
 _symmetry_equiv_pos_as_xyz
  1  'x, y, z'
loop_
 _atom_site_type_symbol
 _atom_site_label
 _atom_site_symmetry_multiplicity
 _atom_site_fract_x
 _atom_site_fract_y
 _atom_site_fract_z
 _atom_site_occupancy
  Ta  Ta0  1  0.750000  0.750000  0.750000  1
  Ti  Ti1  1  0.250000  0.250000  0.250000  1
  H  H2  1  0.500000  0.500000  0.500000  1
  Rh  Rh3  1  0.752385  0.752385  0.247615  1
  Rh  Rh4  1  0.752385  0.247615  0.247615  1
  Rh  Rh5  1  0.247615  0.752385  0.247615  1
  Rh  Rh6  1  0.247615  0.247615  0.752385  1
  Rh  Rh7  1  0.752385  0.247615  0.752385  1
  Rh  Rh8  1  0.247615  0.752385  0.752385  1
