# generated using pymatgen
data_Ba3NdHo2ErO9
_symmetry_space_group_name_H-M   'P 1'
_cell_length_a   9.28476166
_cell_length_b   9.28476051
_cell_length_c   9.28475943
_cell_angle_alpha   38.89731555
_cell_angle_beta   38.89732572
_cell_angle_gamma   38.89732719
_symmetry_Int_Tables_number   1
_chemical_formula_structural   Ba3NdHo2ErO9
_chemical_formula_sum   'Ba3 Nd1 Ho2 Er1 O9'
_cell_volume   283.76473447
_cell_formula_units_Z   1
loop_
 _symmetry_equiv_pos_site_id
 _symmetry_equiv_pos_as_xyz
  1  'x, y, z'
loop_
 _atom_site_type_symbol
 _atom_site_label
 _atom_site_symmetry_multiplicity
 _atom_site_fract_x
 _atom_site_fract_y
 _atom_site_fract_z
 _atom_site_occupancy
  Ba  Ba0  1  0.000204  0.000204  0.000204  1
  Ba  Ba1  1  0.831997  0.831997  0.831997  1
  Ba  Ba2  1  0.402954  0.402954  0.402954  1
  Nd  Nd3  1  0.573068  0.573068  0.573068  1
  Ho  Ho4  1  0.134940  0.134940  0.134940  1
  Ho  Ho5  1  0.260544  0.260544  0.260544  1
  Er  Er6  1  0.700091  0.700091  0.700091  1
  O  O7  1  0.437744  0.971040  0.522356  1
  O  O8  1  0.971040  0.522356  0.437744  1
  O  O9  1  0.522356  0.437744  0.971040  1
  O  O10  1  0.263135  0.893813  0.432492  1
  O  O11  1  0.893813  0.432492  0.263135  1
  O  O12  1  0.432492  0.263135  0.893813  1
  O  O13  1  0.413543  0.858039  0.977841  1
  O  O14  1  0.977841  0.413543  0.858039  1
  O  O15  1  0.858039  0.977841  0.413543  1
