# generated using pymatgen
data_TbZrB6Os
_symmetry_space_group_name_H-M   'P 1'
_cell_length_a   3.58033600
_cell_length_b   9.06772100
_cell_length_c   11.44817600
_cell_angle_alpha   90.00000000
_cell_angle_beta   90.00000000
_cell_angle_gamma   90.00000000
_symmetry_Int_Tables_number   1
_chemical_formula_structural   TbZrB6Os
_chemical_formula_sum   'Tb4 Zr4 B24 Os4'
_cell_volume   371.67061980
_cell_formula_units_Z   4
loop_
 _symmetry_equiv_pos_site_id
 _symmetry_equiv_pos_as_xyz
  1  'x, y, z'
loop_
 _atom_site_type_symbol
 _atom_site_label
 _atom_site_symmetry_multiplicity
 _atom_site_fract_x
 _atom_site_fract_y
 _atom_site_fract_z
 _atom_site_occupancy
  Tb  Tb0  1  0.000000  0.321822  0.413219  1
  Tb  Tb1  1  0.000000  0.678178  0.586781  1
  Tb  Tb2  1  0.000000  0.821822  0.086781  1
  Tb  Tb3  1  0.000000  0.178178  0.913219  1
  Zr  Zr4  1  0.000000  0.944793  0.374509  1
  Zr  Zr5  1  0.000000  0.055207  0.625491  1
  Zr  Zr6  1  0.000000  0.444793  0.125491  1
  Zr  Zr7  1  0.000000  0.555207  0.874509  1
  B  B8  1  0.500000  0.554581  0.433512  1
  B  B9  1  0.500000  0.445419  0.566488  1
  B  B10  1  0.500000  0.054581  0.066488  1
  B  B11  1  0.500000  0.945419  0.933512  1
  B  B12  1  0.500000  0.751458  0.418835  1
  B  B13  1  0.500000  0.248542  0.581165  1
  B  B14  1  0.500000  0.251458  0.081165  1
  B  B15  1  0.500000  0.748542  0.918835  1
  B  B16  1  0.500000  0.794492  0.264236  1
  B  B17  1  0.500000  0.205508  0.735764  1
  B  B18  1  0.500000  0.294492  0.235764  1
  B  B19  1  0.500000  0.705508  0.764236  1
  B  B20  1  0.500000  0.630205  0.183280  1
  B  B21  1  0.500000  0.369795  0.816720  1
  B  B22  1  0.500000  0.130205  0.316720  1
  B  B23  1  0.500000  0.869795  0.683280  1
  B  B24  1  0.500000  0.982184  0.213453  1
  B  B25  1  0.500000  0.017816  0.786547  1
  B  B26  1  0.500000  0.482184  0.286547  1
  B  B27  1  0.500000  0.517816  0.713453  1
  B  B28  1  0.500000  0.602121  0.027719  1
  B  B29  1  0.500000  0.397879  0.972281  1
  B  B30  1  0.500000  0.102121  0.472281  1
  B  B31  1  0.500000  0.897879  0.527719  1
  Os  Os32  1  0.000000  0.641133  0.319421  1
  Os  Os33  1  0.000000  0.358867  0.680579  1
  Os  Os34  1  0.000000  0.141133  0.180579  1
  Os  Os35  1  0.000000  0.858867  0.819421  1
