# generated using pymatgen
data_Li5Ga17Pt7
_symmetry_space_group_name_H-M   'P 1'
_cell_length_a   8.68357133
_cell_length_b   8.74256864
_cell_length_c   8.74241527
_cell_angle_alpha   59.55588868
_cell_angle_beta   60.22511815
_cell_angle_gamma   60.22262226
_symmetry_Int_Tables_number   1
_chemical_formula_structural   Li5Ga17Pt7
_chemical_formula_sum   'Li5 Ga17 Pt7'
_cell_volume   469.27410863
_cell_formula_units_Z   1
loop_
 _symmetry_equiv_pos_site_id
 _symmetry_equiv_pos_as_xyz
  1  'x, y, z'
loop_
 _atom_site_type_symbol
 _atom_site_label
 _atom_site_symmetry_multiplicity
 _atom_site_fract_x
 _atom_site_fract_y
 _atom_site_fract_z
 _atom_site_occupancy
  Li  Li0  1  0.768496  0.231503  0.231535  1
  Li  Li1  1  0.764125  0.235873  0.748705  1
  Li  Li2  1  0.764106  0.748713  0.235871  1
  Li  Li3  1  0.251303  0.748697  0.235884  1
  Li  Li4  1  0.251286  0.235889  0.748694  1
  Ga  Ga5  1  0.884115  0.852810  0.852796  1
  Ga  Ga6  1  0.870225  0.848233  0.411286  1
  Ga  Ga7  1  0.410269  0.852842  0.852815  1
  Ga  Ga8  1  0.870199  0.411289  0.848274  1
  Ga  Ga9  1  0.151766  0.129786  0.129763  1
  Ga  Ga10  1  0.147182  0.115895  0.589731  1
  Ga  Ga11  1  0.147156  0.589729  0.115944  1
  Ga  Ga12  1  0.588703  0.129804  0.129784  1
  Ga  Ga13  1  0.621940  0.621164  0.621171  1
  Ga  Ga14  1  0.635359  0.619676  0.109631  1
  Ga  Ga15  1  0.135731  0.621155  0.621165  1
  Ga  Ga16  1  0.635359  0.109636  0.619661  1
  Ga  Ga17  1  0.380328  0.364633  0.364641  1
  Ga  Ga18  1  0.378845  0.378047  0.864248  1
  Ga  Ga19  1  0.378860  0.864252  0.378024  1
  Ga  Ga20  1  0.890385  0.364624  0.364633  1
  Ga  Ga21  1  0.006284  0.993721  0.993715  1
  Pt  Pt22  1  0.010254  0.489702  0.489764  1
  Pt  Pt23  1  0.510299  0.989749  0.989721  1
  Pt  Pt24  1  0.510562  0.992897  0.489439  1
  Pt  Pt25  1  0.510533  0.489471  0.992909  1
  Pt  Pt26  1  0.007100  0.489440  0.992899  1
  Pt  Pt27  1  0.007118  0.992881  0.489416  1
  Pt  Pt28  1  0.512112  0.487890  0.487881  1
