# generated using pymatgen
data_Ta(Re6W)4
_symmetry_space_group_name_H-M   'P 1'
_cell_length_a   8.37353313
_cell_length_b   8.37353258
_cell_length_c   8.37353300
_cell_angle_alpha   109.47121682
_cell_angle_beta   109.47121547
_cell_angle_gamma   109.47122372
_symmetry_Int_Tables_number   1
_chemical_formula_structural   Ta(Re6W)4
_chemical_formula_sum   'Ta1 Re24 W4'
_cell_volume   451.96451090
_cell_formula_units_Z   1
loop_
 _symmetry_equiv_pos_site_id
 _symmetry_equiv_pos_as_xyz
  1  'x, y, z'
loop_
 _atom_site_type_symbol
 _atom_site_label
 _atom_site_symmetry_multiplicity
 _atom_site_fract_x
 _atom_site_fract_y
 _atom_site_fract_z
 _atom_site_occupancy
  Ta  Ta0  1  0.000000  0.000000  0.000000  1
  Re  Re1  1  0.402025  0.685161  0.000000  1
  Re  Re2  1  0.716864  0.314839  0.314839  1
  Re  Re3  1  0.402025  0.000000  0.685161  1
  Re  Re4  1  0.685161  0.402025  0.000000  1
  Re  Re5  1  0.000000  0.402025  0.685161  1
  Re  Re6  1  0.314839  0.716864  0.314839  1
  Re  Re7  1  0.314839  0.314839  0.716864  1
  Re  Re8  1  0.000000  0.685161  0.402025  1
  Re  Re9  1  0.685161  0.000000  0.402025  1
  Re  Re10  1  0.597975  0.597975  0.283136  1
  Re  Re11  1  0.283136  0.597975  0.597975  1
  Re  Re12  1  0.597975  0.283136  0.597975  1
  Re  Re13  1  0.376086  0.193737  0.000000  1
  Re  Re14  1  0.182350  0.806263  0.806263  1
  Re  Re15  1  0.376086  0.000000  0.193737  1
  Re  Re16  1  0.193737  0.376086  0.000000  1
  Re  Re17  1  0.000000  0.376086  0.193737  1
  Re  Re18  1  0.806263  0.182350  0.806263  1
  Re  Re19  1  0.806263  0.806263  0.182350  1
  Re  Re20  1  0.000000  0.193737  0.376086  1
  Re  Re21  1  0.193737  0.000000  0.376086  1
  Re  Re22  1  0.623914  0.623914  0.817650  1
  Re  Re23  1  0.817650  0.623914  0.623914  1
  Re  Re24  1  0.623914  0.817650  0.623914  1
  W  W25  1  0.637162  0.000000  0.000000  1
  W  W26  1  0.000000  0.637162  0.000000  1
  W  W27  1  0.000000  0.000000  0.637162  1
  W  W28  1  0.362838  0.362838  0.362838  1
