# generated using pymatgen
data_Tm3Lu9Ga20
_symmetry_space_group_name_H-M   'P 1'
_cell_length_a   11.34364735
_cell_length_b   9.54180504
_cell_length_c   5.99322317
_cell_angle_alpha   90.00318540
_cell_angle_beta   90.02696256
_cell_angle_gamma   89.99017571
_symmetry_Int_Tables_number   1
_chemical_formula_structural   Tm3Lu9Ga20
_chemical_formula_sum   'Tm3 Lu9 Ga20'
_cell_volume   648.69962999
_cell_formula_units_Z   1
loop_
 _symmetry_equiv_pos_site_id
 _symmetry_equiv_pos_as_xyz
  1  'x, y, z'
loop_
 _atom_site_type_symbol
 _atom_site_label
 _atom_site_symmetry_multiplicity
 _atom_site_fract_x
 _atom_site_fract_y
 _atom_site_fract_z
 _atom_site_occupancy
  Tm  Tm0  1  0.647378  0.991180  0.390839  1
  Tm  Tm1  1  0.352782  0.491203  0.609210  1
  Tm  Tm2  1  0.147198  0.508853  0.109197  1
  Lu  Lu3  1  0.070963  0.249995  0.652602  1
  Lu  Lu4  1  0.428975  0.749934  0.152537  1
  Lu  Lu5  1  0.571131  0.249870  0.847533  1
  Lu  Lu6  1  0.928867  0.750084  0.347189  1
  Lu  Lu7  1  0.147338  0.991219  0.109016  1
  Lu  Lu8  1  0.352437  0.008821  0.609129  1
  Lu  Lu9  1  0.647561  0.508804  0.390889  1
  Lu  Lu10  1  0.852438  0.491213  0.890892  1
  Lu  Lu11  1  0.852761  0.008819  0.890902  1
  Ga  Ga12  1  0.407968  0.051266  0.123815  1
  Ga  Ga13  1  0.091924  0.948808  0.623882  1
  Ga  Ga14  1  0.907942  0.448707  0.376153  1
  Ga  Ga15  1  0.592026  0.551296  0.876280  1
  Ga  Ga16  1  0.591834  0.948655  0.876555  1
  Ga  Ga17  1  0.908394  0.051285  0.376130  1
  Ga  Ga18  1  0.091579  0.551419  0.623536  1
  Ga  Ga19  1  0.408440  0.448531  0.123427  1
  Ga  Ga20  1  0.296640  0.249642  0.891913  1
  Ga  Ga21  1  0.203419  0.750344  0.391820  1
  Ga  Ga22  1  0.796696  0.250069  0.608617  1
  Ga  Ga23  1  0.703371  0.749598  0.108032  1
  Ga  Ga24  1  0.250710  0.249615  0.332004  1
  Ga  Ga25  1  0.249114  0.750391  0.832074  1
  Ga  Ga26  1  0.750951  0.250269  0.167740  1
  Ga  Ga27  1  0.749474  0.749802  0.668229  1
  Ga  Ga28  1  0.505253  0.250255  0.373051  1
  Ga  Ga29  1  0.994460  0.750096  0.873087  1
  Ga  Ga30  1  0.005172  0.249694  0.126788  1
  Ga  Ga31  1  0.494801  0.750260  0.626939  1
