# generated using pymatgen
data_Tb10Cd3Fe
_symmetry_space_group_name_H-M   'P 1'
_cell_length_a   9.57304400
_cell_length_b   9.57304498
_cell_length_c   9.92561500
_cell_angle_alpha   90.00000000
_cell_angle_beta   90.00000000
_cell_angle_gamma   119.99998972
_symmetry_Int_Tables_number   1
_chemical_formula_structural   Tb10Cd3Fe
_chemical_formula_sum   'Tb20 Cd6 Fe2'
_cell_volume   787.74971841
_cell_formula_units_Z   2
loop_
 _symmetry_equiv_pos_site_id
 _symmetry_equiv_pos_as_xyz
  1  'x, y, z'
loop_
 _atom_site_type_symbol
 _atom_site_label
 _atom_site_symmetry_multiplicity
 _atom_site_fract_x
 _atom_site_fract_y
 _atom_site_fract_z
 _atom_site_occupancy
  Tb  Tb0  1  0.000000  0.000000  0.500000  1
  Tb  Tb1  1  0.000000  0.000000  0.000000  1
  Tb  Tb2  1  0.541617  0.458383  0.250000  1
  Tb  Tb3  1  0.541617  0.083235  0.250000  1
  Tb  Tb4  1  0.916765  0.458383  0.250000  1
  Tb  Tb5  1  0.458383  0.541617  0.750000  1
  Tb  Tb6  1  0.458383  0.916765  0.750000  1
  Tb  Tb7  1  0.083235  0.541617  0.750000  1
  Tb  Tb8  1  0.212115  0.787885  0.436000  1
  Tb  Tb9  1  0.212115  0.424231  0.436000  1
  Tb  Tb10  1  0.575769  0.787885  0.436000  1
  Tb  Tb11  1  0.787885  0.212115  0.564000  1
  Tb  Tb12  1  0.787885  0.575769  0.564000  1
  Tb  Tb13  1  0.424231  0.212115  0.564000  1
  Tb  Tb14  1  0.787885  0.212115  0.936000  1
  Tb  Tb15  1  0.787885  0.575769  0.936000  1
  Tb  Tb16  1  0.424231  0.212115  0.936000  1
  Tb  Tb17  1  0.212115  0.787885  0.064000  1
  Tb  Tb18  1  0.212115  0.424231  0.064000  1
  Tb  Tb19  1  0.575769  0.787885  0.064000  1
  Cd  Cd20  1  0.886300  0.113700  0.250000  1
  Cd  Cd21  1  0.886300  0.772602  0.250000  1
  Cd  Cd22  1  0.227398  0.113700  0.250000  1
  Cd  Cd23  1  0.113700  0.886300  0.750000  1
  Cd  Cd24  1  0.113700  0.227398  0.750000  1
  Cd  Cd25  1  0.772602  0.886300  0.750000  1
  Fe  Fe26  1  0.333333  0.666667  0.250000  1
  Fe  Fe27  1  0.666667  0.333333  0.750000  1
