# generated using pymatgen
data_Li2Co5Ni5P6
_symmetry_space_group_name_H-M   'P 1'
_cell_length_a   3.54906700
_cell_length_b   10.10792700
_cell_length_c   11.70107100
_cell_angle_alpha   90.00000000
_cell_angle_beta   90.00000000
_cell_angle_gamma   90.00000000
_symmetry_Int_Tables_number   1
_chemical_formula_structural   Li2Co5Ni5P6
_chemical_formula_sum   'Li4 Co10 Ni10 P12'
_cell_volume   419.76082955
_cell_formula_units_Z   2
loop_
 _symmetry_equiv_pos_site_id
 _symmetry_equiv_pos_as_xyz
  1  'x, y, z'
loop_
 _atom_site_type_symbol
 _atom_site_label
 _atom_site_symmetry_multiplicity
 _atom_site_fract_x
 _atom_site_fract_y
 _atom_site_fract_z
 _atom_site_occupancy
  Li  Li0  1  0.250000  0.579252  0.706871  1
  Li  Li1  1  0.250000  0.920748  0.206871  1
  Li  Li2  1  0.750000  0.420624  0.293960  1
  Li  Li3  1  0.750000  0.079376  0.793960  1
  Co  Co4  1  0.750000  0.780802  0.827189  1
  Co  Co5  1  0.750000  0.719198  0.327189  1
  Co  Co6  1  0.250000  0.877440  0.699680  1
  Co  Co7  1  0.250000  0.622560  0.199680  1
  Co  Co8  1  0.750000  0.122110  0.299808  1
  Co  Co9  1  0.750000  0.377890  0.799808  1
  Co  Co10  1  0.250000  0.463736  0.931250  1
  Co  Co11  1  0.250000  0.036264  0.431250  1
  Co  Co12  1  0.750000  0.538087  0.067886  1
  Co  Co13  1  0.750000  0.961913  0.567886  1
  Ni  Ni14  1  0.250000  0.713590  0.989920  1
  Ni  Ni15  1  0.250000  0.786410  0.489920  1
  Ni  Ni16  1  0.750000  0.284698  0.008825  1
  Ni  Ni17  1  0.750000  0.215302  0.508825  1
  Ni  Ni18  1  0.250000  0.409358  0.480908  1
  Ni  Ni19  1  0.250000  0.090642  0.980908  1
  Ni  Ni20  1  0.750000  0.593434  0.519778  1
  Ni  Ni21  1  0.750000  0.906566  0.019778  1
  Ni  Ni22  1  0.250000  0.221009  0.173087  1
  Ni  Ni23  1  0.250000  0.278991  0.673087  1
  P  P24  1  0.250000  0.424966  0.116099  1
  P  P25  1  0.250000  0.075034  0.616099  1
  P  P26  1  0.750000  0.578756  0.882392  1
  P  P27  1  0.750000  0.921244  0.382392  1
  P  P28  1  0.250000  0.262319  0.863523  1
  P  P29  1  0.250000  0.237681  0.363523  1
  P  P30  1  0.750000  0.738045  0.139702  1
  P  P31  1  0.750000  0.761955  0.639702  1
  P  P32  1  0.250000  0.600108  0.386397  1
  P  P33  1  0.250000  0.899892  0.886397  1
  P  P34  1  0.750000  0.404084  0.612723  1
  P  P35  1  0.750000  0.095916  0.112723  1
