# generated using pymatgen
data_DyEr(HfPt)2
_symmetry_space_group_name_H-M   'P 1'
_cell_length_a   4.63094000
_cell_length_b   6.99673096
_cell_length_c   8.18374500
_cell_angle_alpha   89.90330500
_cell_angle_beta   90.00000000
_cell_angle_gamma   90.00000000
_symmetry_Int_Tables_number   1
_chemical_formula_structural   DyEr(HfPt)2
_chemical_formula_sum   'Dy2 Er2 Hf4 Pt4'
_cell_volume   265.16475553
_cell_formula_units_Z   2
loop_
 _symmetry_equiv_pos_site_id
 _symmetry_equiv_pos_as_xyz
  1  'x, y, z'
loop_
 _atom_site_type_symbol
 _atom_site_label
 _atom_site_symmetry_multiplicity
 _atom_site_fract_x
 _atom_site_fract_y
 _atom_site_fract_z
 _atom_site_occupancy
  Dy  Dy0  1  0.750000  0.516052  0.820917  1
  Dy  Dy1  1  0.250000  0.483948  0.179083  1
  Er  Er2  1  0.750000  0.016379  0.678314  1
  Er  Er3  1  0.250000  0.983621  0.321686  1
  Hf  Hf4  1  0.750000  0.647050  0.422489  1
  Hf  Hf5  1  0.250000  0.352950  0.577511  1
  Hf  Hf6  1  0.750000  0.145945  0.077618  1
  Hf  Hf7  1  0.250000  0.854055  0.922382  1
  Pt  Pt8  1  0.750000  0.267860  0.404775  1
  Pt  Pt9  1  0.250000  0.732140  0.595225  1
  Pt  Pt10  1  0.750000  0.769291  0.096048  1
  Pt  Pt11  1  0.250000  0.230709  0.903952  1
