# generated using pymatgen
data_Zn3In9Ir4
_symmetry_space_group_name_H-M   'P 1'
_cell_length_a   6.89166526
_cell_length_b   6.95410714
_cell_length_c   7.35368500
_cell_angle_alpha   90.00000000
_cell_angle_beta   90.00000000
_cell_angle_gamma   89.14610191
_symmetry_Int_Tables_number   1
_chemical_formula_structural   Zn3In9Ir4
_chemical_formula_sum   'Zn3 In9 Ir4'
_cell_volume   352.38899968
_cell_formula_units_Z   1
loop_
 _symmetry_equiv_pos_site_id
 _symmetry_equiv_pos_as_xyz
  1  'x, y, z'
loop_
 _atom_site_type_symbol
 _atom_site_label
 _atom_site_symmetry_multiplicity
 _atom_site_fract_x
 _atom_site_fract_y
 _atom_site_fract_z
 _atom_site_occupancy
  Zn  Zn0  1  0.000000  0.500000  0.000000  1
  Zn  Zn1  1  0.500000  0.000000  0.000000  1
  Zn  Zn2  1  0.000000  0.500000  0.500000  1
  In  In3  1  0.336073  0.347305  0.261596  1
  In  In4  1  0.157881  0.832486  0.772488  1
  In  In5  1  0.157881  0.832486  0.227512  1
  In  In6  1  0.842119  0.167514  0.227512  1
  In  In7  1  0.842119  0.167514  0.772488  1
  In  In8  1  0.663927  0.652695  0.261596  1
  In  In9  1  0.663927  0.652695  0.738404  1
  In  In10  1  0.336073  0.347305  0.738404  1
  In  In11  1  0.500000  0.000000  0.500000  1
  Ir  Ir12  1  0.159014  0.155848  0.000000  1
  Ir  Ir13  1  0.661721  0.346528  0.500000  1
  Ir  Ir14  1  0.338279  0.653472  0.500000  1
  Ir  Ir15  1  0.840986  0.844152  0.000000  1
