# generated using pymatgen
data_Ni5IrW2
_symmetry_space_group_name_H-M   'P 1'
_cell_length_a   4.26842000
_cell_length_b   5.15562583
_cell_length_c   4.53215594
_cell_angle_alpha   89.61832234
_cell_angle_beta   90.00000000
_cell_angle_gamma   90.00000000
_symmetry_Int_Tables_number   1
_chemical_formula_structural   Ni5IrW2
_chemical_formula_sum   'Ni5 Ir1 W2'
_cell_volume   99.73411653
_cell_formula_units_Z   1
loop_
 _symmetry_equiv_pos_site_id
 _symmetry_equiv_pos_as_xyz
  1  'x, y, z'
loop_
 _atom_site_type_symbol
 _atom_site_label
 _atom_site_symmetry_multiplicity
 _atom_site_fract_x
 _atom_site_fract_y
 _atom_site_fract_z
 _atom_site_occupancy
  Ni  Ni0  1  0.499999  0.753155  0.160612  1
  Ni  Ni1  1  0.000000  0.510432  0.342885  1
  Ni  Ni2  1  0.499999  0.992376  0.668697  1
  Ni  Ni3  1  0.000000  0.244340  0.828641  1
  Ni  Ni4  1  0.000000  0.744176  0.838386  1
  Ir  Ir5  1  0.499999  0.253006  0.161545  1
  W  W6  1  0.000000  0.995789  0.343372  1
  W  W7  1  0.499999  0.506723  0.655865  1
