# generated using pymatgen
data_SrMgPt3O8
_symmetry_space_group_name_H-M   'P 1'
_cell_length_a   6.16564300
_cell_length_b   6.88632272
_cell_length_c   10.67907600
_cell_angle_alpha   104.97415744
_cell_angle_beta   90.00102400
_cell_angle_gamma   63.40299942
_symmetry_Int_Tables_number   1
_chemical_formula_structural   SrMgPt3O8
_chemical_formula_sum   'Sr2 Mg2 Pt6 O16'
_cell_volume   388.14226690
_cell_formula_units_Z   2
loop_
 _symmetry_equiv_pos_site_id
 _symmetry_equiv_pos_as_xyz
  1  'x, y, z'
loop_
 _atom_site_type_symbol
 _atom_site_label
 _atom_site_symmetry_multiplicity
 _atom_site_fract_x
 _atom_site_fract_y
 _atom_site_fract_z
 _atom_site_occupancy
  Sr  Sr0  1  0.750004  0.499992  0.750002  1
  Sr  Sr1  1  0.250000  0.499999  0.249998  1
  Mg  Mg2  1  0.500020  0.999966  0.499991  1
  Mg  Mg3  1  0.000020  0.999971  0.999994  1
  Pt  Pt4  1  0.249966  0.000004  0.749989  1
  Pt  Pt5  1  0.749973  0.000020  0.249998  1
  Pt  Pt6  1  0.999994  0.000013  0.500018  1
  Pt  Pt7  1  0.499994  0.000013  0.000020  1
  Pt  Pt8  1  0.750025  0.000006  0.749990  1
  Pt  Pt9  1  0.250007  0.000019  0.249998  1
  O  O10  1  0.085083  0.829850  0.638312  1
  O  O11  1  0.585076  0.829867  0.138320  1
  O  O12  1  0.414915  0.170147  0.861684  1
  O  O13  1  0.914909  0.170162  0.361689  1
  O  O14  1  0.833301  0.820160  0.884495  1
  O  O15  1  0.333301  0.820164  0.384494  1
  O  O16  1  0.910082  0.179807  0.858883  1
  O  O17  1  0.410075  0.179823  0.358890  1
  O  O18  1  0.666693  0.179831  0.615502  1
  O  O19  1  0.166690  0.179838  0.115503  1
  O  O20  1  0.153509  0.179807  0.615500  1
  O  O21  1  0.653508  0.179812  0.115500  1
  O  O22  1  0.589927  0.820173  0.641115  1
  O  O23  1  0.089921  0.820189  0.141122  1
  O  O24  1  0.346506  0.820181  0.884496  1
  O  O25  1  0.846505  0.820186  0.384495  1
