# generated using pymatgen
data_Pr8TiV3O20
_symmetry_space_group_name_H-M   'P 1'
_cell_length_a   3.91192500
_cell_length_b   10.90086326
_cell_length_c   11.54059645
_cell_angle_alpha   90.10094043
_cell_angle_beta   90.00000000
_cell_angle_gamma   90.00000000
_symmetry_Int_Tables_number   1
_chemical_formula_structural   Pr8TiV3O20
_chemical_formula_sum   'Pr8 Ti1 V3 O20'
_cell_volume   492.12903942
_cell_formula_units_Z   1
loop_
 _symmetry_equiv_pos_site_id
 _symmetry_equiv_pos_as_xyz
  1  'x, y, z'
loop_
 _atom_site_type_symbol
 _atom_site_label
 _atom_site_symmetry_multiplicity
 _atom_site_fract_x
 _atom_site_fract_y
 _atom_site_fract_z
 _atom_site_occupancy
  Pr  Pr0  1  0.250000  0.137916  0.942892  1
  Pr  Pr1  1  0.250000  0.638400  0.555765  1
  Pr  Pr2  1  0.750000  0.861660  0.056754  1
  Pr  Pr3  1  0.750000  0.362612  0.444581  1
  Pr  Pr4  1  0.750000  0.393327  0.777540  1
  Pr  Pr5  1  0.750000  0.892495  0.722373  1
  Pr  Pr6  1  0.250000  0.605511  0.221071  1
  Pr  Pr7  1  0.250000  0.105579  0.278851  1
  Ti  Ti8  1  0.750000  0.315233  0.124779  1
  V  V9  1  0.250000  0.182156  0.623908  1
  V  V10  1  0.250000  0.682347  0.876313  1
  V  V11  1  0.750000  0.817520  0.376079  1
  O  O12  1  0.250000  0.225001  0.465352  1
  O  O13  1  0.250000  0.725726  0.034480  1
  O  O14  1  0.750000  0.775020  0.534677  1
  O  O15  1  0.750000  0.277189  0.964615  1
  O  O16  1  0.250000  0.491278  0.396805  1
  O  O17  1  0.250000  0.992115  0.103404  1
  O  O18  1  0.750000  0.508880  0.603226  1
  O  O19  1  0.750000  0.009218  0.896782  1
  O  O20  1  0.250000  0.263417  0.122121  1
  O  O21  1  0.250000  0.764676  0.378852  1
  O  O22  1  0.750000  0.735485  0.878849  1
  O  O23  1  0.750000  0.235268  0.621207  1
  O  O24  1  0.250000  0.027664  0.663671  1
  O  O25  1  0.250000  0.527855  0.836424  1
  O  O26  1  0.750000  0.972241  0.336357  1
  O  O27  1  0.750000  0.473956  0.161113  1
  O  O28  1  0.250000  0.270685  0.768906  1
  O  O29  1  0.250000  0.770757  0.731309  1
  O  O30  1  0.750000  0.730196  0.230921  1
  O  O31  1  0.750000  0.228619  0.270022  1
