# generated using pymatgen
data_Sc5Tc13Os11
_symmetry_space_group_name_H-M   'P 1'
_cell_length_a   8.37010560
_cell_length_b   8.36960069
_cell_length_c   8.37643115
_cell_angle_alpha   109.44544469
_cell_angle_beta   109.44761274
_cell_angle_gamma   109.48865312
_symmetry_Int_Tables_number   1
_chemical_formula_structural   Sc5Tc13Os11
_chemical_formula_sum   'Sc5 Tc13 Os11'
_cell_volume   451.90160482
_cell_formula_units_Z   1
loop_
 _symmetry_equiv_pos_site_id
 _symmetry_equiv_pos_as_xyz
  1  'x, y, z'
loop_
 _atom_site_type_symbol
 _atom_site_label
 _atom_site_symmetry_multiplicity
 _atom_site_fract_x
 _atom_site_fract_y
 _atom_site_fract_z
 _atom_site_occupancy
  Sc  Sc0  1  0.000143  0.999865  0.999994  1
  Sc  Sc1  1  0.634291  0.999918  0.999961  1
  Sc  Sc2  1  0.999727  0.633341  0.000053  1
  Sc  Sc3  1  0.999619  0.000058  0.634136  1
  Sc  Sc4  1  0.365456  0.365991  0.365851  1
  Tc  Tc5  1  0.388555  0.678675  0.000051  1
  Tc  Tc6  1  0.710174  0.320706  0.322936  1
  Tc  Tc7  1  0.387262  0.997764  0.677072  1
  Tc  Tc8  1  0.678378  0.388639  0.999986  1
  Tc  Tc9  1  0.000406  0.388330  0.678786  1
  Tc  Tc10  1  0.321596  0.709540  0.321157  1
  Tc  Tc11  1  0.320419  0.321190  0.707009  1
  Tc  Tc12  1  0.999252  0.678180  0.387886  1
  Tc  Tc13  1  0.678919  0.000094  0.388113  1
  Tc  Tc14  1  0.613358  0.614218  0.292982  1
  Tc  Tc15  1  0.290808  0.612043  0.611889  1
  Tc  Tc16  1  0.611307  0.290288  0.612151  1
  Tc  Tc17  1  0.378689  0.194884  0.000012  1
  Os  Os18  1  0.182743  0.806660  0.806685  1
  Os  Os19  1  0.376110  0.000019  0.193356  1
  Os  Os20  1  0.193202  0.375894  0.999989  1
  Os  Os21  1  0.999915  0.376375  0.193475  1
  Os  Os22  1  0.806441  0.182916  0.806492  1
  Os  Os23  1  0.806336  0.806103  0.182309  1
  Os  Os24  1  0.999780  0.193410  0.376086  1
  Os  Os25  1  0.192739  0.999916  0.376046  1
  Os  Os26  1  0.624017  0.623792  0.817666  1
  Os  Os27  1  0.816681  0.623861  0.623965  1
  Os  Os28  1  0.623676  0.817329  0.623907  1
