# generated using pymatgen
data_La7NdErPt6
_symmetry_space_group_name_H-M   'P 1'
_cell_length_a   7.79993851
_cell_length_b   7.79993987
_cell_length_c   7.79993876
_cell_angle_alpha   71.76324528
_cell_angle_beta   71.76324465
_cell_angle_gamma   71.76324535
_symmetry_Int_Tables_number   1
_chemical_formula_structural   La7NdErPt6
_chemical_formula_sum   'La7 Nd1 Er1 Pt6'
_cell_volume   415.72963367
_cell_formula_units_Z   1
loop_
 _symmetry_equiv_pos_site_id
 _symmetry_equiv_pos_as_xyz
  1  'x, y, z'
loop_
 _atom_site_type_symbol
 _atom_site_label
 _atom_site_symmetry_multiplicity
 _atom_site_fract_x
 _atom_site_fract_y
 _atom_site_fract_z
 _atom_site_occupancy
  La  La0  1  0.199144  0.199144  0.199144  1
  La  La1  1  0.327534  0.611263  0.836389  1
  La  La2  1  0.836389  0.327534  0.611263  1
  La  La3  1  0.611263  0.836389  0.327534  1
  La  La4  1  0.672596  0.389639  0.163033  1
  La  La5  1  0.163033  0.672596  0.389639  1
  La  La6  1  0.389639  0.163033  0.672596  1
  Nd  Nd7  1  0.801037  0.801037  0.801037  1
  Er  Er8  1  0.999758  0.999758  0.999758  1
  Pt  Pt9  1  0.161296  0.959997  0.596770  1
  Pt  Pt10  1  0.596770  0.161296  0.959997  1
  Pt  Pt11  1  0.959997  0.596770  0.161296  1
  Pt  Pt12  1  0.838513  0.039279  0.403753  1
  Pt  Pt13  1  0.403753  0.838513  0.039279  1
  Pt  Pt14  1  0.039279  0.403753  0.838513  1
