# generated using pymatgen
data_CaDyGa5Ir3
_symmetry_space_group_name_H-M   'P 1'
_cell_length_a   8.68382379
_cell_length_b   8.57835950
_cell_length_c   8.57835921
_cell_angle_alpha   140.74126550
_cell_angle_beta   110.21769380
_cell_angle_gamma   82.95635414
_symmetry_Int_Tables_number   1
_chemical_formula_structural   CaDyGa5Ir3
_chemical_formula_sum   'Ca2 Dy2 Ga10 Ir6'
_cell_volume   367.99512070
_cell_formula_units_Z   2
loop_
 _symmetry_equiv_pos_site_id
 _symmetry_equiv_pos_as_xyz
  1  'x, y, z'
loop_
 _atom_site_type_symbol
 _atom_site_label
 _atom_site_symmetry_multiplicity
 _atom_site_fract_x
 _atom_site_fract_y
 _atom_site_fract_z
 _atom_site_occupancy
  Ca  Ca0  1  0.873506  0.646696  0.226810  1
  Ca  Ca1  1  0.126494  0.353304  0.773190  1
  Dy  Dy2  1  0.416241  0.143650  0.272591  1
  Dy  Dy3  1  0.583759  0.856350  0.727409  1
  Ga  Ga4  1  0.500000  0.743529  0.243529  1
  Ga  Ga5  1  0.500000  0.256471  0.756471  1
  Ga  Ga6  1  0.201593  0.952173  0.749778  1
  Ga  Ga7  1  0.798407  0.548185  0.750580  1
  Ga  Ga8  1  0.798407  0.047827  0.250222  1
  Ga  Ga9  1  0.201593  0.451815  0.249420  1
  Ga  Ga10  1  0.100023  0.917733  0.182289  1
  Ga  Ga11  1  0.899977  0.082267  0.817711  1
  Ga  Ga12  1  0.736809  0.417458  0.319351  1
  Ga  Ga13  1  0.263191  0.582542  0.680649  1
  Ir  Ir14  1  0.000000  0.747258  0.747258  1
  Ir  Ir15  1  0.000000  0.252742  0.252742  1
  Ir  Ir16  1  0.270832  0.851296  0.419535  1
  Ir  Ir17  1  0.729168  0.148704  0.580465  1
  Ir  Ir18  1  0.438179  0.345594  0.092586  1
  Ir  Ir19  1  0.561821  0.654406  0.907414  1
