# generated using pymatgen
data_Tb2HoIn3NiHg2
_symmetry_space_group_name_H-M   'P 1'
_cell_length_a   7.83128100
_cell_length_b   7.80971168
_cell_length_c   3.99115700
_cell_angle_alpha   90.00000000
_cell_angle_beta   90.00000000
_cell_angle_gamma   120.09139944
_symmetry_Int_Tables_number   1
_chemical_formula_structural   Tb2HoIn3NiHg2
_chemical_formula_sum   'Tb2 Ho1 In3 Ni1 Hg2'
_cell_volume   211.20127174
_cell_formula_units_Z   1
loop_
 _symmetry_equiv_pos_site_id
 _symmetry_equiv_pos_as_xyz
  1  'x, y, z'
loop_
 _atom_site_type_symbol
 _atom_site_label
 _atom_site_symmetry_multiplicity
 _atom_site_fract_x
 _atom_site_fract_y
 _atom_site_fract_z
 _atom_site_occupancy
  Tb  Tb0  1  0.999799  0.609167  0.500000  1
  Tb  Tb1  1  0.390632  0.390833  0.500000  1
  Ho  Ho2  1  0.611925  0.000000  0.500000  1
  In  In3  1  0.239300  0.000000  0.000000  1
  In  In4  1  0.759825  0.759567  0.000000  1
  In  In5  1  0.000259  0.240433  0.000000  1
  Ni  Ni6  1  0.997868  0.000000  0.500000  1
  Hg  Hg7  1  0.334711  0.669031  0.000000  1
  Hg  Hg8  1  0.665681  0.330969  0.000000  1
