# generated using pymatgen
data_TmCo4P3Ru
_symmetry_space_group_name_H-M   'P 1'
_cell_length_a   3.68446000
_cell_length_b   10.36605400
_cell_length_c   11.76502800
_cell_angle_alpha   90.00000000
_cell_angle_beta   90.00000000
_cell_angle_gamma   90.00000000
_symmetry_Int_Tables_number   1
_chemical_formula_structural   TmCo4P3Ru
_chemical_formula_sum   'Tm4 Co16 P12 Ru4'
_cell_volume   449.34537710
_cell_formula_units_Z   4
loop_
 _symmetry_equiv_pos_site_id
 _symmetry_equiv_pos_as_xyz
  1  'x, y, z'
loop_
 _atom_site_type_symbol
 _atom_site_label
 _atom_site_symmetry_multiplicity
 _atom_site_fract_x
 _atom_site_fract_y
 _atom_site_fract_z
 _atom_site_occupancy
  Tm  Tm0  1  0.250000  0.585175  0.704060  1
  Tm  Tm1  1  0.250000  0.914825  0.204060  1
  Tm  Tm2  1  0.750000  0.414825  0.295940  1
  Tm  Tm3  1  0.750000  0.085175  0.795940  1
  Co  Co4  1  0.250000  0.409011  0.488478  1
  Co  Co5  1  0.250000  0.090989  0.988478  1
  Co  Co6  1  0.750000  0.590989  0.511522  1
  Co  Co7  1  0.750000  0.909011  0.011522  1
  Co  Co8  1  0.250000  0.221643  0.177322  1
  Co  Co9  1  0.250000  0.278357  0.677322  1
  Co  Co10  1  0.750000  0.778357  0.822678  1
  Co  Co11  1  0.750000  0.721643  0.322678  1
  Co  Co12  1  0.250000  0.886582  0.702470  1
  Co  Co13  1  0.250000  0.613418  0.202470  1
  Co  Co14  1  0.750000  0.113418  0.297530  1
  Co  Co15  1  0.750000  0.386582  0.797530  1
  Co  Co16  1  0.250000  0.464425  0.930319  1
  Co  Co17  1  0.250000  0.035575  0.430319  1
  Co  Co18  1  0.750000  0.535575  0.069681  1
  Co  Co19  1  0.750000  0.964425  0.569681  1
  P  P20  1  0.250000  0.420110  0.112641  1
  P  P21  1  0.250000  0.079890  0.612641  1
  P  P22  1  0.750000  0.579890  0.887359  1
  P  P23  1  0.750000  0.920110  0.387359  1
  P  P24  1  0.250000  0.269634  0.867233  1
  P  P25  1  0.250000  0.230366  0.367233  1
  P  P26  1  0.750000  0.730366  0.132767  1
  P  P27  1  0.750000  0.769634  0.632767  1
  P  P28  1  0.250000  0.595303  0.389453  1
  P  P29  1  0.250000  0.904697  0.889453  1
  P  P30  1  0.750000  0.404697  0.610547  1
  P  P31  1  0.750000  0.095303  0.110547  1
  Ru  Ru32  1  0.250000  0.717040  0.991859  1
  Ru  Ru33  1  0.250000  0.782960  0.491859  1
  Ru  Ru34  1  0.750000  0.282960  0.008141  1
  Ru  Ru35  1  0.750000  0.217040  0.508141  1
