# generated using pymatgen
data_Ho2PaP4Pd7
_symmetry_space_group_name_H-M   'P 1'
_cell_length_a   7.93268848
_cell_length_b   7.93268913
_cell_length_c   9.44494409
_cell_angle_alpha   55.39552574
_cell_angle_beta   55.39552121
_cell_angle_gamma   29.31346328
_symmetry_Int_Tables_number   1
_chemical_formula_structural   Ho2PaP4Pd7
_chemical_formula_sum   'Ho2 Pa1 P4 Pd7'
_cell_volume   235.57546958
_cell_formula_units_Z   1
loop_
 _symmetry_equiv_pos_site_id
 _symmetry_equiv_pos_as_xyz
  1  'x, y, z'
loop_
 _atom_site_type_symbol
 _atom_site_label
 _atom_site_symmetry_multiplicity
 _atom_site_fract_x
 _atom_site_fract_y
 _atom_site_fract_z
 _atom_site_occupancy
  Ho  Ho0  1  0.680150  0.680150  0.321647  1
  Ho  Ho1  1  0.319850  0.319850  0.678353  1
  Pa  Pa2  1  0.000000  0.000000  0.000000  1
  P  P3  1  0.345557  0.345557  0.244312  1
  P  P4  1  0.654443  0.654443  0.755688  1
  P  P5  1  0.895908  0.895908  0.823411  1
  P  P6  1  0.104092  0.104092  0.176589  1
  Pd  Pd7  1  0.306362  0.306362  0.028013  1
  Pd  Pd8  1  0.693638  0.693638  0.971987  1
  Pd  Pd9  1  0.510324  0.510324  0.710334  1
  Pd  Pd10  1  0.830742  0.830742  0.426627  1
  Pd  Pd11  1  0.489676  0.489676  0.289666  1
  Pd  Pd12  1  0.169258  0.169258  0.573373  1
  Pd  Pd13  1  0.000000  0.000000  0.500000  1
