# generated using pymatgen
data_Zr6Sc4Al12Pt5Rh2
_symmetry_space_group_name_H-M   'P 1'
_cell_length_a   8.94307723
_cell_length_b   8.94307743
_cell_length_c   8.95275125
_cell_angle_alpha   60.04400021
_cell_angle_beta   60.04400290
_cell_angle_gamma   60.02034329
_symmetry_Int_Tables_number   1
_chemical_formula_structural   Zr6Sc4Al12Pt5Rh2
_chemical_formula_sum   'Zr6 Sc4 Al12 Pt5 Rh2'
_cell_volume   506.72324695
_cell_formula_units_Z   1
loop_
 _symmetry_equiv_pos_site_id
 _symmetry_equiv_pos_as_xyz
  1  'x, y, z'
loop_
 _atom_site_type_symbol
 _atom_site_label
 _atom_site_symmetry_multiplicity
 _atom_site_fract_x
 _atom_site_fract_y
 _atom_site_fract_z
 _atom_site_occupancy
  Zr  Zr0  1  0.681788  0.681788  0.317214  1
  Zr  Zr1  1  0.316421  0.685016  0.314949  1
  Zr  Zr2  1  0.685016  0.316421  0.314949  1
  Zr  Zr3  1  0.318357  0.318357  0.683179  1
  Zr  Zr4  1  0.683164  0.315592  0.684726  1
  Zr  Zr5  1  0.315592  0.683164  0.684726  1
  Sc  Sc6  1  0.880886  0.880886  0.357948  1
  Sc  Sc7  1  0.881940  0.359090  0.882434  1
  Sc  Sc8  1  0.359090  0.881940  0.882434  1
  Sc  Sc9  1  0.878206  0.878206  0.883494  1
  Al  Al10  1  0.120964  0.120964  0.635754  1
  Al  Al11  1  0.120809  0.634856  0.119593  1
  Al  Al12  1  0.634856  0.120809  0.119593  1
  Al  Al13  1  0.122984  0.122984  0.119839  1
  Al  Al14  1  0.663725  0.663725  0.012238  1
  Al  Al15  1  0.661616  0.012190  0.665149  1
  Al  Al16  1  0.012190  0.661616  0.665149  1
  Al  Al17  1  0.662372  0.662372  0.662772  1
  Al  Al18  1  0.334694  0.334694  0.991757  1
  Al  Al19  1  0.337622  0.991276  0.333233  1
  Al  Al20  1  0.991276  0.337622  0.333233  1
  Al  Al21  1  0.336441  0.336441  0.336331  1
  Pt  Pt22  1  0.000019  0.000019  0.999647  1
  Pt  Pt23  1  0.000820  0.000820  0.498786  1
  Pt  Pt24  1  0.499426  0.000816  0.499014  1
  Pt  Pt25  1  0.000816  0.499426  0.499014  1
  Pt  Pt26  1  0.499119  0.499119  0.000977  1
  Rh  Rh27  1  0.000920  0.498871  0.000933  1
  Rh  Rh28  1  0.498871  0.000920  0.000933  1
