# generated using pymatgen
data_Cs4Li2DyLuSb4
_symmetry_space_group_name_H-M   'P 1'
_cell_length_a   11.52961932
_cell_length_b   11.52961740
_cell_length_c   7.31843200
_cell_angle_alpha   90.00000000
_cell_angle_beta   90.00000000
_cell_angle_gamma   101.09217286
_symmetry_Int_Tables_number   1
_chemical_formula_structural   Cs4Li2DyLuSb4
_chemical_formula_sum   'Cs8 Li4 Dy2 Lu2 Sb8'
_cell_volume   954.68059182
_cell_formula_units_Z   2
loop_
 _symmetry_equiv_pos_site_id
 _symmetry_equiv_pos_as_xyz
  1  'x, y, z'
loop_
 _atom_site_type_symbol
 _atom_site_label
 _atom_site_symmetry_multiplicity
 _atom_site_fract_x
 _atom_site_fract_y
 _atom_site_fract_z
 _atom_site_occupancy
  Cs  Cs0  1  0.571797  0.928203  0.750000  1
  Cs  Cs1  1  0.928203  0.571797  0.250000  1
  Cs  Cs2  1  0.427798  0.072202  0.250000  1
  Cs  Cs3  1  0.072202  0.427798  0.750000  1
  Cs  Cs4  1  0.674340  0.322576  0.778035  1
  Cs  Cs5  1  0.825660  0.177424  0.278035  1
  Cs  Cs6  1  0.322576  0.674340  0.221965  1
  Cs  Cs7  1  0.177424  0.825660  0.721965  1
  Li  Li8  1  0.619894  0.619894  0.000000  1
  Li  Li9  1  0.880106  0.880106  0.500000  1
  Li  Li10  1  0.377238  0.377238  0.000000  1
  Li  Li11  1  0.122762  0.122762  0.500000  1
  Dy  Dy12  1  0.871218  0.871218  0.000000  1
  Dy  Dy13  1  0.628782  0.628782  0.500000  1
  Lu  Lu14  1  0.130439  0.130439  0.000000  1
  Lu  Lu15  1  0.369561  0.369561  0.500000  1
  Sb  Sb16  1  0.337627  0.162373  0.750000  1
  Sb  Sb17  1  0.162373  0.337627  0.250000  1
  Sb  Sb18  1  0.660026  0.839974  0.250000  1
  Sb  Sb19  1  0.839974  0.660026  0.750000  1
  Sb  Sb20  1  0.914305  0.090490  0.762893  1
  Sb  Sb21  1  0.585695  0.409510  0.262893  1
  Sb  Sb22  1  0.090490  0.914305  0.237107  1
  Sb  Sb23  1  0.409510  0.585695  0.737107  1
