# generated using pymatgen
data_Er7LuHf12Si15Ir
_symmetry_space_group_name_H-M   'P 1'
_cell_length_a   7.29182498
_cell_length_b   7.29450391
_cell_length_c   13.41986700
_cell_angle_alpha   89.90667885
_cell_angle_beta   89.97030637
_cell_angle_gamma   90.03327106
_symmetry_Int_Tables_number   1
_chemical_formula_structural   Er7LuHf12Si15Ir
_chemical_formula_sum   'Er7 Lu1 Hf12 Si15 Ir1'
_cell_volume   713.80486117
_cell_formula_units_Z   1
loop_
 _symmetry_equiv_pos_site_id
 _symmetry_equiv_pos_as_xyz
  1  'x, y, z'
loop_
 _atom_site_type_symbol
 _atom_site_label
 _atom_site_symmetry_multiplicity
 _atom_site_fract_x
 _atom_site_fract_y
 _atom_site_fract_z
 _atom_site_occupancy
  Er  Er0  1  0.004125  0.655162  0.714778  1
  Er  Er1  1  0.156574  0.494008  0.463282  1
  Er  Er2  1  0.503696  0.842981  0.034548  1
  Er  Er3  1  0.844831  0.502571  0.965178  1
  Er  Er4  1  0.496341  0.156719  0.535641  1
  Er  Er5  1  0.344026  0.997130  0.785274  1
  Er  Er6  1  0.657750  0.000858  0.284457  1
  Lu  Lu7  1  0.998222  0.348103  0.214530  1
  Hf  Hf8  1  0.174889  0.175041  0.998511  1
  Hf  Hf9  1  0.826978  0.825473  0.500188  1
  Hf  Hf10  1  0.324184  0.667067  0.252665  1
  Hf  Hf11  1  0.674670  0.325302  0.750377  1
  Hf  Hf12  1  0.152538  0.006119  0.373081  1
  Hf  Hf13  1  0.851100  0.004140  0.875066  1
  Hf  Hf14  1  0.503622  0.649932  0.625507  1
  Hf  Hf15  1  0.351603  0.496581  0.873929  1
  Hf  Hf16  1  0.495031  0.347265  0.126443  1
  Hf  Hf17  1  0.645932  0.501061  0.378451  1
  Hf  Hf18  1  0.997354  0.147979  0.626445  1
  Hf  Hf19  1  0.999797  0.849596  0.124233  1
  Si  Si20  1  0.639147  0.705231  0.818874  1
  Si  Si21  1  0.204708  0.860912  0.566859  1
  Si  Si22  1  0.139156  0.795148  0.932455  1
  Si  Si23  1  0.797867  0.139574  0.067560  1
  Si  Si24  1  0.859018  0.199653  0.435349  1
  Si  Si25  1  0.295916  0.361250  0.683087  1
  Si  Si26  1  0.704590  0.639073  0.182212  1
  Si  Si27  1  0.291450  0.045556  0.183511  1
  Si  Si28  1  0.704782  0.951273  0.685874  1
  Si  Si29  1  0.451685  0.798418  0.437872  1
  Si  Si30  1  0.203954  0.549639  0.061714  1
  Si  Si31  1  0.548475  0.203860  0.935142  1
  Si  Si32  1  0.795916  0.451214  0.566339  1
  Si  Si33  1  0.047895  0.296797  0.814705  1
  Si  Si34  1  0.949433  0.707507  0.313590  1
  Ir  Ir35  1  0.362740  0.301805  0.312275  1
