# generated using pymatgen
data_Ta4Mn2FeB4Ru9
_symmetry_space_group_name_H-M   'P 1'
_cell_length_a   9.20588909
_cell_length_b   9.20588909
_cell_length_c   3.00436900
_cell_angle_alpha   90.00000000
_cell_angle_beta   90.00000000
_cell_angle_gamma   89.94422214
_symmetry_Int_Tables_number   1
_chemical_formula_structural   Ta4Mn2FeB4Ru9
_chemical_formula_sum   'Ta4 Mn2 Fe1 B4 Ru9'
_cell_volume   254.61532693
_cell_formula_units_Z   1
loop_
 _symmetry_equiv_pos_site_id
 _symmetry_equiv_pos_as_xyz
  1  'x, y, z'
loop_
 _atom_site_type_symbol
 _atom_site_label
 _atom_site_symmetry_multiplicity
 _atom_site_fract_x
 _atom_site_fract_y
 _atom_site_fract_z
 _atom_site_occupancy
  Ta  Ta0  1  0.821022  0.678978  0.000000  1
  Ta  Ta1  1  0.178978  0.321022  0.000000  1
  Ta  Ta2  1  0.328669  0.828669  0.000000  1
  Ta  Ta3  1  0.671331  0.171331  0.000000  1
  Mn  Mn4  1  0.500000  0.500000  0.000000  1
  Mn  Mn5  1  0.000000  0.000000  0.000000  1
  Fe  Fe6  1  0.500000  0.000000  0.500000  1
  B  B7  1  0.614013  0.885987  0.000000  1
  B  B8  1  0.385987  0.114013  0.000000  1
  B  B9  1  0.125350  0.625350  0.000000  1
  B  B10  1  0.874650  0.374650  0.000000  1
  Ru  Ru11  1  0.568070  0.719357  0.500000  1
  Ru  Ru12  1  0.431930  0.280643  0.500000  1
  Ru  Ru13  1  0.070706  0.786828  0.500000  1
  Ru  Ru14  1  0.929294  0.213172  0.500000  1
  Ru  Ru15  1  0.286828  0.570706  0.500000  1
  Ru  Ru16  1  0.713172  0.429294  0.500000  1
  Ru  Ru17  1  0.219357  0.068070  0.500000  1
  Ru  Ru18  1  0.780643  0.931930  0.500000  1
  Ru  Ru19  1  0.000000  0.500000  0.500000  1
