# generated using pymatgen
data_Pr5Si12Ir18Ru
_symmetry_space_group_name_H-M   'P 1'
_cell_length_a   12.81129700
_cell_length_b   12.81129795
_cell_length_c   3.98781300
_cell_angle_alpha   90.00000000
_cell_angle_beta   90.00000000
_cell_angle_gamma   120.21697723
_symmetry_Int_Tables_number   1
_chemical_formula_structural   Pr5Si12Ir18Ru
_chemical_formula_sum   'Pr5 Si12 Ir18 Ru1'
_cell_volume   565.58508087
_cell_formula_units_Z   1
loop_
 _symmetry_equiv_pos_site_id
 _symmetry_equiv_pos_as_xyz
  1  'x, y, z'
loop_
 _atom_site_type_symbol
 _atom_site_label
 _atom_site_symmetry_multiplicity
 _atom_site_fract_x
 _atom_site_fract_y
 _atom_site_fract_z
 _atom_site_occupancy
  Pr  Pr0  1  0.665556  0.332852  0.000000  1
  Pr  Pr1  1  0.332852  0.665556  0.000000  1
  Pr  Pr2  1  0.814864  0.814864  0.500000  1
  Pr  Pr3  1  0.186765  0.001965  0.500000  1
  Pr  Pr4  1  0.001965  0.186765  0.500000  1
  Si  Si5  1  0.688336  0.167897  0.500000  1
  Si  Si6  1  0.831715  0.520190  0.500000  1
  Si  Si7  1  0.476864  0.311008  0.500000  1
  Si  Si8  1  0.167897  0.688336  0.500000  1
  Si  Si9  1  0.520190  0.831715  0.500000  1
  Si  Si10  1  0.311008  0.476864  0.500000  1
  Si  Si11  1  0.629080  0.629080  0.000000  1
  Si  Si12  1  0.370660  0.000166  0.000000  1
  Si  Si13  1  0.000166  0.370660  0.000000  1
  Si  Si14  1  0.185934  0.185934  0.000000  1
  Si  Si15  1  0.817152  0.000721  0.000000  1
  Si  Si16  1  0.000721  0.817152  0.000000  1
  Ir  Ir17  1  0.805039  0.182955  0.000000  1
  Ir  Ir18  1  0.817152  0.622517  0.000000  1
  Ir  Ir19  1  0.378055  0.194601  0.000000  1
  Ir  Ir20  1  0.182955  0.805039  0.000000  1
  Ir  Ir21  1  0.622517  0.817152  0.000000  1
  Ir  Ir22  1  0.194601  0.378055  0.000000  1
  Ir  Ir23  1  0.444759  0.444759  0.000000  1
  Ir  Ir24  1  0.553860  0.999339  0.000000  1
  Ir  Ir25  1  0.999339  0.553860  0.000000  1
  Ir  Ir26  1  0.716520  0.000205  0.500000  1
  Ir  Ir27  1  0.000205  0.716520  0.500000  1
  Ir  Ir28  1  0.874837  0.362425  0.500000  1
  Ir  Ir29  1  0.637432  0.512532  0.500000  1
  Ir  Ir30  1  0.487557  0.124710  0.500000  1
  Ir  Ir31  1  0.362425  0.874837  0.500000  1
  Ir  Ir32  1  0.512532  0.637432  0.500000  1
  Ir  Ir33  1  0.124710  0.487557  0.500000  1
  Ir  Ir34  1  0.000437  0.000437  0.000000  1
  Ru  Ru35  1  0.283346  0.283346  0.500000  1
