# generated using pymatgen
data_Lu12Co5Hg
_symmetry_space_group_name_H-M   'P 1'
_cell_length_a   8.07201790
_cell_length_b   8.07201722
_cell_length_c   8.07201718
_cell_angle_alpha   110.69776300
_cell_angle_beta   111.01451847
_cell_angle_gamma   106.73568897
_symmetry_Int_Tables_number   1
_chemical_formula_structural   Lu12Co5Hg
_chemical_formula_sum   'Lu12 Co5 Hg1'
_cell_volume   404.18695339
_cell_formula_units_Z   1
loop_
 _symmetry_equiv_pos_site_id
 _symmetry_equiv_pos_as_xyz
  1  'x, y, z'
loop_
 _atom_site_type_symbol
 _atom_site_label
 _atom_site_symmetry_multiplicity
 _atom_site_fract_x
 _atom_site_fract_y
 _atom_site_fract_z
 _atom_site_occupancy
  Lu  Lu0  1  0.815466  0.712470  0.527935  1
  Lu  Lu1  1  0.184534  0.287530  0.472065  1
  Lu  Lu2  1  0.184534  0.712470  0.897002  1
  Lu  Lu3  1  0.815466  0.287530  0.102998  1
  Lu  Lu4  1  0.684458  0.381845  0.697387  1
  Lu  Lu5  1  0.315542  0.618155  0.302613  1
  Lu  Lu6  1  0.684458  0.987071  0.302613  1
  Lu  Lu7  1  0.315542  0.012929  0.697387  1
  Lu  Lu8  1  0.591917  0.784893  0.807024  1
  Lu  Lu9  1  0.408083  0.215107  0.192976  1
  Lu  Lu10  1  0.977869  0.784893  0.192976  1
  Lu  Lu11  1  0.022131  0.215107  0.807024  1
  Co  Co12  1  0.624799  0.000000  0.624799  1
  Co  Co13  1  0.375201  0.000000  0.375201  1
  Co  Co14  1  0.114774  0.614774  0.500000  1
  Co  Co15  1  0.885226  0.385226  0.500000  1
  Co  Co16  1  0.000000  0.000000  0.000000  1
  Hg  Hg17  1  0.500000  0.500000  0.000000  1
