# generated using pymatgen
data_Cs3WS4
_symmetry_space_group_name_H-M   'P 1'
_cell_length_a   10.03301100
_cell_length_b   10.12616700
_cell_length_c   11.76788200
_cell_angle_alpha   90.00000000
_cell_angle_beta   90.00000000
_cell_angle_gamma   90.00000000
_symmetry_Int_Tables_number   1
_chemical_formula_structural   Cs3WS4
_chemical_formula_sum   'Cs12 W4 S16'
_cell_volume   1195.56909125
_cell_formula_units_Z   4
loop_
 _symmetry_equiv_pos_site_id
 _symmetry_equiv_pos_as_xyz
  1  'x, y, z'
loop_
 _atom_site_type_symbol
 _atom_site_label
 _atom_site_symmetry_multiplicity
 _atom_site_fract_x
 _atom_site_fract_y
 _atom_site_fract_z
 _atom_site_occupancy
  Cs  Cs0  1  0.949591  0.710256  0.958804  1
  Cs  Cs1  1  0.449591  0.789744  0.958804  1
  Cs  Cs2  1  0.550409  0.210256  0.458804  1
  Cs  Cs3  1  0.050409  0.289744  0.041196  1
  Cs  Cs4  1  0.145980  0.079758  0.750000  1
  Cs  Cs5  1  0.645980  0.420242  0.750000  1
  Cs  Cs6  1  0.354020  0.579758  0.250000  1
  Cs  Cs7  1  0.854020  0.920242  0.250000  1
  Cs  Cs8  1  0.050409  0.289744  0.458804  1
  Cs  Cs9  1  0.449591  0.789744  0.541196  1
  Cs  Cs10  1  0.550409  0.210256  0.041196  1
  Cs  Cs11  1  0.949591  0.710256  0.541196  1
  W  W12  1  0.778224  0.485470  0.250000  1
  W  W13  1  0.278224  0.014530  0.250000  1
  W  W14  1  0.721776  0.985470  0.750000  1
  W  W15  1  0.221776  0.514530  0.750000  1
  S  S16  1  0.204596  0.736446  0.750000  1
  S  S17  1  0.704596  0.763554  0.750000  1
  S  S18  1  0.295404  0.236446  0.250000  1
  S  S19  1  0.795404  0.263554  0.250000  1
  S  S20  1  0.014743  0.427118  0.750000  1
  S  S21  1  0.514743  0.072882  0.750000  1
  S  S22  1  0.485257  0.927118  0.250000  1
  S  S23  1  0.985257  0.572882  0.250000  1
  S  S24  1  0.669279  0.547833  0.408494  1
  S  S25  1  0.169279  0.952167  0.091506  1
  S  S26  1  0.830721  0.047833  0.591506  1
  S  S27  1  0.330721  0.452167  0.908494  1
  S  S28  1  0.330721  0.452167  0.591506  1
  S  S29  1  0.669279  0.547833  0.091506  1
  S  S30  1  0.169279  0.952167  0.408494  1
  S  S31  1  0.830721  0.047833  0.908494  1
