# generated using pymatgen
data_La12Pr3Ho(CdCo)4
_symmetry_space_group_name_H-M   'P 1'
_cell_length_a   9.89158802
_cell_length_b   9.91089324
_cell_length_c   9.96018600
_cell_angle_alpha   59.83534470
_cell_angle_beta   59.77033299
_cell_angle_gamma   60.82031579
_symmetry_Int_Tables_number   1
_chemical_formula_structural   La12Pr3Ho(CdCo)4
_chemical_formula_sum   'La12 Pr3 Ho1 Cd4 Co4'
_cell_volume   692.52289260
_cell_formula_units_Z   1
loop_
 _symmetry_equiv_pos_site_id
 _symmetry_equiv_pos_as_xyz
  1  'x, y, z'
loop_
 _atom_site_type_symbol
 _atom_site_label
 _atom_site_symmetry_multiplicity
 _atom_site_fract_x
 _atom_site_fract_y
 _atom_site_fract_z
 _atom_site_occupancy
  La  La0  1  0.156168  0.154237  0.537834  1
  La  La1  1  0.317297  0.692672  0.680865  1
  La  La2  1  0.156168  0.154237  0.151760  1
  La  La3  1  0.537570  0.144766  0.158832  1
  La  La4  1  0.317297  0.692672  0.309166  1
  La  La5  1  0.313787  0.311416  0.687398  1
  La  La6  1  0.690619  0.317827  0.681256  1
  La  La7  1  0.939239  0.560649  0.559245  1
  La  La8  1  0.554864  0.555172  0.944982  1
  La  La9  1  0.145250  0.536671  0.159038  1
  La  La10  1  0.690619  0.317827  0.310296  1
  La  La11  1  0.939239  0.560649  0.940869  1
  Pr  Pr12  1  0.937206  0.939051  0.561871  1
  Pr  Pr13  1  0.563101  0.937338  0.561799  1
  Pr  Pr14  1  0.563101  0.937338  0.937762  1
  Ho  Ho15  1  0.692569  0.696381  0.305526  1
  Cd  Cd16  1  0.239258  0.918866  0.920937  1
  Cd  Cd17  1  0.918426  0.919573  0.924328  1
  Cd  Cd18  1  0.918426  0.919573  0.237673  1
  Cd  Cd19  1  0.918966  0.237930  0.921551  1
  Co  Co20  1  0.915522  0.358188  0.363145  1
  Co  Co21  1  0.359868  0.359863  0.918712  1
  Co  Co22  1  0.355568  0.917240  0.363596  1
  Co  Co23  1  0.359868  0.359863  0.361557  1
