# generated using pymatgen
data_Nb6Ga4FeCuN2
_symmetry_space_group_name_H-M   'P 1'
_cell_length_a   8.28765942
_cell_length_b   8.23325012
_cell_length_c   8.23325128
_cell_angle_alpha   59.58665351
_cell_angle_beta   59.78116017
_cell_angle_gamma   59.78115637
_symmetry_Int_Tables_number   1
_chemical_formula_structural   Nb6Ga4FeCuN2
_chemical_formula_sum   'Nb12 Ga8 Fe2 Cu2 N4'
_cell_volume   394.68351470
_cell_formula_units_Z   2
loop_
 _symmetry_equiv_pos_site_id
 _symmetry_equiv_pos_as_xyz
  1  'x, y, z'
loop_
 _atom_site_type_symbol
 _atom_site_label
 _atom_site_symmetry_multiplicity
 _atom_site_fract_x
 _atom_site_fract_y
 _atom_site_fract_z
 _atom_site_occupancy
  Nb  Nb0  1  0.807637  0.808586  0.192142  1
  Nb  Nb1  1  0.191634  0.192142  0.808586  1
  Nb  Nb2  1  0.807637  0.192142  0.808586  1
  Nb  Nb3  1  0.191634  0.808586  0.192142  1
  Nb  Nb4  1  0.190604  0.809396  0.809396  1
  Nb  Nb5  1  0.808065  0.191935  0.191935  1
  Nb  Nb6  1  0.442363  0.441414  0.057858  1
  Nb  Nb7  1  0.058366  0.057858  0.441414  1
  Nb  Nb8  1  0.442363  0.057858  0.441414  1
  Nb  Nb9  1  0.058366  0.441414  0.057858  1
  Nb  Nb10  1  0.059396  0.440604  0.440604  1
  Nb  Nb11  1  0.441935  0.058065  0.058065  1
  Ga  Ga12  1  0.755877  0.416134  0.416134  1
  Ga  Ga13  1  0.413923  0.753747  0.418409  1
  Ga  Ga14  1  0.413923  0.418409  0.753747  1
  Ga  Ga15  1  0.411856  0.416134  0.416134  1
  Ga  Ga16  1  0.494123  0.833866  0.833866  1
  Ga  Ga17  1  0.836077  0.496253  0.831591  1
  Ga  Ga18  1  0.836077  0.831591  0.496253  1
  Ga  Ga19  1  0.838144  0.833866  0.833866  1
  Fe  Fe20  1  0.125000  0.625000  0.625000  1
  Fe  Fe21  1  0.625000  0.625000  0.625000  1
  Cu  Cu22  1  0.625000  0.125000  0.625000  1
  Cu  Cu23  1  0.625000  0.625000  0.125000  1
  N  N24  1  0.625000  0.125000  0.125000  1
  N  N25  1  0.125000  0.625000  0.125000  1
  N  N26  1  0.125000  0.125000  0.625000  1
  N  N27  1  0.125000  0.125000  0.125000  1
