# generated using pymatgen
data_Nd3TlPd3Pb2
_symmetry_space_group_name_H-M   'P 1'
_cell_length_a   7.92849312
_cell_length_b   7.92542945
_cell_length_c   4.05079100
_cell_angle_alpha   90.00000000
_cell_angle_beta   90.00000000
_cell_angle_gamma   120.21885964
_symmetry_Int_Tables_number   1
_chemical_formula_structural   Nd3TlPd3Pb2
_chemical_formula_sum   'Nd3 Tl1 Pd3 Pb2'
_cell_volume   219.94896028
_cell_formula_units_Z   1
loop_
 _symmetry_equiv_pos_site_id
 _symmetry_equiv_pos_as_xyz
  1  'x, y, z'
loop_
 _atom_site_type_symbol
 _atom_site_label
 _atom_site_symmetry_multiplicity
 _atom_site_fract_x
 _atom_site_fract_y
 _atom_site_fract_z
 _atom_site_occupancy
  Nd  Nd0  1  0.997199  0.592381  0.500000  1
  Nd  Nd1  1  0.413021  0.412953  0.500000  1
  Nd  Nd2  1  0.592464  0.997067  0.500000  1
  Tl  Tl3  1  0.738446  0.738604  0.000000  1
  Pd  Pd4  1  0.666080  0.332138  0.000000  1
  Pd  Pd5  1  0.333291  0.666881  0.000000  1
  Pd  Pd6  1  0.002646  0.002959  0.500000  1
  Pb  Pb7  1  0.257893  0.999265  0.000000  1
  Pb  Pb8  1  0.998958  0.257748  0.000000  1
