# generated using pymatgen
data_Mg3ZrGe6Ir7
_symmetry_space_group_name_H-M   'P 1'
_cell_length_a   6.98577064
_cell_length_b   7.11465248
_cell_length_c   7.11465219
_cell_angle_alpha   109.83526412
_cell_angle_beta   109.10467591
_cell_angle_gamma   109.10467132
_symmetry_Int_Tables_number   1
_chemical_formula_structural   Mg3ZrGe6Ir7
_chemical_formula_sum   'Mg3 Zr1 Ge6 Ir7'
_cell_volume   273.42892683
_cell_formula_units_Z   1
loop_
 _symmetry_equiv_pos_site_id
 _symmetry_equiv_pos_as_xyz
  1  'x, y, z'
loop_
 _atom_site_type_symbol
 _atom_site_label
 _atom_site_symmetry_multiplicity
 _atom_site_fract_x
 _atom_site_fract_y
 _atom_site_fract_z
 _atom_site_occupancy
  Mg  Mg0  1  0.500000  0.500000  0.500000  1
  Mg  Mg1  1  0.000000  0.000000  0.500000  1
  Mg  Mg2  1  0.000000  0.500000  0.000000  1
  Zr  Zr3  1  0.500000  0.000000  0.000000  1
  Ge  Ge4  1  0.005713  0.312685  0.312685  1
  Ge  Ge5  1  0.994287  0.687315  0.687315  1
  Ge  Ge6  1  0.306972  0.000000  0.312685  1
  Ge  Ge7  1  0.693028  0.000000  0.687315  1
  Ge  Ge8  1  0.306972  0.312685  0.000000  1
  Ge  Ge9  1  0.693028  0.687315  0.000000  1
  Ir  Ir10  1  0.500000  0.749753  0.250247  1
  Ir  Ir11  1  0.500000  0.250247  0.749753  1
  Ir  Ir12  1  0.249753  0.499506  0.749753  1
  Ir  Ir13  1  0.750247  0.500494  0.250247  1
  Ir  Ir14  1  0.750247  0.250247  0.500494  1
  Ir  Ir15  1  0.249753  0.749753  0.499506  1
  Ir  Ir16  1  0.000000  0.000000  0.000000  1
