# generated using pymatgen
data_NdAl4SiPt2
_symmetry_space_group_name_H-M   'P 1'
_cell_length_a   5.95192500
_cell_length_b   5.95192500
_cell_length_c   8.32143100
_cell_angle_alpha   90.00000000
_cell_angle_beta   90.00000000
_cell_angle_gamma   90.00000000
_symmetry_Int_Tables_number   1
_chemical_formula_structural   NdAl4SiPt2
_chemical_formula_sum   'Nd2 Al8 Si2 Pt4'
_cell_volume   294.79011499
_cell_formula_units_Z   2
loop_
 _symmetry_equiv_pos_site_id
 _symmetry_equiv_pos_as_xyz
  1  'x, y, z'
loop_
 _atom_site_type_symbol
 _atom_site_label
 _atom_site_symmetry_multiplicity
 _atom_site_fract_x
 _atom_site_fract_y
 _atom_site_fract_z
 _atom_site_occupancy
  Nd  Nd0  1  0.750000  0.250000  0.500000  1
  Nd  Nd1  1  0.250000  0.750000  0.500000  1
  Al  Al2  1  0.494274  0.494274  0.174485  1
  Al  Al3  1  0.005726  0.494274  0.174485  1
  Al  Al4  1  0.494274  0.005726  0.174485  1
  Al  Al5  1  0.005726  0.005726  0.174485  1
  Al  Al6  1  0.994274  0.994274  0.825514  1
  Al  Al7  1  0.505726  0.994274  0.825514  1
  Al  Al8  1  0.994274  0.505726  0.825514  1
  Al  Al9  1  0.505726  0.505726  0.825514  1
  Si  Si10  1  0.750000  0.750000  0.359682  1
  Si  Si11  1  0.250000  0.250000  0.640319  1
  Pt  Pt12  1  0.750000  0.250000  0.000000  1
  Pt  Pt13  1  0.250000  0.750000  0.000000  1
  Pt  Pt14  1  0.250000  0.250000  0.352909  1
  Pt  Pt15  1  0.750000  0.750000  0.647092  1
