# generated using pymatgen
data_BaO8
_symmetry_space_group_name_H-M   'P 1'
_cell_length_a   4.74311318
_cell_length_b   4.80190948
_cell_length_c   9.10764428
_cell_angle_alpha   110.33634817
_cell_angle_beta   93.04521825
_cell_angle_gamma   119.01667061
_symmetry_Int_Tables_number   1
_chemical_formula_structural   BaO8
_chemical_formula_sum   'Ba1 O8'
_cell_volume   163.75632740
_cell_formula_units_Z   1
loop_
 _symmetry_equiv_pos_site_id
 _symmetry_equiv_pos_as_xyz
  1  'x, y, z'
loop_
 _atom_site_type_symbol
 _atom_site_label
 _atom_site_symmetry_multiplicity
 _atom_site_fract_x
 _atom_site_fract_y
 _atom_site_fract_z
 _atom_site_occupancy
  Ba  Ba0  1  0.970670  0.153757  0.348276  1
  O  O1  1  0.558728  0.218750  0.721728  1
  O  O2  1  0.290714  0.856797  0.975648  1
  O  O3  1  0.528925  0.859500  0.525728  1
  O  O4  1  0.403558  0.316899  0.661290  1
  O  O5  1  0.350241  0.887919  0.418324  1
  O  O6  1  0.074641  0.882859  0.041818  1
  O  O7  1  0.568933  0.402708  0.232475  1
  O  O8  1  0.687652  0.267100  0.118563  1
