# generated using pymatgen
data_Er2GaSiNi2
_symmetry_space_group_name_H-M   'P 1'
_cell_length_a   4.19456300
_cell_length_b   6.80860205
_cell_length_c   7.21028903
_cell_angle_alpha   91.37248289
_cell_angle_beta   90.00000000
_cell_angle_gamma   90.00000000
_symmetry_Int_Tables_number   1
_chemical_formula_structural   Er2GaSiNi2
_chemical_formula_sum   'Er4 Ga2 Si2 Ni4'
_cell_volume   205.86036271
_cell_formula_units_Z   2
loop_
 _symmetry_equiv_pos_site_id
 _symmetry_equiv_pos_as_xyz
  1  'x, y, z'
loop_
 _atom_site_type_symbol
 _atom_site_label
 _atom_site_symmetry_multiplicity
 _atom_site_fract_x
 _atom_site_fract_y
 _atom_site_fract_z
 _atom_site_occupancy
  Er  Er0  1  0.250000  0.484633  0.203023  1
  Er  Er1  1  0.750000  0.515367  0.796977  1
  Er  Er2  1  0.750000  0.012863  0.695399  1
  Er  Er3  1  0.250000  0.987137  0.304601  1
  Ga  Ga4  1  0.250000  0.816950  0.918158  1
  Ga  Ga5  1  0.750000  0.183050  0.081842  1
  Si  Si6  1  0.750000  0.686907  0.414343  1
  Si  Si7  1  0.250000  0.313093  0.585657  1
  Ni  Ni8  1  0.250000  0.688542  0.577150  1
  Ni  Ni9  1  0.750000  0.311458  0.422850  1
  Ni  Ni10  1  0.750000  0.792171  0.100539  1
  Ni  Ni11  1  0.250000  0.207829  0.899461  1
