# generated using pymatgen
data_Y5In4CuIr
_symmetry_space_group_name_H-M   'P 1'
_cell_length_a   3.65143900
_cell_length_b   8.10678337
_cell_length_c   18.22062416
_cell_angle_alpha   89.93299862
_cell_angle_beta   90.00000000
_cell_angle_gamma   90.00000000
_symmetry_Int_Tables_number   1
_chemical_formula_structural   Y5In4CuIr
_chemical_formula_sum   'Y10 In8 Cu2 Ir2'
_cell_volume   539.35606976
_cell_formula_units_Z   2
loop_
 _symmetry_equiv_pos_site_id
 _symmetry_equiv_pos_as_xyz
  1  'x, y, z'
loop_
 _atom_site_type_symbol
 _atom_site_label
 _atom_site_symmetry_multiplicity
 _atom_site_fract_x
 _atom_site_fract_y
 _atom_site_fract_z
 _atom_site_occupancy
  Y  Y0  1  0.500000  0.228248  0.778851  1
  Y  Y1  1  0.500000  0.771752  0.221149  1
  Y  Y2  1  0.500000  0.245783  0.280554  1
  Y  Y3  1  0.500000  0.754217  0.719446  1
  Y  Y4  1  0.500000  0.116443  0.586124  1
  Y  Y5  1  0.500000  0.883557  0.413876  1
  Y  Y6  1  0.500000  0.381756  0.083399  1
  Y  Y7  1  0.500000  0.618244  0.916601  1
  Y  Y8  1  0.500000  0.000000  0.000000  1
  Y  Y9  1  0.500000  0.500000  0.500000  1
  In  In10  1  0.000000  0.079023  0.149004  1
  In  In11  1  0.000000  0.920977  0.850996  1
  In  In12  1  0.000000  0.422334  0.652303  1
  In  In13  1  0.000000  0.577666  0.347697  1
  In  In14  1  0.000000  0.208478  0.431567  1
  In  In15  1  0.000000  0.791522  0.568433  1
  In  In16  1  0.000000  0.293744  0.930901  1
  In  In17  1  0.000000  0.706256  0.069099  1
  Cu  Cu18  1  0.000000  0.477737  0.197085  1
  Cu  Cu19  1  0.000000  0.522263  0.802915  1
  Ir  Ir20  1  0.000000  0.022842  0.695937  1
  Ir  Ir21  1  0.000000  0.977158  0.304063  1
