# generated using pymatgen
data_LiDyTh3Bi3C
_symmetry_space_group_name_H-M   'P 1'
_cell_length_a   9.27866900
_cell_length_b   9.27866919
_cell_length_c   6.41333000
_cell_angle_alpha   90.00000000
_cell_angle_beta   90.00000000
_cell_angle_gamma   120.00000288
_symmetry_Int_Tables_number   1
_chemical_formula_structural   LiDyTh3Bi3C
_chemical_formula_sum   'Li2 Dy2 Th6 Bi6 C2'
_cell_volume   478.17358342
_cell_formula_units_Z   2
loop_
 _symmetry_equiv_pos_site_id
 _symmetry_equiv_pos_as_xyz
  1  'x, y, z'
loop_
 _atom_site_type_symbol
 _atom_site_label
 _atom_site_symmetry_multiplicity
 _atom_site_fract_x
 _atom_site_fract_y
 _atom_site_fract_z
 _atom_site_occupancy
  Li  Li0  1  0.666667  0.333333  0.000000  1
  Li  Li1  1  0.333333  0.666667  0.000000  1
  Dy  Dy2  1  0.333333  0.666667  0.500000  1
  Dy  Dy3  1  0.666667  0.333333  0.500000  1
  Th  Th4  1  0.779607  0.779607  0.747508  1
  Th  Th5  1  0.220393  0.000000  0.747508  1
  Th  Th6  1  0.000000  0.220393  0.747508  1
  Th  Th7  1  0.220393  0.220393  0.252492  1
  Th  Th8  1  0.779607  0.000000  0.252492  1
  Th  Th9  1  0.000000  0.779607  0.252492  1
  Bi  Bi10  1  0.408166  0.408166  0.751671  1
  Bi  Bi11  1  0.591834  0.000000  0.751671  1
  Bi  Bi12  1  0.000000  0.591834  0.751671  1
  Bi  Bi13  1  0.591834  0.591834  0.248329  1
  Bi  Bi14  1  0.408166  0.000000  0.248329  1
  Bi  Bi15  1  0.000000  0.408166  0.248329  1
  C  C16  1  0.000000  0.000000  0.000000  1
  C  C17  1  0.000000  0.000000  0.500000  1
