# generated using pymatgen
data_Y8In3HgAu8
_symmetry_space_group_name_H-M   'P 1'
_cell_length_a   8.04050600
_cell_length_b   8.04050600
_cell_length_c   7.38227100
_cell_angle_alpha   90.00000000
_cell_angle_beta   90.00000000
_cell_angle_gamma   90.00000000
_symmetry_Int_Tables_number   1
_chemical_formula_structural   Y8In3HgAu8
_chemical_formula_sum   'Y8 In3 Hg1 Au8'
_cell_volume   477.26187666
_cell_formula_units_Z   1
loop_
 _symmetry_equiv_pos_site_id
 _symmetry_equiv_pos_as_xyz
  1  'x, y, z'
loop_
 _atom_site_type_symbol
 _atom_site_label
 _atom_site_symmetry_multiplicity
 _atom_site_fract_x
 _atom_site_fract_y
 _atom_site_fract_z
 _atom_site_occupancy
  Y  Y0  1  0.164862  0.159949  0.999884  1
  Y  Y1  1  0.835138  0.840051  0.999884  1
  Y  Y2  1  0.659949  0.335138  0.500116  1
  Y  Y3  1  0.340051  0.664862  0.500116  1
  Y  Y4  1  0.674655  0.319598  0.999988  1
  Y  Y5  1  0.325345  0.680402  0.999988  1
  Y  Y6  1  0.819598  0.825345  0.500012  1
  Y  Y7  1  0.180402  0.174655  0.500012  1
  In  In8  1  0.500000  0.000000  0.750000  1
  In  In9  1  0.000000  0.500000  0.250000  1
  In  In10  1  0.000000  0.500000  0.750000  1
  Hg  Hg11  1  0.500000  0.000000  0.250000  1
  Au  Au12  1  0.369342  0.374303  0.234335  1
  Au  Au13  1  0.629360  0.627686  0.765918  1
  Au  Au14  1  0.630658  0.625697  0.234335  1
  Au  Au15  1  0.872314  0.129360  0.734082  1
  Au  Au16  1  0.874303  0.130658  0.265665  1
  Au  Au17  1  0.370640  0.372314  0.765918  1
  Au  Au18  1  0.125697  0.869342  0.265665  1
  Au  Au19  1  0.127686  0.870640  0.734082  1
