# generated using pymatgen
data_TmScSe3
_symmetry_space_group_name_H-M   'P 1'
_cell_length_a   12.99159671
_cell_length_b   12.39313123
_cell_length_c   6.91179057
_cell_angle_alpha   79.03678152
_cell_angle_beta   69.47586056
_cell_angle_gamma   31.48735277
_symmetry_Int_Tables_number   1
_chemical_formula_structural   TmScSe3
_chemical_formula_sum   'Tm4 Sc4 Se12'
_cell_volume   530.71889199
_cell_formula_units_Z   4
loop_
 _symmetry_equiv_pos_site_id
 _symmetry_equiv_pos_as_xyz
  1  'x, y, z'
loop_
 _atom_site_type_symbol
 _atom_site_label
 _atom_site_symmetry_multiplicity
 _atom_site_fract_x
 _atom_site_fract_y
 _atom_site_fract_z
 _atom_site_occupancy
  Tm  Tm0  1  0.996889  0.996889  0.503111  1
  Tm  Tm1  1  0.503111  0.503111  0.996889  1
  Tm  Tm2  1  0.253111  0.253111  0.746889  1
  Tm  Tm3  1  0.746889  0.746889  0.253111  1
  Sc  Sc4  1  0.333241  0.333241  0.166759  1
  Sc  Sc5  1  0.166759  0.166759  0.333241  1
  Sc  Sc6  1  0.916759  0.916759  0.083241  1
  Sc  Sc7  1  0.083241  0.083241  0.916759  1
  Se  Se8  1  0.013255  0.486745  0.486745  1
  Se  Se9  1  0.486745  0.013255  0.013255  1
  Se  Se10  1  0.236745  0.763255  0.763255  1
  Se  Se11  1  0.763255  0.236745  0.236745  1
  Se  Se12  1  0.664589  0.167185  0.849212  1
  Se  Se13  1  0.849212  0.319014  0.664589  1
  Se  Se14  1  0.319014  0.849212  0.167185  1
  Se  Se15  1  0.167185  0.664589  0.319014  1
  Se  Se16  1  0.585411  0.082815  0.400788  1
  Se  Se17  1  0.400788  0.930986  0.585411  1
  Se  Se18  1  0.930986  0.400788  0.082815  1
  Se  Se19  1  0.082815  0.585411  0.930986  1
