# generated using pymatgen
data_ScZn3P7N12
_symmetry_space_group_name_H-M   'P 1'
_cell_length_a   7.20611195
_cell_length_b   7.20583357
_cell_length_c   7.20611300
_cell_angle_alpha   109.47044457
_cell_angle_beta   109.47200391
_cell_angle_gamma   109.47044097
_symmetry_Int_Tables_number   1
_chemical_formula_structural   ScZn3P7N12
_chemical_formula_sum   'Sc1 Zn3 P7 N12'
_cell_volume   288.05044438
_cell_formula_units_Z   1
loop_
 _symmetry_equiv_pos_site_id
 _symmetry_equiv_pos_as_xyz
  1  'x, y, z'
loop_
 _atom_site_type_symbol
 _atom_site_label
 _atom_site_symmetry_multiplicity
 _atom_site_fract_x
 _atom_site_fract_y
 _atom_site_fract_z
 _atom_site_occupancy
  Sc  Sc0  1  0.000000  0.337409  0.000000  1
  Zn  Zn1  1  0.674358  0.673144  0.674358  1
  Zn  Zn2  1  0.325642  0.998785  0.000000  1
  Zn  Zn3  1  0.000000  0.998785  0.325642  1
  P  P4  1  0.748367  0.249963  0.496013  1
  P  P5  1  0.252354  0.753950  0.503987  1
  P  P6  1  0.503987  0.753950  0.252354  1
  P  P7  1  0.496013  0.249963  0.748367  1
  P  P8  1  0.747646  0.501596  0.251633  1
  P  P9  1  0.251633  0.501596  0.747646  1
  P  P10  1  0.000000  0.986015  0.000000  1
  N  N11  1  0.563941  0.272016  0.000000  1
  N  N12  1  0.442983  0.443391  0.714889  1
  N  N13  1  0.000000  0.272016  0.563941  1
  N  N14  1  0.271905  0.000408  0.557017  1
  N  N15  1  0.714889  0.443391  0.442983  1
  N  N16  1  0.000000  0.559233  0.279566  1
  N  N17  1  0.557017  0.000408  0.271905  1
  N  N18  1  0.436059  0.708075  0.436059  1
  N  N19  1  0.279566  0.559233  0.000000  1
  N  N20  1  0.720434  0.279667  0.720434  1
  N  N21  1  0.728095  0.728502  0.285111  1
  N  N22  1  0.285111  0.728502  0.728095  1
