# generated using pymatgen
data_CaNd3(Rh2O7)2
_symmetry_space_group_name_H-M   'P 1'
_cell_length_a   7.31894963
_cell_length_b   7.38033800
_cell_length_c   7.38033700
_cell_angle_alpha   59.99999999
_cell_angle_beta   59.72215060
_cell_angle_gamma   59.72214406
_symmetry_Int_Tables_number   1
_chemical_formula_structural   CaNd3(Rh2O7)2
_chemical_formula_sum   'Ca1 Nd3 Rh4 O14'
_cell_volume   280.70455238
_cell_formula_units_Z   1
loop_
 _symmetry_equiv_pos_site_id
 _symmetry_equiv_pos_as_xyz
  1  'x, y, z'
loop_
 _atom_site_type_symbol
 _atom_site_label
 _atom_site_symmetry_multiplicity
 _atom_site_fract_x
 _atom_site_fract_y
 _atom_site_fract_z
 _atom_site_occupancy
  Ca  Ca0  1  0.125000  0.625000  0.625000  1
  Nd  Nd1  1  0.625000  0.625000  0.125000  1
  Nd  Nd2  1  0.625000  0.125000  0.625000  1
  Nd  Nd3  1  0.625000  0.625000  0.625000  1
  Rh  Rh4  1  0.125000  0.125000  0.625000  1
  Rh  Rh5  1  0.125000  0.625000  0.125000  1
  Rh  Rh6  1  0.625000  0.125000  0.125000  1
  Rh  Rh7  1  0.125000  0.125000  0.125000  1
  O  O8  1  0.495740  0.501420  0.501420  1
  O  O9  1  0.754260  0.748580  0.748580  1
  O  O10  1  0.457131  0.043795  0.455280  1
  O  O11  1  0.203667  0.797910  0.200513  1
  O  O12  1  0.457131  0.455280  0.043795  1
  O  O13  1  0.046333  0.452090  0.452090  1
  O  O14  1  0.457131  0.043795  0.043795  1
  O  O15  1  0.046333  0.049487  0.452090  1
  O  O16  1  0.046333  0.452090  0.049487  1
  O  O17  1  0.792869  0.206205  0.206205  1
  O  O18  1  0.203667  0.797910  0.797910  1
  O  O19  1  0.792869  0.206205  0.794720  1
  O  O20  1  0.203667  0.200513  0.797910  1
  O  O21  1  0.792869  0.794720  0.206205  1
