# generated using pymatgen
data_NdAg4HgO8
_symmetry_space_group_name_H-M   'P 1'
_cell_length_a   6.72036864
_cell_length_b   6.72036898
_cell_length_c   6.72036963
_cell_angle_alpha   126.02094929
_cell_angle_beta   126.02095604
_cell_angle_gamma   79.85371476
_symmetry_Int_Tables_number   1
_chemical_formula_structural   NdAg4HgO8
_chemical_formula_sum   'Nd1 Ag4 Hg1 O8'
_cell_volume   191.75190984
_cell_formula_units_Z   1
loop_
 _symmetry_equiv_pos_site_id
 _symmetry_equiv_pos_as_xyz
  1  'x, y, z'
loop_
 _atom_site_type_symbol
 _atom_site_label
 _atom_site_symmetry_multiplicity
 _atom_site_fract_x
 _atom_site_fract_y
 _atom_site_fract_z
 _atom_site_occupancy
  Nd  Nd0  1  0.000000  0.000000  0.000000  1
  Ag  Ag1  1  0.377217  0.125016  0.754181  1
  Ag  Ag2  1  0.370835  0.623037  0.245819  1
  Ag  Ag3  1  0.874984  0.629165  0.252201  1
  Ag  Ag4  1  0.376963  0.622783  0.747799  1
  Hg  Hg5  1  0.750000  0.250000  0.500000  1
  O  O6  1  0.047131  0.999153  0.653665  1
  O  O7  1  0.606535  0.952869  0.952024  1
  O  O8  1  0.000847  0.654511  0.047976  1
  O  O9  1  0.396385  0.848065  0.141133  1
  O  O10  1  0.744747  0.603615  0.451680  1
  O  O11  1  0.151935  0.293067  0.548320  1
  O  O12  1  0.345489  0.393465  0.346335  1
  O  O13  1  0.706933  0.255253  0.858867  1
