# generated using pymatgen
data_La4YTmTa2O14
_symmetry_space_group_name_H-M   'P 1'
_cell_length_a   6.64256934
_cell_length_b   6.64694126
_cell_length_c   7.73615900
_cell_angle_alpha   90.00000000
_cell_angle_beta   90.00000000
_cell_angle_gamma   108.84437611
_symmetry_Int_Tables_number   1
_chemical_formula_structural   La4YTmTa2O14
_chemical_formula_sum   'La4 Y1 Tm1 Ta2 O14'
_cell_volume   323.26431877
_cell_formula_units_Z   1
loop_
 _symmetry_equiv_pos_site_id
 _symmetry_equiv_pos_as_xyz
  1  'x, y, z'
loop_
 _atom_site_type_symbol
 _atom_site_label
 _atom_site_symmetry_multiplicity
 _atom_site_fract_x
 _atom_site_fract_y
 _atom_site_fract_z
 _atom_site_occupancy
  La  La0  1  0.477614  0.475237  0.499412  1
  La  La1  1  0.477614  0.475237  0.000588  1
  La  La2  1  0.531138  0.993217  0.750000  1
  La  La3  1  0.995429  0.531854  0.250000  1
  Y  Y4  1  0.996888  0.468304  0.750000  1
  Tm  Tm5  1  0.470620  0.997621  0.250000  1
  Ta  Ta6  1  0.998187  0.998495  0.499039  1
  Ta  Ta7  1  0.998187  0.998495  0.000961  1
  O  O8  1  0.697895  0.954486  0.453274  1
  O  O9  1  0.939980  0.694322  0.541914  1
  O  O10  1  0.697895  0.954486  0.046726  1
  O  O11  1  0.939980  0.694322  0.958086  1
  O  O12  1  0.322254  0.070743  0.514463  1
  O  O13  1  0.077127  0.323212  0.483036  1
  O  O14  1  0.322254  0.070743  0.985537  1
  O  O15  1  0.077127  0.323212  0.016964  1
  O  O16  1  0.943573  0.055424  0.750000  1
  O  O17  1  0.057174  0.941953  0.250000  1
  O  O18  1  0.355497  0.620311  0.750000  1
  O  O19  1  0.618942  0.351250  0.250000  1
  O  O20  1  0.641212  0.359058  0.750000  1
  O  O21  1  0.363412  0.648020  0.250000  1
