# generated using pymatgen
data_Ce3MgZn2Ir2Au
_symmetry_space_group_name_H-M   'P 1'
_cell_length_a   7.40895687
_cell_length_b   7.40895589
_cell_length_c   3.97418000
_cell_angle_alpha   90.00000000
_cell_angle_beta   90.00000000
_cell_angle_gamma   120.08136839
_symmetry_Int_Tables_number   1
_chemical_formula_structural   Ce3MgZn2Ir2Au
_chemical_formula_sum   'Ce3 Mg1 Zn2 Ir2 Au1'
_cell_volume   188.77112721
_cell_formula_units_Z   1
loop_
 _symmetry_equiv_pos_site_id
 _symmetry_equiv_pos_as_xyz
  1  'x, y, z'
loop_
 _atom_site_type_symbol
 _atom_site_label
 _atom_site_symmetry_multiplicity
 _atom_site_fract_x
 _atom_site_fract_y
 _atom_site_fract_z
 _atom_site_occupancy
  Ce  Ce0  1  0.003997  0.572763  0.000000  1
  Ce  Ce1  1  0.414791  0.414791  0.000000  1
  Ce  Ce2  1  0.572763  0.003997  0.000000  1
  Mg  Mg3  1  0.756786  0.756786  0.500000  1
  Zn  Zn4  1  0.999314  0.251474  0.500000  1
  Zn  Zn5  1  0.251474  0.999314  0.500000  1
  Ir  Ir6  1  0.332085  0.666310  0.500000  1
  Ir  Ir7  1  0.666310  0.332085  0.500000  1
  Au  Au8  1  0.002480  0.002480  0.000000  1
