# generated using pymatgen
data_Ac2Al20IrRu3
_symmetry_space_group_name_H-M   'P 1'
_cell_length_a   6.97701049
_cell_length_b   6.96788305
_cell_length_c   9.29596851
_cell_angle_alpha   89.98699838
_cell_angle_beta   90.03272320
_cell_angle_gamma   96.91922731
_symmetry_Int_Tables_number   1
_chemical_formula_structural   Ac2Al20IrRu3
_chemical_formula_sum   'Ac2 Al20 Ir1 Ru3'
_cell_volume   448.63199448
_cell_formula_units_Z   1
loop_
 _symmetry_equiv_pos_site_id
 _symmetry_equiv_pos_as_xyz
  1  'x, y, z'
loop_
 _atom_site_type_symbol
 _atom_site_label
 _atom_site_symmetry_multiplicity
 _atom_site_fract_x
 _atom_site_fract_y
 _atom_site_fract_z
 _atom_site_occupancy
  Ac  Ac0  1  0.877789  0.120938  0.750169  1
  Ac  Ac1  1  0.122211  0.879062  0.249831  1
  Al  Al2  1  0.619025  0.378182  0.552266  1
  Al  Al3  1  0.380975  0.621818  0.447734  1
  Al  Al4  1  0.378980  0.621383  0.051106  1
  Al  Al5  1  0.621020  0.378617  0.948894  1
  Al  Al6  1  0.230862  0.228714  0.498658  1
  Al  Al7  1  0.769138  0.771286  0.501342  1
  Al  Al8  1  0.769516  0.769995  0.000457  1
  Al  Al9  1  0.230484  0.230005  0.999543  1
  Al  Al10  1  0.835722  0.164902  0.102869  1
  Al  Al11  1  0.164278  0.835098  0.897131  1
  Al  Al12  1  0.165957  0.836511  0.604050  1
  Al  Al13  1  0.834043  0.163489  0.395950  1
  Al  Al14  1  0.858761  0.590371  0.751281  1
  Al  Al15  1  0.141239  0.409629  0.248719  1
  Al  Al16  1  0.410097  0.140106  0.750243  1
  Al  Al17  1  0.589903  0.859894  0.249757  1
  Al  Al18  1  0.223025  0.484846  0.752236  1
  Al  Al19  1  0.776975  0.515154  0.247764  1
  Al  Al20  1  0.515272  0.777219  0.749460  1
  Al  Al21  1  0.484728  0.222781  0.250540  1
  Ir  Ir22  1  0.000000  0.500000  0.500000  1
  Ru  Ru23  1  0.000000  0.500000  0.000000  1
  Ru  Ru24  1  0.500000  0.000000  0.000000  1
  Ru  Ru25  1  0.500000  0.000000  0.500000  1
