# generated using pymatgen
data_La11Nd5(DySn4)4
_symmetry_space_group_name_H-M   'P 1'
_cell_length_a   8.35178278
_cell_length_b   8.48916355
_cell_length_c   16.13447865
_cell_angle_alpha   90.03020298
_cell_angle_beta   89.95799238
_cell_angle_gamma   90.06207352
_symmetry_Int_Tables_number   1
_chemical_formula_structural   La11Nd5(DySn4)4
_chemical_formula_sum   'La11 Nd5 Dy4 Sn16'
_cell_volume   1143.92775026
_cell_formula_units_Z   1
loop_
 _symmetry_equiv_pos_site_id
 _symmetry_equiv_pos_as_xyz
  1  'x, y, z'
loop_
 _atom_site_type_symbol
 _atom_site_label
 _atom_site_symmetry_multiplicity
 _atom_site_fract_x
 _atom_site_fract_y
 _atom_site_fract_z
 _atom_site_occupancy
  La  La0  1  0.131845  0.337942  0.379581  1
  La  La1  1  0.368375  0.837867  0.620248  1
  La  La2  1  0.868076  0.662262  0.879941  1
  La  La3  1  0.519901  0.318636  0.902044  1
  La  La4  1  0.019915  0.181306  0.598146  1
  La  La5  1  0.480155  0.681268  0.401715  1
  La  La6  1  0.979937  0.818863  0.098118  1
  La  La7  1  0.479892  0.680946  0.098078  1
  La  La8  1  0.979763  0.819333  0.401822  1
  La  La9  1  0.520243  0.319235  0.598084  1
  La  La10  1  0.020106  0.180815  0.902021  1
  Nd  Nd11  1  0.367215  0.838307  0.879596  1
  Nd  Nd12  1  0.867422  0.661456  0.620316  1
  Nd  Nd13  1  0.632470  0.161427  0.379470  1
  Nd  Nd14  1  0.132493  0.338429  0.120455  1
  Nd  Nd15  1  0.632248  0.161823  0.120814  1
  Dy  Dy16  1  0.200379  0.501506  0.750174  1
  Dy  Dy17  1  0.700479  0.998562  0.749900  1
  Dy  Dy18  1  0.799507  0.498165  0.249996  1
  Dy  Dy19  1  0.299887  0.001625  0.249747  1
  Sn  Sn20  1  0.292526  0.034777  0.044678  1
  Sn  Sn21  1  0.790286  0.466049  0.455645  1
  Sn  Sn22  1  0.709767  0.966082  0.544393  1
  Sn  Sn23  1  0.209574  0.533990  0.955573  1
  Sn  Sn24  1  0.705978  0.967180  0.955613  1
  Sn  Sn25  1  0.206233  0.533741  0.545541  1
  Sn  Sn26  1  0.293704  0.033725  0.454375  1
  Sn  Sn27  1  0.792271  0.464432  0.045757  1
  Sn  Sn28  1  0.565292  0.615768  0.749658  1
  Sn  Sn29  1  0.065228  0.884470  0.750253  1
  Sn  Sn30  1  0.435838  0.383059  0.249268  1
  Sn  Sn31  1  0.933507  0.115766  0.249620  1
  Sn  Sn32  1  0.325029  0.146244  0.750481  1
  Sn  Sn33  1  0.825069  0.353790  0.749548  1
  Sn  Sn34  1  0.674649  0.854754  0.249888  1
  Sn  Sn35  1  0.174742  0.646402  0.249442  1
