# generated using pymatgen
data_NdSmPb2F14
_symmetry_space_group_name_H-M   'P 1'
_cell_length_a   5.88169500
_cell_length_b   9.39237723
_cell_length_c   12.61346900
_cell_angle_alpha   62.21161437
_cell_angle_beta   90.00000000
_cell_angle_gamma   90.00000000
_symmetry_Int_Tables_number   1
_chemical_formula_structural   NdSmPb2F14
_chemical_formula_sum   'Nd2 Sm2 Pb4 F28'
_cell_volume   616.44817371
_cell_formula_units_Z   2
loop_
 _symmetry_equiv_pos_site_id
 _symmetry_equiv_pos_as_xyz
  1  'x, y, z'
loop_
 _atom_site_type_symbol
 _atom_site_label
 _atom_site_symmetry_multiplicity
 _atom_site_fract_x
 _atom_site_fract_y
 _atom_site_fract_z
 _atom_site_occupancy
  Nd  Nd0  1  0.756775  0.813817  0.765271  1
  Nd  Nd1  1  0.256775  0.186183  0.734729  1
  Sm  Sm2  1  0.244067  0.184314  0.235055  1
  Sm  Sm3  1  0.744067  0.815686  0.264945  1
  Pb  Pb4  1  0.755049  0.271508  0.960110  1
  Pb  Pb5  1  0.255049  0.728492  0.539890  1
  Pb  Pb6  1  0.243673  0.725148  0.045246  1
  Pb  Pb7  1  0.743673  0.274852  0.454754  1
  F  F8  1  0.458557  0.707863  0.918614  1
  F  F9  1  0.958557  0.292137  0.581386  1
  F  F10  1  0.538899  0.291241  0.085084  1
  F  F11  1  0.038899  0.708759  0.414916  1
  F  F12  1  0.446346  0.284211  0.545042  1
  F  F13  1  0.946346  0.715789  0.954958  1
  F  F14  1  0.553654  0.718525  0.450222  1
  F  F15  1  0.053654  0.281475  0.049778  1
  F  F16  1  0.772420  0.521978  0.859329  1
  F  F17  1  0.272420  0.478022  0.640671  1
  F  F18  1  0.229917  0.474383  0.145075  1
  F  F19  1  0.729917  0.525617  0.354925  1
  F  F20  1  0.760429  0.019784  0.057850  1
  F  F21  1  0.260429  0.980216  0.442150  1
  F  F22  1  0.238627  0.976652  0.945476  1
  F  F23  1  0.738627  0.023348  0.554524  1
  F  F24  1  0.974185  0.731639  0.642036  1
  F  F25  1  0.474185  0.268361  0.857964  1
  F  F26  1  0.021318  0.267435  0.351957  1
  F  F27  1  0.521318  0.732565  0.148043  1
  F  F28  1  0.039687  0.746453  0.174911  1
  F  F29  1  0.539687  0.253547  0.325089  1
  F  F30  1  0.956841  0.252409  0.829026  1
  F  F31  1  0.456841  0.747591  0.670974  1
  F  F32  1  0.434871  0.974524  0.237736  1
  F  F33  1  0.934871  0.025476  0.262264  1
  F  F34  1  0.574683  0.029632  0.763789  1
  F  F35  1  0.074683  0.970368  0.736211  1
