# generated using pymatgen
data_YbGd5(SnH2)2
_symmetry_space_group_name_H-M   'P 1'
_cell_length_a   6.78943192
_cell_length_b   7.19989201
_cell_length_c   5.24923300
_cell_angle_alpha   90.00000000
_cell_angle_beta   90.00000000
_cell_angle_gamma   104.24411401
_symmetry_Int_Tables_number   1
_chemical_formula_structural   YbGd5(SnH2)2
_chemical_formula_sum   'Yb1 Gd5 Sn2 H4'
_cell_volume   248.71034785
_cell_formula_units_Z   1
loop_
 _symmetry_equiv_pos_site_id
 _symmetry_equiv_pos_as_xyz
  1  'x, y, z'
loop_
 _atom_site_type_symbol
 _atom_site_label
 _atom_site_symmetry_multiplicity
 _atom_site_fract_x
 _atom_site_fract_y
 _atom_site_fract_z
 _atom_site_occupancy
  Yb  Yb0  1  0.618082  0.750676  0.250000  1
  Gd  Gd1  1  0.832704  0.074525  0.750000  1
  Gd  Gd2  1  0.162406  0.923560  0.250000  1
  Gd  Gd3  1  0.866230  0.583513  0.750000  1
  Gd  Gd4  1  0.144481  0.413773  0.250000  1
  Gd  Gd5  1  0.377468  0.254283  0.750000  1
  Sn  Sn6  1  0.355118  0.725375  0.750000  1
  Sn  Sn7  1  0.649747  0.282708  0.250000  1
  H  H8  1  0.107841  0.156896  0.501797  1
  H  H9  1  0.889042  0.838897  0.501240  1
  H  H10  1  0.889042  0.838897  0.998760  1
  H  H11  1  0.107841  0.156896  0.998203  1
