# generated using pymatgen
data_Dy4Y4Ti9Si16Mo3
_symmetry_space_group_name_H-M   'P 1'
_cell_length_a   7.01650323
_cell_length_b   7.01650351
_cell_length_c   12.90050201
_cell_angle_alpha   89.98599393
_cell_angle_beta   90.01524010
_cell_angle_gamma   89.98773805
_symmetry_Int_Tables_number   1
_chemical_formula_structural   Dy4Y4Ti9Si16Mo3
_chemical_formula_sum   'Dy4 Y4 Ti9 Si16 Mo3'
_cell_volume   635.10868056
_cell_formula_units_Z   1
loop_
 _symmetry_equiv_pos_site_id
 _symmetry_equiv_pos_as_xyz
  1  'x, y, z'
loop_
 _atom_site_type_symbol
 _atom_site_label
 _atom_site_symmetry_multiplicity
 _atom_site_fract_x
 _atom_site_fract_y
 _atom_site_fract_z
 _atom_site_occupancy
  Dy  Dy0  1  0.840909  0.499657  0.283333  1
  Dy  Dy1  1  0.501312  0.158488  0.218126  1
  Dy  Dy2  1  0.499697  0.840943  0.716674  1
  Dy  Dy3  1  0.340430  0.000390  0.466842  1
  Y  Y4  1  0.997918  0.660146  0.033515  1
  Y  Y5  1  0.000489  0.340383  0.533113  1
  Y  Y6  1  0.660137  0.997926  0.966495  1
  Y  Y7  1  0.158529  0.501352  0.781894  1
  Ti  Ti8  1  0.347187  0.509181  0.374376  1
  Ti  Ti9  1  0.847238  0.990995  0.376345  1
  Ti  Ti10  1  0.008426  0.151924  0.124807  1
  Ti  Ti11  1  0.991044  0.847306  0.623622  1
  Ti  Ti12  1  0.509205  0.347127  0.625599  1
  Ti  Ti13  1  0.151914  0.008452  0.875179  1
  Ti  Ti14  1  0.326811  0.326756  0.000018  1
  Ti  Ti15  1  0.491715  0.653749  0.127450  1
  Ti  Ti16  1  0.653743  0.491719  0.872548  1
  Si  Si17  1  0.047071  0.708559  0.434906  1
  Si  Si18  1  0.951909  0.291844  0.934044  1
  Si  Si19  1  0.708456  0.047005  0.565082  1
  Si  Si20  1  0.209081  0.453368  0.184897  1
  Si  Si21  1  0.791161  0.547574  0.684633  1
  Si  Si22  1  0.453420  0.209055  0.815128  1
  Si  Si23  1  0.547508  0.791260  0.315413  1
  Si  Si24  1  0.291888  0.951975  0.065982  1
  Si  Si25  1  0.798381  0.870689  0.184756  1
  Si  Si26  1  0.299187  0.629948  0.565236  1
  Si  Si27  1  0.702064  0.369978  0.065236  1
  Si  Si28  1  0.629799  0.299124  0.434704  1
  Si  Si29  1  0.370039  0.702089  0.934766  1
  Si  Si30  1  0.129612  0.201165  0.314921  1
  Si  Si31  1  0.201219  0.129488  0.685075  1
  Si  Si32  1  0.870617  0.798406  0.815261  1
  Mo  Mo33  1  0.672875  0.672985  0.499995  1
  Mo  Mo34  1  0.826060  0.172876  0.749321  1
  Mo  Mo35  1  0.172947  0.826114  0.250707  1
