# generated using pymatgen
data_AcHfGe3
_symmetry_space_group_name_H-M   'P 1'
_cell_length_a   6.55004300
_cell_length_b   6.55004220
_cell_length_c   6.22188200
_cell_angle_alpha   90.00000000
_cell_angle_beta   90.00000000
_cell_angle_gamma   119.99999898
_symmetry_Int_Tables_number   1
_chemical_formula_structural   AcHfGe3
_chemical_formula_sum   'Ac2 Hf2 Ge6'
_cell_volume   231.17488786
_cell_formula_units_Z   2
loop_
 _symmetry_equiv_pos_site_id
 _symmetry_equiv_pos_as_xyz
  1  'x, y, z'
loop_
 _atom_site_type_symbol
 _atom_site_label
 _atom_site_symmetry_multiplicity
 _atom_site_fract_x
 _atom_site_fract_y
 _atom_site_fract_z
 _atom_site_occupancy
  Ac  Ac0  1  0.666667  0.333332  0.249999  1
  Ac  Ac1  1  0.333333  0.666667  0.750000  1
  Hf  Hf2  1  0.000000  0.000000  0.000000  1
  Hf  Hf3  1  0.000000  0.000000  0.500000  1
  Ge  Ge4  1  0.200348  0.400697  0.249999  1
  Ge  Ge5  1  0.200348  0.799651  0.249999  1
  Ge  Ge6  1  0.599303  0.799651  0.249999  1
  Ge  Ge7  1  0.400697  0.200348  0.750000  1
  Ge  Ge8  1  0.799652  0.200348  0.750000  1
  Ge  Ge9  1  0.799651  0.599302  0.750000  1
