# generated using pymatgen
data_Tb5CuRuO12
_symmetry_space_group_name_H-M   'P 1'
_cell_length_a   6.83170083
_cell_length_b   6.83170165
_cell_length_c   7.30771331
_cell_angle_alpha   74.45910876
_cell_angle_beta   74.45911131
_cell_angle_gamma   51.46288142
_symmetry_Int_Tables_number   1
_chemical_formula_structural   Tb5CuRuO12
_chemical_formula_sum   'Tb5 Cu1 Ru1 O12'
_cell_volume   254.71121970
_cell_formula_units_Z   1
loop_
 _symmetry_equiv_pos_site_id
 _symmetry_equiv_pos_as_xyz
  1  'x, y, z'
loop_
 _atom_site_type_symbol
 _atom_site_label
 _atom_site_symmetry_multiplicity
 _atom_site_fract_x
 _atom_site_fract_y
 _atom_site_fract_z
 _atom_site_occupancy
  Tb  Tb0  1  0.688029  0.695232  0.668233  1
  Tb  Tb1  1  0.685437  0.706066  0.141557  1
  Tb  Tb2  1  0.995036  0.004964  0.000000  1
  Tb  Tb3  1  0.293934  0.314563  0.858443  1
  Tb  Tb4  1  0.304768  0.311971  0.331767  1
  Cu  Cu5  1  0.256626  0.743374  0.500000  1
  Ru  Ru6  1  0.766546  0.233454  0.500000  1
  O  O7  1  0.398322  0.909185  0.923289  1
  O  O8  1  0.572784  0.102407  0.581092  1
  O  O9  1  0.897593  0.427216  0.418908  1
  O  O10  1  0.090815  0.601678  0.076711  1
  O  O11  1  0.998698  0.002713  0.320056  1
  O  O12  1  0.517365  0.483076  0.685652  1
  O  O13  1  0.897953  0.406328  0.925060  1
  O  O14  1  0.101382  0.573170  0.580752  1
  O  O15  1  0.426830  0.898618  0.419248  1
  O  O16  1  0.593672  0.102047  0.074940  1
  O  O17  1  0.516924  0.482635  0.314348  1
  O  O18  1  0.997287  0.001302  0.679944  1
