# generated using pymatgen
data_DyPu(MoN2)2
_symmetry_space_group_name_H-M   'P 1'
_cell_length_a   3.22210100
_cell_length_b   5.65032500
_cell_length_c   10.71706393
_cell_angle_alpha   90.33471783
_cell_angle_beta   90.00000000
_cell_angle_gamma   90.00000000
_symmetry_Int_Tables_number   1
_chemical_formula_structural   DyPu(MoN2)2
_chemical_formula_sum   'Dy2 Pu2 Mo4 N8'
_cell_volume   195.11065566
_cell_formula_units_Z   2
loop_
 _symmetry_equiv_pos_site_id
 _symmetry_equiv_pos_as_xyz
  1  'x, y, z'
loop_
 _atom_site_type_symbol
 _atom_site_label
 _atom_site_symmetry_multiplicity
 _atom_site_fract_x
 _atom_site_fract_y
 _atom_site_fract_z
 _atom_site_occupancy
  Dy  Dy0  1  0.250000  0.576444  0.855156  1
  Dy  Dy1  1  0.750000  0.423556  0.144844  1
  Pu  Pu2  1  0.750000  0.923917  0.355391  1
  Pu  Pu3  1  0.250000  0.076083  0.644609  1
  Mo  Mo4  1  0.250000  0.931107  0.092799  1
  Mo  Mo5  1  0.750000  0.068893  0.907201  1
  Mo  Mo6  1  0.750000  0.571139  0.600618  1
  Mo  Mo7  1  0.250000  0.428861  0.399382  1
  N  N8  1  0.250000  0.667178  0.245743  1
  N  N9  1  0.750000  0.332822  0.754257  1
  N  N10  1  0.750000  0.843118  0.746282  1
  N  N11  1  0.250000  0.156882  0.253718  1
  N  N12  1  0.250000  0.753573  0.504283  1
  N  N13  1  0.750000  0.246427  0.495717  1
  N  N14  1  0.750000  0.741316  0.004948  1
  N  N15  1  0.250000  0.258684  0.995052  1
