# generated using pymatgen
data_Ta3Mn5Nb3CrN2
_symmetry_space_group_name_H-M   'P 1'
_cell_length_a   8.05310416
_cell_length_b   8.05310517
_cell_length_c   8.06877100
_cell_angle_alpha   59.93562449
_cell_angle_beta   59.93562034
_cell_angle_gamma   59.91974202
_symmetry_Int_Tables_number   1
_chemical_formula_structural   Ta3Mn5Nb3CrN2
_chemical_formula_sum   'Ta6 Mn10 Nb6 Cr2 N4'
_cell_volume   369.43003022
_cell_formula_units_Z   2
loop_
 _symmetry_equiv_pos_site_id
 _symmetry_equiv_pos_as_xyz
  1  'x, y, z'
loop_
 _atom_site_type_symbol
 _atom_site_label
 _atom_site_symmetry_multiplicity
 _atom_site_fract_x
 _atom_site_fract_y
 _atom_site_fract_z
 _atom_site_occupancy
  Ta  Ta0  1  0.804015  0.804015  0.195985  1
  Ta  Ta1  1  0.193402  0.193402  0.806598  1
  Ta  Ta2  1  0.805039  0.195646  0.805635  1
  Ta  Ta3  1  0.195646  0.805039  0.193682  1
  Ta  Ta4  1  0.195646  0.805039  0.805635  1
  Ta  Ta5  1  0.805039  0.195646  0.193682  1
  Mn  Mn6  1  0.624979  0.624979  0.125354  1
  Mn  Mn7  1  0.624979  0.624979  0.624687  1
  Mn  Mn8  1  0.731084  0.422015  0.423452  1
  Mn  Mn9  1  0.422015  0.731084  0.423452  1
  Mn  Mn10  1  0.421920  0.421920  0.733283  1
  Mn  Mn11  1  0.421920  0.421920  0.422878  1
  Mn  Mn12  1  0.517718  0.828153  0.827063  1
  Mn  Mn13  1  0.828153  0.517718  0.827063  1
  Mn  Mn14  1  0.828165  0.828165  0.515966  1
  Mn  Mn15  1  0.828165  0.828165  0.827705  1
  Nb  Nb16  1  0.446930  0.446930  0.053070  1
  Nb  Nb17  1  0.055880  0.055880  0.444120  1
  Nb  Nb18  1  0.445832  0.053508  0.445243  1
  Nb  Nb19  1  0.053508  0.445832  0.055416  1
  Nb  Nb20  1  0.053508  0.445832  0.445243  1
  Nb  Nb21  1  0.445832  0.053508  0.055416  1
  Cr  Cr22  1  0.125588  0.624990  0.624711  1
  Cr  Cr23  1  0.624990  0.125588  0.624711  1
  N  N24  1  0.628261  0.123927  0.123906  1
  N  N25  1  0.123927  0.628261  0.123906  1
  N  N26  1  0.123930  0.123930  0.628210  1
  N  N27  1  0.123930  0.123930  0.123931  1
