# generated using pymatgen
data_Li3ScSi2(B2Rh5)2
_symmetry_space_group_name_H-M   'P 1'
_cell_length_a   9.29564554
_cell_length_b   9.29564554
_cell_length_c   2.88330700
_cell_angle_alpha   90.00000000
_cell_angle_beta   90.00000000
_cell_angle_gamma   89.08160784
_symmetry_Int_Tables_number   1
_chemical_formula_structural   Li3ScSi2(B2Rh5)2
_chemical_formula_sum   'Li3 Sc1 Si2 B4 Rh10'
_cell_volume   249.11174410
_cell_formula_units_Z   1
loop_
 _symmetry_equiv_pos_site_id
 _symmetry_equiv_pos_as_xyz
  1  'x, y, z'
loop_
 _atom_site_type_symbol
 _atom_site_label
 _atom_site_symmetry_multiplicity
 _atom_site_fract_x
 _atom_site_fract_y
 _atom_site_fract_z
 _atom_site_occupancy
  Li  Li0  1  0.677877  0.177876  0.000000  1
  Li  Li1  1  0.172445  0.325514  0.000000  1
  Li  Li2  1  0.825514  0.672446  0.000000  1
  Sc  Sc3  1  0.326876  0.826876  0.000000  1
  Si  Si4  1  0.000234  0.000649  0.000000  1
  Si  Si5  1  0.500649  0.500234  0.000000  1
  B  B6  1  0.373499  0.131208  0.000000  1
  B  B7  1  0.873030  0.373032  0.000000  1
  B  B8  1  0.119231  0.619230  0.000000  1
  B  B9  1  0.631207  0.873497  0.000000  1
  Rh  Rh10  1  0.503772  0.003772  0.500000  1
  Rh  Rh11  1  0.210594  0.070478  0.500000  1
  Rh  Rh12  1  0.927912  0.208096  0.500000  1
  Rh  Rh13  1  0.427605  0.292198  0.500000  1
  Rh  Rh14  1  0.708095  0.427912  0.500000  1
  Rh  Rh15  1  0.998348  0.498348  0.500000  1
  Rh  Rh16  1  0.288974  0.571458  0.500000  1
  Rh  Rh17  1  0.570477  0.710593  0.500000  1
  Rh  Rh18  1  0.071459  0.788973  0.500000  1
  Rh  Rh19  1  0.792197  0.927605  0.500000  1
