# generated using pymatgen
data_La2Cu(Sb2Ir)2
_symmetry_space_group_name_H-M   'P 1'
_cell_length_a   4.62322300
_cell_length_b   11.37276400
_cell_length_c   16.25367800
_cell_angle_alpha   90.00000000
_cell_angle_beta   90.00000000
_cell_angle_gamma   90.00000000
_symmetry_Int_Tables_number   1
_chemical_formula_structural   La2Cu(Sb2Ir)2
_chemical_formula_sum   'La8 Cu4 Sb16 Ir8'
_cell_volume   854.59927651
_cell_formula_units_Z   4
loop_
 _symmetry_equiv_pos_site_id
 _symmetry_equiv_pos_as_xyz
  1  'x, y, z'
loop_
 _atom_site_type_symbol
 _atom_site_label
 _atom_site_symmetry_multiplicity
 _atom_site_fract_x
 _atom_site_fract_y
 _atom_site_fract_z
 _atom_site_occupancy
  La  La0  1  0.250000  0.757361  0.506078  1
  La  La1  1  0.250000  0.742639  0.006078  1
  La  La2  1  0.750000  0.242639  0.493922  1
  La  La3  1  0.750000  0.257361  0.993922  1
  La  La4  1  0.250000  0.591897  0.751228  1
  La  La5  1  0.250000  0.908103  0.251228  1
  La  La6  1  0.750000  0.408103  0.248772  1
  La  La7  1  0.750000  0.091897  0.748772  1
  Cu  Cu8  1  0.250000  0.465610  0.560002  1
  Cu  Cu9  1  0.250000  0.034390  0.060002  1
  Cu  Cu10  1  0.750000  0.534390  0.439998  1
  Cu  Cu11  1  0.750000  0.965610  0.939998  1
  Sb  Sb12  1  0.250000  0.270685  0.649991  1
  Sb  Sb13  1  0.250000  0.229315  0.149991  1
  Sb  Sb14  1  0.750000  0.729315  0.350009  1
  Sb  Sb15  1  0.750000  0.770685  0.850009  1
  Sb  Sb16  1  0.250000  0.889248  0.710866  1
  Sb  Sb17  1  0.250000  0.610752  0.210866  1
  Sb  Sb18  1  0.750000  0.110752  0.289134  1
  Sb  Sb19  1  0.750000  0.389248  0.789134  1
  Sb  Sb20  1  0.250000  0.076661  0.898974  1
  Sb  Sb21  1  0.250000  0.423339  0.398974  1
  Sb  Sb22  1  0.750000  0.923339  0.101026  1
  Sb  Sb23  1  0.750000  0.576661  0.601026  1
  Sb  Sb24  1  0.250000  0.449595  0.931078  1
  Sb  Sb25  1  0.250000  0.050405  0.431078  1
  Sb  Sb26  1  0.750000  0.550405  0.068922  1
  Sb  Sb27  1  0.750000  0.949595  0.568922  1
  Ir  Ir28  1  0.250000  0.054479  0.593068  1
  Ir  Ir29  1  0.250000  0.445521  0.093068  1
  Ir  Ir30  1  0.750000  0.945521  0.406932  1
  Ir  Ir31  1  0.750000  0.554479  0.906932  1
  Ir  Ir32  1  0.250000  0.281394  0.817402  1
  Ir  Ir33  1  0.250000  0.218606  0.317402  1
  Ir  Ir34  1  0.750000  0.718606  0.182598  1
  Ir  Ir35  1  0.750000  0.781394  0.682598  1
