# generated using pymatgen
data_Ho2Mn5(PRh)7
_symmetry_space_group_name_H-M   'P 1'
_cell_length_a   9.44082597
_cell_length_b   9.43657915
_cell_length_c   3.79863000
_cell_angle_alpha   90.00000000
_cell_angle_beta   90.00000000
_cell_angle_gamma   120.10651459
_symmetry_Int_Tables_number   1
_chemical_formula_structural   Ho2Mn5(PRh)7
_chemical_formula_sum   'Ho2 Mn5 P7 Rh7'
_cell_volume   292.76224563
_cell_formula_units_Z   1
loop_
 _symmetry_equiv_pos_site_id
 _symmetry_equiv_pos_as_xyz
  1  'x, y, z'
loop_
 _atom_site_type_symbol
 _atom_site_label
 _atom_site_symmetry_multiplicity
 _atom_site_fract_x
 _atom_site_fract_y
 _atom_site_fract_z
 _atom_site_occupancy
  Ho  Ho0  1  0.666842  0.333811  0.000000  1
  Ho  Ho1  1  0.333648  0.666921  0.500000  1
  Mn  Mn2  1  0.269546  0.155419  0.000000  1
  Mn  Mn3  1  0.842782  0.112758  0.000000  1
  Mn  Mn4  1  0.890165  0.731202  0.000000  1
  Mn  Mn5  1  0.776978  0.878448  0.500000  1
  Mn  Mn6  1  0.121971  0.897540  0.500000  1
  P  P7  1  0.298946  0.407783  0.000000  1
  P  P8  1  0.593868  0.890440  0.000000  1
  P  P9  1  0.111671  0.702433  0.000000  1
  P  P10  1  0.397724  0.120582  0.500000  1
  P  P11  1  0.877513  0.275114  0.500000  1
  P  P12  1  0.724483  0.606611  0.500000  1
  P  P13  1  0.996643  0.999174  0.000000  1
  Rh  Rh14  1  0.064595  0.429294  0.000000  1
  Rh  Rh15  1  0.572277  0.636556  0.000000  1
  Rh  Rh16  1  0.364369  0.935512  0.000000  1
  Rh  Rh17  1  0.444092  0.388665  0.500000  1
  Rh  Rh18  1  0.611536  0.054102  0.500000  1
  Rh  Rh19  1  0.944952  0.555643  0.500000  1
  Rh  Rh20  1  0.095397  0.221994  0.500000  1
