# generated using pymatgen
data_Tc3AuF24
_symmetry_space_group_name_H-M   'P 1'
_cell_length_a   5.16888191
_cell_length_b   8.83753900
_cell_length_c   9.52902902
_cell_angle_alpha   90.00000000
_cell_angle_beta   90.19197904
_cell_angle_gamma   90.00000000
_symmetry_Int_Tables_number   1
_chemical_formula_structural   Tc3AuF24
_chemical_formula_sum   'Tc3 Au1 F24'
_cell_volume   435.28546485
_cell_formula_units_Z   1
loop_
 _symmetry_equiv_pos_site_id
 _symmetry_equiv_pos_as_xyz
  1  'x, y, z'
loop_
 _atom_site_type_symbol
 _atom_site_label
 _atom_site_symmetry_multiplicity
 _atom_site_fract_x
 _atom_site_fract_y
 _atom_site_fract_z
 _atom_site_occupancy
  Tc  Tc0  1  0.080388  0.250000  0.373513  1
  Tc  Tc1  1  0.418292  0.250000  0.868115  1
  Tc  Tc2  1  0.582463  0.750000  0.130187  1
  Au  Au3  1  0.918977  0.750000  0.628435  1
  F  F4  1  0.219957  0.750000  0.507362  1
  F  F5  1  0.788128  0.250000  0.484807  1
  F  F6  1  0.711563  0.250000  0.982276  1
  F  F7  1  0.291995  0.750000  0.017176  1
  F  F8  1  0.617608  0.750000  0.749967  1
  F  F9  1  0.372137  0.250000  0.259472  1
  F  F10  1  0.123712  0.250000  0.756347  1
  F  F11  1  0.874538  0.750000  0.241774  1
  F  F12  1  0.765444  0.593632  0.510515  1
  F  F13  1  0.229133  0.398636  0.482383  1
  F  F14  1  0.272478  0.398119  0.980759  1
  F  F15  1  0.229133  0.101364  0.482383  1
  F  F16  1  0.727575  0.601400  0.018906  1
  F  F17  1  0.765444  0.906368  0.510515  1
  F  F18  1  0.727575  0.898600  0.018906  1
  F  F19  1  0.272478  0.101881  0.980759  1
  F  F20  1  0.070967  0.593540  0.746114  1
  F  F21  1  0.934888  0.398642  0.261173  1
  F  F22  1  0.563174  0.398849  0.758722  1
  F  F23  1  0.934888  0.101358  0.261173  1
  F  F24  1  0.436462  0.601850  0.241712  1
  F  F25  1  0.070967  0.906460  0.746114  1
  F  F26  1  0.436462  0.898150  0.241712  1
  F  F27  1  0.563174  0.101151  0.758722  1
