# generated using pymatgen
data_Li4Eu3ErSi8
_symmetry_space_group_name_H-M   'P 1'
_cell_length_a   3.85659800
_cell_length_b   7.91522468
_cell_length_c   10.58393221
_cell_angle_alpha   89.80703873
_cell_angle_beta   90.00000000
_cell_angle_gamma   90.00000000
_symmetry_Int_Tables_number   1
_chemical_formula_structural   Li4Eu3ErSi8
_chemical_formula_sum   'Li4 Eu3 Er1 Si8'
_cell_volume   323.08158577
_cell_formula_units_Z   1
loop_
 _symmetry_equiv_pos_site_id
 _symmetry_equiv_pos_as_xyz
  1  'x, y, z'
loop_
 _atom_site_type_symbol
 _atom_site_label
 _atom_site_symmetry_multiplicity
 _atom_site_fract_x
 _atom_site_fract_y
 _atom_site_fract_z
 _atom_site_occupancy
  Li  Li0  1  0.250000  0.995826  0.389034  1
  Li  Li1  1  0.750000  0.001628  0.610349  1
  Li  Li2  1  0.250000  0.496901  0.107180  1
  Li  Li3  1  0.750000  0.510256  0.889897  1
  Eu  Eu4  1  0.750000  0.867344  0.134789  1
  Eu  Eu5  1  0.250000  0.634406  0.637483  1
  Eu  Eu6  1  0.750000  0.361346  0.365452  1
  Er  Er7  1  0.250000  0.127560  0.865814  1
  Si  Si8  1  0.750000  0.266667  0.059470  1
  Si  Si9  1  0.250000  0.742612  0.931613  1
  Si  Si10  1  0.750000  0.766084  0.431032  1
  Si  Si11  1  0.250000  0.226005  0.576630  1
  Si  Si12  1  0.750000  0.844594  0.823225  1
  Si  Si13  1  0.250000  0.165785  0.169057  1
  Si  Si14  1  0.750000  0.328598  0.684907  1
  Si  Si15  1  0.250000  0.664389  0.324067  1
