# generated using pymatgen
data_HfZrP7Ru12
_symmetry_space_group_name_H-M   'P 1'
_cell_length_a   9.37947900
_cell_length_b   9.37947904
_cell_length_c   3.89429200
_cell_angle_alpha   90.00000000
_cell_angle_beta   90.00000000
_cell_angle_gamma   119.99999539
_symmetry_Int_Tables_number   1
_chemical_formula_structural   HfZrP7Ru12
_chemical_formula_sum   'Hf1 Zr1 P7 Ru12'
_cell_volume   296.69935141
_cell_formula_units_Z   1
loop_
 _symmetry_equiv_pos_site_id
 _symmetry_equiv_pos_as_xyz
  1  'x, y, z'
loop_
 _atom_site_type_symbol
 _atom_site_label
 _atom_site_symmetry_multiplicity
 _atom_site_fract_x
 _atom_site_fract_y
 _atom_site_fract_z
 _atom_site_occupancy
  Hf  Hf0  1  0.666667  0.333333  0.500000  1
  Zr  Zr1  1  0.333333  0.666667  0.000000  1
  P  P2  1  0.596061  0.717363  0.500000  1
  P  P3  1  0.000000  0.000000  0.000000  1
  P  P4  1  0.282637  0.878699  0.500000  1
  P  P5  1  0.121301  0.403939  0.500000  1
  P  P6  1  0.882968  0.575482  0.000000  1
  P  P7  1  0.424518  0.307486  0.000000  1
  P  P8  1  0.692514  0.117032  0.000000  1
  Ru  Ru9  1  0.552542  0.944773  0.500000  1
  Ru  Ru10  1  0.392233  0.447458  0.500000  1
  Ru  Ru11  1  0.911225  0.125676  0.500000  1
  Ru  Ru12  1  0.214451  0.088775  0.500000  1
  Ru  Ru13  1  0.874324  0.785549  0.500000  1
  Ru  Ru14  1  0.725348  0.888899  0.000000  1
  Ru  Ru15  1  0.111101  0.836447  0.000000  1
  Ru  Ru16  1  0.163553  0.274652  0.000000  1
  Ru  Ru17  1  0.432681  0.072884  0.000000  1
  Ru  Ru18  1  0.927116  0.359798  0.000000  1
  Ru  Ru19  1  0.640202  0.567319  0.000000  1
  Ru  Ru20  1  0.055227  0.607767  0.500000  1
