# generated using pymatgen
data_DyMn3FeP3W
_symmetry_space_group_name_H-M   'P 1'
_cell_length_a   3.66314600
_cell_length_b   10.63833600
_cell_length_c   12.27476600
_cell_angle_alpha   90.00000000
_cell_angle_beta   90.00000000
_cell_angle_gamma   90.00000000
_symmetry_Int_Tables_number   1
_chemical_formula_structural   DyMn3FeP3W
_chemical_formula_sum   'Dy4 Mn12 Fe4 P12 W4'
_cell_volume   478.34490559
_cell_formula_units_Z   4
loop_
 _symmetry_equiv_pos_site_id
 _symmetry_equiv_pos_as_xyz
  1  'x, y, z'
loop_
 _atom_site_type_symbol
 _atom_site_label
 _atom_site_symmetry_multiplicity
 _atom_site_fract_x
 _atom_site_fract_y
 _atom_site_fract_z
 _atom_site_occupancy
  Dy  Dy0  1  0.250000  0.584060  0.709395  1
  Dy  Dy1  1  0.250000  0.915940  0.209395  1
  Dy  Dy2  1  0.750000  0.415940  0.290605  1
  Dy  Dy3  1  0.750000  0.084060  0.790605  1
  Mn  Mn4  1  0.250000  0.408737  0.493326  1
  Mn  Mn5  1  0.250000  0.091263  0.993326  1
  Mn  Mn6  1  0.750000  0.591263  0.506674  1
  Mn  Mn7  1  0.750000  0.908737  0.006674  1
  Mn  Mn8  1  0.250000  0.216138  0.177373  1
  Mn  Mn9  1  0.250000  0.283862  0.677373  1
  Mn  Mn10  1  0.750000  0.783862  0.822627  1
  Mn  Mn11  1  0.750000  0.716138  0.322627  1
  Mn  Mn12  1  0.250000  0.878456  0.697687  1
  Mn  Mn13  1  0.250000  0.621544  0.197687  1
  Mn  Mn14  1  0.750000  0.121544  0.302313  1
  Mn  Mn15  1  0.750000  0.378456  0.802313  1
  Fe  Fe16  1  0.250000  0.462513  0.935115  1
  Fe  Fe17  1  0.250000  0.037487  0.435115  1
  Fe  Fe18  1  0.750000  0.537487  0.064885  1
  Fe  Fe19  1  0.750000  0.962513  0.564885  1
  P  P20  1  0.250000  0.424744  0.113288  1
  P  P21  1  0.250000  0.075256  0.613288  1
  P  P22  1  0.750000  0.575256  0.886712  1
  P  P23  1  0.750000  0.924744  0.386712  1
  P  P24  1  0.250000  0.264996  0.868663  1
  P  P25  1  0.250000  0.235004  0.368663  1
  P  P26  1  0.750000  0.735004  0.131337  1
  P  P27  1  0.750000  0.764996  0.631337  1
  P  P28  1  0.250000  0.591233  0.384948  1
  P  P29  1  0.250000  0.908767  0.884948  1
  P  P30  1  0.750000  0.408767  0.615052  1
  P  P31  1  0.750000  0.091233  0.115052  1
  W  W32  1  0.250000  0.704988  0.986473  1
  W  W33  1  0.250000  0.795012  0.486473  1
  W  W34  1  0.750000  0.295012  0.013527  1
  W  W35  1  0.750000  0.204988  0.513527  1
