# generated using pymatgen
data_Yb3Gd8Ho9Sn16
_symmetry_space_group_name_H-M   'P 1'
_cell_length_a   7.84365000
_cell_length_b   8.33293295
_cell_length_c   15.83875400
_cell_angle_alpha   90.00000000
_cell_angle_beta   90.00000000
_cell_angle_gamma   89.88107566
_symmetry_Int_Tables_number   1
_chemical_formula_structural   Yb3Gd8Ho9Sn16
_chemical_formula_sum   'Yb3 Gd8 Ho9 Sn16'
_cell_volume   1035.22838569
_cell_formula_units_Z   1
loop_
 _symmetry_equiv_pos_site_id
 _symmetry_equiv_pos_as_xyz
  1  'x, y, z'
loop_
 _atom_site_type_symbol
 _atom_site_label
 _atom_site_symmetry_multiplicity
 _atom_site_fract_x
 _atom_site_fract_y
 _atom_site_fract_z
 _atom_site_occupancy
  Yb  Yb0  1  0.331959  0.997707  0.750000  1
  Yb  Yb1  1  0.167679  0.496532  0.250000  1
  Yb  Yb2  1  0.668043  0.002049  0.250000  1
  Gd  Gd3  1  0.501611  0.682939  0.594900  1
  Gd  Gd4  1  0.002786  0.818382  0.905600  1
  Gd  Gd5  1  0.497329  0.316928  0.094302  1
  Gd  Gd6  1  0.997167  0.183409  0.406183  1
  Gd  Gd7  1  0.497329  0.316928  0.405698  1
  Gd  Gd8  1  0.997167  0.183409  0.093817  1
  Gd  Gd9  1  0.501611  0.682939  0.905100  1
  Gd  Gd10  1  0.002786  0.818382  0.594400  1
  Ho  Ho11  1  0.663689  0.167077  0.623608  1
  Ho  Ho12  1  0.165793  0.332554  0.875723  1
  Ho  Ho13  1  0.336318  0.830530  0.123607  1
  Ho  Ho14  1  0.835978  0.667825  0.376862  1
  Ho  Ho15  1  0.336318  0.830530  0.376393  1
  Ho  Ho16  1  0.835978  0.667825  0.123138  1
  Ho  Ho17  1  0.663689  0.167077  0.876392  1
  Ho  Ho18  1  0.165793  0.332554  0.624277  1
  Ho  Ho19  1  0.832375  0.502550  0.750000  1
  Sn  Sn20  1  0.680755  0.961053  0.461269  1
  Sn  Sn21  1  0.182088  0.538254  0.038622  1
  Sn  Sn22  1  0.317531  0.040003  0.962683  1
  Sn  Sn23  1  0.819932  0.462198  0.540649  1
  Sn  Sn24  1  0.317531  0.040003  0.537317  1
  Sn  Sn25  1  0.819932  0.462198  0.959351  1
  Sn  Sn26  1  0.680755  0.961053  0.038731  1
  Sn  Sn27  1  0.182088  0.538254  0.461378  1
  Sn  Sn28  1  0.468044  0.385415  0.750000  1
  Sn  Sn29  1  0.964777  0.122390  0.750000  1
  Sn  Sn30  1  0.535649  0.614237  0.250000  1
  Sn  Sn31  1  0.035796  0.881613  0.250000  1
  Sn  Sn32  1  0.706900  0.854270  0.750000  1
  Sn  Sn33  1  0.198853  0.641801  0.750000  1
  Sn  Sn34  1  0.293441  0.139520  0.250000  1
  Sn  Sn35  1  0.794532  0.359610  0.250000  1
