# generated using pymatgen
data_Ba2Cd21Pt
_symmetry_space_group_name_H-M   'P 1'
_cell_length_a   9.45340018
_cell_length_b   9.45979839
_cell_length_c   9.45979851
_cell_angle_alpha   99.59409380
_cell_angle_beta   100.08675825
_cell_angle_gamma   131.20518436
_symmetry_Int_Tables_number   1
_chemical_formula_structural   Ba2Cd21Pt
_chemical_formula_sum   'Ba2 Cd21 Pt1'
_cell_volume   579.42574838
_cell_formula_units_Z   1
loop_
 _symmetry_equiv_pos_site_id
 _symmetry_equiv_pos_as_xyz
  1  'x, y, z'
loop_
 _atom_site_type_symbol
 _atom_site_label
 _atom_site_symmetry_multiplicity
 _atom_site_fract_x
 _atom_site_fract_y
 _atom_site_fract_z
 _atom_site_occupancy
  Ba  Ba0  1  0.748678  0.250315  0.498364  1
  Ba  Ba1  1  0.501322  0.499685  0.001636  1
  Cd  Cd2  1  0.921062  0.007824  0.327913  1
  Cd  Cd3  1  0.681855  0.610385  0.680249  1
  Cd  Cd4  1  0.265991  0.756553  0.509438  1
  Cd  Cd5  1  0.984009  0.993447  0.990562  1
  Cd  Cd6  1  0.125000  0.875000  0.250000  1
  Cd  Cd7  1  0.125000  0.375000  0.250000  1
  Cd  Cd8  1  0.125000  0.875000  0.750000  1
  Cd  Cd9  1  0.921062  0.593149  0.913238  1
  Cd  Cd10  1  0.847239  0.430860  0.174947  1
  Cd  Cd11  1  0.265904  0.676816  0.826435  1
  Cd  Cd12  1  0.681855  0.001606  0.071470  1
  Cd  Cd13  1  0.402761  0.077709  0.083621  1
  Cd  Cd14  1  0.984096  0.310531  0.910913  1
  Cd  Cd15  1  0.568145  0.139615  0.819751  1
  Cd  Cd16  1  0.328938  0.742176  0.172087  1
  Cd  Cd17  1  0.328938  0.156851  0.586762  1
  Cd  Cd18  1  0.402761  0.319140  0.325053  1
  Cd  Cd19  1  0.984096  0.073184  0.673565  1
  Cd  Cd20  1  0.568145  0.748394  0.428530  1
  Cd  Cd21  1  0.847239  0.672291  0.416379  1
  Cd  Cd22  1  0.265904  0.439469  0.589087  1
  Pt  Pt23  1  0.625000  0.875000  0.750000  1
