# generated using pymatgen
data_Li2Th4Ge6Os5
_symmetry_space_group_name_H-M   'P 1'
_cell_length_a   7.52566169
_cell_length_b   7.52567532
_cell_length_c   7.52566322
_cell_angle_alpha   109.06583796
_cell_angle_beta   109.06490653
_cell_angle_gamma   110.28592868
_symmetry_Int_Tables_number   1
_chemical_formula_structural   Li2Th4Ge6Os5
_chemical_formula_sum   'Li2 Th4 Ge6 Os5'
_cell_volume   328.05561646
_cell_formula_units_Z   1
loop_
 _symmetry_equiv_pos_site_id
 _symmetry_equiv_pos_as_xyz
  1  'x, y, z'
loop_
 _atom_site_type_symbol
 _atom_site_label
 _atom_site_symmetry_multiplicity
 _atom_site_fract_x
 _atom_site_fract_y
 _atom_site_fract_z
 _atom_site_occupancy
  Li  Li0  1  0.749998  0.249998  0.499999  1
  Li  Li1  1  0.999999  0.999999  0.000000  1
  Th  Th2  1  0.003950  0.996052  0.500001  1
  Th  Th3  1  0.003949  0.503949  0.007897  1
  Th  Th4  1  0.496051  0.996052  0.992102  1
  Th  Th5  1  0.496052  0.503949  0.500000  1
  Ge  Ge6  1  0.668740  0.668739  0.999999  1
  Ge  Ge7  1  0.331417  0.999289  0.332127  1
  Ge  Ge8  1  0.000708  0.332838  0.332131  1
  Ge  Ge9  1  0.331263  0.331264  0.000001  1
  Ge  Ge10  1  0.667162  0.999289  0.667872  1
  Ge  Ge11  1  0.000709  0.668579  0.667870  1
  Os  Os12  1  0.751227  0.498717  0.252509  1
  Os  Os13  1  0.501284  0.248775  0.747491  1
  Os  Os14  1  0.246208  0.498717  0.747490  1
  Os  Os15  1  0.250002  0.750005  0.500003  1
  Os  Os16  1  0.501280  0.753787  0.252507  1
