# generated using pymatgen
data_Tb5Lu(BiO7)2
_symmetry_space_group_name_H-M   'P 1'
_cell_length_a   6.56025547
_cell_length_b   6.54695605
_cell_length_c   7.70631981
_cell_angle_alpha   106.89816935
_cell_angle_beta   89.73186227
_cell_angle_gamma   98.85914240
_symmetry_Int_Tables_number   1
_chemical_formula_structural   Tb5Lu(BiO7)2
_chemical_formula_sum   'Tb5 Lu1 Bi2 O14'
_cell_volume   312.63364268
_cell_formula_units_Z   1
loop_
 _symmetry_equiv_pos_site_id
 _symmetry_equiv_pos_as_xyz
  1  'x, y, z'
loop_
 _atom_site_type_symbol
 _atom_site_label
 _atom_site_symmetry_multiplicity
 _atom_site_fract_x
 _atom_site_fract_y
 _atom_site_fract_z
 _atom_site_occupancy
  Tb  Tb0  1  0.538005  0.994216  0.747747  1
  Tb  Tb1  1  0.271716  0.540069  0.884199  1
  Tb  Tb2  1  0.726930  0.462030  0.117903  1
  Tb  Tb3  1  0.732964  0.473912  0.610708  1
  Tb  Tb4  1  0.265785  0.524221  0.385048  1
  Lu  Lu5  1  0.462857  0.006319  0.252230  1
  Bi  Bi6  1  0.000280  0.000224  0.498613  1
  Bi  Bi7  1  0.000078  0.999975  0.001905  1
  O  O8  1  0.447491  0.656648  0.170120  1
  O  O9  1  0.554218  0.352409  0.833368  1
  O  O10  1  0.304328  0.924792  0.955864  1
  O  O11  1  0.696839  0.074667  0.053459  1
  O  O12  1  0.300754  0.926590  0.509138  1
  O  O13  1  0.699745  0.072385  0.480659  1
  O  O14  1  0.541399  0.356140  0.342223  1
  O  O15  1  0.452966  0.636102  0.653565  1
  O  O16  1  0.926813  0.666592  0.960780  1
  O  O17  1  0.073519  0.333813  0.040497  1
  O  O18  1  0.066846  0.349194  0.621085  1
  O  O19  1  0.929269  0.649073  0.380622  1
  O  O20  1  0.875148  0.901909  0.724979  1
  O  O21  1  0.132049  0.098720  0.275290  1
