# generated using pymatgen
data_TbY6RhI12
_symmetry_space_group_name_H-M   'P 1'
_cell_length_a   9.80581502
_cell_length_b   9.79670198
_cell_length_c   9.79976730
_cell_angle_alpha   106.82771446
_cell_angle_beta   106.86035074
_cell_angle_gamma   106.85606359
_symmetry_Int_Tables_number   1
_chemical_formula_structural   TbY6RhI12
_chemical_formula_sum   'Tb1 Y6 Rh1 I12'
_cell_volume   787.24349927
_cell_formula_units_Z   1
loop_
 _symmetry_equiv_pos_site_id
 _symmetry_equiv_pos_as_xyz
  1  'x, y, z'
loop_
 _atom_site_type_symbol
 _atom_site_label
 _atom_site_symmetry_multiplicity
 _atom_site_fract_x
 _atom_site_fract_y
 _atom_site_fract_z
 _atom_site_occupancy
  Tb  Tb0  1  0.296159  0.094870  0.022488  1
  Y  Y1  1  0.499864  0.499987  0.500042  1
  Y  Y2  1  0.904798  0.977377  0.703056  1
  Y  Y3  1  0.977233  0.702895  0.904903  1
  Y  Y4  1  0.703958  0.905187  0.977383  1
  Y  Y5  1  0.094959  0.022571  0.296833  1
  Y  Y6  1  0.022524  0.296920  0.095084  1
  Rh  Rh7  1  0.000701  0.000063  0.999930  1
  I  I8  1  0.536459  0.838461  0.613631  1
  I  I9  1  0.838277  0.613564  0.536561  1
  I  I10  1  0.613461  0.536599  0.838511  1
  I  I11  1  0.463450  0.161846  0.386912  1
  I  I12  1  0.161449  0.386429  0.463477  1
  I  I13  1  0.386428  0.464149  0.162120  1
  I  I14  1  0.676050  0.224504  0.070554  1
  I  I15  1  0.223833  0.070013  0.674098  1
  I  I16  1  0.070231  0.674739  0.224344  1
  I  I17  1  0.325037  0.774981  0.929373  1
  I  I18  1  0.775527  0.929650  0.325116  1
  I  I19  1  0.929600  0.325195  0.775583  1
