# generated using pymatgen
data_Ba5TlW2N7Cl2
_symmetry_space_group_name_H-M   'P 1'
_cell_length_a   12.46913556
_cell_length_b   6.18241300
_cell_length_c   10.93802166
_cell_angle_alpha   90.00000000
_cell_angle_beta   90.09863789
_cell_angle_gamma   90.00000000
_symmetry_Int_Tables_number   1
_chemical_formula_structural   Ba5TlW2N7Cl2
_chemical_formula_sum   'Ba10 Tl2 W4 N14 Cl4'
_cell_volume   843.20368501
_cell_formula_units_Z   2
loop_
 _symmetry_equiv_pos_site_id
 _symmetry_equiv_pos_as_xyz
  1  'x, y, z'
loop_
 _atom_site_type_symbol
 _atom_site_label
 _atom_site_symmetry_multiplicity
 _atom_site_fract_x
 _atom_site_fract_y
 _atom_site_fract_z
 _atom_site_occupancy
  Ba  Ba0  1  0.206255  0.250000  0.120998  1
  Ba  Ba1  1  0.475347  0.750000  0.115984  1
  Ba  Ba2  1  0.863157  0.250000  0.270452  1
  Ba  Ba3  1  0.046962  0.750000  0.379559  1
  Ba  Ba4  1  0.377130  0.750000  0.466480  1
  Ba  Ba5  1  0.622871  0.250000  0.533520  1
  Ba  Ba6  1  0.953039  0.250000  0.620441  1
  Ba  Ba7  1  0.136843  0.750000  0.729547  1
  Ba  Ba8  1  0.524653  0.250000  0.884015  1
  Ba  Ba9  1  0.793745  0.750000  0.879002  1
  Tl  Tl10  1  0.689153  0.750000  0.299414  1
  Tl  Tl11  1  0.310847  0.250000  0.700586  1
  W  W12  1  0.456083  0.250000  0.276573  1
  W  W13  1  0.182992  0.250000  0.437725  1
  W  W14  1  0.817008  0.750000  0.562274  1
  W  W15  1  0.543916  0.750000  0.723427  1
  N  N16  1  0.430242  0.250000  0.106560  1
  N  N17  1  0.072751  0.250000  0.320325  1
  N  N18  1  0.529252  0.004872  0.328933  1
  N  N19  1  0.529252  0.495128  0.328933  1
  N  N20  1  0.315083  0.250000  0.349195  1
  N  N21  1  0.831243  0.504027  0.464157  1
  N  N22  1  0.831243  0.995974  0.464157  1
  N  N23  1  0.168757  0.004027  0.535844  1
  N  N24  1  0.168757  0.495975  0.535844  1
  N  N25  1  0.684917  0.750000  0.650804  1
  N  N26  1  0.470748  0.504872  0.671067  1
  N  N27  1  0.470748  0.995127  0.671067  1
  N  N28  1  0.927250  0.750000  0.679675  1
  N  N29  1  0.569758  0.750000  0.893439  1
  Cl  Cl30  1  0.229228  0.750000  0.156616  1
  Cl  Cl31  1  0.931063  0.750000  0.120273  1
  Cl  Cl32  1  0.068937  0.250000  0.879727  1
  Cl  Cl33  1  0.770772  0.250000  0.843384  1
