# generated using pymatgen
data_NdYFe3Tc14C3
_symmetry_space_group_name_H-M   'P 1'
_cell_length_a   6.89978732
_cell_length_b   6.89978668
_cell_length_c   6.89978713
_cell_angle_alpha   82.47482318
_cell_angle_beta   82.47482352
_cell_angle_gamma   82.47481471
_symmetry_Int_Tables_number   1
_chemical_formula_structural   NdYFe3Tc14C3
_chemical_formula_sum   'Nd1 Y1 Fe3 Tc14 C3'
_cell_volume   320.67303730
_cell_formula_units_Z   1
loop_
 _symmetry_equiv_pos_site_id
 _symmetry_equiv_pos_as_xyz
  1  'x, y, z'
loop_
 _atom_site_type_symbol
 _atom_site_label
 _atom_site_symmetry_multiplicity
 _atom_site_fract_x
 _atom_site_fract_y
 _atom_site_fract_z
 _atom_site_occupancy
  Nd  Nd0  1  0.650313  0.650313  0.650313  1
  Y  Y1  1  0.347945  0.347945  0.347945  1
  Fe  Fe2  1  0.999639  0.999639  0.500199  1
  Fe  Fe3  1  0.500199  0.999639  0.999639  1
  Fe  Fe4  1  0.999639  0.500199  0.999639  1
  Tc  Tc5  1  0.723833  0.275702  0.000574  1
  Tc  Tc6  1  0.000574  0.723833  0.275702  1
  Tc  Tc7  1  0.275702  0.000574  0.723833  1
  Tc  Tc8  1  0.000574  0.275702  0.723833  1
  Tc  Tc9  1  0.723833  0.000574  0.275702  1
  Tc  Tc10  1  0.275702  0.723833  0.000574  1
  Tc  Tc11  1  0.346890  0.346890  0.863413  1
  Tc  Tc12  1  0.863413  0.346890  0.346890  1
  Tc  Tc13  1  0.346890  0.863413  0.346890  1
  Tc  Tc14  1  0.651881  0.651881  0.139865  1
  Tc  Tc15  1  0.139865  0.651881  0.651881  1
  Tc  Tc16  1  0.651881  0.139865  0.651881  1
  Tc  Tc17  1  0.899703  0.899703  0.899703  1
  Tc  Tc18  1  0.100826  0.100826  0.100826  1
  C  C19  1  0.497116  0.497116  0.006463  1
  C  C20  1  0.006463  0.497116  0.497116  1
  C  C21  1  0.497116  0.006463  0.497116  1
