# generated using pymatgen
data_YbTmPdPtO7
_symmetry_space_group_name_H-M   'P 1'
_cell_length_a   7.22040396
_cell_length_b   7.20081821
_cell_length_c   7.22040330
_cell_angle_alpha   60.08969965
_cell_angle_beta   60.05290818
_cell_angle_gamma   60.08969533
_symmetry_Int_Tables_number   1
_chemical_formula_structural   YbTmPdPtO7
_chemical_formula_sum   'Yb2 Tm2 Pd2 Pt2 O14'
_cell_volume   265.92006097
_cell_formula_units_Z   2
loop_
 _symmetry_equiv_pos_site_id
 _symmetry_equiv_pos_as_xyz
  1  'x, y, z'
loop_
 _atom_site_type_symbol
 _atom_site_label
 _atom_site_symmetry_multiplicity
 _atom_site_fract_x
 _atom_site_fract_y
 _atom_site_fract_z
 _atom_site_occupancy
  Yb  Yb0  1  0.625000  0.625000  0.125000  1
  Yb  Yb1  1  0.125000  0.625000  0.625000  1
  Tm  Tm2  1  0.625000  0.625000  0.625000  1
  Tm  Tm3  1  0.625000  0.125000  0.625000  1
  Pd  Pd4  1  0.625000  0.125000  0.125000  1
  Pd  Pd5  1  0.125000  0.125000  0.625000  1
  Pt  Pt6  1  0.125000  0.125000  0.125000  1
  Pt  Pt7  1  0.125000  0.625000  0.125000  1
  O  O8  1  0.032519  0.462697  0.460654  1
  O  O9  1  0.789346  0.787303  0.217481  1
  O  O10  1  0.789346  0.205870  0.217481  1
  O  O11  1  0.464963  0.035037  0.464963  1
  O  O12  1  0.032519  0.044130  0.460654  1
  O  O13  1  0.042138  0.457862  0.042138  1
  O  O14  1  0.743372  0.756628  0.743372  1
  O  O15  1  0.506628  0.493372  0.506628  1
  O  O16  1  0.785037  0.214963  0.785037  1
  O  O17  1  0.207862  0.792138  0.207862  1
  O  O18  1  0.217481  0.205870  0.789346  1
  O  O19  1  0.460654  0.044130  0.032519  1
  O  O20  1  0.460654  0.462697  0.032519  1
  O  O21  1  0.217481  0.787303  0.789346  1
