# generated using pymatgen
data_La8Yb5Dy7Si16
_symmetry_space_group_name_H-M   'P 1'
_cell_length_a   7.88633401
_cell_length_b   7.88182217
_cell_length_c   14.51285113
_cell_angle_alpha   90.14571404
_cell_angle_beta   89.99924207
_cell_angle_gamma   90.00444766
_symmetry_Int_Tables_number   1
_chemical_formula_structural   La8Yb5Dy7Si16
_chemical_formula_sum   'La8 Yb5 Dy7 Si16'
_cell_volume   902.09678086
_cell_formula_units_Z   1
loop_
 _symmetry_equiv_pos_site_id
 _symmetry_equiv_pos_as_xyz
  1  'x, y, z'
loop_
 _atom_site_type_symbol
 _atom_site_label
 _atom_site_symmetry_multiplicity
 _atom_site_fract_x
 _atom_site_fract_y
 _atom_site_fract_z
 _atom_site_occupancy
  La  La0  1  0.992329  0.636501  0.043945  1
  La  La1  1  0.008548  0.363770  0.541913  1
  La  La2  1  0.636827  0.989799  0.958032  1
  La  La3  1  0.135806  0.511711  0.791759  1
  La  La4  1  0.862910  0.491010  0.292302  1
  La  La5  1  0.509240  0.135856  0.207328  1
  La  La6  1  0.491762  0.865983  0.706551  1
  La  La7  1  0.362911  0.010282  0.457795  1
  Yb  Yb8  1  0.134665  0.989657  0.872787  1
  Yb  Yb9  1  0.687754  0.688071  0.499468  1
  Yb  Yb10  1  0.816886  0.185359  0.751535  1
  Yb  Yb11  1  0.186790  0.812797  0.251058  1
  Yb  Yb12  1  0.309097  0.306704  0.998176  1
  Dy  Dy13  1  0.367198  0.494042  0.376644  1
  Dy  Dy14  1  0.867666  0.006491  0.373801  1
  Dy  Dy15  1  0.992375  0.133518  0.127571  1
  Dy  Dy16  1  0.005468  0.867386  0.625195  1
  Dy  Dy17  1  0.632593  0.506552  0.876195  1
  Dy  Dy18  1  0.493871  0.367765  0.622322  1
  Dy  Dy19  1  0.505502  0.632390  0.125357  1
  Si  Si20  1  0.075137  0.712531  0.441527  1
  Si  Si21  1  0.921488  0.291274  0.943424  1
  Si  Si22  1  0.712964  0.076618  0.558483  1
  Si  Si23  1  0.213029  0.423346  0.191677  1
  Si  Si24  1  0.786304  0.574624  0.690579  1
  Si  Si25  1  0.427853  0.216068  0.805828  1
  Si  Si26  1  0.575505  0.788336  0.309195  1
  Si  Si27  1  0.291266  0.922941  0.060898  1
  Si  Si28  1  0.839019  0.789485  0.807827  1
  Si  Si29  1  0.154521  0.209976  0.310997  1
  Si  Si30  1  0.791046  0.845423  0.189664  1
  Si  Si31  1  0.290400  0.655629  0.560897  1
  Si  Si32  1  0.709189  0.347580  0.061973  1
  Si  Si33  1  0.654011  0.289718  0.438156  1
  Si  Si34  1  0.346487  0.704218  0.942786  1
  Si  Si35  1  0.211583  0.156590  0.686356  1
