# generated using pymatgen
data_Sc6GaSn5Pd6
_symmetry_space_group_name_H-M   'P 1'
_cell_length_a   7.50065900
_cell_length_b   7.55344194
_cell_length_c   7.10343923
_cell_angle_alpha   90.02476556
_cell_angle_beta   90.00000000
_cell_angle_gamma   119.76910466
_symmetry_Int_Tables_number   1
_chemical_formula_structural   Sc6GaSn5Pd6
_chemical_formula_sum   'Sc6 Ga1 Sn5 Pd6'
_cell_volume   349.34080993
_cell_formula_units_Z   1
loop_
 _symmetry_equiv_pos_site_id
 _symmetry_equiv_pos_as_xyz
  1  'x, y, z'
loop_
 _atom_site_type_symbol
 _atom_site_label
 _atom_site_symmetry_multiplicity
 _atom_site_fract_x
 _atom_site_fract_y
 _atom_site_fract_z
 _atom_site_occupancy
  Sc  Sc0  1  0.407290  0.013945  0.244431  1
  Sc  Sc1  1  0.614532  0.606029  0.246514  1
  Sc  Sc2  1  0.980739  0.379925  0.244868  1
  Sc  Sc3  1  0.393345  0.986055  0.755569  1
  Sc  Sc4  1  0.600814  0.620075  0.755132  1
  Sc  Sc5  1  0.008504  0.393971  0.753486  1
  Ga  Ga6  1  0.720924  0.000000  0.000000  1
  Sn  Sn7  1  0.274209  0.273349  0.500055  1
  Sn  Sn8  1  0.000859  0.726651  0.499945  1
  Sn  Sn9  1  0.998739  0.723735  0.999875  1
  Sn  Sn10  1  0.275004  0.276265  0.000125  1
  Sn  Sn11  1  0.724893  0.000000  0.500000  1
  Pd  Pd12  1  0.342011  0.673128  0.024427  1
  Pd  Pd13  1  0.333479  0.665441  0.473022  1
  Pd  Pd14  1  0.668884  0.326872  0.975573  1
  Pd  Pd15  1  0.668039  0.334559  0.526978  1
  Pd  Pd16  1  0.993971  0.000204  0.243356  1
  Pd  Pd17  1  0.993767  0.999796  0.756644  1
