# generated using pymatgen
data_Y20Cd3Ni2Ag3
_symmetry_space_group_name_H-M   'P 1'
_cell_length_a   9.67215400
_cell_length_b   9.67215480
_cell_length_c   9.64101000
_cell_angle_alpha   90.00000000
_cell_angle_beta   90.00000000
_cell_angle_gamma   119.99999726
_symmetry_Int_Tables_number   1
_chemical_formula_structural   Y20Cd3Ni2Ag3
_chemical_formula_sum   'Y20 Cd3 Ni2 Ag3'
_cell_volume   781.08737563
_cell_formula_units_Z   1
loop_
 _symmetry_equiv_pos_site_id
 _symmetry_equiv_pos_as_xyz
  1  'x, y, z'
loop_
 _atom_site_type_symbol
 _atom_site_label
 _atom_site_symmetry_multiplicity
 _atom_site_fract_x
 _atom_site_fract_y
 _atom_site_fract_z
 _atom_site_occupancy
  Y  Y0  1  0.000000  0.000000  0.472401  1
  Y  Y1  1  0.000000  0.000000  0.027599  1
  Y  Y2  1  0.542435  0.457565  0.250000  1
  Y  Y3  1  0.542435  0.084869  0.250000  1
  Y  Y4  1  0.915131  0.457565  0.250000  1
  Y  Y5  1  0.456597  0.543403  0.750000  1
  Y  Y6  1  0.456597  0.913194  0.750000  1
  Y  Y7  1  0.086806  0.543403  0.750000  1
  Y  Y8  1  0.210579  0.789421  0.438329  1
  Y  Y9  1  0.210579  0.421158  0.438329  1
  Y  Y10  1  0.578842  0.789421  0.438329  1
  Y  Y11  1  0.790119  0.209881  0.561614  1
  Y  Y12  1  0.790119  0.580237  0.561614  1
  Y  Y13  1  0.419763  0.209881  0.561614  1
  Y  Y14  1  0.790119  0.209881  0.938386  1
  Y  Y15  1  0.790119  0.580237  0.938386  1
  Y  Y16  1  0.419763  0.209881  0.938386  1
  Y  Y17  1  0.210579  0.789421  0.061671  1
  Y  Y18  1  0.210579  0.421158  0.061671  1
  Y  Y19  1  0.578842  0.789421  0.061671  1
  Cd  Cd20  1  0.110844  0.889156  0.750000  1
  Cd  Cd21  1  0.110844  0.221687  0.750000  1
  Cd  Cd22  1  0.778313  0.889156  0.750000  1
  Ni  Ni23  1  0.333333  0.666667  0.250000  1
  Ni  Ni24  1  0.666667  0.333333  0.750000  1
  Ag  Ag25  1  0.874889  0.125111  0.250000  1
  Ag  Ag26  1  0.874889  0.749778  0.250000  1
  Ag  Ag27  1  0.250222  0.125111  0.250000  1
