# generated using pymatgen
data_Ho13Er4Tm3(CoBi2)4
_symmetry_space_group_name_H-M   'P 1'
_cell_length_a   7.92150707
_cell_length_b   8.85824957
_cell_length_c   12.34487658
_cell_angle_alpha   90.00036969
_cell_angle_beta   89.99239660
_cell_angle_gamma   90.01618757
_symmetry_Int_Tables_number   1
_chemical_formula_structural   Ho13Er4Tm3(CoBi2)4
_chemical_formula_sum   'Ho13 Er4 Tm3 Co4 Bi8'
_cell_volume   866.24842332
_cell_formula_units_Z   1
loop_
 _symmetry_equiv_pos_site_id
 _symmetry_equiv_pos_as_xyz
  1  'x, y, z'
loop_
 _atom_site_type_symbol
 _atom_site_label
 _atom_site_symmetry_multiplicity
 _atom_site_fract_x
 _atom_site_fract_y
 _atom_site_fract_z
 _atom_site_occupancy
  Ho  Ho0  1  0.347363  0.750082  0.699532  1
  Ho  Ho1  1  0.652872  0.249975  0.300292  1
  Ho  Ho2  1  0.846980  0.250143  0.800397  1
  Ho  Ho3  1  0.152560  0.749939  0.199637  1
  Ho  Ho4  1  0.884448  0.749775  0.811751  1
  Ho  Ho5  1  0.114498  0.250321  0.188357  1
  Ho  Ho6  1  0.385039  0.249841  0.688195  1
  Ho  Ho7  1  0.615213  0.750159  0.311787  1
  Ho  Ho8  1  0.175381  0.037848  0.937122  1
  Ho  Ho9  1  0.053502  0.750063  0.497809  1
  Ho  Ho10  1  0.946141  0.249954  0.502136  1
  Ho  Ho11  1  0.554421  0.250200  0.002203  1
  Ho  Ho12  1  0.447362  0.749726  0.997901  1
  Er  Er13  1  0.674435  0.538011  0.562919  1
  Er  Er14  1  0.325509  0.461901  0.437045  1
  Er  Er15  1  0.174229  0.462005  0.937236  1
  Er  Er16  1  0.325714  0.038093  0.437153  1
  Tm  Tm17  1  0.826263  0.538447  0.062955  1
  Tm  Tm18  1  0.673749  0.961825  0.562777  1
  Tm  Tm19  1  0.826200  0.961775  0.062901  1
  Co  Co20  1  0.064707  0.749743  0.992323  1
  Co  Co21  1  0.933038  0.250326  0.008168  1
  Co  Co22  1  0.565730  0.249841  0.507792  1
  Co  Co23  1  0.434804  0.750194  0.492237  1
  Bi  Bi24  1  0.570770  0.509365  0.826702  1
  Bi  Bi25  1  0.429134  0.490688  0.173187  1
  Bi  Bi26  1  0.070942  0.490677  0.673228  1
  Bi  Bi27  1  0.428967  0.009303  0.173073  1
  Bi  Bi28  1  0.928870  0.509476  0.326829  1
  Bi  Bi29  1  0.571538  0.990466  0.826562  1
  Bi  Bi30  1  0.929016  0.990582  0.326750  1
  Bi  Bi31  1  0.070605  0.009256  0.673046  1
