# generated using pymatgen
data_K2NpBr6
_symmetry_space_group_name_H-M   'P 1'
_cell_length_a   8.10835200
_cell_length_b   7.74679085
_cell_length_c   13.35230515
_cell_angle_alpha   54.84781272
_cell_angle_beta   90.00000000
_cell_angle_gamma   90.00000000
_symmetry_Int_Tables_number   1
_chemical_formula_structural   K2NpBr6
_chemical_formula_sum   'K4 Np2 Br12'
_cell_volume   685.74898909
_cell_formula_units_Z   2
loop_
 _symmetry_equiv_pos_site_id
 _symmetry_equiv_pos_as_xyz
  1  'x, y, z'
loop_
 _atom_site_type_symbol
 _atom_site_label
 _atom_site_symmetry_multiplicity
 _atom_site_fract_x
 _atom_site_fract_y
 _atom_site_fract_z
 _atom_site_occupancy
  K  K0  1  0.072362  0.267000  0.248981  1
  K  K1  1  0.572362  0.733000  0.251019  1
  K  K2  1  0.927638  0.733000  0.751019  1
  K  K3  1  0.427638  0.267000  0.748981  1
  Np  Np4  1  0.500000  0.000000  0.500000  1
  Np  Np5  1  0.000000  0.000000  0.000000  1
  Br  Br6  1  0.514682  0.833577  0.747218  1
  Br  Br7  1  0.485318  0.166423  0.252782  1
  Br  Br8  1  0.811003  0.663115  0.044013  1
  Br  Br9  1  0.985318  0.833577  0.247218  1
  Br  Br10  1  0.188997  0.336885  0.955987  1
  Br  Br11  1  0.688997  0.663115  0.544013  1
  Br  Br12  1  0.287851  0.773687  0.039145  1
  Br  Br13  1  0.787851  0.226313  0.460855  1
  Br  Br14  1  0.712149  0.226313  0.960855  1
  Br  Br15  1  0.212149  0.773687  0.539145  1
  Br  Br16  1  0.311003  0.336885  0.455987  1
  Br  Br17  1  0.014682  0.166423  0.752782  1
