# generated using pymatgen
data_Ce4BePtRh11
_symmetry_space_group_name_H-M   'P 1'
_cell_length_a   7.14737868
_cell_length_b   7.14737801
_cell_length_c   7.14737900
_cell_angle_alpha   108.54661436
_cell_angle_beta   108.54661256
_cell_angle_gamma   111.33668975
_symmetry_Int_Tables_number   1
_chemical_formula_structural   Ce4BePtRh11
_chemical_formula_sum   'Ce4 Be1 Pt1 Rh11'
_cell_volume   280.84830840
_cell_formula_units_Z   1
loop_
 _symmetry_equiv_pos_site_id
 _symmetry_equiv_pos_as_xyz
  1  'x, y, z'
loop_
 _atom_site_type_symbol
 _atom_site_label
 _atom_site_symmetry_multiplicity
 _atom_site_fract_x
 _atom_site_fract_y
 _atom_site_fract_z
 _atom_site_occupancy
  Ce  Ce0  1  0.003900  0.996101  0.499995  1
  Ce  Ce1  1  0.003922  0.503916  0.007824  1
  Ce  Ce2  1  0.496106  0.996101  0.992202  1
  Ce  Ce3  1  0.496090  0.503916  0.499994  1
  Be  Be4  1  0.000012  0.000015  0.000002  1
  Pt  Pt5  1  0.749969  0.250072  0.500103  1
  Rh  Rh6  1  0.750849  0.498527  0.252336  1
  Rh  Rh7  1  0.501693  0.249391  0.747697  1
  Rh  Rh8  1  0.246192  0.498527  0.747678  1
  Rh  Rh9  1  0.250009  0.749865  0.499856  1
  Rh  Rh10  1  0.501294  0.753617  0.252324  1
  Rh  Rh11  1  0.729226  0.729063  0.999836  1
  Rh  Rh12  1  0.266718  0.001460  0.265235  1
  Rh  Rh13  1  0.998653  0.263888  0.265236  1
  Rh  Rh14  1  0.270823  0.270993  0.000170  1
  Rh  Rh15  1  0.736226  0.001460  0.734743  1
  Rh  Rh16  1  0.998319  0.733088  0.734769  1
