# generated using pymatgen
data_Al3V12Ir
_symmetry_space_group_name_H-M   'P 1'
_cell_length_a   4.78081200
_cell_length_b   4.78164200
_cell_length_c   9.65416400
_cell_angle_alpha   90.00000000
_cell_angle_beta   90.00000000
_cell_angle_gamma   90.00000000
_symmetry_Int_Tables_number   1
_chemical_formula_structural   Al3V12Ir
_chemical_formula_sum   'Al3 V12 Ir1'
_cell_volume   220.69545811
_cell_formula_units_Z   1
loop_
 _symmetry_equiv_pos_site_id
 _symmetry_equiv_pos_as_xyz
  1  'x, y, z'
loop_
 _atom_site_type_symbol
 _atom_site_label
 _atom_site_symmetry_multiplicity
 _atom_site_fract_x
 _atom_site_fract_y
 _atom_site_fract_z
 _atom_site_occupancy
  Al  Al0  1  0.500000  0.500000  0.500000  1
  Al  Al1  1  0.000000  0.000000  0.749670  1
  Al  Al2  1  0.000000  0.000000  0.250330  1
  V  V3  1  0.000000  0.500000  0.120296  1
  V  V4  1  0.000000  0.500000  0.631141  1
  V  V5  1  0.500000  0.254594  0.754044  1
  V  V6  1  0.500000  0.254594  0.245956  1
  V  V7  1  0.749340  0.000000  0.000000  1
  V  V8  1  0.759464  0.000000  0.500000  1
  V  V9  1  0.000000  0.500000  0.879704  1
  V  V10  1  0.000000  0.500000  0.368859  1
  V  V11  1  0.500000  0.745406  0.754044  1
  V  V12  1  0.500000  0.745406  0.245956  1
  V  V13  1  0.250660  0.000000  0.000000  1
  V  V14  1  0.240536  0.000000  0.500000  1
  Ir  Ir15  1  0.500000  0.500000  0.000000  1
