# generated using pymatgen
data_Ba2ZnReN4
_symmetry_space_group_name_H-M   'P 1'
_cell_length_a   6.03104800
_cell_length_b   6.80490265
_cell_length_c   7.84833903
_cell_angle_alpha   67.21855604
_cell_angle_beta   90.00000000
_cell_angle_gamma   90.00000000
_symmetry_Int_Tables_number   1
_chemical_formula_structural   Ba2ZnReN4
_chemical_formula_sum   'Ba4 Zn2 Re2 N8'
_cell_volume   296.97371454
_cell_formula_units_Z   2
loop_
 _symmetry_equiv_pos_site_id
 _symmetry_equiv_pos_as_xyz
  1  'x, y, z'
loop_
 _atom_site_type_symbol
 _atom_site_label
 _atom_site_symmetry_multiplicity
 _atom_site_fract_x
 _atom_site_fract_y
 _atom_site_fract_z
 _atom_site_occupancy
  Ba  Ba0  1  0.250000  0.254912  0.064242  1
  Ba  Ba1  1  0.750000  0.745088  0.935758  1
  Ba  Ba2  1  0.750000  0.815572  0.404304  1
  Ba  Ba3  1  0.250000  0.184428  0.595696  1
  Zn  Zn4  1  0.750000  0.331408  0.363733  1
  Zn  Zn5  1  0.250000  0.668592  0.636267  1
  Re  Re6  1  0.250000  0.703233  0.213262  1
  Re  Re7  1  0.750000  0.296767  0.786738  1
  N  N8  1  0.497372  0.462207  0.736249  1
  N  N9  1  0.997372  0.537793  0.263751  1
  N  N10  1  0.502628  0.537793  0.263751  1
  N  N11  1  0.002628  0.462207  0.736249  1
  N  N12  1  0.750000  0.133747  0.638375  1
  N  N13  1  0.250000  0.866253  0.361625  1
  N  N14  1  0.750000  0.116761  0.027393  1
  N  N15  1  0.250000  0.883239  0.972607  1
