# generated using pymatgen
data_Dy3MgIn2CuHgIr
_symmetry_space_group_name_H-M   'P 1'
_cell_length_a   7.74257100
_cell_length_b   7.74256937
_cell_length_c   3.89787000
_cell_angle_alpha   90.00000000
_cell_angle_beta   90.00000000
_cell_angle_gamma   120.00001126
_symmetry_Int_Tables_number   1
_chemical_formula_structural   Dy3MgIn2CuHgIr
_chemical_formula_sum   'Dy3 Mg1 In2 Cu1 Hg1 Ir1'
_cell_volume   202.36166053
_cell_formula_units_Z   1
loop_
 _symmetry_equiv_pos_site_id
 _symmetry_equiv_pos_as_xyz
  1  'x, y, z'
loop_
 _atom_site_type_symbol
 _atom_site_label
 _atom_site_symmetry_multiplicity
 _atom_site_fract_x
 _atom_site_fract_y
 _atom_site_fract_z
 _atom_site_occupancy
  Dy  Dy0  1  0.390047  0.970909  0.500000  1
  Dy  Dy1  1  0.034574  0.428805  0.500000  1
  Dy  Dy2  1  0.575174  0.602972  0.500000  1
  Mg  Mg3  1  0.752398  0.996533  0.000000  1
  In  In4  1  0.998830  0.755367  0.000000  1
  In  In5  1  0.243388  0.247052  0.000000  1
  Cu  Cu6  1  0.998356  0.000499  0.500000  1
  Hg  Hg7  1  0.668769  0.326021  0.000000  1
  Ir  Ir8  1  0.338463  0.671844  0.000000  1
