# generated using pymatgen
data_Dy4Ga4Ni3Ru
_symmetry_space_group_name_H-M   'P 1'
_cell_length_a   4.25896300
_cell_length_b   6.76169352
_cell_length_c   7.52904359
_cell_angle_alpha   89.87824603
_cell_angle_beta   90.00000000
_cell_angle_gamma   90.00000000
_symmetry_Int_Tables_number   1
_chemical_formula_structural   Dy4Ga4Ni3Ru
_chemical_formula_sum   'Dy4 Ga4 Ni3 Ru1'
_cell_volume   216.81942101
_cell_formula_units_Z   1
loop_
 _symmetry_equiv_pos_site_id
 _symmetry_equiv_pos_as_xyz
  1  'x, y, z'
loop_
 _atom_site_type_symbol
 _atom_site_label
 _atom_site_symmetry_multiplicity
 _atom_site_fract_x
 _atom_site_fract_y
 _atom_site_fract_z
 _atom_site_occupancy
  Dy  Dy0  1  0.250000  0.026607  0.813397  1
  Dy  Dy1  1  0.250000  0.522764  0.688410  1
  Dy  Dy2  1  0.750000  0.978066  0.192018  1
  Dy  Dy3  1  0.750000  0.479097  0.308229  1
  Ga  Ga4  1  0.250000  0.165076  0.431573  1
  Ga  Ga5  1  0.250000  0.662341  0.061361  1
  Ga  Ga6  1  0.750000  0.838278  0.578000  1
  Ga  Ga7  1  0.750000  0.337074  0.930116  1
  Ni  Ni8  1  0.250000  0.284549  0.106390  1
  Ni  Ni9  1  0.750000  0.218222  0.609131  1
  Ni  Ni10  1  0.750000  0.716798  0.891657  1
  Ru  Ru11  1  0.250000  0.771127  0.389717  1
