# generated using pymatgen
data_CsPb3(NO3)8
_symmetry_space_group_name_H-M   'P 1'
_cell_length_a   8.31612642
_cell_length_b   8.31612670
_cell_length_c   8.31612571
_cell_angle_alpha   91.47608679
_cell_angle_beta   91.47608192
_cell_angle_gamma   91.47608903
_symmetry_Int_Tables_number   1
_chemical_formula_structural   CsPb3(NO3)8
_chemical_formula_sum   'Cs1 Pb3 N8 O24'
_cell_volume   574.54372294
_cell_formula_units_Z   1
loop_
 _symmetry_equiv_pos_site_id
 _symmetry_equiv_pos_as_xyz
  1  'x, y, z'
loop_
 _atom_site_type_symbol
 _atom_site_label
 _atom_site_symmetry_multiplicity
 _atom_site_fract_x
 _atom_site_fract_y
 _atom_site_fract_z
 _atom_site_occupancy
  Cs  Cs0  1  0.500000  0.500000  0.500000  1
  Pb  Pb1  1  0.500000  0.000000  0.000000  1
  Pb  Pb2  1  0.000000  0.000000  0.500000  1
  Pb  Pb3  1  0.000000  0.500000  0.000000  1
  N  N4  1  0.667240  0.884282  0.329816  1
  N  N5  1  0.332760  0.115718  0.670184  1
  N  N6  1  0.158238  0.158238  0.158238  1
  N  N7  1  0.884282  0.329816  0.667240  1
  N  N8  1  0.329816  0.667240  0.884282  1
  N  N9  1  0.841762  0.841762  0.841762  1
  N  N10  1  0.115718  0.670184  0.332760  1
  N  N11  1  0.670184  0.332760  0.115718  1
  O  O12  1  0.039496  0.190537  0.244378  1
  O  O13  1  0.830945  0.462673  0.719108  1
  O  O14  1  0.264304  0.741064  0.999180  1
  O  O15  1  0.960504  0.809463  0.755622  1
  O  O16  1  0.169055  0.537327  0.280892  1
  O  O17  1  0.735696  0.258936  0.000820  1
  O  O18  1  0.244378  0.039496  0.190537  1
  O  O19  1  0.821184  0.263582  0.540760  1
  O  O20  1  0.462673  0.719108  0.830945  1
  O  O21  1  0.755622  0.960504  0.809463  1
  O  O22  1  0.178816  0.736418  0.459240  1
  O  O23  1  0.537327  0.280892  0.169055  1
  O  O24  1  0.190537  0.244378  0.039496  1
  O  O25  1  0.999180  0.264304  0.741064  1
  O  O26  1  0.263582  0.540760  0.821184  1
  O  O27  1  0.809463  0.755622  0.960504  1
  O  O28  1  0.000820  0.735696  0.258936  1
  O  O29  1  0.736418  0.459240  0.178816  1
  O  O30  1  0.741064  0.999180  0.264304  1
  O  O31  1  0.719108  0.830945  0.462673  1
  O  O32  1  0.540760  0.821184  0.263582  1
  O  O33  1  0.258936  0.000820  0.735696  1
  O  O34  1  0.280892  0.169055  0.537327  1
  O  O35  1  0.459240  0.178816  0.736418  1
