# generated using pymatgen
data_Ba3Nd2Tm2O9
_symmetry_space_group_name_H-M   'P 1'
_cell_length_a   6.21224848
_cell_length_b   6.21201274
_cell_length_c   9.28849434
_cell_angle_alpha   90.00110676
_cell_angle_beta   109.53495321
_cell_angle_gamma   119.99817620
_symmetry_Int_Tables_number   1
_chemical_formula_structural   Ba3Nd2Tm2O9
_chemical_formula_sum   'Ba3 Nd2 Tm2 O9'
_cell_volume   286.35728726
_cell_formula_units_Z   1
loop_
 _symmetry_equiv_pos_site_id
 _symmetry_equiv_pos_as_xyz
  1  'x, y, z'
loop_
 _atom_site_type_symbol
 _atom_site_label
 _atom_site_symmetry_multiplicity
 _atom_site_fract_x
 _atom_site_fract_y
 _atom_site_fract_z
 _atom_site_occupancy
  Ba  Ba0  1  0.007141  0.003593  0.010615  1
  Ba  Ba1  1  0.843025  0.421498  0.264486  1
  Ba  Ba2  1  0.666165  0.833084  0.499233  1
  Nd  Nd3  1  0.147359  0.573671  0.721200  1
  Nd  Nd4  1  0.525631  0.262827  0.788456  1
  Tm  Tm5  1  0.402201  0.701104  0.103231  1
  Tm  Tm6  1  0.270121  0.135046  0.405206  1
  O  O7  1  0.275656  0.419065  0.254522  1
  O  O8  1  0.835469  0.856587  0.254522  1
  O  O9  1  0.397968  0.978903  0.254530  1
  O  O10  1  0.295207  0.878305  0.575233  1
  O  O11  1  0.158251  0.279943  0.575225  1
  O  O12  1  0.696819  0.416889  0.575246  1
  O  O13  1  0.515283  0.954630  0.929944  1
  O  O14  1  0.369330  0.414724  0.929935  1
  O  O15  1  0.975376  0.560631  0.929921  1
