# generated using pymatgen
data_Tb3Ir4Rh5
_symmetry_space_group_name_H-M   'P 1'
_cell_length_a   5.30205200
_cell_length_b   5.30205174
_cell_length_c   17.51832500
_cell_angle_alpha   90.00000000
_cell_angle_beta   90.00000000
_cell_angle_gamma   119.99998915
_symmetry_Int_Tables_number   1
_chemical_formula_structural   Tb3Ir4Rh5
_chemical_formula_sum   'Tb6 Ir8 Rh10'
_cell_volume   426.49230759
_cell_formula_units_Z   2
loop_
 _symmetry_equiv_pos_site_id
 _symmetry_equiv_pos_as_xyz
  1  'x, y, z'
loop_
 _atom_site_type_symbol
 _atom_site_label
 _atom_site_symmetry_multiplicity
 _atom_site_fract_x
 _atom_site_fract_y
 _atom_site_fract_z
 _atom_site_occupancy
  Tb  Tb0  1  0.333333  0.666667  0.958254  1
  Tb  Tb1  1  0.666667  0.333333  0.041746  1
  Tb  Tb2  1  0.666667  0.333333  0.459614  1
  Tb  Tb3  1  0.333333  0.666667  0.540386  1
  Tb  Tb4  1  0.333333  0.666667  0.747987  1
  Tb  Tb5  1  0.666667  0.333333  0.252013  1
  Ir  Ir6  1  0.167493  0.832507  0.373562  1
  Ir  Ir7  1  0.167493  0.334987  0.373562  1
  Ir  Ir8  1  0.665013  0.832507  0.373562  1
  Ir  Ir9  1  0.832507  0.167493  0.626438  1
  Ir  Ir10  1  0.832507  0.665013  0.626438  1
  Ir  Ir11  1  0.334987  0.167493  0.626438  1
  Ir  Ir12  1  0.000000  0.000000  0.500000  1
  Ir  Ir13  1  0.000000  0.000000  0.000000  1
  Rh  Rh14  1  0.832822  0.167178  0.875286  1
  Rh  Rh15  1  0.832822  0.665643  0.875286  1
  Rh  Rh16  1  0.334357  0.167178  0.875286  1
  Rh  Rh17  1  0.167178  0.832822  0.124714  1
  Rh  Rh18  1  0.167178  0.334357  0.124714  1
  Rh  Rh19  1  0.665643  0.832822  0.124714  1
  Rh  Rh20  1  0.333333  0.666667  0.248863  1
  Rh  Rh21  1  0.666667  0.333333  0.751137  1
  Rh  Rh22  1  0.000000  0.000000  0.249751  1
  Rh  Rh23  1  0.000000  0.000000  0.750249  1
