# generated using pymatgen
data_Ce2LuIn3Ru2
_symmetry_space_group_name_H-M   'P 1'
_cell_length_a   8.24612618
_cell_length_b   8.24612662
_cell_length_c   4.96565127
_cell_angle_alpha   82.86409258
_cell_angle_beta   82.86409231
_cell_angle_gamma   34.69051920
_symmetry_Int_Tables_number   1
_chemical_formula_structural   Ce2LuIn3Ru2
_chemical_formula_sum   'Ce2 Lu1 In3 Ru2'
_cell_volume   190.54110187
_cell_formula_units_Z   1
loop_
 _symmetry_equiv_pos_site_id
 _symmetry_equiv_pos_as_xyz
  1  'x, y, z'
loop_
 _atom_site_type_symbol
 _atom_site_label
 _atom_site_symmetry_multiplicity
 _atom_site_fract_x
 _atom_site_fract_y
 _atom_site_fract_z
 _atom_site_occupancy
  Ce  Ce0  1  0.830326  0.830326  0.573223  1
  Ce  Ce1  1  0.169674  0.169674  0.426777  1
  Lu  Lu2  1  0.000000  0.000000  0.000000  1
  In  In3  1  0.371748  0.371748  0.044970  1
  In  In4  1  0.500000  0.500000  0.500000  1
  In  In5  1  0.628252  0.628252  0.955030  1
  Ru  Ru6  1  0.795520  0.795520  0.119798  1
  Ru  Ru7  1  0.204480  0.204480  0.880202  1
