# generated using pymatgen
data_La4Tc2SnB6
_symmetry_space_group_name_H-M   'P 1'
_cell_length_a   5.57293072
_cell_length_b   5.57657541
_cell_length_c   8.71280329
_cell_angle_alpha   71.39029501
_cell_angle_beta   71.34840519
_cell_angle_gamma   60.02162525
_symmetry_Int_Tables_number   1
_chemical_formula_structural   La4Tc2SnB6
_chemical_formula_sum   'La4 Tc2 Sn1 B6'
_cell_volume   218.00376324
_cell_formula_units_Z   1
loop_
 _symmetry_equiv_pos_site_id
 _symmetry_equiv_pos_as_xyz
  1  'x, y, z'
loop_
 _atom_site_type_symbol
 _atom_site_label
 _atom_site_symmetry_multiplicity
 _atom_site_fract_x
 _atom_site_fract_y
 _atom_site_fract_z
 _atom_site_occupancy
  La  La0  1  0.252661  0.251983  0.242695  1
  La  La1  1  0.747339  0.748017  0.757305  1
  La  La2  1  0.413489  0.414902  0.758118  1
  La  La3  1  0.586511  0.585098  0.241882  1
  Tc  Tc4  1  0.114694  0.114845  0.655766  1
  Tc  Tc5  1  0.885306  0.885155  0.344234  1
  Sn  Sn6  1  0.000000  0.000000  0.000000  1
  B  B7  1  0.830520  0.500000  0.500000  1
  B  B8  1  0.500070  0.169561  0.500069  1
  B  B9  1  0.169700  0.830439  0.499931  1
  B  B10  1  0.499930  0.830439  0.499931  1
  B  B11  1  0.830300  0.169561  0.500069  1
  B  B12  1  0.169480  0.500000  0.500000  1
