# generated using pymatgen
data_Ca2Y3Tm(Si3Os)8
_symmetry_space_group_name_H-M   'P 1'
_cell_length_a   10.15605938
_cell_length_b   10.15392802
_cell_length_c   8.17374613
_cell_angle_alpha   89.98414036
_cell_angle_beta   90.02366892
_cell_angle_gamma   132.48245027
_symmetry_Int_Tables_number   1
_chemical_formula_structural   Ca2Y3Tm(Si3Os)8
_chemical_formula_sum   'Ca2 Y3 Tm1 Si24 Os8'
_cell_volume   621.63171122
_cell_formula_units_Z   1
loop_
 _symmetry_equiv_pos_site_id
 _symmetry_equiv_pos_as_xyz
  1  'x, y, z'
loop_
 _atom_site_type_symbol
 _atom_site_label
 _atom_site_symmetry_multiplicity
 _atom_site_fract_x
 _atom_site_fract_y
 _atom_site_fract_z
 _atom_site_occupancy
  Ca  Ca0  1  0.500352  0.000303  0.750210  1
  Ca  Ca1  1  0.000348  0.000306  0.999975  1
  Y  Y2  1  0.001457  0.501479  0.249521  1
  Y  Y3  1  0.497246  0.997244  0.249395  1
  Y  Y4  1  0.002736  0.502651  0.750716  1
  Tm  Tm5  1  0.500411  0.500446  0.500310  1
  Si  Si6  1  0.795052  0.203321  0.500915  1
  Si  Si7  1  0.702347  0.295471  0.998842  1
  Si  Si8  1  0.206230  0.796782  0.501899  1
  Si  Si9  1  0.297746  0.705654  0.998043  1
  Si  Si10  1  0.664785  0.673364  0.165774  1
  Si  Si11  1  0.170123  0.162919  0.331491  1
  Si  Si12  1  0.837270  0.831440  0.668912  1
  Si  Si13  1  0.328140  0.335069  0.833820  1
  Si  Si14  1  0.845615  0.614408  0.991772  1
  Si  Si15  1  0.112409  0.344208  0.507711  1
  Si  Si16  1  0.653313  0.886782  0.492274  1
  Si  Si17  1  0.384667  0.151722  0.008532  1
  Si  Si18  1  0.154199  0.386660  0.004155  1
  Si  Si19  1  0.888740  0.655568  0.495721  1
  Si  Si20  1  0.121031  0.886990  0.730320  1
  Si  Si21  1  0.387021  0.620995  0.770953  1
  Si  Si22  1  0.377934  0.611001  0.227280  1
  Si  Si23  1  0.111110  0.878177  0.271402  1
  Si  Si24  1  0.875695  0.107940  0.270734  1
  Si  Si25  1  0.607660  0.374981  0.228289  1
  Si  Si26  1  0.625805  0.392345  0.770033  1
  Si  Si27  1  0.891832  0.124876  0.730965  1
  Si  Si28  1  0.613987  0.847108  0.997335  1
  Si  Si29  1  0.345678  0.111833  0.502796  1
  Os  Os30  1  0.624924  0.624860  0.870468  1
  Os  Os31  1  0.129093  0.128600  0.625403  1
  Os  Os32  1  0.375671  0.374848  0.128620  1
  Os  Os33  1  0.871135  0.871502  0.375272  1
  Os  Os34  1  0.167799  0.827224  0.002438  1
  Os  Os35  1  0.328872  0.666416  0.497634  1
  Os  Os36  1  0.830016  0.173080  0.002305  1
  Os  Os37  1  0.671554  0.331428  0.497766  1
