# generated using pymatgen
data_Tb12Tm8Si15Tc
_symmetry_space_group_name_H-M   'P 1'
_cell_length_a   7.34627164
_cell_length_b   7.73120312
_cell_length_c   14.48669900
_cell_angle_alpha   90.00441694
_cell_angle_beta   90.11042256
_cell_angle_gamma   90.00895875
_symmetry_Int_Tables_number   1
_chemical_formula_structural   Tb12Tm8Si15Tc
_chemical_formula_sum   'Tb12 Tm8 Si15 Tc1'
_cell_volume   822.77803661
_cell_formula_units_Z   1
loop_
 _symmetry_equiv_pos_site_id
 _symmetry_equiv_pos_as_xyz
  1  'x, y, z'
loop_
 _atom_site_type_symbol
 _atom_site_label
 _atom_site_symmetry_multiplicity
 _atom_site_fract_x
 _atom_site_fract_y
 _atom_site_fract_z
 _atom_site_occupancy
  Tb  Tb0  1  0.318957  0.820213  0.376268  1
  Tb  Tb1  1  0.817083  0.676363  0.123284  1
  Tb  Tb2  1  0.670164  0.185573  0.874501  1
  Tb  Tb3  1  0.193919  0.326045  0.627153  1
  Tb  Tb4  1  0.522618  0.674107  0.595328  1
  Tb  Tb5  1  0.023658  0.818725  0.903581  1
  Tb  Tb6  1  0.473616  0.315888  0.097702  1
  Tb  Tb7  1  0.976062  0.181577  0.402944  1
  Tb  Tb8  1  0.475789  0.315927  0.403118  1
  Tb  Tb9  1  0.975609  0.181771  0.096524  1
  Tb  Tb10  1  0.519526  0.672890  0.904539  1
  Tb  Tb11  1  0.023478  0.818033  0.596049  1
  Tm  Tm12  1  0.672233  0.184526  0.625909  1
  Tm  Tm13  1  0.193486  0.326259  0.872263  1
  Tm  Tm14  1  0.317597  0.820138  0.124846  1
  Tm  Tm15  1  0.817844  0.676219  0.375649  1
  Tm  Tm16  1  0.841105  0.512996  0.749675  1
  Tm  Tm17  1  0.353218  0.984758  0.750148  1
  Tm  Tm18  1  0.151119  0.484809  0.249838  1
  Tm  Tm19  1  0.650188  0.013187  0.250370  1
  Si  Si20  1  0.652024  0.970331  0.461477  1
  Si  Si21  1  0.153269  0.529327  0.039142  1
  Si  Si22  1  0.344066  0.026472  0.962019  1
  Si  Si23  1  0.852388  0.470118  0.538253  1
  Si  Si24  1  0.351515  0.025481  0.540164  1
  Si  Si25  1  0.860112  0.470449  0.959281  1
  Si  Si26  1  0.643595  0.970658  0.040401  1
  Si  Si27  1  0.146932  0.528764  0.459395  1
  Si  Si28  1  0.980356  0.102447  0.749605  1
  Si  Si29  1  0.521887  0.603819  0.250101  1
  Si  Si30  1  0.018412  0.894150  0.249906  1
  Si  Si31  1  0.738625  0.875500  0.749110  1
  Si  Si32  1  0.227798  0.634743  0.751329  1
  Si  Si33  1  0.268733  0.129364  0.249536  1
  Si  Si34  1  0.771663  0.369792  0.250718  1
  Tc  Tc35  1  0.481358  0.408588  0.749870  1
