# generated using pymatgen
data_MgTa11(BOs)12
_symmetry_space_group_name_H-M   'P 1'
_cell_length_a   3.11548500
_cell_length_b   9.08360253
_cell_length_c   15.82892524
_cell_angle_alpha   89.75077463
_cell_angle_beta   90.00000000
_cell_angle_gamma   90.00000000
_symmetry_Int_Tables_number   1
_chemical_formula_structural   MgTa11(BOs)12
_chemical_formula_sum   'Mg1 Ta11 B12 Os12'
_cell_volume   447.95161494
_cell_formula_units_Z   1
loop_
 _symmetry_equiv_pos_site_id
 _symmetry_equiv_pos_as_xyz
  1  'x, y, z'
loop_
 _atom_site_type_symbol
 _atom_site_label
 _atom_site_symmetry_multiplicity
 _atom_site_fract_x
 _atom_site_fract_y
 _atom_site_fract_z
 _atom_site_occupancy
  Mg  Mg0  1  0.000000  0.820964  0.709572  1
  Ta  Ta1  1  0.000000  0.798439  0.496009  1
  Ta  Ta2  1  0.000000  0.194500  0.506135  1
  Ta  Ta3  1  0.000000  0.300155  0.003746  1
  Ta  Ta4  1  0.000000  0.700403  0.994360  1
  Ta  Ta5  1  0.000000  0.514698  0.594307  1
  Ta  Ta6  1  0.000000  0.481968  0.406585  1
  Ta  Ta7  1  0.000000  0.015480  0.905756  1
  Ta  Ta8  1  0.000000  0.984286  0.093794  1
  Ta  Ta9  1  0.000000  0.687421  0.202774  1
  Ta  Ta10  1  0.000000  0.318578  0.795101  1
  Ta  Ta11  1  0.000000  0.187041  0.297054  1
  B  B12  1  0.500000  0.603716  0.495751  1
  B  B13  1  0.500000  0.392077  0.503311  1
  B  B14  1  0.500000  0.105872  0.002702  1
  B  B15  1  0.500000  0.895584  0.997462  1
  B  B16  1  0.000000  0.614317  0.829248  1
  B  B17  1  0.000000  0.391038  0.166785  1
  B  B18  1  0.000000  0.103693  0.667783  1
  B  B19  1  0.000000  0.889314  0.332566  1
  B  B20  1  0.500000  0.712992  0.598009  1
  B  B21  1  0.500000  0.282836  0.402142  1
  B  B22  1  0.500000  0.216116  0.900765  1
  B  B23  1  0.500000  0.784064  0.097605  1
  Os  Os24  1  0.500000  0.717691  0.355946  1
  Os  Os25  1  0.500000  0.280054  0.642317  1
  Os  Os26  1  0.500000  0.218948  0.144003  1
  Os  Os27  1  0.500000  0.781062  0.859611  1
  Os  Os28  1  0.500000  0.516090  0.094348  1
  Os  Os29  1  0.500000  0.483604  0.906194  1
  Os  Os30  1  0.500000  0.016292  0.403625  1
  Os  Os31  1  0.500000  0.983960  0.592811  1
  Os  Os32  1  0.500000  0.560008  0.733868  1
  Os  Os33  1  0.500000  0.436690  0.265929  1
  Os  Os34  1  0.500000  0.072618  0.768319  1
  Os  Os35  1  0.500000  0.937433  0.233703  1
