# generated using pymatgen
data_Sc22Ir4Os3Rh
_symmetry_space_group_name_H-M   'P 1'
_cell_length_a   9.49516569
_cell_length_b   9.49884227
_cell_length_c   9.48987082
_cell_angle_alpha   59.75157393
_cell_angle_beta   59.80820154
_cell_angle_gamma   59.82626392
_symmetry_Int_Tables_number   1
_chemical_formula_structural   Sc22Ir4Os3Rh
_chemical_formula_sum   'Sc22 Ir4 Os3 Rh1'
_cell_volume   602.41491027
_cell_formula_units_Z   1
loop_
 _symmetry_equiv_pos_site_id
 _symmetry_equiv_pos_as_xyz
  1  'x, y, z'
loop_
 _atom_site_type_symbol
 _atom_site_label
 _atom_site_symmetry_multiplicity
 _atom_site_fract_x
 _atom_site_fract_y
 _atom_site_fract_z
 _atom_site_occupancy
  Sc  Sc0  1  0.844021  0.842275  0.843829  1
  Sc  Sc1  1  0.531318  0.156376  0.156642  1
  Sc  Sc2  1  0.157510  0.157768  0.529312  1
  Sc  Sc3  1  0.155448  0.531807  0.156101  1
  Sc  Sc4  1  0.842490  0.842232  0.470688  1
  Sc  Sc5  1  0.844552  0.468193  0.843899  1
  Sc  Sc6  1  0.468682  0.843624  0.843358  1
  Sc  Sc7  1  0.155979  0.157725  0.156171  1
  Sc  Sc8  1  0.195395  0.804679  0.198224  1
  Sc  Sc9  1  0.194994  0.803915  0.801930  1
  Sc  Sc10  1  0.805006  0.196085  0.198070  1
  Sc  Sc11  1  0.803156  0.801967  0.196562  1
  Sc  Sc12  1  0.196844  0.198033  0.803438  1
  Sc  Sc13  1  0.804605  0.195321  0.801776  1
  Sc  Sc14  1  0.382580  0.382929  0.385494  1
  Sc  Sc15  1  0.149101  0.615422  0.619014  1
  Sc  Sc16  1  0.616528  0.149312  0.617004  1
  Sc  Sc17  1  0.619646  0.616245  0.150019  1
  Sc  Sc18  1  0.383472  0.850688  0.382996  1
  Sc  Sc19  1  0.380354  0.383755  0.849981  1
  Sc  Sc20  1  0.850899  0.384578  0.380986  1
  Sc  Sc21  1  0.617420  0.617071  0.614506  1
  Ir  Ir22  1  0.000000  0.000000  0.500000  1
  Ir  Ir23  1  0.500000  0.000000  0.500000  1
  Ir  Ir24  1  0.000000  0.500000  0.500000  1
  Ir  Ir25  1  0.500000  0.000000  0.000000  1
  Os  Os26  1  0.000000  0.500000  0.000000  1
  Os  Os27  1  0.500000  0.500000  0.500000  1
  Os  Os28  1  0.000000  0.000000  0.000000  1
  Rh  Rh29  1  0.500000  0.500000  0.000000  1
