# generated using pymatgen
data_KBa4Fe7Co3P10
_symmetry_space_group_name_H-M   'P 1'
_cell_length_a   8.70890073
_cell_length_b   8.70381195
_cell_length_c   8.70732033
_cell_angle_alpha   121.77460303
_cell_angle_beta   121.77729406
_cell_angle_gamma   86.95884472
_symmetry_Int_Tables_number   1
_chemical_formula_structural   KBa4Fe7Co3P10
_chemical_formula_sum   'K1 Ba4 Fe7 Co3 P10'
_cell_volume   453.44717739
_cell_formula_units_Z   1
loop_
 _symmetry_equiv_pos_site_id
 _symmetry_equiv_pos_as_xyz
  1  'x, y, z'
loop_
 _atom_site_type_symbol
 _atom_site_label
 _atom_site_symmetry_multiplicity
 _atom_site_fract_x
 _atom_site_fract_y
 _atom_site_fract_z
 _atom_site_occupancy
  K  K0  1  0.000076  0.999902  0.000116  1
  Ba  Ba1  1  0.391675  0.802217  0.194279  1
  Ba  Ba2  1  0.802238  0.608098  0.410689  1
  Ba  Ba3  1  0.197677  0.391864  0.589396  1
  Ba  Ba4  1  0.608740  0.198046  0.805871  1
  Fe  Fe5  1  0.151111  0.050646  0.701042  1
  Fe  Fe6  1  0.548978  0.849399  0.898814  1
  Fe  Fe7  1  0.650393  0.548733  0.699170  1
  Fe  Fe8  1  0.050307  0.351296  0.901031  1
  Fe  Fe9  1  0.451234  0.151609  0.102542  1
  Fe  Fe10  1  0.849536  0.949632  0.299745  1
  Fe  Fe11  1  0.248939  0.748751  0.497681  1
  Co  Co12  1  0.948954  0.650149  0.099575  1
  Co  Co13  1  0.349852  0.450051  0.299795  1
  Co  Co14  1  0.750703  0.249812  0.500506  1
  P  P15  1  0.939562  0.539133  0.799964  1
  P  P16  1  0.339211  0.338076  0.997802  1
  P  P17  1  0.738386  0.137415  0.197169  1
  P  P18  1  0.140461  0.941578  0.403348  1
  P  P19  1  0.539546  0.740799  0.601854  1
  P  P20  1  0.657900  0.661388  0.998553  1
  P  P21  1  0.060145  0.461062  0.199972  1
  P  P22  1  0.460955  0.260534  0.400485  1
  P  P23  1  0.862775  0.059531  0.600866  1
  P  P24  1  0.260644  0.860281  0.799734  1
