# generated using pymatgen
data_Dy7Y3Si6C
_symmetry_space_group_name_H-M   'P 1'
_cell_length_a   8.46602500
_cell_length_b   8.46602586
_cell_length_c   6.38355900
_cell_angle_alpha   90.00000000
_cell_angle_beta   90.00000000
_cell_angle_gamma   119.99999274
_symmetry_Int_Tables_number   1
_chemical_formula_structural   Dy7Y3Si6C
_chemical_formula_sum   'Dy7 Y3 Si6 C1'
_cell_volume   396.23485651
_cell_formula_units_Z   1
loop_
 _symmetry_equiv_pos_site_id
 _symmetry_equiv_pos_as_xyz
  1  'x, y, z'
loop_
 _atom_site_type_symbol
 _atom_site_label
 _atom_site_symmetry_multiplicity
 _atom_site_fract_x
 _atom_site_fract_y
 _atom_site_fract_z
 _atom_site_occupancy
  Dy  Dy0  1  0.333333  0.666667  0.499952  1
  Dy  Dy1  1  0.666667  0.333333  0.499952  1
  Dy  Dy2  1  0.666667  0.333333  0.000075  1
  Dy  Dy3  1  0.333333  0.666667  0.000075  1
  Dy  Dy4  1  0.000000  0.764544  0.271313  1
  Dy  Dy5  1  0.235456  0.235456  0.271313  1
  Dy  Dy6  1  0.764544  0.000000  0.271313  1
  Y  Y7  1  0.000000  0.235862  0.728972  1
  Y  Y8  1  0.764138  0.764138  0.728972  1
  Y  Y9  1  0.235862  0.000000  0.728972  1
  Si  Si10  1  0.000000  0.398920  0.253474  1
  Si  Si11  1  0.601080  0.601080  0.253474  1
  Si  Si12  1  0.398920  0.000000  0.253474  1
  Si  Si13  1  0.000000  0.601087  0.746486  1
  Si  Si14  1  0.398913  0.398913  0.746486  1
  Si  Si15  1  0.601087  0.000000  0.746486  1
  C  C16  1  0.000000  0.000000  0.499210  1
