# generated using pymatgen
data_Ta12Ga8Fe3CoC4
_symmetry_space_group_name_H-M   'P 1'
_cell_length_a   8.18700641
_cell_length_b   8.18699637
_cell_length_c   8.18700670
_cell_angle_alpha   60.06052480
_cell_angle_beta   60.06032078
_cell_angle_gamma   60.06047044
_symmetry_Int_Tables_number   1
_chemical_formula_structural   Ta12Ga8Fe3CoC4
_chemical_formula_sum   'Ta12 Ga8 Fe3 Co1 C4'
_cell_volume   388.55665649
_cell_formula_units_Z   1
loop_
 _symmetry_equiv_pos_site_id
 _symmetry_equiv_pos_as_xyz
  1  'x, y, z'
loop_
 _atom_site_type_symbol
 _atom_site_label
 _atom_site_symmetry_multiplicity
 _atom_site_fract_x
 _atom_site_fract_y
 _atom_site_fract_z
 _atom_site_occupancy
  Ta  Ta0  1  0.555249  0.944364  0.555248  1
  Ta  Ta1  1  0.305635  0.694750  0.694753  1
  Ta  Ta2  1  0.690245  0.306798  0.306798  1
  Ta  Ta3  1  0.306798  0.690245  0.306798  1
  Ta  Ta4  1  0.694753  0.694750  0.305636  1
  Ta  Ta5  1  0.306798  0.306799  0.690246  1
  Ta  Ta6  1  0.555247  0.555250  0.944364  1
  Ta  Ta7  1  0.944365  0.555250  0.555247  1
  Ta  Ta8  1  0.559755  0.943202  0.943202  1
  Ta  Ta9  1  0.943202  0.943201  0.559754  1
  Ta  Ta10  1  0.694751  0.305636  0.694752  1
  Ta  Ta11  1  0.943202  0.559755  0.943202  1
  Ga  Ga12  1  0.916791  0.916790  0.916791  1
  Ga  Ga13  1  0.998357  0.333470  0.333467  1
  Ga  Ga14  1  0.333469  0.998358  0.333468  1
  Ga  Ga15  1  0.333468  0.333470  0.998358  1
  Ga  Ga16  1  0.916531  0.251642  0.916532  1
  Ga  Ga17  1  0.916532  0.916530  0.251642  1
  Ga  Ga18  1  0.251643  0.916530  0.916533  1
  Ga  Ga19  1  0.333209  0.333210  0.333209  1
  Fe  Fe20  1  0.625000  0.125000  0.125000  1
  Fe  Fe21  1  0.125000  0.625000  0.125000  1
  Fe  Fe22  1  0.125000  0.125000  0.625000  1
  Co  Co23  1  0.125000  0.125000  0.125000  1
  C  C24  1  0.625000  0.625000  0.625000  1
  C  C25  1  0.125000  0.625000  0.625000  1
  C  C26  1  0.625000  0.125000  0.625000  1
  C  C27  1  0.625000  0.625000  0.125000  1
