# generated using pymatgen
data_CsReTc2(Se2Br)2
_symmetry_space_group_name_H-M   'P 1'
_cell_length_a   19.65989700
_cell_length_b   6.63641975
_cell_length_c   10.52663337
_cell_angle_alpha   65.61865621
_cell_angle_beta   90.00000000
_cell_angle_gamma   90.00000000
_symmetry_Int_Tables_number   1
_chemical_formula_structural   CsReTc2(Se2Br)2
_chemical_formula_sum   'Cs4 Re4 Tc8 Se16 Br8'
_cell_volume   1250.93932862
_cell_formula_units_Z   4
loop_
 _symmetry_equiv_pos_site_id
 _symmetry_equiv_pos_as_xyz
  1  'x, y, z'
loop_
 _atom_site_type_symbol
 _atom_site_label
 _atom_site_symmetry_multiplicity
 _atom_site_fract_x
 _atom_site_fract_y
 _atom_site_fract_z
 _atom_site_occupancy
  Cs  Cs0  1  0.809899  0.042917  0.953762  1
  Cs  Cs1  1  0.690101  0.042917  0.453762  1
  Cs  Cs2  1  0.190101  0.957083  0.046238  1
  Cs  Cs3  1  0.309899  0.957083  0.546238  1
  Re  Re4  1  0.577016  0.863518  0.103106  1
  Re  Re5  1  0.922984  0.863518  0.603106  1
  Re  Re6  1  0.422984  0.136482  0.896894  1
  Re  Re7  1  0.077016  0.136482  0.396894  1
  Tc  Tc8  1  0.557172  0.169347  0.850360  1
  Tc  Tc9  1  0.942828  0.169347  0.350360  1
  Tc  Tc10  1  0.442828  0.830653  0.149640  1
  Tc  Tc11  1  0.057172  0.830653  0.649640  1
  Tc  Tc12  1  0.505111  0.218820  0.067289  1
  Tc  Tc13  1  0.994889  0.218820  0.567289  1
  Tc  Tc14  1  0.494889  0.781180  0.932711  1
  Tc  Tc15  1  0.005111  0.781180  0.432711  1
  Se  Se16  1  0.631492  0.241284  0.023160  1
  Se  Se17  1  0.868508  0.241284  0.523160  1
  Se  Se18  1  0.368508  0.758716  0.976840  1
  Se  Se19  1  0.131492  0.758716  0.476840  1
  Se  Se20  1  0.621307  0.819159  0.890317  1
  Se  Se21  1  0.878693  0.819159  0.390317  1
  Se  Se22  1  0.378693  0.180841  0.109683  1
  Se  Se23  1  0.121307  0.180841  0.609683  1
  Se  Se24  1  0.515383  0.494286  0.191044  1
  Se  Se25  1  0.984617  0.494286  0.691044  1
  Se  Se26  1  0.484617  0.505714  0.808956  1
  Se  Se27  1  0.015383  0.505714  0.308956  1
  Se  Se28  1  0.524046  0.914623  0.307693  1
  Se  Se29  1  0.975954  0.914623  0.807693  1
  Se  Se30  1  0.475954  0.085377  0.692307  1
  Se  Se31  1  0.024046  0.085377  0.192307  1
  Br  Br32  1  0.686336  0.683018  0.242857  1
  Br  Br33  1  0.813664  0.683018  0.742857  1
  Br  Br34  1  0.313664  0.316982  0.757143  1
  Br  Br35  1  0.186336  0.316982  0.257143  1
  Br  Br36  1  0.638617  0.393449  0.646104  1
  Br  Br37  1  0.861383  0.393449  0.146104  1
  Br  Br38  1  0.361383  0.606551  0.353896  1
  Br  Br39  1  0.138617  0.606551  0.853896  1
