# generated using pymatgen
data_Nd8SnHg3Au8
_symmetry_space_group_name_H-M   'P 1'
_cell_length_a   8.19938900
_cell_length_b   8.19938900
_cell_length_c   7.69796500
_cell_angle_alpha   90.00000000
_cell_angle_beta   90.00000000
_cell_angle_gamma   90.00000000
_symmetry_Int_Tables_number   1
_chemical_formula_structural   Nd8SnHg3Au8
_chemical_formula_sum   'Nd8 Sn1 Hg3 Au8'
_cell_volume   517.53403279
_cell_formula_units_Z   1
loop_
 _symmetry_equiv_pos_site_id
 _symmetry_equiv_pos_as_xyz
  1  'x, y, z'
loop_
 _atom_site_type_symbol
 _atom_site_label
 _atom_site_symmetry_multiplicity
 _atom_site_fract_x
 _atom_site_fract_y
 _atom_site_fract_z
 _atom_site_occupancy
  Nd  Nd0  1  0.830807  0.175220  0.500072  1
  Nd  Nd1  1  0.169193  0.824780  0.500072  1
  Nd  Nd2  1  0.324780  0.330807  0.999928  1
  Nd  Nd3  1  0.675220  0.669193  0.999928  1
  Nd  Nd4  1  0.677050  0.672367  0.501066  1
  Nd  Nd5  1  0.322950  0.327633  0.501066  1
  Nd  Nd6  1  0.172367  0.822950  0.998934  1
  Nd  Nd7  1  0.827633  0.177050  0.998934  1
  Sn  Sn8  1  0.000000  0.500000  0.250000  1
  Hg  Hg9  1  0.500000  0.000000  0.250000  1
  Hg  Hg10  1  0.000000  0.500000  0.750000  1
  Hg  Hg11  1  0.500000  0.000000  0.750000  1
  Au  Au12  1  0.621966  0.371365  0.252938  1
  Au  Au13  1  0.378034  0.628635  0.252938  1
  Au  Au14  1  0.128593  0.122464  0.752866  1
  Au  Au15  1  0.871407  0.877536  0.752866  1
  Au  Au16  1  0.377536  0.628593  0.747134  1
  Au  Au17  1  0.622464  0.371407  0.747134  1
  Au  Au18  1  0.871365  0.878034  0.247062  1
  Au  Au19  1  0.128635  0.121966  0.247062  1
