# generated using pymatgen
data_Na2SrFeCo5As6
_symmetry_space_group_name_H-M   'P 1'
_cell_length_a   5.39750067
_cell_length_b   6.70415044
_cell_length_c   8.62016497
_cell_angle_alpha   66.24271062
_cell_angle_beta   71.79503424
_cell_angle_gamma   90.03709892
_symmetry_Int_Tables_number   1
_chemical_formula_structural   Na2SrFeCo5As6
_chemical_formula_sum   'Na2 Sr1 Fe1 Co5 As6'
_cell_volume   268.31708891
_cell_formula_units_Z   1
loop_
 _symmetry_equiv_pos_site_id
 _symmetry_equiv_pos_as_xyz
  1  'x, y, z'
loop_
 _atom_site_type_symbol
 _atom_site_label
 _atom_site_symmetry_multiplicity
 _atom_site_fract_x
 _atom_site_fract_y
 _atom_site_fract_z
 _atom_site_occupancy
  Na  Na0  1  0.329181  0.658092  0.340258  1
  Na  Na1  1  0.671319  0.341198  0.659750  1
  Sr  Sr2  1  0.998351  0.001158  0.000979  1
  Fe  Fe3  1  0.417153  0.834085  0.666982  1
  Co  Co4  1  0.749242  0.500313  0.999074  1
  Co  Co5  1  0.082894  0.165665  0.333987  1
  Co  Co6  1  0.251301  0.500015  0.000818  1
  Co  Co7  1  0.583004  0.166807  0.332200  1
  Co  Co8  1  0.916837  0.833127  0.666601  1
  As  As9  1  0.123011  0.526461  0.760543  1
  As  As10  1  0.450873  0.189390  0.096097  1
  As  As11  1  0.781300  0.853673  0.431522  1
  As  As12  1  0.548356  0.813551  0.902016  1
  As  As13  1  0.881056  0.473932  0.236976  1
  As  As14  1  0.216122  0.142534  0.572198  1
