# generated using pymatgen
data_Cr(FeB2)2
_symmetry_space_group_name_H-M   'P 1'
_cell_length_a   2.95426036
_cell_length_b   2.92550824
_cell_length_c   6.61157039
_cell_angle_alpha   102.78197466
_cell_angle_beta   102.90974766
_cell_angle_gamma   89.99999817
_symmetry_Int_Tables_number   1
_chemical_formula_structural   Cr(FeB2)2
_chemical_formula_sum   'Cr1 Fe2 B4'
_cell_volume   54.24381574
_cell_formula_units_Z   1
loop_
 _symmetry_equiv_pos_site_id
 _symmetry_equiv_pos_as_xyz
  1  'x, y, z'
loop_
 _atom_site_type_symbol
 _atom_site_label
 _atom_site_symmetry_multiplicity
 _atom_site_fract_x
 _atom_site_fract_y
 _atom_site_fract_z
 _atom_site_occupancy
  Cr  Cr0  1  0.499999  0.000000  0.000000  1
  Fe  Fe1  1  0.183860  0.183860  0.367719  1
  Fe  Fe2  1  0.816139  0.816139  0.632281  1
  B  B3  1  0.068735  0.568733  0.137469  1
  B  B4  1  0.647043  0.647043  0.294088  1
  B  B5  1  0.352956  0.352956  0.705912  1
  B  B6  1  0.931264  0.431265  0.862531  1
