# generated using pymatgen
data_Ho2Al2PtRh
_symmetry_space_group_name_H-M   'P 1'
_cell_length_a   4.34612500
_cell_length_b   6.80901579
_cell_length_c   7.85285006
_cell_angle_alpha   89.91694982
_cell_angle_beta   90.00000000
_cell_angle_gamma   90.00000000
_symmetry_Int_Tables_number   1
_chemical_formula_structural   Ho2Al2PtRh
_chemical_formula_sum   'Ho4 Al4 Pt2 Rh2'
_cell_volume   232.38784217
_cell_formula_units_Z   2
loop_
 _symmetry_equiv_pos_site_id
 _symmetry_equiv_pos_as_xyz
  1  'x, y, z'
loop_
 _atom_site_type_symbol
 _atom_site_label
 _atom_site_symmetry_multiplicity
 _atom_site_fract_x
 _atom_site_fract_y
 _atom_site_fract_z
 _atom_site_occupancy
  Ho  Ho0  1  0.250000  0.534679  0.181962  1
  Ho  Ho1  1  0.750000  0.465321  0.818038  1
  Ho  Ho2  1  0.750000  0.968312  0.677005  1
  Ho  Ho3  1  0.250000  0.031688  0.322995  1
  Al  Al4  1  0.250000  0.636997  0.560607  1
  Al  Al5  1  0.750000  0.363003  0.439393  1
  Al  Al6  1  0.750000  0.858711  0.061606  1
  Al  Al7  1  0.250000  0.141289  0.938394  1
  Pt  Pt8  1  0.250000  0.768255  0.878160  1
  Pt  Pt9  1  0.750000  0.231745  0.121840  1
  Rh  Rh10  1  0.750000  0.735474  0.380526  1
  Rh  Rh11  1  0.250000  0.264526  0.619474  1
