# generated using pymatgen
data_Nd3Al4Ni3(BIr3)2
_symmetry_space_group_name_H-M   'P 1'
_cell_length_a   5.48745226
_cell_length_b   5.54096797
_cell_length_c   10.78862300
_cell_angle_alpha   90.00000000
_cell_angle_beta   90.00000000
_cell_angle_gamma   120.32314613
_symmetry_Int_Tables_number   1
_chemical_formula_structural   Nd3Al4Ni3(BIr3)2
_chemical_formula_sum   'Nd3 Al4 Ni3 B2 Ir6'
_cell_volume   283.15853012
_cell_formula_units_Z   1
loop_
 _symmetry_equiv_pos_site_id
 _symmetry_equiv_pos_as_xyz
  1  'x, y, z'
loop_
 _atom_site_type_symbol
 _atom_site_label
 _atom_site_symmetry_multiplicity
 _atom_site_fract_x
 _atom_site_fract_y
 _atom_site_fract_z
 _atom_site_occupancy
  Nd  Nd0  1  0.000000  0.000000  0.657103  1
  Nd  Nd1  1  0.000000  0.000000  0.332522  1
  Nd  Nd2  1  0.000000  0.000000  0.997402  1
  Al  Al3  1  0.324689  0.662345  0.316306  1
  Al  Al4  1  0.675311  0.337655  0.316306  1
  Al  Al5  1  0.655976  0.327988  0.688233  1
  Al  Al6  1  0.344024  0.672012  0.688233  1
  Ni  Ni7  1  0.000000  0.500000  0.127603  1
  Ni  Ni8  1  0.500000  0.000000  0.871251  1
  Ni  Ni9  1  0.500000  0.500000  0.871251  1
  B  B10  1  0.663680  0.331839  0.998312  1
  B  B11  1  0.336320  0.668161  0.998312  1
  Ir  Ir12  1  0.000000  0.500000  0.866822  1
  Ir  Ir13  1  0.500000  0.000000  0.501789  1
  Ir  Ir14  1  0.500000  0.500000  0.501789  1
  Ir  Ir15  1  0.000000  0.500000  0.502062  1
  Ir  Ir16  1  0.500000  0.000000  0.132352  1
  Ir  Ir17  1  0.500000  0.500000  0.132352  1
