# generated using pymatgen
data_HfTi5BI12
_symmetry_space_group_name_H-M   'P 1'
_cell_length_a   9.43000442
_cell_length_b   9.09726656
_cell_length_c   9.40889878
_cell_angle_alpha   106.82892599
_cell_angle_beta   107.19655837
_cell_angle_gamma   106.31661617
_symmetry_Int_Tables_number   1
_chemical_formula_structural   HfTi5BI12
_chemical_formula_sum   'Hf1 Ti5 B1 I12'
_cell_volume   676.16349042
_cell_formula_units_Z   1
loop_
 _symmetry_equiv_pos_site_id
 _symmetry_equiv_pos_as_xyz
  1  'x, y, z'
loop_
 _atom_site_type_symbol
 _atom_site_label
 _atom_site_symmetry_multiplicity
 _atom_site_fract_x
 _atom_site_fract_y
 _atom_site_fract_z
 _atom_site_occupancy
  Hf  Hf0  1  0.971287  0.722883  0.912004  1
  Ti  Ti1  1  0.247831  0.082121  0.025960  1
  Ti  Ti2  1  0.080931  0.026055  0.249447  1
  Ti  Ti3  1  0.919798  0.978297  0.751902  1
  Ti  Ti4  1  0.751970  0.921301  0.974449  1
  Ti  Ti5  1  0.026615  0.254878  0.082793  1
  B  B6  1  0.999082  0.993371  0.997791  1
  I  I7  1  0.930598  0.305938  0.791316  1
  I  I8  1  0.718273  0.223250  0.073980  1
  I  I9  1  0.414720  0.131785  0.346077  1
  I  I10  1  0.861835  0.644375  0.571852  1
  I  I11  1  0.211194  0.075930  0.716031  1
  I  I12  1  0.641447  0.571612  0.863250  1
  I  I13  1  0.346767  0.425296  0.135956  1
  I  I14  1  0.787829  0.928328  0.284311  1
  I  I15  1  0.134730  0.354498  0.418357  1
  I  I16  1  0.587178  0.873014  0.653361  1
  I  I17  1  0.292466  0.780775  0.926497  1
  I  I18  1  0.075451  0.706296  0.224668  1
