# generated using pymatgen
data_Dy20Ir7Os4Pt
_symmetry_space_group_name_H-M   'P 1'
_cell_length_a   10.87117705
_cell_length_b   10.87117705
_cell_length_c   6.43983030
_cell_angle_alpha   90.06854785
_cell_angle_beta   90.06854785
_cell_angle_gamma   89.98453712
_symmetry_Int_Tables_number   1
_chemical_formula_structural   Dy20Ir7Os4Pt
_chemical_formula_sum   'Dy20 Ir7 Os4 Pt1'
_cell_volume   761.07406574
_cell_formula_units_Z   1
loop_
 _symmetry_equiv_pos_site_id
 _symmetry_equiv_pos_as_xyz
  1  'x, y, z'
loop_
 _atom_site_type_symbol
 _atom_site_label
 _atom_site_symmetry_multiplicity
 _atom_site_fract_x
 _atom_site_fract_y
 _atom_site_fract_z
 _atom_site_occupancy
  Dy  Dy0  1  0.293703  0.086424  0.377692  1
  Dy  Dy1  1  0.294023  0.913563  0.877764  1
  Dy  Dy2  1  0.704302  0.085698  0.874278  1
  Dy  Dy3  1  0.705118  0.911600  0.379072  1
  Dy  Dy4  1  0.586499  0.793918  0.877945  1
  Dy  Dy5  1  0.584074  0.206232  0.378292  1
  Dy  Dy6  1  0.413389  0.793715  0.378059  1
  Dy  Dy7  1  0.413525  0.206270  0.878253  1
  Dy  Dy8  1  0.206082  0.413501  0.622055  1
  Dy  Dy9  1  0.206285  0.586611  0.121941  1
  Dy  Dy10  1  0.793768  0.415926  0.121708  1
  Dy  Dy11  1  0.793730  0.586475  0.621747  1
  Dy  Dy12  1  0.913576  0.706297  0.122308  1
  Dy  Dy13  1  0.914302  0.295698  0.625722  1
  Dy  Dy14  1  0.086437  0.705977  0.622236  1
  Dy  Dy15  1  0.088400  0.294882  0.120928  1
  Dy  Dy16  1  0.001405  0.998454  0.501652  1
  Dy  Dy17  1  0.001546  0.998595  0.998348  1
  Dy  Dy18  1  0.499898  0.500020  0.999914  1
  Dy  Dy19  1  0.499980  0.500102  0.500086  1
  Ir  Ir20  1  0.848464  0.848992  0.750205  1
  Ir  Ir21  1  0.151008  0.151536  0.749795  1
  Ir  Ir22  1  0.151532  0.848468  0.250000  1
  Ir  Ir23  1  0.652645  0.347355  0.750000  1
  Ir  Ir24  1  0.651876  0.651854  0.250090  1
  Ir  Ir25  1  0.348146  0.348124  0.249910  1
  Ir  Ir26  1  0.348128  0.651872  0.750000  1
  Os  Os27  1  0.500293  0.000045  0.124313  1
  Os  Os28  1  0.500416  0.999952  0.623895  1
  Os  Os29  1  0.000048  0.499584  0.876105  1
  Os  Os30  1  0.999955  0.499707  0.375687  1
  Pt  Pt31  1  0.847449  0.152551  0.250000  1
