# generated using pymatgen
data_Tm4Fe3Co16P12Ru
_symmetry_space_group_name_H-M   'P 1'
_cell_length_a   3.65047000
_cell_length_b   10.23819624
_cell_length_c   11.73187135
_cell_angle_alpha   89.94426901
_cell_angle_beta   90.00000000
_cell_angle_gamma   90.00000000
_symmetry_Int_Tables_number   1
_chemical_formula_structural   Tm4Fe3Co16P12Ru
_chemical_formula_sum   'Tm4 Fe3 Co16 P12 Ru1'
_cell_volume   438.46943013
_cell_formula_units_Z   1
loop_
 _symmetry_equiv_pos_site_id
 _symmetry_equiv_pos_as_xyz
  1  'x, y, z'
loop_
 _atom_site_type_symbol
 _atom_site_label
 _atom_site_symmetry_multiplicity
 _atom_site_fract_x
 _atom_site_fract_y
 _atom_site_fract_z
 _atom_site_occupancy
  Tm  Tm0  1  0.250000  0.584345  0.705709  1
  Tm  Tm1  1  0.250000  0.917737  0.202612  1
  Tm  Tm2  1  0.750000  0.419563  0.297341  1
  Tm  Tm3  1  0.750000  0.081547  0.796939  1
  Fe  Fe4  1  0.250000  0.710224  0.987649  1
  Fe  Fe5  1  0.250000  0.788501  0.487756  1
  Fe  Fe6  1  0.750000  0.289392  0.012271  1
  Co  Co7  1  0.250000  0.408463  0.487758  1
  Co  Co8  1  0.250000  0.093458  0.986604  1
  Co  Co9  1  0.750000  0.594338  0.514504  1
  Co  Co10  1  0.750000  0.906075  0.013596  1
  Co  Co11  1  0.250000  0.221743  0.176480  1
  Co  Co12  1  0.250000  0.279014  0.676582  1
  Co  Co13  1  0.750000  0.778548  0.824080  1
  Co  Co14  1  0.750000  0.720584  0.322764  1
  Co  Co15  1  0.250000  0.882445  0.699901  1
  Co  Co16  1  0.250000  0.616348  0.198355  1
  Co  Co17  1  0.750000  0.114111  0.298169  1
  Co  Co18  1  0.750000  0.382667  0.800896  1
  Co  Co19  1  0.250000  0.466036  0.932277  1
  Co  Co20  1  0.250000  0.033820  0.431675  1
  Co  Co21  1  0.750000  0.533024  0.067110  1
  Co  Co22  1  0.750000  0.963731  0.567176  1
  P  P23  1  0.250000  0.419100  0.113491  1
  P  P24  1  0.250000  0.078477  0.614782  1
  P  P25  1  0.750000  0.581155  0.886824  1
  P  P26  1  0.750000  0.917454  0.385954  1
  P  P27  1  0.250000  0.268363  0.868473  1
  P  P28  1  0.250000  0.231427  0.365361  1
  P  P29  1  0.750000  0.730812  0.131845  1
  P  P30  1  0.750000  0.768316  0.633259  1
  P  P31  1  0.250000  0.602194  0.391027  1
  P  P32  1  0.250000  0.898579  0.892320  1
  P  P33  1  0.750000  0.405260  0.611132  1
  P  P34  1  0.750000  0.100656  0.106742  1
  Ru  Ru35  1  0.750000  0.212494  0.510585  1
