# generated using pymatgen
data_Nd3Sm(WF7)4
_symmetry_space_group_name_H-M   'P 1'
_cell_length_a   5.80875573
_cell_length_b   9.20613787
_cell_length_c   12.36185100
_cell_angle_alpha   62.42238068
_cell_angle_beta   89.97117829
_cell_angle_gamma   90.01997219
_symmetry_Int_Tables_number   1
_chemical_formula_structural   Nd3Sm(WF7)4
_chemical_formula_sum   'Nd3 Sm1 W4 F28'
_cell_volume   585.95746268
_cell_formula_units_Z   1
loop_
 _symmetry_equiv_pos_site_id
 _symmetry_equiv_pos_as_xyz
  1  'x, y, z'
loop_
 _atom_site_type_symbol
 _atom_site_label
 _atom_site_symmetry_multiplicity
 _atom_site_fract_x
 _atom_site_fract_y
 _atom_site_fract_z
 _atom_site_occupancy
  Nd  Nd0  1  0.745728  0.810820  0.267317  1
  Nd  Nd1  1  0.245183  0.187612  0.233183  1
  Nd  Nd2  1  0.255252  0.187136  0.733006  1
  Sm  Sm3  1  0.754469  0.811391  0.767184  1
  W  W4  1  0.747223  0.271725  0.456666  1
  W  W5  1  0.246827  0.727183  0.042243  1
  W  W6  1  0.253540  0.727307  0.545681  1
  W  W7  1  0.753199  0.274973  0.955055  1
  F  F8  1  0.466489  0.707969  0.919434  1
  F  F9  1  0.964084  0.291693  0.579201  1
  F  F10  1  0.537379  0.293994  0.077794  1
  F  F11  1  0.036332  0.706865  0.423628  1
  F  F12  1  0.462163  0.283902  0.544734  1
  F  F13  1  0.963006  0.715996  0.953115  1
  F  F14  1  0.537532  0.715746  0.456625  1
  F  F15  1  0.039051  0.284204  0.044199  1
  F  F16  1  0.768272  0.518695  0.857685  1
  F  F17  1  0.265273  0.483732  0.642239  1
  F  F18  1  0.231747  0.483941  0.138899  1
  F  F19  1  0.730784  0.515259  0.359350  1
  F  F20  1  0.760790  0.031501  0.052015  1
  F  F21  1  0.263464  0.970959  0.448584  1
  F  F22  1  0.238696  0.970657  0.947314  1
  F  F23  1  0.739330  0.028441  0.553093  1
  F  F24  1  0.976693  0.733691  0.640212  1
  F  F25  1  0.475124  0.268975  0.861061  1
  F  F26  1  0.025249  0.268146  0.362487  1
  F  F27  1  0.522650  0.732177  0.136762  1
  F  F28  1  0.038258  0.744873  0.169641  1
  F  F29  1  0.539964  0.254591  0.329226  1
  F  F30  1  0.960899  0.255099  0.829436  1
  F  F31  1  0.464135  0.747425  0.670864  1
  F  F32  1  0.416645  0.966001  0.232476  1
  F  F33  1  0.915617  0.032298  0.268788  1
  F  F34  1  0.582674  0.029042  0.766854  1
  F  F35  1  0.076282  0.965979  0.733947  1
