# generated using pymatgen
data_TmLuMn9Fe3P7
_symmetry_space_group_name_H-M   'P 1'
_cell_length_a   3.54373900
_cell_length_b   9.22166020
_cell_length_c   9.22214719
_cell_angle_alpha   120.01435788
_cell_angle_beta   90.00000000
_cell_angle_gamma   90.00000000
_symmetry_Int_Tables_number   1
_chemical_formula_structural   TmLuMn9Fe3P7
_chemical_formula_sum   'Tm1 Lu1 Mn9 Fe3 P7'
_cell_volume   260.95803469
_cell_formula_units_Z   1
loop_
 _symmetry_equiv_pos_site_id
 _symmetry_equiv_pos_as_xyz
  1  'x, y, z'
loop_
 _atom_site_type_symbol
 _atom_site_label
 _atom_site_symmetry_multiplicity
 _atom_site_fract_x
 _atom_site_fract_y
 _atom_site_fract_z
 _atom_site_occupancy
  Tm  Tm0  1  0.000000  0.666514  0.333385  1
  Lu  Lu1  1  0.500000  0.333391  0.666691  1
  Mn  Mn2  1  0.000000  0.377828  0.949394  1
  Mn  Mn3  1  0.000000  0.050594  0.428399  1
  Mn  Mn4  1  0.000000  0.571487  0.622152  1
  Mn  Mn5  1  0.500000  0.955270  0.562227  1
  Mn  Mn6  1  0.500000  0.437815  0.393312  1
  Mn  Mn7  1  0.500000  0.607191  0.044656  1
  Mn  Mn8  1  0.500000  0.126631  0.896488  1
  Mn  Mn9  1  0.500000  0.103380  0.230408  1
  Mn  Mn10  1  0.500000  0.769717  0.873327  1
  Fe  Fe11  1  0.000000  0.882399  0.726146  1
  Fe  Fe12  1  0.000000  0.274193  0.156635  1
  Fe  Fe13  1  0.000000  0.843463  0.116947  1
  P  P14  1  0.000000  0.121425  0.711144  1
  P  P15  1  0.000000  0.288974  0.410368  1
  P  P16  1  0.000000  0.589375  0.878262  1
  P  P17  1  0.500000  0.720856  0.593365  1
  P  P18  1  0.500000  0.406763  0.127582  1
  P  P19  1  0.500000  0.872387  0.279069  1
  P  P20  1  0.000000  0.000347  0.000046  1
