# generated using pymatgen
data_Rb4Zr6FeBr18
_symmetry_space_group_name_H-M   'P 1'
_cell_length_a   10.73439491
_cell_length_b   10.94560023
_cell_length_c   11.04905026
_cell_angle_alpha   118.47007772
_cell_angle_beta   100.27118331
_cell_angle_gamma   103.91212670
_symmetry_Int_Tables_number   1
_chemical_formula_structural   Rb4Zr6FeBr18
_chemical_formula_sum   'Rb4 Zr6 Fe1 Br18'
_cell_volume   1040.41137036
_cell_formula_units_Z   1
loop_
 _symmetry_equiv_pos_site_id
 _symmetry_equiv_pos_as_xyz
  1  'x, y, z'
loop_
 _atom_site_type_symbol
 _atom_site_label
 _atom_site_symmetry_multiplicity
 _atom_site_fract_x
 _atom_site_fract_y
 _atom_site_fract_z
 _atom_site_occupancy
  Rb  Rb0  1  0.654982  0.537755  0.228007  1
  Rb  Rb1  1  0.345018  0.462245  0.771993  1
  Rb  Rb2  1  0.689355  0.226304  0.564453  1
  Rb  Rb3  1  0.310645  0.773696  0.435547  1
  Zr  Zr4  1  0.152589  0.056736  0.232096  1
  Zr  Zr5  1  0.847411  0.943264  0.767904  1
  Zr  Zr6  1  0.859693  0.126622  0.133027  1
  Zr  Zr7  1  0.140307  0.873378  0.866973  1
  Zr  Zr8  1  0.147258  0.240514  0.045567  1
  Zr  Zr9  1  0.852742  0.759486  0.954433  1
  Fe  Fe10  1  0.000000  0.000000  0.000000  1
  Br  Br11  1  0.008106  0.404204  0.194239  1
  Br  Br12  1  0.991894  0.595796  0.805761  1
  Br  Br13  1  0.326865  0.330481  0.308584  1
  Br  Br14  1  0.673135  0.669519  0.691416  1
  Br  Br15  1  0.319673  0.515805  0.099660  1
  Br  Br16  1  0.680327  0.484195  0.900340  1
  Br  Br17  1  0.004195  0.798421  0.206929  1
  Br  Br18  1  0.995805  0.201579  0.793071  1
  Br  Br19  1  0.705166  0.271413  0.283970  1
  Br  Br20  1  0.294834  0.728587  0.716030  1
  Br  Br21  1  0.314422  0.126428  0.904183  1
  Br  Br22  1  0.685578  0.873572  0.095817  1
  Br  Br23  1  0.015054  0.201522  0.402668  1
  Br  Br24  1  0.984946  0.798478  0.597332  1
  Br  Br25  1  0.318586  0.923536  0.109352  1
  Br  Br26  1  0.681414  0.076464  0.890648  1
  Br  Br27  1  0.331198  0.120236  0.496371  1
  Br  Br28  1  0.668802  0.879764  0.503629  1
