# generated using pymatgen
data_CeY2Pa(InNi2)2
_symmetry_space_group_name_H-M   'P 1'
_cell_length_a   7.50317651
_cell_length_b   7.50317648
_cell_length_c   3.59678500
_cell_angle_alpha   90.00000000
_cell_angle_beta   90.00000000
_cell_angle_gamma   93.70457456
_symmetry_Int_Tables_number   1
_chemical_formula_structural   CeY2Pa(InNi2)2
_chemical_formula_sum   'Ce1 Y2 Pa1 In2 Ni4'
_cell_volume   202.06745851
_cell_formula_units_Z   1
loop_
 _symmetry_equiv_pos_site_id
 _symmetry_equiv_pos_as_xyz
  1  'x, y, z'
loop_
 _atom_site_type_symbol
 _atom_site_label
 _atom_site_symmetry_multiplicity
 _atom_site_fract_x
 _atom_site_fract_y
 _atom_site_fract_z
 _atom_site_occupancy
  Ce  Ce0  1  0.676169  0.176169  0.500000  1
  Y  Y1  1  0.173218  0.327034  0.500000  1
  Y  Y2  1  0.827034  0.673218  0.500000  1
  Pa  Pa3  1  0.328281  0.828281  0.500000  1
  In  In4  1  0.499359  0.499538  0.000000  1
  In  In5  1  0.999538  0.999359  0.000000  1
  Ni  Ni6  1  0.138374  0.638374  0.000000  1
  Ni  Ni7  1  0.873525  0.373525  0.000000  1
  Ni  Ni8  1  0.607806  0.876695  0.000000  1
  Ni  Ni9  1  0.376695  0.107806  0.000000  1
