# generated using pymatgen
data_Ba2CaPa3S10
_symmetry_space_group_name_H-M   'P 1'
_cell_length_a   7.49312700
_cell_length_b   8.43545581
_cell_length_c   11.78692500
_cell_angle_alpha   89.61160221
_cell_angle_beta   90.00000000
_cell_angle_gamma   90.00000000
_symmetry_Int_Tables_number   1
_chemical_formula_structural   Ba2CaPa3S10
_chemical_formula_sum   'Ba4 Ca2 Pa6 S20'
_cell_volume   745.01015059
_cell_formula_units_Z   2
loop_
 _symmetry_equiv_pos_site_id
 _symmetry_equiv_pos_as_xyz
  1  'x, y, z'
loop_
 _atom_site_type_symbol
 _atom_site_label
 _atom_site_symmetry_multiplicity
 _atom_site_fract_x
 _atom_site_fract_y
 _atom_site_fract_z
 _atom_site_occupancy
  Ba  Ba0  1  0.063453  0.492800  0.334029  1
  Ba  Ba1  1  0.563453  0.507200  0.165971  1
  Ba  Ba2  1  0.947500  0.510048  0.669969  1
  Ba  Ba3  1  0.447500  0.489952  0.830031  1
  Ca  Ca4  1  0.937463  0.251341  0.992841  1
  Ca  Ca5  1  0.437463  0.748659  0.507159  1
  Pa  Pa6  1  0.016821  0.997862  0.321032  1
  Pa  Pa7  1  0.516821  0.002138  0.178968  1
  Pa  Pa8  1  0.979077  0.000367  0.684385  1
  Pa  Pa9  1  0.479077  0.999633  0.815615  1
  Pa  Pa10  1  0.061778  0.758578  0.007564  1
  Pa  Pa11  1  0.561778  0.241422  0.492436  1
  S  S12  1  0.660180  0.963507  0.394158  1
  S  S13  1  0.160180  0.036493  0.105842  1
  S  S14  1  0.337875  0.043101  0.598723  1
  S  S15  1  0.837875  0.956899  0.901277  1
  S  S16  1  0.450617  0.799167  0.999093  1
  S  S17  1  0.950617  0.200833  0.500907  1
  S  S18  1  0.531510  0.200378  0.997002  1
  S  S19  1  0.031510  0.799622  0.502998  1
  S  S20  1  0.835160  0.785459  0.187504  1
  S  S21  1  0.335160  0.214541  0.312496  1
  S  S22  1  0.170889  0.205447  0.809800  1
  S  S23  1  0.670889  0.794553  0.690200  1
  S  S24  1  0.307853  0.781575  0.281978  1
  S  S25  1  0.807853  0.218425  0.218022  1
  S  S26  1  0.691548  0.223448  0.713196  1
  S  S27  1  0.191548  0.776552  0.786804  1
  S  S28  1  0.185106  0.483093  0.073778  1
  S  S29  1  0.685106  0.516907  0.426222  1
  S  S30  1  0.823171  0.551831  0.928148  1
  S  S31  1  0.323171  0.448169  0.571852  1
