# generated using pymatgen
data_Ba9Na(Si2Bi)2
_symmetry_space_group_name_H-M   'P 1'
_cell_length_a   10.44102882
_cell_length_b   10.44103026
_cell_length_c   10.44102963
_cell_angle_alpha   130.84369216
_cell_angle_beta   130.84369016
_cell_angle_gamma   72.06154319
_symmetry_Int_Tables_number   1
_chemical_formula_structural   Ba9Na(Si2Bi)2
_chemical_formula_sum   'Ba9 Na1 Si4 Bi2'
_cell_volume   636.98189814
_cell_formula_units_Z   1
loop_
 _symmetry_equiv_pos_site_id
 _symmetry_equiv_pos_as_xyz
  1  'x, y, z'
loop_
 _atom_site_type_symbol
 _atom_site_label
 _atom_site_symmetry_multiplicity
 _atom_site_fract_x
 _atom_site_fract_y
 _atom_site_fract_z
 _atom_site_occupancy
  Ba  Ba0  1  0.538223  0.057974  0.863087  1
  Ba  Ba1  1  0.194888  0.675136  0.136913  1
  Ba  Ba2  1  0.057974  0.194888  0.519752  1
  Ba  Ba3  1  0.675136  0.538223  0.480248  1
  Ba  Ba4  1  0.461777  0.942026  0.136913  1
  Ba  Ba5  1  0.805112  0.324864  0.863087  1
  Ba  Ba6  1  0.942026  0.805112  0.480248  1
  Ba  Ba7  1  0.324864  0.461777  0.519752  1
  Ba  Ba8  1  0.000000  0.000000  0.000000  1
  Na  Na9  1  0.500000  0.500000  0.000000  1
  Si  Si10  1  0.905361  0.393877  0.299239  1
  Si  Si11  1  0.094639  0.606123  0.700761  1
  Si  Si12  1  0.393877  0.094639  0.488515  1
  Si  Si13  1  0.606123  0.905361  0.511485  1
  Bi  Bi14  1  0.237622  0.237622  0.000000  1
  Bi  Bi15  1  0.762378  0.762378  0.000000  1
