# generated using pymatgen
data_Ba3Sc2TeO9
_symmetry_space_group_name_H-M   'P 1'
_cell_length_a   5.95693600
_cell_length_b   5.95693608
_cell_length_c   14.78131900
_cell_angle_alpha   90.00000000
_cell_angle_beta   90.00000000
_cell_angle_gamma   119.99999954
_symmetry_Int_Tables_number   1
_chemical_formula_structural   Ba3Sc2TeO9
_chemical_formula_sum   'Ba6 Sc4 Te2 O18'
_cell_volume   454.24452113
_cell_formula_units_Z   2
loop_
 _symmetry_equiv_pos_site_id
 _symmetry_equiv_pos_as_xyz
  1  'x, y, z'
loop_
 _atom_site_type_symbol
 _atom_site_label
 _atom_site_symmetry_multiplicity
 _atom_site_fract_x
 _atom_site_fract_y
 _atom_site_fract_z
 _atom_site_occupancy
  Ba  Ba0  1  0.666667  0.333333  0.592021  1
  Ba  Ba1  1  0.333333  0.666667  0.407567  1
  Ba  Ba2  1  0.333333  0.666667  0.092021  1
  Ba  Ba3  1  0.666667  0.333333  0.907567  1
  Ba  Ba4  1  0.000000  0.000000  0.754354  1
  Ba  Ba5  1  0.000000  0.000000  0.254354  1
  Sc  Sc6  1  0.000000  0.000000  0.495386  1
  Sc  Sc7  1  0.000000  0.000000  0.995386  1
  Sc  Sc8  1  0.666667  0.333333  0.355111  1
  Sc  Sc9  1  0.333333  0.666667  0.855111  1
  Te  Te10  1  0.333333  0.666667  0.658448  1
  Te  Te11  1  0.666667  0.333333  0.158448  1
  O  O12  1  0.483884  0.967768  0.740854  1
  O  O13  1  0.483884  0.516116  0.740854  1
  O  O14  1  0.032232  0.516116  0.740854  1
  O  O15  1  0.516116  0.032232  0.240854  1
  O  O16  1  0.516116  0.483884  0.240854  1
  O  O17  1  0.967768  0.483884  0.240854  1
  O  O18  1  0.175867  0.351733  0.585347  1
  O  O19  1  0.175867  0.824133  0.585347  1
  O  O20  1  0.648267  0.824133  0.585347  1
  O  O21  1  0.836477  0.672952  0.419485  1
  O  O22  1  0.836477  0.163523  0.419485  1
  O  O23  1  0.327048  0.163523  0.419485  1
  O  O24  1  0.824133  0.648267  0.085347  1
  O  O25  1  0.824133  0.175867  0.085347  1
  O  O26  1  0.351733  0.175867  0.085347  1
  O  O27  1  0.163523  0.327048  0.919485  1
  O  O28  1  0.163523  0.836477  0.919485  1
  O  O29  1  0.672952  0.836477  0.919485  1
