# generated using pymatgen
data_Er4ZnOs7
_symmetry_space_group_name_H-M   'P 1'
_cell_length_a   5.31146162
_cell_length_b   5.31851216
_cell_length_c   8.76315100
_cell_angle_alpha   90.00000000
_cell_angle_beta   90.00000000
_cell_angle_gamma   120.04534422
_symmetry_Int_Tables_number   1
_chemical_formula_structural   Er4ZnOs7
_chemical_formula_sum   'Er4 Zn1 Os7'
_cell_volume   214.28733931
_cell_formula_units_Z   1
loop_
 _symmetry_equiv_pos_site_id
 _symmetry_equiv_pos_as_xyz
  1  'x, y, z'
loop_
 _atom_site_type_symbol
 _atom_site_label
 _atom_site_symmetry_multiplicity
 _atom_site_fract_x
 _atom_site_fract_y
 _atom_site_fract_z
 _atom_site_occupancy
  Er  Er0  1  0.660788  0.330319  0.566695  1
  Er  Er1  1  0.330072  0.665051  0.438423  1
  Er  Er2  1  0.330072  0.665051  0.061577  1
  Er  Er3  1  0.660788  0.330319  0.933305  1
  Zn  Zn4  1  0.344241  0.172066  0.250000  1
  Os  Os5  1  0.983284  0.991636  0.499335  1
  Os  Os6  1  0.983284  0.991636  0.000665  1
  Os  Os7  1  0.175620  0.351386  0.750000  1
  Os  Os8  1  0.175409  0.824277  0.750000  1
  Os  Os9  1  0.676523  0.838250  0.750000  1
  Os  Os10  1  0.839980  0.659771  0.250000  1
  Os  Os11  1  0.839937  0.180239  0.250000  1
