# generated using pymatgen
data_Ce2YAlIn2Ir3
_symmetry_space_group_name_H-M   'P 1'
_cell_length_a   7.53495440
_cell_length_b   7.46360394
_cell_length_c   3.99294500
_cell_angle_alpha   90.00000000
_cell_angle_beta   90.00000000
_cell_angle_gamma   121.27938019
_symmetry_Int_Tables_number   1
_chemical_formula_structural   Ce2YAlIn2Ir3
_chemical_formula_sum   'Ce2 Y1 Al1 In2 Ir3'
_cell_volume   191.91489157
_cell_formula_units_Z   1
loop_
 _symmetry_equiv_pos_site_id
 _symmetry_equiv_pos_as_xyz
  1  'x, y, z'
loop_
 _atom_site_type_symbol
 _atom_site_label
 _atom_site_symmetry_multiplicity
 _atom_site_fract_x
 _atom_site_fract_y
 _atom_site_fract_z
 _atom_site_occupancy
  Ce  Ce0  1  0.591836  0.003543  0.000000  1
  Ce  Ce1  1  0.000234  0.573551  0.000000  1
  Y  Y2  1  0.398744  0.411418  0.000000  1
  Al  Al3  1  0.006381  0.245524  0.500000  1
  In  In4  1  0.743360  0.740770  0.500000  1
  In  In5  1  0.249018  0.007287  0.500000  1
  Ir  Ir6  1  0.993605  0.025705  0.000000  1
  Ir  Ir7  1  0.317852  0.665791  0.500000  1
  Ir  Ir8  1  0.698970  0.326412  0.500000  1
