# generated using pymatgen
data_Mn3Ga3PdRh5
_symmetry_space_group_name_H-M   'P 1'
_cell_length_a   4.31429100
_cell_length_b   6.10163100
_cell_length_c   12.92654300
_cell_angle_alpha   90.00000000
_cell_angle_beta   90.00162567
_cell_angle_gamma   90.00000000
_symmetry_Int_Tables_number   1
_chemical_formula_structural   Mn3Ga3PdRh5
_chemical_formula_sum   'Mn6 Ga6 Pd2 Rh10'
_cell_volume   340.28105452
_cell_formula_units_Z   2
loop_
 _symmetry_equiv_pos_site_id
 _symmetry_equiv_pos_as_xyz
  1  'x, y, z'
loop_
 _atom_site_type_symbol
 _atom_site_label
 _atom_site_symmetry_multiplicity
 _atom_site_fract_x
 _atom_site_fract_y
 _atom_site_fract_z
 _atom_site_occupancy
  Mn  Mn0  1  0.999999  0.500000  0.000007  1
  Mn  Mn1  1  0.499799  0.000000  0.169804  1
  Mn  Mn2  1  0.999822  0.500000  0.333820  1
  Mn  Mn3  1  0.499999  0.000000  0.500003  1
  Mn  Mn4  1  0.000179  0.500000  0.666182  1
  Mn  Mn5  1  0.500200  0.000000  0.830151  1
  Ga  Ga6  1  0.000000  0.000000  0.000005  1
  Ga  Ga7  1  0.499788  0.500000  0.170881  1
  Ga  Ga8  1  0.999796  0.000000  0.334029  1
  Ga  Ga9  1  0.500000  0.500000  0.499997  1
  Ga  Ga10  1  0.000211  0.000000  0.665971  1
  Ga  Ga11  1  0.500210  0.500000  0.829128  1
  Pd  Pd12  1  0.499998  0.249962  0.000008  1
  Pd  Pd13  1  0.499998  0.750038  0.000008  1
  Rh  Rh14  1  0.999812  0.250820  0.165384  1
  Rh  Rh15  1  0.999812  0.749180  0.165384  1
  Rh  Rh16  1  0.499828  0.249384  0.333488  1
  Rh  Rh17  1  0.499828  0.750616  0.333488  1
  Rh  Rh18  1  0.999995  0.250357  0.499989  1
  Rh  Rh19  1  0.999995  0.749643  0.499989  1
  Rh  Rh20  1  0.500176  0.249378  0.666517  1
  Rh  Rh21  1  0.500176  0.750622  0.666517  1
  Rh  Rh22  1  0.000186  0.250803  0.834624  1
  Rh  Rh23  1  0.000186  0.749197  0.834624  1
