# generated using pymatgen
data_Rb3Ta7O19
_symmetry_space_group_name_H-M   'P 1'
_cell_length_a   6.56703656
_cell_length_b   10.11337333
_cell_length_c   14.39054100
_cell_angle_alpha   97.35805222
_cell_angle_beta   95.69440222
_cell_angle_gamma   106.51733569
_symmetry_Int_Tables_number   1
_chemical_formula_structural   Rb3Ta7O19
_chemical_formula_sum   'Rb6 Ta14 O38'
_cell_volume   899.46737072
_cell_formula_units_Z   2
loop_
 _symmetry_equiv_pos_site_id
 _symmetry_equiv_pos_as_xyz
  1  'x, y, z'
loop_
 _atom_site_type_symbol
 _atom_site_label
 _atom_site_symmetry_multiplicity
 _atom_site_fract_x
 _atom_site_fract_y
 _atom_site_fract_z
 _atom_site_occupancy
  Rb  Rb0  1  0.001176  0.823135  0.903640  1
  Rb  Rb1  1  0.588989  0.412314  0.788108  1
  Rb  Rb2  1  0.361102  0.024249  0.627110  1
  Rb  Rb3  1  0.638898  0.975751  0.372890  1
  Rb  Rb4  1  0.411011  0.587686  0.211892  1
  Rb  Rb5  1  0.998824  0.176865  0.096360  1
  Ta  Ta6  1  0.219761  0.526306  0.961188  1
  Ta  Ta7  1  0.567512  0.093988  0.890357  1
  Ta  Ta8  1  0.006706  0.154560  0.810453  1
  Ta  Ta9  1  0.374669  0.710124  0.741205  1
  Ta  Ta10  1  0.164643  0.318302  0.579719  1
  Ta  Ta11  1  0.838944  0.781682  0.652250  1
  Ta  Ta12  1  0.369094  0.620436  0.506065  1
  Ta  Ta13  1  0.630906  0.379564  0.493935  1
  Ta  Ta14  1  0.161056  0.218318  0.347750  1
  Ta  Ta15  1  0.835357  0.681698  0.420281  1
  Ta  Ta16  1  0.625331  0.289876  0.258795  1
  Ta  Ta17  1  0.993294  0.845440  0.189547  1
  Ta  Ta18  1  0.432488  0.906012  0.109643  1
  Ta  Ta19  1  0.780239  0.473694  0.038812  1
  O  O20  1  0.500000  0.500000  0.000000  1
  O  O21  1  0.671485  0.277132  0.968367  1
  O  O22  1  0.500000  0.000000  0.000000  1
  O  O23  1  0.876659  0.067410  0.908759  1
  O  O24  1  0.129869  0.341493  0.877223  1
  O  O25  1  0.916300  0.546854  0.934750  1
  O  O26  1  0.294040  0.114600  0.841633  1
  O  O27  1  0.288688  0.608875  0.837542  1
  O  O28  1  0.712300  0.164625  0.778902  1
  O  O29  1  0.462235  0.892302  0.806200  1
  O  O30  1  0.102612  0.235376  0.684502  1
  O  O31  1  0.665984  0.688496  0.743539  1
  O  O32  1  0.090300  0.730446  0.686627  1
  O  O33  1  0.928136  0.962691  0.717837  1
  O  O34  1  0.280323  0.526326  0.624549  1
  O  O35  1  0.469811  0.310658  0.591325  1
  O  O36  1  0.505226  0.780804  0.605819  1
  O  O37  1  0.884491  0.347573  0.539030  1
  O  O38  1  0.690089  0.582670  0.547016  1
  O  O39  1  0.095279  0.166149  0.473125  1
  O  O40  1  0.904721  0.833851  0.526875  1
  O  O41  1  0.309911  0.417330  0.452984  1
  O  O42  1  0.115509  0.652427  0.460970  1
  O  O43  1  0.494774  0.219196  0.394181  1
  O  O44  1  0.530189  0.689342  0.408675  1
  O  O45  1  0.719677  0.473674  0.375451  1
  O  O46  1  0.071864  0.037309  0.282163  1
  O  O47  1  0.909700  0.269554  0.313373  1
  O  O48  1  0.334016  0.311504  0.256461  1
  O  O49  1  0.897388  0.764624  0.315498  1
  O  O50  1  0.537765  0.107698  0.193800  1
  O  O51  1  0.287700  0.835375  0.221098  1
  O  O52  1  0.711312  0.391125  0.162458  1
  O  O53  1  0.705960  0.885400  0.158367  1
  O  O54  1  0.083700  0.453146  0.065250  1
  O  O55  1  0.870131  0.658507  0.122777  1
  O  O56  1  0.123341  0.932590  0.091241  1
  O  O57  1  0.328515  0.722868  0.031633  1
