# generated using pymatgen
data_TbSm2Y5(WO6)4
_symmetry_space_group_name_H-M   'P 1'
_cell_length_a   5.44474100
_cell_length_b   7.76130698
_cell_length_c   11.54913478
_cell_angle_alpha   75.55450930
_cell_angle_beta   90.00000000
_cell_angle_gamma   90.00000000
_symmetry_Int_Tables_number   1
_chemical_formula_structural   TbSm2Y5(WO6)4
_chemical_formula_sum   'Tb1 Sm2 Y5 W4 O24'
_cell_volume   472.61747102
_cell_formula_units_Z   1
loop_
 _symmetry_equiv_pos_site_id
 _symmetry_equiv_pos_as_xyz
  1  'x, y, z'
loop_
 _atom_site_type_symbol
 _atom_site_label
 _atom_site_symmetry_multiplicity
 _atom_site_fract_x
 _atom_site_fract_y
 _atom_site_fract_z
 _atom_site_occupancy
  Tb  Tb0  1  0.259441  0.000000  0.750000  1
  Sm  Sm1  1  0.315942  0.500000  0.750000  1
  Sm  Sm2  1  0.684244  0.500000  0.250000  1
  Y  Y3  1  0.186080  0.795718  0.077348  1
  Y  Y4  1  0.740400  0.000000  0.250000  1
  Y  Y5  1  0.186080  0.204282  0.422652  1
  Y  Y6  1  0.813739  0.204363  0.922840  1
  Y  Y7  1  0.813739  0.795637  0.577160  1
  W  W8  1  0.745627  0.725193  0.885162  1
  W  W9  1  0.254448  0.725342  0.385023  1
  W  W10  1  0.745627  0.274807  0.614838  1
  W  W11  1  0.254448  0.274658  0.114977  1
  O  O12  1  0.851707  0.362110  0.453370  1
  O  O13  1  0.468583  0.846829  0.930682  1
  O  O14  1  0.851707  0.637890  0.046630  1
  O  O15  1  0.015471  0.286513  0.728627  1
  O  O16  1  0.984697  0.286516  0.228758  1
  O  O17  1  0.148647  0.361679  0.953431  1
  O  O18  1  0.643800  0.492241  0.887278  1
  O  O19  1  0.531325  0.152733  0.069513  1
  O  O20  1  0.148647  0.638321  0.546569  1
  O  O21  1  0.015471  0.713487  0.771373  1
  O  O22  1  0.457138  0.208292  0.272074  1
  O  O23  1  0.043142  0.939998  0.395326  1
  O  O24  1  0.468583  0.153171  0.569318  1
  O  O25  1  0.984697  0.713484  0.271242  1
  O  O26  1  0.956225  0.060081  0.604239  1
  O  O27  1  0.543314  0.208621  0.772065  1
  O  O28  1  0.543314  0.791379  0.727935  1
  O  O29  1  0.043142  0.060002  0.104674  1
  O  O30  1  0.643800  0.507759  0.612722  1
  O  O31  1  0.356042  0.507615  0.112910  1
  O  O32  1  0.457138  0.791708  0.227926  1
  O  O33  1  0.356042  0.492385  0.387090  1
  O  O34  1  0.531325  0.847267  0.430487  1
  O  O35  1  0.956225  0.939919  0.895761  1
