# generated using pymatgen
data_TmZnGa5Cu6
_symmetry_space_group_name_H-M   'P 1'
_cell_length_a   6.59771507
_cell_length_b   6.59771644
_cell_length_c   6.59771604
_cell_angle_alpha   134.29268862
_cell_angle_beta   99.66148373
_cell_angle_gamma   97.69209010
_symmetry_Int_Tables_number   1
_chemical_formula_structural   TmZnGa5Cu6
_chemical_formula_sum   'Tm1 Zn1 Ga5 Cu6'
_cell_volume   189.39557650
_cell_formula_units_Z   1
loop_
 _symmetry_equiv_pos_site_id
 _symmetry_equiv_pos_as_xyz
  1  'x, y, z'
loop_
 _atom_site_type_symbol
 _atom_site_label
 _atom_site_symmetry_multiplicity
 _atom_site_fract_x
 _atom_site_fract_y
 _atom_site_fract_z
 _atom_site_occupancy
  Tm  Tm0  1  0.001421  0.001421  0.000000  1
  Zn  Zn1  1  0.652409  0.652409  0.000000  1
  Ga  Ga2  1  0.347837  0.347837  0.000000  1
  Ga  Ga3  1  0.348032  0.000359  0.347674  1
  Ga  Ga4  1  0.652685  0.000359  0.652326  1
  Ga  Ga5  1  0.188825  0.688825  0.500000  1
  Ga  Ga6  1  0.809311  0.309311  0.500000  1
  Cu  Cu7  1  0.499881  0.500292  0.500162  1
  Cu  Cu8  1  0.499881  0.999719  0.999589  1
  Cu  Cu9  1  0.000130  0.500292  0.000411  1
  Cu  Cu10  1  0.000130  0.999719  0.499838  1
  Cu  Cu11  1  0.765492  0.499729  0.265763  1
  Cu  Cu12  1  0.233966  0.499729  0.734237  1
