# generated using pymatgen
data_Dy16MgGa(Co2Ag)2
_symmetry_space_group_name_H-M   'P 1'
_cell_length_a   9.46412412
_cell_length_b   9.46905739
_cell_length_c   9.46905692
_cell_angle_alpha   59.73221063
_cell_angle_beta   59.88135777
_cell_angle_gamma   59.88136082
_symmetry_Int_Tables_number   1
_chemical_formula_structural   Dy16MgGa(Co2Ag)2
_chemical_formula_sum   'Dy16 Mg1 Ga1 Co4 Ag2'
_cell_volume   597.74269340
_cell_formula_units_Z   1
loop_
 _symmetry_equiv_pos_site_id
 _symmetry_equiv_pos_as_xyz
  1  'x, y, z'
loop_
 _atom_site_type_symbol
 _atom_site_label
 _atom_site_symmetry_multiplicity
 _atom_site_fract_x
 _atom_site_fract_y
 _atom_site_fract_z
 _atom_site_occupancy
  Dy  Dy0  1  0.808710  0.188731  0.188731  1
  Dy  Dy1  1  0.188934  0.810151  0.810151  1
  Dy  Dy2  1  0.185670  0.811752  0.186712  1
  Dy  Dy3  1  0.807297  0.191425  0.808446  1
  Dy  Dy4  1  0.185670  0.186712  0.811752  1
  Dy  Dy5  1  0.807297  0.808446  0.191425  1
  Dy  Dy6  1  0.933813  0.563717  0.563717  1
  Dy  Dy7  1  0.560225  0.939408  0.939408  1
  Dy  Dy8  1  0.561851  0.938414  0.563636  1
  Dy  Dy9  1  0.938066  0.561377  0.940404  1
  Dy  Dy10  1  0.561851  0.563636  0.938414  1
  Dy  Dy11  1  0.938066  0.940404  0.561377  1
  Dy  Dy12  1  0.343762  0.344624  0.344624  1
  Dy  Dy13  1  0.348252  0.348206  0.960324  1
  Dy  Dy14  1  0.348252  0.960324  0.348206  1
  Dy  Dy15  1  0.949970  0.351634  0.351634  1
  Mg  Mg16  1  0.288708  0.569311  0.569311  1
  Ga  Ga17  1  0.585608  0.582485  0.582485  1
  Co  Co18  1  0.137672  0.143035  0.143035  1
  Co  Co19  1  0.139201  0.142281  0.577483  1
  Co  Co20  1  0.139201  0.577483  0.142281  1
  Co  Co21  1  0.576548  0.141516  0.141516  1
  Ag  Ag22  1  0.582685  0.582525  0.252403  1
  Ag  Ag23  1  0.582685  0.252403  0.582525  1
