# generated using pymatgen
data_Ca10SmReN10
_symmetry_space_group_name_H-M   'P 1'
_cell_length_a   7.12806048
_cell_length_b   7.12806051
_cell_length_c   8.97522159
_cell_angle_alpha   80.42792726
_cell_angle_beta   80.42792543
_cell_angle_gamma   59.77007903
_symmetry_Int_Tables_number   1
_chemical_formula_structural   Ca10SmReN10
_chemical_formula_sum   'Ca10 Sm1 Re1 N10'
_cell_volume   386.69591058
_cell_formula_units_Z   1
loop_
 _symmetry_equiv_pos_site_id
 _symmetry_equiv_pos_as_xyz
  1  'x, y, z'
loop_
 _atom_site_type_symbol
 _atom_site_label
 _atom_site_symmetry_multiplicity
 _atom_site_fract_x
 _atom_site_fract_y
 _atom_site_fract_z
 _atom_site_occupancy
  Ca  Ca0  1  0.872885  0.365026  0.822526  1
  Ca  Ca1  1  0.874167  0.874167  0.809443  1
  Ca  Ca2  1  0.737804  0.737804  0.528584  1
  Ca  Ca3  1  0.745964  0.260226  0.513973  1
  Ca  Ca4  1  0.623127  0.139174  0.153761  1
  Ca  Ca5  1  0.365026  0.872885  0.822526  1
  Ca  Ca6  1  0.260226  0.745964  0.513973  1
  Ca  Ca7  1  0.240214  0.240214  0.503158  1
  Ca  Ca8  1  0.140049  0.140049  0.161919  1
  Ca  Ca9  1  0.139174  0.623127  0.153761  1
  Sm  Sm10  1  0.369923  0.369923  0.786965  1
  Re  Re11  1  0.631062  0.631062  0.226923  1
  N  N12  1  0.896498  0.475261  0.313301  1
  N  N13  1  0.990780  0.990780  0.027306  1
  N  N14  1  0.671490  0.671490  0.020932  1
  N  N15  1  0.556767  0.556767  0.679705  1
  N  N16  1  0.475261  0.896498  0.313301  1
  N  N17  1  0.556840  0.061501  0.656738  1
  N  N18  1  0.478929  0.478929  0.297412  1
  N  N19  1  0.313694  0.313694  0.039844  1
  N  N20  1  0.060904  0.060904  0.643019  1
  N  N21  1  0.061501  0.556840  0.656738  1
