# generated using pymatgen
data_Sr4Ga(Si2Pt)5
_symmetry_space_group_name_H-M   'P 1'
_cell_length_a   8.47158776
_cell_length_b   8.47158721
_cell_length_c   8.47158807
_cell_angle_alpha   138.23713281
_cell_angle_beta   105.69247933
_cell_angle_gamma   89.06134103
_symmetry_Int_Tables_number   1
_chemical_formula_structural   Sr4Ga(Si2Pt)5
_chemical_formula_sum   'Sr4 Ga1 Si10 Pt5'
_cell_volume   373.21055521
_cell_formula_units_Z   1
loop_
 _symmetry_equiv_pos_site_id
 _symmetry_equiv_pos_as_xyz
  1  'x, y, z'
loop_
 _atom_site_type_symbol
 _atom_site_label
 _atom_site_symmetry_multiplicity
 _atom_site_fract_x
 _atom_site_fract_y
 _atom_site_fract_z
 _atom_site_occupancy
  Sr  Sr0  1  0.114749  0.875562  0.240710  1
  Sr  Sr1  1  0.885251  0.125961  0.760813  1
  Sr  Sr2  1  0.634852  0.374039  0.259290  1
  Sr  Sr3  1  0.365148  0.624438  0.739187  1
  Ga  Ga4  1  0.500000  0.750000  0.250000  1
  Si  Si5  1  0.000000  0.750000  0.750000  1
  Si  Si6  1  0.000000  0.250000  0.250000  1
  Si  Si7  1  0.265785  0.015785  0.750000  1
  Si  Si8  1  0.734215  0.484215  0.750000  1
  Si  Si9  1  0.742359  0.992359  0.250000  1
  Si  Si10  1  0.257641  0.507641  0.250000  1
  Si  Si11  1  0.765496  0.618398  0.142737  1
  Si  Si12  1  0.234504  0.377243  0.852903  1
  Si  Si13  1  0.475661  0.122757  0.357263  1
  Si  Si14  1  0.524339  0.881602  0.647097  1
  Pt  Pt15  1  0.500000  0.250000  0.750000  1
  Pt  Pt16  1  0.018377  0.636048  0.389352  1
  Pt  Pt17  1  0.981623  0.370975  0.617670  1
  Pt  Pt18  1  0.246696  0.129025  0.110648  1
  Pt  Pt19  1  0.753304  0.863952  0.882330  1
