# generated using pymatgen
data_Ho2Mn14(SiC)3
_symmetry_space_group_name_H-M   'P 1'
_cell_length_a   6.42435170
_cell_length_b   6.42435208
_cell_length_c   6.42435204
_cell_angle_alpha   82.65073152
_cell_angle_beta   82.65072669
_cell_angle_gamma   82.65072316
_symmetry_Int_Tables_number   1
_chemical_formula_structural   Ho2Mn14(SiC)3
_chemical_formula_sum   'Ho2 Mn14 Si3 C3'
_cell_volume   259.12649840
_cell_formula_units_Z   1
loop_
 _symmetry_equiv_pos_site_id
 _symmetry_equiv_pos_as_xyz
  1  'x, y, z'
loop_
 _atom_site_type_symbol
 _atom_site_label
 _atom_site_symmetry_multiplicity
 _atom_site_fract_x
 _atom_site_fract_y
 _atom_site_fract_z
 _atom_site_occupancy
  Ho  Ho0  1  0.652395  0.652395  0.652395  1
  Ho  Ho1  1  0.347605  0.347605  0.347605  1
  Mn  Mn2  1  0.724171  0.275829  0.000000  1
  Mn  Mn3  1  0.000000  0.724171  0.275829  1
  Mn  Mn4  1  0.275829  0.000000  0.724171  1
  Mn  Mn5  1  0.000000  0.275829  0.724171  1
  Mn  Mn6  1  0.724171  0.000000  0.275829  1
  Mn  Mn7  1  0.275829  0.724171  0.000000  1
  Mn  Mn8  1  0.344631  0.859264  0.344631  1
  Mn  Mn9  1  0.344631  0.344631  0.859264  1
  Mn  Mn10  1  0.859264  0.344631  0.344631  1
  Mn  Mn11  1  0.655369  0.140736  0.655369  1
  Mn  Mn12  1  0.655369  0.655369  0.140736  1
  Mn  Mn13  1  0.140736  0.655369  0.655369  1
  Mn  Mn14  1  0.905687  0.905687  0.905687  1
  Mn  Mn15  1  0.094313  0.094313  0.094313  1
  Si  Si16  1  0.000000  0.000000  0.500000  1
  Si  Si17  1  0.500000  0.000000  0.000000  1
  Si  Si18  1  0.000000  0.500000  0.000000  1
  C  C19  1  0.500000  0.500000  0.000000  1
  C  C20  1  0.000000  0.500000  0.500000  1
  C  C21  1  0.500000  0.000000  0.500000  1
