# generated using pymatgen
data_Pa3(IO4)5
_symmetry_space_group_name_H-M   'P 1'
_cell_length_a   5.87923213
_cell_length_b   8.02279808
_cell_length_c   12.66946255
_cell_angle_alpha   62.69769510
_cell_angle_beta   89.94265460
_cell_angle_gamma   88.65143122
_symmetry_Int_Tables_number   1
_chemical_formula_structural   Pa3(IO4)5
_chemical_formula_sum   'Pa3 I5 O20'
_cell_volume   530.84003598
_cell_formula_units_Z   1
loop_
 _symmetry_equiv_pos_site_id
 _symmetry_equiv_pos_as_xyz
  1  'x, y, z'
loop_
 _atom_site_type_symbol
 _atom_site_label
 _atom_site_symmetry_multiplicity
 _atom_site_fract_x
 _atom_site_fract_y
 _atom_site_fract_z
 _atom_site_occupancy
  Pa  Pa0  1  0.232636  0.338704  0.374228  1
  Pa  Pa1  1  0.737958  0.148677  0.631745  1
  Pa  Pa2  1  0.760294  0.650922  0.628822  1
  I  I3  1  0.254636  0.833170  0.381698  1
  I  I4  1  0.589897  0.286321  0.121067  1
  I  I5  1  0.089074  0.213711  0.876598  1
  I  I6  1  0.426857  0.713841  0.881076  1
  I  I7  1  0.914728  0.789895  0.121756  1
  O  O8  1  0.490606  0.368978  0.228566  1
  O  O9  1  0.001924  0.117255  0.775942  1
  O  O10  1  0.520677  0.621679  0.777977  1
  O  O11  1  0.984101  0.883714  0.223259  1
  O  O12  1  0.151639  0.087355  0.372521  1
  O  O13  1  0.647776  0.401829  0.647112  1
  O  O14  1  0.857208  0.881954  0.641563  1
  O  O15  1  0.331145  0.585996  0.377296  1
  O  O16  1  0.157878  0.863792  0.019131  1
  O  O17  1  0.670461  0.654122  0.981098  1
  O  O18  1  0.840634  0.167833  0.970069  1
  O  O19  1  0.355456  0.384612  0.009110  1
  O  O20  1  0.996107  0.538218  0.210965  1
  O  O21  1  0.503516  0.963878  0.785953  1
  O  O22  1  0.026245  0.465891  0.774922  1
  O  O23  1  0.507692  0.044353  0.192165  1
  O  O24  1  0.022189  0.713986  0.487489  1
  O  O25  1  0.479359  0.793905  0.496534  1
  O  O26  1  0.968730  0.297878  0.500181  1
  O  O27  1  0.480579  0.187529  0.511158  1
