# generated using pymatgen
data_Ba4Sc3IO8
_symmetry_space_group_name_H-M   'P 1'
_cell_length_a   4.20996500
_cell_length_b   4.20996500
_cell_length_c   17.04568400
_cell_angle_alpha   90.00000000
_cell_angle_beta   90.00000000
_cell_angle_gamma   90.00000000
_symmetry_Int_Tables_number   1
_chemical_formula_structural   Ba4Sc3IO8
_chemical_formula_sum   'Ba4 Sc3 I1 O8'
_cell_volume   302.11438444
_cell_formula_units_Z   1
loop_
 _symmetry_equiv_pos_site_id
 _symmetry_equiv_pos_as_xyz
  1  'x, y, z'
loop_
 _atom_site_type_symbol
 _atom_site_label
 _atom_site_symmetry_multiplicity
 _atom_site_fract_x
 _atom_site_fract_y
 _atom_site_fract_z
 _atom_site_occupancy
  Ba  Ba0  1  0.500000  0.500000  0.111317  1
  Ba  Ba1  1  0.500000  0.500000  0.888683  1
  Ba  Ba2  1  0.500000  0.500000  0.359649  1
  Ba  Ba3  1  0.500000  0.500000  0.640351  1
  Sc  Sc4  1  0.000000  0.000000  0.242053  1
  Sc  Sc5  1  0.000000  0.000000  0.757947  1
  Sc  Sc6  1  0.000000  0.000000  0.000000  1
  I  I7  1  0.000000  0.000000  0.500000  1
  O  O8  1  0.000000  0.500000  0.272842  1
  O  O9  1  0.000000  0.500000  0.727158  1
  O  O10  1  0.500000  0.000000  0.272842  1
  O  O11  1  0.500000  0.000000  0.727158  1
  O  O12  1  0.000000  0.000000  0.129239  1
  O  O13  1  0.000000  0.000000  0.870761  1
  O  O14  1  0.000000  0.500000  0.000000  1
  O  O15  1  0.500000  0.000000  0.000000  1
