# generated using pymatgen
data_TmZr(Co5As3)2
_symmetry_space_group_name_H-M   'P 1'
_cell_length_a   3.74513500
_cell_length_b   12.11633815
_cell_length_c   10.61558099
_cell_angle_alpha   90.00835401
_cell_angle_beta   90.00000000
_cell_angle_gamma   90.00000000
_symmetry_Int_Tables_number   1
_chemical_formula_structural   TmZr(Co5As3)2
_chemical_formula_sum   'Tm2 Zr2 Co20 As12'
_cell_volume   481.70663277
_cell_formula_units_Z   2
loop_
 _symmetry_equiv_pos_site_id
 _symmetry_equiv_pos_as_xyz
  1  'x, y, z'
loop_
 _atom_site_type_symbol
 _atom_site_label
 _atom_site_symmetry_multiplicity
 _atom_site_fract_x
 _atom_site_fract_y
 _atom_site_fract_z
 _atom_site_occupancy
  Tm  Tm0  1  0.250000  0.798072  0.581286  1
  Tm  Tm1  1  0.750000  0.201928  0.418714  1
  Zr  Zr2  1  0.750000  0.701028  0.079315  1
  Zr  Zr3  1  0.250000  0.298972  0.920685  1
  Co  Co4  1  0.750000  0.697031  0.383047  1
  Co  Co5  1  0.250000  0.302969  0.616953  1
  Co  Co6  1  0.250000  0.801599  0.887697  1
  Co  Co7  1  0.750000  0.198401  0.112303  1
  Co  Co8  1  0.750000  0.993687  0.214808  1
  Co  Co9  1  0.250000  0.006313  0.785192  1
  Co  Co10  1  0.250000  0.507974  0.716100  1
  Co  Co11  1  0.750000  0.492026  0.283900  1
  Co  Co12  1  0.750000  0.678438  0.784991  1
  Co  Co13  1  0.250000  0.321562  0.215009  1
  Co  Co14  1  0.250000  0.820376  0.282153  1
  Co  Co15  1  0.750000  0.179624  0.717847  1
  Co  Co16  1  0.750000  0.930297  0.971111  1
  Co  Co17  1  0.250000  0.069703  0.028889  1
  Co  Co18  1  0.250000  0.568565  0.468151  1
  Co  Co19  1  0.750000  0.431435  0.531849  1
  Co  Co20  1  0.750000  0.987397  0.592629  1
  Co  Co21  1  0.250000  0.012603  0.407371  1
  Co  Co22  1  0.250000  0.513154  0.090298  1
  Co  Co23  1  0.750000  0.486845  0.909702  1
  As  As24  1  0.750000  0.614448  0.585136  1
  As  As25  1  0.250000  0.385552  0.414864  1
  As  As26  1  0.250000  0.884866  0.085934  1
  As  As27  1  0.750000  0.115134  0.914066  1
  As  As28  1  0.750000  0.889603  0.399774  1
  As  As29  1  0.250000  0.110397  0.600226  1
  As  As30  1  0.250000  0.610935  0.901097  1
  As  As31  1  0.750000  0.389065  0.098903  1
  As  As32  1  0.750000  0.870623  0.768762  1
  As  As33  1  0.250000  0.129377  0.231238  1
  As  As34  1  0.250000  0.629260  0.265511  1
  As  As35  1  0.750000  0.370740  0.734489  1
