# generated using pymatgen
data_Dy4Ho8ZnCo4Bi
_symmetry_space_group_name_H-M   'P 1'
_cell_length_a   8.34167862
_cell_length_b   8.34199810
_cell_length_c   8.34167746
_cell_angle_alpha   111.54863729
_cell_angle_beta   109.47638239
_cell_angle_gamma   107.41347739
_symmetry_Int_Tables_number   1
_chemical_formula_structural   Dy4Ho8ZnCo4Bi
_chemical_formula_sum   'Dy4 Ho8 Zn1 Co4 Bi1'
_cell_volume   446.26980320
_cell_formula_units_Z   1
loop_
 _symmetry_equiv_pos_site_id
 _symmetry_equiv_pos_as_xyz
  1  'x, y, z'
loop_
 _atom_site_type_symbol
 _atom_site_label
 _atom_site_symmetry_multiplicity
 _atom_site_fract_x
 _atom_site_fract_y
 _atom_site_fract_z
 _atom_site_occupancy
  Dy  Dy0  1  0.573609  0.780210  0.793397  1
  Dy  Dy1  1  0.426391  0.219790  0.206603  1
  Dy  Dy2  1  0.986815  0.780210  0.206601  1
  Dy  Dy3  1  0.013185  0.219790  0.793399  1
  Ho  Ho4  1  0.818906  0.714181  0.533105  1
  Ho  Ho5  1  0.181094  0.285819  0.466895  1
  Ho  Ho6  1  0.181076  0.714181  0.895276  1
  Ho  Ho7  1  0.818924  0.285819  0.104724  1
  Ho  Ho8  1  0.685573  0.377676  0.692103  1
  Ho  Ho9  1  0.314427  0.622324  0.307897  1
  Ho  Ho10  1  0.685575  0.993480  0.307906  1
  Ho  Ho11  1  0.314425  0.006520  0.692094  1
  Zn  Zn12  1  0.000000  0.000000  0.000000  1
  Co  Co13  1  0.623011  0.000000  0.623011  1
  Co  Co14  1  0.376989  0.000000  0.376989  1
  Co  Co15  1  0.112344  0.612341  0.499997  1
  Co  Co16  1  0.887656  0.387659  0.500003  1
  Bi  Bi17  1  0.500000  0.500000  0.000000  1
