# generated using pymatgen
data_Lu3Hf2SnIr3
_symmetry_space_group_name_H-M   'P 1'
_cell_length_a   7.45911300
_cell_length_b   7.09141439
_cell_length_c   4.25157400
_cell_angle_alpha   90.00000000
_cell_angle_beta   90.00000000
_cell_angle_gamma   121.73057163
_symmetry_Int_Tables_number   1
_chemical_formula_structural   Lu3Hf2SnIr3
_chemical_formula_sum   'Lu3 Hf2 Sn1 Ir3'
_cell_volume   191.27567399
_cell_formula_units_Z   1
loop_
 _symmetry_equiv_pos_site_id
 _symmetry_equiv_pos_as_xyz
  1  'x, y, z'
loop_
 _atom_site_type_symbol
 _atom_site_label
 _atom_site_symmetry_multiplicity
 _atom_site_fract_x
 _atom_site_fract_y
 _atom_site_fract_z
 _atom_site_occupancy
  Lu  Lu0  1  0.004544  0.403879  0.500000  1
  Lu  Lu1  1  0.600666  0.596121  0.500000  1
  Lu  Lu2  1  0.416723  0.000000  0.500000  1
  Hf  Hf3  1  0.995143  0.741261  0.000000  1
  Hf  Hf4  1  0.253882  0.258739  0.000000  1
  Sn  Sn5  1  0.747523  0.000000  0.000000  1
  Ir  Ir6  1  0.311172  0.664101  0.000000  1
  Ir  Ir7  1  0.647072  0.335899  0.000000  1
  Ir  Ir8  1  0.023273  0.000000  0.500000  1
