# generated using pymatgen
data_Mg5P12Ru15Rh4
_symmetry_space_group_name_H-M   'P 1'
_cell_length_a   12.38772476
_cell_length_b   12.45846933
_cell_length_c   3.93939200
_cell_angle_alpha   90.00000000
_cell_angle_beta   90.00000000
_cell_angle_gamma   120.01171238
_symmetry_Int_Tables_number   1
_chemical_formula_structural   Mg5P12Ru15Rh4
_chemical_formula_sum   'Mg5 P12 Ru15 Rh4'
_cell_volume   526.45929338
_cell_formula_units_Z   1
loop_
 _symmetry_equiv_pos_site_id
 _symmetry_equiv_pos_as_xyz
  1  'x, y, z'
loop_
 _atom_site_type_symbol
 _atom_site_label
 _atom_site_symmetry_multiplicity
 _atom_site_fract_x
 _atom_site_fract_y
 _atom_site_fract_z
 _atom_site_occupancy
  Mg  Mg0  1  0.999231  0.168795  0.500000  1
  Mg  Mg1  1  0.826435  0.825120  0.500000  1
  Mg  Mg2  1  0.183468  0.998771  0.500000  1
  Mg  Mg3  1  0.657311  0.327603  0.000000  1
  Mg  Mg4  1  0.335154  0.674298  0.000000  1
  P  P5  1  0.982180  0.804441  0.000000  1
  P  P6  1  0.175041  0.195837  0.000000  1
  P  P7  1  0.829973  0.995252  0.000000  1
  P  P8  1  0.693273  0.167105  0.500000  1
  P  P9  1  0.822598  0.514796  0.500000  1
  P  P10  1  0.466390  0.298693  0.500000  1
  P  P11  1  0.171740  0.703069  0.500000  1
  P  P12  1  0.529729  0.832230  0.500000  1
  P  P13  1  0.306700  0.485144  0.500000  1
  P  P14  1  0.003819  0.377312  0.000000  1
  P  P15  1  0.626362  0.625817  0.000000  1
  P  P16  1  0.378876  0.000633  0.000000  1
  Ru  Ru17  1  0.992242  0.715484  0.500000  1
  Ru  Ru18  1  0.274754  0.285013  0.500000  1
  Ru  Ru19  1  0.731440  0.002855  0.500000  1
  Ru  Ru20  1  0.804233  0.611122  0.000000  1
  Ru  Ru21  1  0.353852  0.174108  0.000000  1
  Ru  Ru22  1  0.182320  0.822184  0.000000  1
  Ru  Ru23  1  0.630314  0.814017  0.000000  1
  Ru  Ru24  1  0.193953  0.390232  0.000000  1
  Ru  Ru25  1  0.871946  0.362135  0.500000  1
  Ru  Ru26  1  0.627406  0.496199  0.500000  1
  Ru  Ru27  1  0.492699  0.129639  0.500000  1
  Ru  Ru28  1  0.367995  0.873055  0.500000  1
  Ru  Ru29  1  0.508917  0.635079  0.500000  1
  Ru  Ru30  1  0.130470  0.504722  0.500000  1
  Ru  Ru31  1  0.015400  0.999582  0.000000  1
  Rh  Rh32  1  0.002107  0.557396  0.000000  1
  Rh  Rh33  1  0.446198  0.439600  0.000000  1
  Rh  Rh34  1  0.563079  0.005125  0.000000  1
  Rh  Rh35  1  0.822395  0.187536  0.000000  1
