# generated using pymatgen
data_Ca4Ga2Ir3Pt
_symmetry_space_group_name_H-M   'P 1'
_cell_length_a   5.74768034
_cell_length_b   5.77203477
_cell_length_c   7.68000667
_cell_angle_alpha   79.12304799
_cell_angle_beta   79.33588170
_cell_angle_gamma   59.24803882
_symmetry_Int_Tables_number   1
_chemical_formula_structural   Ca4Ga2Ir3Pt
_chemical_formula_sum   'Ca4 Ga2 Ir3 Pt1'
_cell_volume   213.84304201
_cell_formula_units_Z   1
loop_
 _symmetry_equiv_pos_site_id
 _symmetry_equiv_pos_as_xyz
  1  'x, y, z'
loop_
 _atom_site_type_symbol
 _atom_site_label
 _atom_site_symmetry_multiplicity
 _atom_site_fract_x
 _atom_site_fract_y
 _atom_site_fract_z
 _atom_site_occupancy
  Ca  Ca0  1  0.786438  0.508710  0.353753  1
  Ca  Ca1  1  0.494250  0.211972  0.143881  1
  Ca  Ca2  1  0.213706  0.493443  0.646200  1
  Ca  Ca3  1  0.503256  0.785416  0.856334  1
  Ga  Ga4  1  0.105228  0.900748  0.243956  1
  Ga  Ga5  1  0.910112  0.094843  0.754086  1
  Ir  Ir6  1  0.006951  0.715261  0.009978  1
  Ir  Ir7  1  0.273098  0.992800  0.490265  1
  Ir  Ir8  1  0.989938  0.288869  0.991700  1
  Pt  Pt9  1  0.717024  0.007939  0.509846  1
