# generated using pymatgen
data_Nd6Tc16O
_symmetry_space_group_name_H-M   'P 1'
_cell_length_a   8.17535747
_cell_length_b   8.17535814
_cell_length_c   8.17535800
_cell_angle_alpha   109.47121781
_cell_angle_beta   109.47121946
_cell_angle_gamma   109.47122366
_symmetry_Int_Tables_number   1
_chemical_formula_structural   Nd6Tc16O
_chemical_formula_sum   'Nd6 Tc16 O1'
_cell_volume   420.62824552
_cell_formula_units_Z   1
loop_
 _symmetry_equiv_pos_site_id
 _symmetry_equiv_pos_as_xyz
  1  'x, y, z'
loop_
 _atom_site_type_symbol
 _atom_site_label
 _atom_site_symmetry_multiplicity
 _atom_site_fract_x
 _atom_site_fract_y
 _atom_site_fract_z
 _atom_site_occupancy
  Nd  Nd0  1  0.266061  0.000000  0.266061  1
  Nd  Nd1  1  0.000000  0.266061  0.266061  1
  Nd  Nd2  1  0.000000  0.733939  0.733939  1
  Nd  Nd3  1  0.266061  0.266061  0.000000  1
  Nd  Nd4  1  0.733939  0.733939  0.000000  1
  Nd  Nd5  1  0.733939  0.000000  0.733939  1
  Tc  Tc6  1  0.000000  0.000000  0.500000  1
  Tc  Tc7  1  0.500000  0.000000  0.000000  1
  Tc  Tc8  1  0.000000  0.500000  0.000000  1
  Tc  Tc9  1  0.500000  0.500000  0.500000  1
  Tc  Tc10  1  0.339058  0.000000  0.660942  1
  Tc  Tc11  1  0.678117  0.339058  0.339058  1
  Tc  Tc12  1  0.000000  0.339058  0.660942  1
  Tc  Tc13  1  0.660942  0.660942  0.321883  1
  Tc  Tc14  1  0.339058  0.660942  0.000000  1
  Tc  Tc15  1  0.339058  0.678117  0.339058  1
  Tc  Tc16  1  0.660942  0.321883  0.660942  1
  Tc  Tc17  1  0.339058  0.339058  0.678117  1
  Tc  Tc18  1  0.321883  0.660942  0.660942  1
  Tc  Tc19  1  0.660942  0.339058  0.000000  1
  Tc  Tc20  1  0.000000  0.660942  0.339058  1
  Tc  Tc21  1  0.660942  0.000000  0.339058  1
  O  O22  1  0.000000  0.000000  0.000000  1
