# generated using pymatgen
data_ErAlCu3Au
_symmetry_space_group_name_H-M   'P 1'
_cell_length_a   5.09320309
_cell_length_b   5.09320337
_cell_length_c   5.04555503
_cell_angle_alpha   59.68711390
_cell_angle_beta   59.68710705
_cell_angle_gamma   59.99999786
_symmetry_Int_Tables_number   1
_chemical_formula_structural   ErAlCu3Au
_chemical_formula_sum   'Er1 Al1 Cu3 Au1'
_cell_volume   92.10978374
_cell_formula_units_Z   1
loop_
 _symmetry_equiv_pos_site_id
 _symmetry_equiv_pos_as_xyz
  1  'x, y, z'
loop_
 _atom_site_type_symbol
 _atom_site_label
 _atom_site_symmetry_multiplicity
 _atom_site_fract_x
 _atom_site_fract_y
 _atom_site_fract_z
 _atom_site_occupancy
  Er  Er0  1  0.004071  0.004071  0.987786  1
  Al  Al1  1  0.620369  0.620369  0.138894  1
  Cu  Cu2  1  0.624246  0.123199  0.628309  1
  Cu  Cu3  1  0.123199  0.624246  0.628309  1
  Cu  Cu4  1  0.624246  0.624246  0.628309  1
  Au  Au5  1  0.253869  0.253869  0.238394  1
