# generated using pymatgen
data_Yb3YAl18OsPd5
_symmetry_space_group_name_H-M   'P 1'
_cell_length_a   7.65725999
_cell_length_b   7.64718416
_cell_length_c   9.52995705
_cell_angle_alpha   90.04784029
_cell_angle_beta   90.09735815
_cell_angle_gamma   119.62164503
_symmetry_Int_Tables_number   1
_chemical_formula_structural   Yb3YAl18OsPd5
_chemical_formula_sum   'Yb3 Y1 Al18 Os1 Pd5'
_cell_volume   485.10780476
_cell_formula_units_Z   1
loop_
 _symmetry_equiv_pos_site_id
 _symmetry_equiv_pos_as_xyz
  1  'x, y, z'
loop_
 _atom_site_type_symbol
 _atom_site_label
 _atom_site_symmetry_multiplicity
 _atom_site_fract_x
 _atom_site_fract_y
 _atom_site_fract_z
 _atom_site_occupancy
  Yb  Yb0  1  0.993590  0.668976  0.247902  1
  Yb  Yb1  1  0.003014  0.329432  0.751299  1
  Yb  Yb2  1  0.672186  0.996872  0.248536  1
  Y  Y3  1  0.330561  0.002157  0.752218  1
  Al  Al4  1  0.130437  0.132682  0.249535  1
  Al  Al5  1  0.871088  0.870515  0.750357  1
  Al  Al6  1  0.995380  0.334709  0.074880  1
  Al  Al7  1  0.994900  0.658555  0.924077  1
  Al  Al8  1  0.998400  0.665337  0.578085  1
  Al  Al9  1  0.333923  0.000980  0.420556  1
  Al  Al10  1  0.001701  0.335618  0.423965  1
  Al  Al11  1  0.665463  0.999095  0.577025  1
  Al  Al12  1  0.667019  0.004081  0.924565  1
  Al  Al13  1  0.340725  0.004620  0.077500  1
  Al  Al14  1  0.332984  0.333397  0.556458  1
  Al  Al15  1  0.665110  0.666171  0.445366  1
  Al  Al16  1  0.667415  0.662324  0.048741  1
  Al  Al17  1  0.336372  0.331880  0.949756  1
  Al  Al18  1  0.338960  0.546148  0.249296  1
  Al  Al19  1  0.658147  0.451622  0.753175  1
  Al  Al20  1  0.547761  0.340864  0.246402  1
  Al  Al21  1  0.456519  0.664086  0.750815  1
  Os  Os22  1  0.670101  0.327418  0.999098  1
  Pd  Pd23  1  0.327986  0.672095  0.999109  1
  Pd  Pd24  1  0.327841  0.672293  0.500943  1
  Pd  Pd25  1  0.670914  0.328057  0.500511  1
  Pd  Pd26  1  0.001097  0.999805  0.999435  1
  Pd  Pd27  1  0.000402  0.000209  0.500394  1
