# generated using pymatgen
data_BeNb3B2Ru3
_symmetry_space_group_name_H-M   'P 1'
_cell_length_a   3.19937800
_cell_length_b   9.05241100
_cell_length_c   15.71478100
_cell_angle_alpha   90.00000000
_cell_angle_beta   90.00000000
_cell_angle_gamma   90.00000000
_symmetry_Int_Tables_number   1
_chemical_formula_structural   BeNb3B2Ru3
_chemical_formula_sum   'Be4 Nb12 B8 Ru12'
_cell_volume   455.13281680
_cell_formula_units_Z   4
loop_
 _symmetry_equiv_pos_site_id
 _symmetry_equiv_pos_as_xyz
  1  'x, y, z'
loop_
 _atom_site_type_symbol
 _atom_site_label
 _atom_site_symmetry_multiplicity
 _atom_site_fract_x
 _atom_site_fract_y
 _atom_site_fract_z
 _atom_site_occupancy
  Be  Be0  1  0.000000  0.609555  0.832357  1
  Be  Be1  1  0.000000  0.390445  0.167643  1
  Be  Be2  1  0.000000  0.109555  0.667643  1
  Be  Be3  1  0.000000  0.890445  0.332357  1
  Nb  Nb4  1  0.000000  0.801612  0.495169  1
  Nb  Nb5  1  0.000000  0.198388  0.504831  1
  Nb  Nb6  1  0.000000  0.301612  0.004831  1
  Nb  Nb7  1  0.000000  0.698388  0.995169  1
  Nb  Nb8  1  0.000000  0.513568  0.595477  1
  Nb  Nb9  1  0.000000  0.486432  0.404523  1
  Nb  Nb10  1  0.000000  0.013568  0.904523  1
  Nb  Nb11  1  0.000000  0.986432  0.095477  1
  Nb  Nb12  1  0.000000  0.685080  0.203652  1
  Nb  Nb13  1  0.000000  0.314920  0.796348  1
  Nb  Nb14  1  0.000000  0.185080  0.296348  1
  Nb  Nb15  1  0.000000  0.814920  0.703652  1
  B  B16  1  0.500000  0.604546  0.497265  1
  B  B17  1  0.500000  0.395454  0.502735  1
  B  B18  1  0.500000  0.104546  0.002735  1
  B  B19  1  0.500000  0.895454  0.997265  1
  B  B20  1  0.500000  0.714210  0.598875  1
  B  B21  1  0.500000  0.285790  0.401125  1
  B  B22  1  0.500000  0.214210  0.901125  1
  B  B23  1  0.500000  0.785790  0.098875  1
  Ru  Ru24  1  0.500000  0.714351  0.357677  1
  Ru  Ru25  1  0.500000  0.285649  0.642323  1
  Ru  Ru26  1  0.500000  0.214351  0.142323  1
  Ru  Ru27  1  0.500000  0.785649  0.857677  1
  Ru  Ru28  1  0.500000  0.521549  0.093954  1
  Ru  Ru29  1  0.500000  0.478451  0.906046  1
  Ru  Ru30  1  0.500000  0.021549  0.406046  1
  Ru  Ru31  1  0.500000  0.978451  0.593954  1
  Ru  Ru32  1  0.500000  0.567577  0.731003  1
  Ru  Ru33  1  0.500000  0.432423  0.268997  1
  Ru  Ru34  1  0.500000  0.067577  0.768997  1
  Ru  Ru35  1  0.500000  0.932423  0.231003  1
