# generated using pymatgen
data_Dy4MoRu7
_symmetry_space_group_name_H-M   'P 1'
_cell_length_a   5.47937240
_cell_length_b   5.18974701
_cell_length_c   9.05266300
_cell_angle_alpha   90.00000000
_cell_angle_beta   90.00000000
_cell_angle_gamma   122.02217054
_symmetry_Int_Tables_number   1
_chemical_formula_structural   Dy4MoRu7
_chemical_formula_sum   'Dy4 Mo1 Ru7'
_cell_volume   218.25730502
_cell_formula_units_Z   1
loop_
 _symmetry_equiv_pos_site_id
 _symmetry_equiv_pos_as_xyz
  1  'x, y, z'
loop_
 _atom_site_type_symbol
 _atom_site_label
 _atom_site_symmetry_multiplicity
 _atom_site_fract_x
 _atom_site_fract_y
 _atom_site_fract_z
 _atom_site_occupancy
  Dy  Dy0  1  0.672505  0.345417  0.563590  1
  Dy  Dy1  1  0.334223  0.668471  0.431772  1
  Dy  Dy2  1  0.334223  0.668471  0.068228  1
  Dy  Dy3  1  0.672505  0.345417  0.936410  1
  Mo  Mo4  1  0.159890  0.320697  0.750000  1
  Ru  Ru5  1  0.009244  0.018723  0.498477  1
  Ru  Ru6  1  0.009244  0.018723  0.001523  1
  Ru  Ru7  1  0.171400  0.820836  0.750000  1
  Ru  Ru8  1  0.650113  0.821002  0.750000  1
  Ru  Ru9  1  0.823354  0.646418  0.250000  1
  Ru  Ru10  1  0.830575  0.162616  0.250000  1
  Ru  Ru11  1  0.332724  0.163208  0.250000  1
