# generated using pymatgen
data_Pr2Y4Si5GeRh12
_symmetry_space_group_name_H-M   'P 1'
_cell_length_a   5.63647800
_cell_length_b   5.63647738
_cell_length_c   15.13725600
_cell_angle_alpha   90.00000000
_cell_angle_beta   90.00000000
_cell_angle_gamma   119.99999189
_symmetry_Int_Tables_number   1
_chemical_formula_structural   Pr2Y4Si5GeRh12
_chemical_formula_sum   'Pr2 Y4 Si5 Ge1 Rh12'
_cell_volume   416.47928751
_cell_formula_units_Z   1
loop_
 _symmetry_equiv_pos_site_id
 _symmetry_equiv_pos_as_xyz
  1  'x, y, z'
loop_
 _atom_site_type_symbol
 _atom_site_label
 _atom_site_symmetry_multiplicity
 _atom_site_fract_x
 _atom_site_fract_y
 _atom_site_fract_z
 _atom_site_occupancy
  Pr  Pr0  1  0.666667  0.333333  0.750493  1
  Pr  Pr1  1  0.333333  0.666667  0.249507  1
  Y  Y2  1  0.666667  0.333333  0.964345  1
  Y  Y3  1  0.666667  0.333333  0.536070  1
  Y  Y4  1  0.333333  0.666667  0.035655  1
  Y  Y5  1  0.333333  0.666667  0.463930  1
  Si  Si6  1  0.666667  0.333333  0.248630  1
  Si  Si7  1  0.000000  0.000000  0.249039  1
  Si  Si8  1  0.000000  0.000000  0.750961  1
  Si  Si9  1  0.333333  0.666667  0.751370  1
  Si  Si10  1  0.000000  0.000000  0.000000  1
  Ge  Ge11  1  0.000000  0.000000  0.500000  1
  Rh  Rh12  1  0.166050  0.332101  0.869830  1
  Rh  Rh13  1  0.167473  0.334946  0.633392  1
  Rh  Rh14  1  0.667899  0.833950  0.869830  1
  Rh  Rh15  1  0.334946  0.167473  0.366608  1
  Rh  Rh16  1  0.832527  0.665054  0.366608  1
  Rh  Rh17  1  0.832527  0.167473  0.366608  1
  Rh  Rh18  1  0.833950  0.166050  0.130170  1
  Rh  Rh19  1  0.332101  0.166050  0.130170  1
  Rh  Rh20  1  0.665054  0.832527  0.633392  1
  Rh  Rh21  1  0.167473  0.832527  0.633392  1
  Rh  Rh22  1  0.833950  0.667899  0.130170  1
  Rh  Rh23  1  0.166050  0.833950  0.869830  1
