# generated using pymatgen
data_Pr3In3Ir2Rh
_symmetry_space_group_name_H-M   'P 1'
_cell_length_a   7.70010700
_cell_length_b   7.70010651
_cell_length_c   4.06683700
_cell_angle_alpha   90.00000000
_cell_angle_beta   90.00000000
_cell_angle_gamma   119.99999780
_symmetry_Int_Tables_number   1
_chemical_formula_structural   Pr3In3Ir2Rh
_chemical_formula_sum   'Pr3 In3 Ir2 Rh1'
_cell_volume   208.82423554
_cell_formula_units_Z   1
loop_
 _symmetry_equiv_pos_site_id
 _symmetry_equiv_pos_as_xyz
  1  'x, y, z'
loop_
 _atom_site_type_symbol
 _atom_site_label
 _atom_site_symmetry_multiplicity
 _atom_site_fract_x
 _atom_site_fract_y
 _atom_site_fract_z
 _atom_site_occupancy
  Pr  Pr0  1  0.000000  0.586155  0.500000  1
  Pr  Pr1  1  0.413845  0.413845  0.500000  1
  Pr  Pr2  1  0.586155  0.000000  0.500000  1
  In  In3  1  0.749308  0.749308  0.000000  1
  In  In4  1  0.000000  0.250692  0.000000  1
  In  In5  1  0.250692  0.000000  0.000000  1
  Ir  Ir6  1  0.333333  0.666667  0.000000  1
  Ir  Ir7  1  0.666667  0.333333  0.000000  1
  Rh  Rh8  1  0.000000  0.000000  0.500000  1
