# generated using pymatgen
data_Zr6Co17TcP12
_symmetry_space_group_name_H-M   'P 1'
_cell_length_a   3.65235400
_cell_length_b   10.33527600
_cell_length_c   11.99917900
_cell_angle_alpha   90.00000000
_cell_angle_beta   90.00000000
_cell_angle_gamma   90.00000000
_symmetry_Int_Tables_number   1
_chemical_formula_structural   Zr6Co17TcP12
_chemical_formula_sum   'Zr6 Co17 Tc1 P12'
_cell_volume   452.94604850
_cell_formula_units_Z   1
loop_
 _symmetry_equiv_pos_site_id
 _symmetry_equiv_pos_as_xyz
  1  'x, y, z'
loop_
 _atom_site_type_symbol
 _atom_site_label
 _atom_site_symmetry_multiplicity
 _atom_site_fract_x
 _atom_site_fract_y
 _atom_site_fract_z
 _atom_site_occupancy
  Zr  Zr0  1  0.000000  0.500000  0.529721  1
  Zr  Zr1  1  0.500000  0.000000  0.474222  1
  Zr  Zr2  1  0.500000  0.821090  0.208674  1
  Zr  Zr3  1  0.500000  0.178910  0.208674  1
  Zr  Zr4  1  0.000000  0.680156  0.792254  1
  Zr  Zr5  1  0.000000  0.319844  0.792254  1
  Co  Co6  1  0.000000  0.000000  0.835416  1
  Co  Co7  1  0.500000  0.500000  0.702742  1
  Co  Co8  1  0.000000  0.000000  0.296985  1
  Co  Co9  1  0.000000  0.500000  0.988062  1
  Co  Co10  1  0.500000  0.000000  0.015071  1
  Co  Co11  1  0.500000  0.331899  0.989890  1
  Co  Co12  1  0.500000  0.668101  0.989890  1
  Co  Co13  1  0.000000  0.166759  0.006079  1
  Co  Co14  1  0.000000  0.833241  0.006079  1
  Co  Co15  1  0.500000  0.299670  0.432318  1
  Co  Co16  1  0.500000  0.700330  0.432318  1
  Co  Co17  1  0.000000  0.200589  0.567434  1
  Co  Co18  1  0.000000  0.799411  0.567434  1
  Co  Co19  1  0.500000  0.876243  0.707700  1
  Co  Co20  1  0.500000  0.123757  0.707700  1
  Co  Co21  1  0.000000  0.623429  0.293570  1
  Co  Co22  1  0.000000  0.376571  0.293570  1
  Tc  Tc23  1  0.500000  0.500000  0.160108  1
  P  P24  1  0.500000  0.500000  0.878106  1
  P  P25  1  0.000000  0.000000  0.120585  1
  P  P26  1  0.500000  0.500000  0.355357  1
  P  P27  1  0.000000  0.000000  0.649115  1
  P  P28  1  0.500000  0.315887  0.617418  1
  P  P29  1  0.500000  0.684113  0.617418  1
  P  P30  1  0.000000  0.183031  0.383609  1
  P  P31  1  0.000000  0.816969  0.383609  1
  P  P32  1  0.500000  0.848208  0.889146  1
  P  P33  1  0.500000  0.151792  0.889146  1
  P  P34  1  0.000000  0.658782  0.109162  1
  P  P35  1  0.000000  0.341218  0.109162  1
