# generated using pymatgen
data_LiTm12Co2Si2Hg
_symmetry_space_group_name_H-M   'P 1'
_cell_length_a   8.28367086
_cell_length_b   8.28367022
_cell_length_c   8.28367051
_cell_angle_alpha   112.72945558
_cell_angle_beta   111.30199607
_cell_angle_gamma   104.49739556
_symmetry_Int_Tables_number   1
_chemical_formula_structural   LiTm12Co2Si2Hg
_chemical_formula_sum   'Li1 Tm12 Co2 Si2 Hg1'
_cell_volume   435.05025329
_cell_formula_units_Z   1
loop_
 _symmetry_equiv_pos_site_id
 _symmetry_equiv_pos_as_xyz
  1  'x, y, z'
loop_
 _atom_site_type_symbol
 _atom_site_label
 _atom_site_symmetry_multiplicity
 _atom_site_fract_x
 _atom_site_fract_y
 _atom_site_fract_z
 _atom_site_occupancy
  Li  Li0  1  0.000000  0.000000  0.000000  1
  Tm  Tm1  1  0.436673  0.243217  0.193457  1
  Tm  Tm2  1  0.563327  0.756783  0.806543  1
  Tm  Tm3  1  0.049758  0.243217  0.806543  1
  Tm  Tm4  1  0.950242  0.756783  0.193457  1
  Tm  Tm5  1  0.184605  0.286300  0.470904  1
  Tm  Tm6  1  0.815395  0.713700  0.529096  1
  Tm  Tm7  1  0.184605  0.713700  0.898304  1
  Tm  Tm8  1  0.815395  0.286300  0.101696  1
  Tm  Tm9  1  0.305660  0.618728  0.313069  1
  Tm  Tm10  1  0.694340  0.381272  0.686931  1
  Tm  Tm11  1  0.305660  0.992591  0.686931  1
  Tm  Tm12  1  0.694340  0.007409  0.313069  1
  Co  Co13  1  0.109448  0.609448  0.500000  1
  Co  Co14  1  0.890552  0.390552  0.500000  1
  Si  Si15  1  0.350319  0.000000  0.350319  1
  Si  Si16  1  0.649681  0.000000  0.649681  1
  Hg  Hg17  1  0.500000  0.500000  0.000000  1
