# generated using pymatgen
data_Rb6Sc(AsI6)3
_symmetry_space_group_name_H-M   'P 1'
_cell_length_a   8.26942131
_cell_length_b   8.26751017
_cell_length_c   21.18614023
_cell_angle_alpha   88.66765383
_cell_angle_beta   88.67700613
_cell_angle_gamma   119.93973338
_symmetry_Int_Tables_number   1
_chemical_formula_structural   Rb6Sc(AsI6)3
_chemical_formula_sum   'Rb6 Sc1 As3 I18'
_cell_volume   1253.80440695
_cell_formula_units_Z   1
loop_
 _symmetry_equiv_pos_site_id
 _symmetry_equiv_pos_as_xyz
  1  'x, y, z'
loop_
 _atom_site_type_symbol
 _atom_site_label
 _atom_site_symmetry_multiplicity
 _atom_site_fract_x
 _atom_site_fract_y
 _atom_site_fract_z
 _atom_site_occupancy
  Rb  Rb0  1  0.995031  0.004755  0.751116  1
  Rb  Rb1  1  0.667443  0.329815  0.068213  1
  Rb  Rb2  1  0.004912  0.995154  0.249935  1
  Rb  Rb3  1  0.330092  0.667696  0.568200  1
  Rb  Rb4  1  0.331770  0.669404  0.931695  1
  Rb  Rb5  1  0.669984  0.332337  0.430471  1
  Sc  Sc6  1  0.678774  0.348157  0.841252  1
  As  As7  1  0.651474  0.320759  0.657375  1
  As  As8  1  0.347979  0.678573  0.340811  1
  As  As9  1  0.320942  0.651637  0.158124  1
  I  I10  1  0.634789  0.804004  0.077911  1
  I  I11  1  0.359539  0.193253  0.922549  1
  I  I12  1  0.504414  0.012539  0.761193  1
  I  I13  1  0.198188  0.856757  0.411880  1
  I  I14  1  0.859791  0.196161  0.911642  1
  I  I15  1  0.804244  0.635288  0.577724  1
  I  I16  1  0.801935  0.143394  0.588141  1
  I  I17  1  0.313433  0.145856  0.597448  1
  I  I18  1  0.497236  0.990618  0.239385  1
  I  I19  1  0.987340  0.495636  0.739542  1
  I  I20  1  0.143623  0.801551  0.088379  1
  I  I21  1  0.009553  0.502890  0.261661  1
  I  I22  1  0.504521  0.496088  0.750336  1
  I  I23  1  0.857036  0.692090  0.901823  1
  I  I24  1  0.146080  0.314014  0.097785  1
  I  I25  1  0.686705  0.854207  0.402584  1
  I  I26  1  0.497408  0.502737  0.250536  1
  I  I27  1  0.195766  0.364629  0.422287  1
