# generated using pymatgen
data_Y4LuSi3
_symmetry_space_group_name_H-M   'P 1'
_cell_length_a   8.42304100
_cell_length_b   8.42304120
_cell_length_c   6.31710600
_cell_angle_alpha   90.00000000
_cell_angle_beta   90.00000000
_cell_angle_gamma   119.99999530
_symmetry_Int_Tables_number   1
_chemical_formula_structural   Y4LuSi3
_chemical_formula_sum   'Y8 Lu2 Si6'
_cell_volume   388.13844012
_cell_formula_units_Z   2
loop_
 _symmetry_equiv_pos_site_id
 _symmetry_equiv_pos_as_xyz
  1  'x, y, z'
loop_
 _atom_site_type_symbol
 _atom_site_label
 _atom_site_symmetry_multiplicity
 _atom_site_fract_x
 _atom_site_fract_y
 _atom_site_fract_z
 _atom_site_occupancy
  Y  Y0  1  0.666667  0.333333  0.000000  1
  Y  Y1  1  0.333333  0.666667  0.000000  1
  Y  Y2  1  0.000000  0.756745  0.251347  1
  Y  Y3  1  0.243255  0.243255  0.251347  1
  Y  Y4  1  0.756745  0.000000  0.251347  1
  Y  Y5  1  0.000000  0.243255  0.748653  1
  Y  Y6  1  0.756745  0.756745  0.748653  1
  Y  Y7  1  0.243255  0.000000  0.748653  1
  Lu  Lu8  1  0.333333  0.666667  0.500000  1
  Lu  Lu9  1  0.666667  0.333333  0.500000  1
  Si  Si10  1  0.000000  0.394491  0.256098  1
  Si  Si11  1  0.605509  0.605509  0.256098  1
  Si  Si12  1  0.394491  0.000000  0.256098  1
  Si  Si13  1  0.000000  0.605509  0.743902  1
  Si  Si14  1  0.394491  0.394491  0.743902  1
  Si  Si15  1  0.605509  0.000000  0.743902  1
