# generated using pymatgen
data_Mg3Sn(IO6)2
_symmetry_space_group_name_H-M   'P 1'
_cell_length_a   4.70339200
_cell_length_b   4.70170814
_cell_length_c   9.36566900
_cell_angle_alpha   90.00000000
_cell_angle_beta   90.00000000
_cell_angle_gamma   90.23674125
_symmetry_Int_Tables_number   1
_chemical_formula_structural   Mg3Sn(IO6)2
_chemical_formula_sum   'Mg3 Sn1 I2 O12'
_cell_volume   207.11041554
_cell_formula_units_Z   1
loop_
 _symmetry_equiv_pos_site_id
 _symmetry_equiv_pos_as_xyz
  1  'x, y, z'
loop_
 _atom_site_type_symbol
 _atom_site_label
 _atom_site_symmetry_multiplicity
 _atom_site_fract_x
 _atom_site_fract_y
 _atom_site_fract_z
 _atom_site_occupancy
  Mg  Mg0  1  0.500000  0.500000  0.158004  1
  Mg  Mg1  1  0.000000  0.000000  0.672353  1
  Mg  Mg2  1  0.500000  0.500000  0.838236  1
  Sn  Sn3  1  0.000000  0.000000  0.332448  1
  I  I4  1  0.500000  0.500000  0.504623  1
  I  I5  1  0.000000  0.000000  0.993896  1
  O  O6  1  0.689560  0.689827  0.649532  1
  O  O7  1  0.310440  0.310173  0.649532  1
  O  O8  1  0.808824  0.191334  0.847607  1
  O  O9  1  0.191176  0.808666  0.847607  1
  O  O10  1  0.315226  0.314977  0.344066  1
  O  O11  1  0.684774  0.685023  0.344066  1
  O  O12  1  0.190347  0.809473  0.157832  1
  O  O13  1  0.809653  0.190527  0.157832  1
  O  O14  1  0.717310  0.717430  0.002211  1
  O  O15  1  0.282690  0.282570  0.002211  1
  O  O16  1  0.790737  0.209544  0.498972  1
  O  O17  1  0.209263  0.790456  0.498972  1
