# generated using pymatgen
data_Sm3EuY3CoI12
_symmetry_space_group_name_H-M   'P 1'
_cell_length_a   9.83644931
_cell_length_b   9.87262109
_cell_length_c   9.76175800
_cell_angle_alpha   107.25669312
_cell_angle_beta   106.62435588
_cell_angle_gamma   106.92923823
_symmetry_Int_Tables_number   1
_chemical_formula_structural   Sm3EuY3CoI12
_chemical_formula_sum   'Sm3 Eu1 Y3 Co1 I12'
_cell_volume   790.82554467
_cell_formula_units_Z   1
loop_
 _symmetry_equiv_pos_site_id
 _symmetry_equiv_pos_as_xyz
  1  'x, y, z'
loop_
 _atom_site_type_symbol
 _atom_site_label
 _atom_site_symmetry_multiplicity
 _atom_site_fract_x
 _atom_site_fract_y
 _atom_site_fract_z
 _atom_site_occupancy
  Sm  Sm0  1  0.976268  0.905037  0.713474  1
  Sm  Sm1  1  0.023197  0.093104  0.286180  1
  Sm  Sm2  1  0.098116  0.300920  0.024623  1
  Eu  Eu3  1  0.499953  0.499829  0.500083  1
  Y  Y4  1  0.297042  0.025415  0.097151  1
  Y  Y5  1  0.903000  0.703813  0.975275  1
  Y  Y6  1  0.702609  0.974169  0.902880  1
  Co  Co7  1  0.999908  0.000295  0.999704  1
  I  I8  1  0.545085  0.625584  0.859281  1
  I  I9  1  0.459793  0.374024  0.143057  1
  I  I10  1  0.323556  0.927784  0.777843  1
  I  I11  1  0.378004  0.144440  0.456295  1
  I  I12  1  0.926450  0.773477  0.317017  1
  I  I13  1  0.676454  0.071771  0.222125  1
  I  I14  1  0.072118  0.222616  0.677137  1
  I  I15  1  0.772528  0.318913  0.926158  1
  I  I16  1  0.223377  0.683329  0.072943  1
  I  I17  1  0.854861  0.540801  0.624602  1
  I  I18  1  0.145588  0.459413  0.380447  1
  I  I19  1  0.622092  0.855263  0.543725  1
