# generated using pymatgen
data_Ce2VIr3
_symmetry_space_group_name_H-M   'P 1'
_cell_length_a   5.62243875
_cell_length_b   5.16268947
_cell_length_c   5.62243900
_cell_angle_alpha   57.00771726
_cell_angle_beta   60.00000439
_cell_angle_gamma   57.00770798
_symmetry_Int_Tables_number   1
_chemical_formula_structural   Ce2VIr3
_chemical_formula_sum   'Ce2 V1 Ir3'
_cell_volume   109.90310829
_cell_formula_units_Z   1
loop_
 _symmetry_equiv_pos_site_id
 _symmetry_equiv_pos_as_xyz
  1  'x, y, z'
loop_
 _atom_site_type_symbol
 _atom_site_label
 _atom_site_symmetry_multiplicity
 _atom_site_fract_x
 _atom_site_fract_y
 _atom_site_fract_z
 _atom_site_occupancy
  Ce  Ce0  1  0.748548  0.754357  0.748548  1
  Ce  Ce1  1  0.501452  0.495643  0.501452  1
  V  V2  1  0.125000  0.625000  0.125000  1
  Ir  Ir3  1  0.125000  0.125000  0.625000  1
  Ir  Ir4  1  0.125000  0.125000  0.125000  1
  Ir  Ir5  1  0.625000  0.125000  0.125000  1
