# generated using pymatgen
data_Ta8Hg(PbO5)5
_symmetry_space_group_name_H-M   'P 1'
_cell_length_a   7.54596294
_cell_length_b   7.53281110
_cell_length_c   10.62131945
_cell_angle_alpha   90.00653267
_cell_angle_beta   90.08331196
_cell_angle_gamma   90.02327369
_symmetry_Int_Tables_number   1
_chemical_formula_structural   Ta8Hg(PbO5)5
_chemical_formula_sum   'Ta8 Hg1 Pb5 O25'
_cell_volume   603.73967658
_cell_formula_units_Z   1
loop_
 _symmetry_equiv_pos_site_id
 _symmetry_equiv_pos_as_xyz
  1  'x, y, z'
loop_
 _atom_site_type_symbol
 _atom_site_label
 _atom_site_symmetry_multiplicity
 _atom_site_fract_x
 _atom_site_fract_y
 _atom_site_fract_z
 _atom_site_occupancy
  Ta  Ta0  1  0.747002  0.003944  0.124619  1
  Ta  Ta1  1  0.497918  0.256216  0.373634  1
  Ta  Ta2  1  0.246452  0.004563  0.124902  1
  Ta  Ta3  1  0.246610  0.505654  0.619552  1
  Ta  Ta4  1  0.996951  0.254959  0.871364  1
  Ta  Ta5  1  0.998366  0.754735  0.871819  1
  Ta  Ta6  1  0.753260  0.508564  0.617551  1
  Ta  Ta7  1  0.496082  0.759372  0.376073  1
  Hg  Hg8  1  0.061671  0.053311  0.441656  1
  Pb  Pb9  1  0.761080  0.020730  0.607097  1
  Pb  Pb10  1  0.744665  0.505342  0.130602  1
  Pb  Pb11  1  0.481017  0.255203  0.867842  1
  Pb  Pb12  1  0.487933  0.749708  0.863629  1
  Pb  Pb13  1  0.241418  0.511669  0.131503  1
  O  O14  1  0.320602  0.323431  0.499431  1
  O  O15  1  0.997899  0.005972  0.173835  1
  O  O16  1  0.993498  0.003463  0.816454  1
  O  O17  1  0.813282  0.309378  0.744082  1
  O  O18  1  0.804831  0.198804  0.997033  1
  O  O19  1  0.804662  0.809973  0.998001  1
  O  O20  1  0.684668  0.313767  0.502063  1
  O  O21  1  0.503033  0.506005  0.698077  1
  O  O22  1  0.495634  0.006153  0.055012  1
  O  O23  1  0.500630  0.505390  0.303093  1
  O  O24  1  0.489439  0.504899  0.000376  1
  O  O25  1  0.309108  0.188950  0.251440  1
  O  O26  1  0.312153  0.816398  0.247988  1
  O  O27  1  0.321687  0.688450  0.500588  1
  O  O28  1  0.194208  0.197912  0.997741  1
  O  O29  1  0.191601  0.321098  0.754971  1
  O  O30  1  0.192197  0.806426  0.000768  1
  O  O31  1  0.000931  0.505512  0.569028  1
  O  O32  1  0.994661  0.503454  0.941744  1
  O  O33  1  0.811332  0.692181  0.748955  1
  O  O34  1  0.680675  0.196703  0.243093  1
  O  O35  1  0.680804  0.815206  0.243542  1
  O  O36  1  0.686202  0.693503  0.499601  1
  O  O37  1  0.512565  0.006182  0.435703  1
  O  O38  1  0.191369  0.688727  0.755539  1
