# generated using pymatgen
data_Ta2Be8ReTc
_symmetry_space_group_name_H-M   'P 1'
_cell_length_a   4.46399400
_cell_length_b   4.46399482
_cell_length_c   7.39072800
_cell_angle_alpha   90.00000000
_cell_angle_beta   90.00000000
_cell_angle_gamma   120.00002356
_symmetry_Int_Tables_number   1
_chemical_formula_structural   Ta2Be8ReTc
_chemical_formula_sum   'Ta2 Be8 Re1 Tc1'
_cell_volume   127.54546815
_cell_formula_units_Z   1
loop_
 _symmetry_equiv_pos_site_id
 _symmetry_equiv_pos_as_xyz
  1  'x, y, z'
loop_
 _atom_site_type_symbol
 _atom_site_label
 _atom_site_symmetry_multiplicity
 _atom_site_fract_x
 _atom_site_fract_y
 _atom_site_fract_z
 _atom_site_occupancy
  Ta  Ta0  1  0.333333  0.666667  0.063085  1
  Ta  Ta1  1  0.666667  0.333333  0.564616  1
  Be  Be2  1  0.000000  0.000000  0.999567  1
  Be  Be3  1  0.000000  0.000000  0.499985  1
  Be  Be4  1  0.831147  0.662296  0.251036  1
  Be  Be5  1  0.168905  0.831095  0.750457  1
  Be  Be6  1  0.662191  0.831095  0.750457  1
  Be  Be7  1  0.337704  0.168853  0.251036  1
  Be  Be8  1  0.831147  0.168853  0.251036  1
  Be  Be9  1  0.168905  0.337809  0.750457  1
  Re  Re10  1  0.333333  0.666667  0.434466  1
  Tc  Tc11  1  0.666667  0.333333  0.933805  1
