# generated using pymatgen
data_Tb4Y7Ho5(CdPt)4
_symmetry_space_group_name_H-M   'P 1'
_cell_length_a   9.70792663
_cell_length_b   9.70792687
_cell_length_c   9.70783600
_cell_angle_alpha   60.00031646
_cell_angle_beta   60.00031565
_cell_angle_gamma   60.10042736
_symmetry_Int_Tables_number   1
_chemical_formula_structural   Tb4Y7Ho5(CdPt)4
_chemical_formula_sum   'Tb4 Y7 Ho5 Cd4 Pt4'
_cell_volume   647.42733177
_cell_formula_units_Z   1
loop_
 _symmetry_equiv_pos_site_id
 _symmetry_equiv_pos_as_xyz
  1  'x, y, z'
loop_
 _atom_site_type_symbol
 _atom_site_label
 _atom_site_symmetry_multiplicity
 _atom_site_fract_x
 _atom_site_fract_y
 _atom_site_fract_z
 _atom_site_occupancy
  Tb  Tb0  1  0.352628  0.352628  0.351456  1
  Tb  Tb1  1  0.352628  0.352628  0.943287  1
  Tb  Tb2  1  0.353691  0.940894  0.352707  1
  Tb  Tb3  1  0.940894  0.353691  0.352707  1
  Y  Y4  1  0.811399  0.811399  0.188601  1
  Y  Y5  1  0.936118  0.563674  0.564845  1
  Y  Y6  1  0.563674  0.936118  0.935363  1
  Y  Y7  1  0.563674  0.936118  0.564845  1
  Y  Y8  1  0.936118  0.563674  0.935363  1
  Y  Y9  1  0.564559  0.564559  0.935441  1
  Y  Y10  1  0.936301  0.936301  0.563699  1
  Ho  Ho11  1  0.811367  0.188926  0.189009  1
  Ho  Ho12  1  0.188926  0.811367  0.810698  1
  Ho  Ho13  1  0.188926  0.811367  0.189009  1
  Ho  Ho14  1  0.811367  0.188926  0.810698  1
  Ho  Ho15  1  0.189366  0.189366  0.810634  1
  Cd  Cd16  1  0.581631  0.581631  0.582262  1
  Cd  Cd17  1  0.581631  0.581631  0.254475  1
  Cd  Cd18  1  0.581500  0.253947  0.582277  1
  Cd  Cd19  1  0.253947  0.581500  0.582277  1
  Pt  Pt20  1  0.142571  0.142571  0.144172  1
  Pt  Pt21  1  0.142571  0.142571  0.570686  1
  Pt  Pt22  1  0.143708  0.570804  0.142744  1
  Pt  Pt23  1  0.570804  0.143708  0.142744  1
