# generated using pymatgen
data_Yb8Pr9Sm3Sn16
_symmetry_space_group_name_H-M   'P 1'
_cell_length_a   8.03279515
_cell_length_b   8.50580518
_cell_length_c   16.04431616
_cell_angle_alpha   90.00980898
_cell_angle_beta   89.98639241
_cell_angle_gamma   90.00276103
_symmetry_Int_Tables_number   1
_chemical_formula_structural   Yb8Pr9Sm3Sn16
_chemical_formula_sum   'Yb8 Pr9 Sm3 Sn16'
_cell_volume   1096.23412094
_cell_formula_units_Z   1
loop_
 _symmetry_equiv_pos_site_id
 _symmetry_equiv_pos_as_xyz
  1  'x, y, z'
loop_
 _atom_site_type_symbol
 _atom_site_label
 _atom_site_symmetry_multiplicity
 _atom_site_fract_x
 _atom_site_fract_y
 _atom_site_fract_z
 _atom_site_occupancy
  Yb  Yb0  1  0.172403  0.328788  0.124577  1
  Yb  Yb1  1  0.670435  0.171815  0.124428  1
  Yb  Yb2  1  0.171601  0.328481  0.376716  1
  Yb  Yb3  1  0.327007  0.829439  0.622748  1
  Yb  Yb4  1  0.157949  0.499429  0.748914  1
  Yb  Yb5  1  0.656619  0.999695  0.748271  1
  Yb  Yb6  1  0.844482  0.497478  0.249606  1
  Yb  Yb7  1  0.341601  0.003614  0.249809  1
  Pr  Pr8  1  0.829741  0.672954  0.876014  1
  Pr  Pr9  1  0.488845  0.314786  0.904505  1
  Pr  Pr10  1  0.990455  0.184552  0.595789  1
  Pr  Pr11  1  0.509575  0.685192  0.403678  1
  Pr  Pr12  1  0.012448  0.814494  0.097774  1
  Pr  Pr13  1  0.510546  0.684210  0.097220  1
  Pr  Pr14  1  0.011477  0.814993  0.403430  1
  Pr  Pr15  1  0.487620  0.316037  0.595086  1
  Pr  Pr16  1  0.989676  0.183577  0.903941  1
  Sm  Sm17  1  0.328548  0.827836  0.876241  1
  Sm  Sm18  1  0.829469  0.671026  0.623846  1
  Sm  Sm19  1  0.669650  0.172696  0.375393  1
  Sn  Sn20  1  0.330042  0.036180  0.039387  1
  Sn  Sn21  1  0.829428  0.463040  0.460704  1
  Sn  Sn22  1  0.670038  0.962829  0.538211  1
  Sn  Sn23  1  0.170695  0.534579  0.961587  1
  Sn  Sn24  1  0.667213  0.964886  0.961753  1
  Sn  Sn25  1  0.167407  0.535829  0.539280  1
  Sn  Sn26  1  0.331500  0.036430  0.460066  1
  Sn  Sn27  1  0.831566  0.462349  0.040513  1
  Sn  Sn28  1  0.525703  0.605594  0.748781  1
  Sn  Sn29  1  0.028938  0.894211  0.749169  1
  Sn  Sn30  1  0.472260  0.394990  0.251083  1
  Sn  Sn31  1  0.970633  0.105535  0.251003  1
  Sn  Sn32  1  0.287285  0.141179  0.749988  1
  Sn  Sn33  1  0.784789  0.359871  0.749475  1
  Sn  Sn34  1  0.715542  0.860647  0.250503  1
  Sn  Sn35  1  0.216811  0.640757  0.250511  1
