# generated using pymatgen
data_Ca4Yb4Zn3Si12Pd
_symmetry_space_group_name_H-M   'P 1'
_cell_length_a   8.20728500
_cell_length_b   8.15174851
_cell_length_c   8.63784806
_cell_angle_alpha   89.99789262
_cell_angle_beta   90.00000000
_cell_angle_gamma   120.22562777
_symmetry_Int_Tables_number   1
_chemical_formula_structural   Ca4Yb4Zn3Si12Pd
_chemical_formula_sum   'Ca4 Yb4 Zn3 Si12 Pd1'
_cell_volume   499.33795906
_cell_formula_units_Z   1
loop_
 _symmetry_equiv_pos_site_id
 _symmetry_equiv_pos_as_xyz
  1  'x, y, z'
loop_
 _atom_site_type_symbol
 _atom_site_label
 _atom_site_symmetry_multiplicity
 _atom_site_fract_x
 _atom_site_fract_y
 _atom_site_fract_z
 _atom_site_occupancy
  Ca  Ca0  1  0.501509  0.498296  0.745202  1
  Ca  Ca1  1  0.502314  0.497435  0.254716  1
  Ca  Ca2  1  0.996788  0.498296  0.745202  1
  Ca  Ca3  1  0.995121  0.497435  0.254716  1
  Yb  Yb4  1  0.502209  0.004416  0.744427  1
  Yb  Yb5  1  0.502868  0.005738  0.255507  1
  Yb  Yb6  1  0.000043  0.000086  0.748668  1
  Yb  Yb7  1  0.000051  0.000103  0.251528  1
  Zn  Zn8  1  0.665876  0.331752  0.997465  1
  Zn  Zn9  1  0.333919  0.667839  0.001866  1
  Zn  Zn10  1  0.334187  0.668374  0.498546  1
  Si  Si11  1  0.834451  0.165710  0.000826  1
  Si  Si12  1  0.165488  0.833620  0.999448  1
  Si  Si13  1  0.331260  0.165710  0.000826  1
  Si  Si14  1  0.162421  0.837129  0.500002  1
  Si  Si15  1  0.668134  0.833620  0.999448  1
  Si  Si16  1  0.833697  0.168084  0.500144  1
  Si  Si17  1  0.834899  0.669798  0.000834  1
  Si  Si18  1  0.674707  0.837129  0.500002  1
  Si  Si19  1  0.165061  0.330121  0.999427  1
  Si  Si20  1  0.334387  0.168084  0.500144  1
  Si  Si21  1  0.162151  0.324303  0.499947  1
  Si  Si22  1  0.833023  0.666046  0.500161  1
  Pd  Pd23  1  0.665437  0.330873  0.500945  1
