# generated using pymatgen
data_Li2Sm3MgSi2Ag
_symmetry_space_group_name_H-M   'P 1'
_cell_length_a   7.37724100
_cell_length_b   7.30472574
_cell_length_c   4.29398000
_cell_angle_alpha   90.00000000
_cell_angle_beta   90.00000000
_cell_angle_gamma   120.32893056
_symmetry_Int_Tables_number   1
_chemical_formula_structural   Li2Sm3MgSi2Ag
_chemical_formula_sum   'Li2 Sm3 Mg1 Si2 Ag1'
_cell_volume   199.72824814
_cell_formula_units_Z   1
loop_
 _symmetry_equiv_pos_site_id
 _symmetry_equiv_pos_as_xyz
  1  'x, y, z'
loop_
 _atom_site_type_symbol
 _atom_site_label
 _atom_site_symmetry_multiplicity
 _atom_site_fract_x
 _atom_site_fract_y
 _atom_site_fract_z
 _atom_site_occupancy
  Li  Li0  1  0.000367  0.751312  0.000000  1
  Li  Li1  1  0.249056  0.248688  0.000000  1
  Sm  Sm2  1  0.002533  0.428041  0.500000  1
  Sm  Sm3  1  0.574492  0.571959  0.500000  1
  Sm  Sm4  1  0.418448  0.000000  0.500000  1
  Mg  Mg5  1  0.755473  0.000000  0.000000  1
  Si  Si6  1  0.332178  0.665691  0.000000  1
  Si  Si7  1  0.666488  0.334309  0.000000  1
  Ag  Ag8  1  0.000965  0.000000  0.500000  1
