# generated using pymatgen
data_Th4Mg2Ga3Ge
_symmetry_space_group_name_H-M   'P 1'
_cell_length_a   7.52354441
_cell_length_b   7.52354441
_cell_length_c   4.42418800
_cell_angle_alpha   90.00000000
_cell_angle_beta   90.00000000
_cell_angle_gamma   90.38019843
_symmetry_Int_Tables_number   1
_chemical_formula_structural   Th4Mg2Ga3Ge
_chemical_formula_sum   'Th4 Mg2 Ga3 Ge1'
_cell_volume   250.41998752
_cell_formula_units_Z   1
loop_
 _symmetry_equiv_pos_site_id
 _symmetry_equiv_pos_as_xyz
  1  'x, y, z'
loop_
 _atom_site_type_symbol
 _atom_site_label
 _atom_site_symmetry_multiplicity
 _atom_site_fract_x
 _atom_site_fract_y
 _atom_site_fract_z
 _atom_site_occupancy
  Th  Th0  1  0.676073  0.176073  0.500000  1
  Th  Th1  1  0.176273  0.324162  0.500000  1
  Th  Th2  1  0.824162  0.676273  0.500000  1
  Th  Th3  1  0.324071  0.824071  0.500000  1
  Mg  Mg4  1  0.000251  0.998263  0.000000  1
  Mg  Mg5  1  0.498263  0.500251  0.000000  1
  Ga  Ga6  1  0.377158  0.122967  0.000000  1
  Ga  Ga7  1  0.622967  0.877158  0.000000  1
  Ga  Ga8  1  0.123357  0.623357  0.000000  1
  Ge  Ge9  1  0.877426  0.377426  0.000000  1
