# generated using pymatgen
data_TbTm3MnCo8P12Ir11
_symmetry_space_group_name_H-M   'P 1'
_cell_length_a   3.84064300
_cell_length_b   10.55846449
_cell_length_c   12.20085601
_cell_angle_alpha   90.12805599
_cell_angle_beta   90.00000000
_cell_angle_gamma   90.00000000
_symmetry_Int_Tables_number   1
_chemical_formula_structural   TbTm3MnCo8P12Ir11
_chemical_formula_sum   'Tb1 Tm3 Mn1 Co8 P12 Ir11'
_cell_volume   494.75924813
_cell_formula_units_Z   1
loop_
 _symmetry_equiv_pos_site_id
 _symmetry_equiv_pos_as_xyz
  1  'x, y, z'
loop_
 _atom_site_type_symbol
 _atom_site_label
 _atom_site_symmetry_multiplicity
 _atom_site_fract_x
 _atom_site_fract_y
 _atom_site_fract_z
 _atom_site_occupancy
  Tb  Tb0  1  0.250000  0.583681  0.711952  1
  Tm  Tm1  1  0.250000  0.914708  0.210048  1
  Tm  Tm2  1  0.750000  0.417174  0.289005  1
  Tm  Tm3  1  0.750000  0.081311  0.791094  1
  Mn  Mn4  1  0.250000  0.715445  0.984408  1
  Co  Co5  1  0.250000  0.886619  0.696990  1
  Co  Co6  1  0.250000  0.620936  0.194842  1
  Co  Co7  1  0.750000  0.115690  0.301228  1
  Co  Co8  1  0.750000  0.383073  0.805423  1
  Co  Co9  1  0.250000  0.463857  0.936082  1
  Co  Co10  1  0.250000  0.036290  0.432672  1
  Co  Co11  1  0.750000  0.534961  0.066741  1
  Co  Co12  1  0.750000  0.964898  0.565684  1
  P  P13  1  0.250000  0.433462  0.113374  1
  P  P14  1  0.250000  0.068258  0.611082  1
  P  P15  1  0.750000  0.571029  0.891516  1
  P  P16  1  0.750000  0.933054  0.387639  1
  P  P17  1  0.250000  0.273402  0.869483  1
  P  P18  1  0.250000  0.226427  0.370182  1
  P  P19  1  0.750000  0.726246  0.129693  1
  P  P20  1  0.750000  0.775388  0.629448  1
  P  P21  1  0.250000  0.597928  0.375371  1
  P  P22  1  0.250000  0.897201  0.881204  1
  P  P23  1  0.750000  0.401698  0.624147  1
  P  P24  1  0.750000  0.096090  0.121130  1
  Ir  Ir25  1  0.250000  0.776568  0.491969  1
  Ir  Ir26  1  0.750000  0.280460  0.012349  1
  Ir  Ir27  1  0.750000  0.224128  0.507422  1
  Ir  Ir28  1  0.250000  0.411384  0.475017  1
  Ir  Ir29  1  0.250000  0.091076  0.975435  1
  Ir  Ir30  1  0.750000  0.588931  0.523413  1
  Ir  Ir31  1  0.750000  0.905819  0.023186  1
  Ir  Ir32  1  0.250000  0.228666  0.180083  1
  Ir  Ir33  1  0.250000  0.272229  0.678471  1
  Ir  Ir34  1  0.750000  0.773849  0.819940  1
  Ir  Ir35  1  0.750000  0.728064  0.322277  1
