# generated using pymatgen
data_Sr6IrPd2RhO12
_symmetry_space_group_name_H-M   'P 1'
_cell_length_a   6.86879749
_cell_length_b   6.88678264
_cell_length_c   6.82220887
_cell_angle_alpha   90.40026753
_cell_angle_beta   89.72647651
_cell_angle_gamma   91.50571677
_symmetry_Int_Tables_number   1
_chemical_formula_structural   Sr6IrPd2RhO12
_chemical_formula_sum   'Sr6 Ir1 Pd2 Rh1 O12'
_cell_volume   322.59448542
_cell_formula_units_Z   1
loop_
 _symmetry_equiv_pos_site_id
 _symmetry_equiv_pos_as_xyz
  1  'x, y, z'
loop_
 _atom_site_type_symbol
 _atom_site_label
 _atom_site_symmetry_multiplicity
 _atom_site_fract_x
 _atom_site_fract_y
 _atom_site_fract_z
 _atom_site_occupancy
  Sr  Sr0  1  0.093537  0.901458  0.739577  1
  Sr  Sr1  1  0.906463  0.098542  0.260423  1
  Sr  Sr2  1  0.390851  0.247561  0.379411  1
  Sr  Sr3  1  0.764587  0.605112  0.128865  1
  Sr  Sr4  1  0.609149  0.752439  0.620589  1
  Sr  Sr5  1  0.235413  0.394888  0.871135  1
  Ir  Ir6  1  0.500000  0.000000  0.000000  1
  Pd  Pd7  1  0.684409  0.318784  0.749491  1
  Pd  Pd8  1  0.315591  0.681216  0.250509  1
  Rh  Rh9  1  0.000000  0.500000  0.500000  1
  O  O10  1  0.386277  0.725015  0.957722  1
  O  O11  1  0.278753  0.612416  0.543382  1
  O  O12  1  0.613723  0.274985  0.042278  1
  O  O13  1  0.721247  0.387584  0.456618  1
  O  O14  1  0.769309  0.916806  0.939940  1
  O  O15  1  0.084734  0.218842  0.568205  1
  O  O16  1  0.230691  0.083194  0.060060  1
  O  O17  1  0.915266  0.781158  0.431795  1
  O  O18  1  0.526294  0.900752  0.280230  1
  O  O19  1  0.104873  0.463856  0.216998  1
  O  O20  1  0.895127  0.536144  0.783002  1
  O  O21  1  0.473706  0.099248  0.719770  1
