# generated using pymatgen
data_Pu2NiB10
_symmetry_space_group_name_H-M   'P 1'
_cell_length_a   4.13565200
_cell_length_b   5.56739400
_cell_length_c   11.06180100
_cell_angle_alpha   90.00000000
_cell_angle_beta   90.00000000
_cell_angle_gamma   90.00000000
_symmetry_Int_Tables_number   1
_chemical_formula_structural   Pu2NiB10
_chemical_formula_sum   'Pu4 Ni2 B20'
_cell_volume   254.69580136
_cell_formula_units_Z   2
loop_
 _symmetry_equiv_pos_site_id
 _symmetry_equiv_pos_as_xyz
  1  'x, y, z'
loop_
 _atom_site_type_symbol
 _atom_site_label
 _atom_site_symmetry_multiplicity
 _atom_site_fract_x
 _atom_site_fract_y
 _atom_site_fract_z
 _atom_site_occupancy
  Pu  Pu0  1  0.500000  0.315474  0.860999  1
  Pu  Pu1  1  0.500000  0.684526  0.139001  1
  Pu  Pu2  1  0.500000  0.815474  0.639001  1
  Pu  Pu3  1  0.500000  0.184526  0.360999  1
  Ni  Ni4  1  0.000000  0.500000  0.500000  1
  Ni  Ni5  1  0.000000  0.000000  0.000000  1
  B  B6  1  0.000000  0.126129  0.539955  1
  B  B7  1  0.000000  0.873871  0.460045  1
  B  B8  1  0.000000  0.626129  0.960045  1
  B  B9  1  0.000000  0.373871  0.039955  1
  B  B10  1  0.000000  0.157369  0.697933  1
  B  B11  1  0.000000  0.842631  0.302067  1
  B  B12  1  0.301836  0.201215  0.113636  1
  B  B13  1  0.301836  0.798785  0.886364  1
  B  B14  1  0.698164  0.701215  0.386364  1
  B  B15  1  0.698164  0.298785  0.613636  1
  B  B16  1  0.698164  0.798785  0.886364  1
  B  B17  1  0.698164  0.201215  0.113636  1
  B  B18  1  0.301836  0.298785  0.613636  1
  B  B19  1  0.301836  0.701215  0.386364  1
  B  B20  1  0.000000  0.030630  0.187221  1
  B  B21  1  0.000000  0.969370  0.812779  1
  B  B22  1  0.000000  0.530630  0.312779  1
  B  B23  1  0.000000  0.469370  0.687221  1
  B  B24  1  0.000000  0.342631  0.197933  1
  B  B25  1  0.000000  0.657369  0.802067  1
