# generated using pymatgen
data_Lu12Co4Ni2Ir
_symmetry_space_group_name_H-M   'P 1'
_cell_length_a   11.09982700
_cell_length_b   8.11853892
_cell_length_c   10.87913900
_cell_angle_alpha   54.63964179
_cell_angle_beta   90.00000000
_cell_angle_gamma   90.00000000
_symmetry_Int_Tables_number   1
_chemical_formula_structural   Lu12Co4Ni2Ir
_chemical_formula_sum   'Lu24 Co8 Ni4 Ir2'
_cell_volume   799.51699270
_cell_formula_units_Z   2
loop_
 _symmetry_equiv_pos_site_id
 _symmetry_equiv_pos_as_xyz
  1  'x, y, z'
loop_
 _atom_site_type_symbol
 _atom_site_label
 _atom_site_symmetry_multiplicity
 _atom_site_fract_x
 _atom_site_fract_y
 _atom_site_fract_z
 _atom_site_occupancy
  Lu  Lu0  1  0.706511  0.239139  0.538589  1
  Lu  Lu1  1  0.206511  0.760861  0.961411  1
  Lu  Lu2  1  0.842115  0.498187  0.661231  1
  Lu  Lu3  1  0.342115  0.501813  0.838769  1
  Lu  Lu4  1  0.157885  0.501813  0.338769  1
  Lu  Lu5  1  0.657885  0.498187  0.161231  1
  Lu  Lu6  1  0.003128  0.838839  0.355619  1
  Lu  Lu7  1  0.503128  0.161161  0.144381  1
  Lu  Lu8  1  0.996872  0.161161  0.644381  1
  Lu  Lu9  1  0.496872  0.838839  0.855619  1
  Lu  Lu10  1  0.793489  0.239139  0.038589  1
  Lu  Lu11  1  0.293489  0.760861  0.461411  1
  Lu  Lu12  1  0.931250  0.770234  0.086355  1
  Lu  Lu13  1  0.431250  0.229766  0.413645  1
  Lu  Lu14  1  0.068750  0.229766  0.913645  1
  Lu  Lu15  1  0.568750  0.770234  0.586355  1
  Lu  Lu16  1  0.300371  0.245900  0.674926  1
  Lu  Lu17  1  0.800371  0.754100  0.825074  1
  Lu  Lu18  1  0.699629  0.754100  0.325074  1
  Lu  Lu19  1  0.199629  0.245900  0.174926  1
  Lu  Lu20  1  0.928094  0.266078  0.307418  1
  Lu  Lu21  1  0.428094  0.733922  0.192582  1
  Lu  Lu22  1  0.071906  0.733922  0.692582  1
  Lu  Lu23  1  0.571906  0.266078  0.807418  1
  Co  Co24  1  0.399412  0.491653  0.101730  1
  Co  Co25  1  0.899412  0.508347  0.398270  1
  Co  Co26  1  0.600588  0.508347  0.898270  1
  Co  Co27  1  0.100588  0.491653  0.601730  1
  Co  Co28  1  0.819868  0.101229  0.842943  1
  Co  Co29  1  0.319868  0.898771  0.657057  1
  Co  Co30  1  0.180132  0.898771  0.157057  1
  Co  Co31  1  0.680132  0.101229  0.342943  1
  Ni  Ni32  1  0.673952  0.905831  0.029665  1
  Ni  Ni33  1  0.173952  0.094169  0.470335  1
  Ni  Ni34  1  0.326048  0.094169  0.970335  1
  Ni  Ni35  1  0.826048  0.905831  0.529665  1
  Ir  Ir36  1  0.500000  0.500000  0.500000  1
  Ir  Ir37  1  0.000000  0.500000  0.000000  1
