# generated using pymatgen
data_Ac7P4S3
_symmetry_space_group_name_H-M   'P 1'
_cell_length_a   7.60868233
_cell_length_b   9.84741459
_cell_length_c   11.61927454
_cell_angle_alpha   53.65120033
_cell_angle_beta   40.22707340
_cell_angle_gamma   49.68416055
_symmetry_Int_Tables_number   1
_chemical_formula_structural   Ac7P4S3
_chemical_formula_sum   'Ac7 P4 S3'
_cell_volume   419.99832573
_cell_formula_units_Z   1
loop_
 _symmetry_equiv_pos_site_id
 _symmetry_equiv_pos_as_xyz
  1  'x, y, z'
loop_
 _atom_site_type_symbol
 _atom_site_label
 _atom_site_symmetry_multiplicity
 _atom_site_fract_x
 _atom_site_fract_y
 _atom_site_fract_z
 _atom_site_occupancy
  Ac  Ac0  1  0.857695  0.414650  0.581352  1
  Ac  Ac1  1  0.427301  0.118871  0.160253  1
  Ac  Ac2  1  0.153345  0.266741  0.864896  1
  Ac  Ac3  1  0.570154  0.556057  0.301464  1
  Ac  Ac4  1  0.000461  0.841114  0.723372  1
  Ac  Ac5  1  0.290229  0.698497  0.012982  1
  Ac  Ac6  1  0.726556  0.977731  0.438846  1
  P  P7  1  0.361361  0.911628  0.081905  1
  P  P8  1  0.648818  0.767374  0.368502  1
  P  P9  1  0.929441  0.622647  0.656989  1
  P  P10  1  0.789128  0.197691  0.511713  1
  S  S11  1  0.220166  0.480534  0.940460  1
  S  S12  1  0.073230  0.054157  0.798593  1
  S  S13  1  0.503267  0.339365  0.225223  1
