# generated using pymatgen
data_Ba5TaNbI2O9
_symmetry_space_group_name_H-M   'P 1'
_cell_length_a   6.07894600
_cell_length_b   6.07894492
_cell_length_c   26.98436100
_cell_angle_alpha   90.00000000
_cell_angle_beta   90.00000000
_cell_angle_gamma   119.99999497
_symmetry_Int_Tables_number   1
_chemical_formula_structural   Ba5TaNbI2O9
_chemical_formula_sum   'Ba10 Ta2 Nb2 I4 O18'
_cell_volume   863.57345879
_cell_formula_units_Z   2
loop_
 _symmetry_equiv_pos_site_id
 _symmetry_equiv_pos_as_xyz
  1  'x, y, z'
loop_
 _atom_site_type_symbol
 _atom_site_label
 _atom_site_symmetry_multiplicity
 _atom_site_fract_x
 _atom_site_fract_y
 _atom_site_fract_z
 _atom_site_occupancy
  Ba  Ba0  1  0.333333  0.666667  0.906190  1
  Ba  Ba1  1  0.666667  0.333333  0.406190  1
  Ba  Ba2  1  0.666667  0.333333  0.092777  1
  Ba  Ba3  1  0.333333  0.666667  0.179208  1
  Ba  Ba4  1  0.666667  0.333333  0.679208  1
  Ba  Ba5  1  0.333333  0.666667  0.321821  1
  Ba  Ba6  1  0.666667  0.333333  0.821821  1
  Ba  Ba7  1  0.666667  0.333333  0.250726  1
  Ba  Ba8  1  0.333333  0.666667  0.592777  1
  Ba  Ba9  1  0.333333  0.666667  0.750726  1
  Ta  Ta10  1  0.000000  0.000000  0.805933  1
  Ta  Ta11  1  0.000000  0.000000  0.305933  1
  Nb  Nb12  1  0.000000  0.000000  0.692751  1
  Nb  Nb13  1  0.000000  0.000000  0.192751  1
  I  I14  1  0.333333  0.666667  0.452658  1
  I  I15  1  0.333333  0.666667  0.047812  1
  I  I16  1  0.666667  0.333333  0.547812  1
  I  I17  1  0.666667  0.333333  0.952658  1
  O  O18  1  0.162713  0.837287  0.661695  1
  O  O19  1  0.676977  0.838488  0.838084  1
  O  O20  1  0.162713  0.325424  0.661695  1
  O  O21  1  0.851624  0.148376  0.750262  1
  O  O22  1  0.296753  0.148376  0.750262  1
  O  O23  1  0.148376  0.296753  0.250262  1
  O  O24  1  0.148376  0.851624  0.250262  1
  O  O25  1  0.703247  0.851624  0.250262  1
  O  O26  1  0.838488  0.161512  0.338084  1
  O  O27  1  0.325424  0.162713  0.161695  1
  O  O28  1  0.851624  0.703247  0.750262  1
  O  O29  1  0.837287  0.674576  0.161695  1
  O  O30  1  0.323023  0.161512  0.338084  1
  O  O31  1  0.837287  0.162713  0.161695  1
  O  O32  1  0.161512  0.323023  0.838084  1
  O  O33  1  0.838488  0.676977  0.338084  1
  O  O34  1  0.674576  0.837287  0.661695  1
  O  O35  1  0.161512  0.838488  0.838084  1
