# generated using pymatgen
data_Sr3LuTlPb11
_symmetry_space_group_name_H-M   'P 1'
_cell_length_a   10.02377800
_cell_length_b   7.03503167
_cell_length_c   7.02526900
_cell_angle_alpha   88.43217119
_cell_angle_beta   90.00000000
_cell_angle_gamma   90.00000000
_symmetry_Int_Tables_number   1
_chemical_formula_structural   Sr3LuTlPb11
_chemical_formula_sum   'Sr3 Lu1 Tl1 Pb11'
_cell_volume   495.21961656
_cell_formula_units_Z   1
loop_
 _symmetry_equiv_pos_site_id
 _symmetry_equiv_pos_as_xyz
  1  'x, y, z'
loop_
 _atom_site_type_symbol
 _atom_site_label
 _atom_site_symmetry_multiplicity
 _atom_site_fract_x
 _atom_site_fract_y
 _atom_site_fract_z
 _atom_site_occupancy
  Sr  Sr0  1  0.250000  0.500783  0.505989  1
  Sr  Sr1  1  0.750000  0.998886  0.002491  1
  Sr  Sr2  1  0.750000  0.509383  0.499831  1
  Lu  Lu3  1  0.250000  0.009084  0.004782  1
  Tl  Tl4  1  0.750000  0.495312  0.997678  1
  Pb  Pb5  1  0.005247  0.232005  0.744068  1
  Pb  Pb6  1  0.494409  0.247407  0.245441  1
  Pb  Pb7  1  0.494112  0.752729  0.239079  1
  Pb  Pb8  1  0.005107  0.753041  0.761047  1
  Pb  Pb9  1  0.005888  0.752729  0.239079  1
  Pb  Pb10  1  0.494893  0.753041  0.761047  1
  Pb  Pb11  1  0.494753  0.232005  0.744068  1
  Pb  Pb12  1  0.005591  0.247407  0.245441  1
  Pb  Pb13  1  0.250000  0.997941  0.504270  1
  Pb  Pb14  1  0.250000  0.510643  0.004468  1
  Pb  Pb15  1  0.750000  0.007601  0.501219  1
