# generated using pymatgen
data_NdTmMgNi7B2
_symmetry_space_group_name_H-M   'P 1'
_cell_length_a   5.01587900
_cell_length_b   5.01587870
_cell_length_c   14.34713200
_cell_angle_alpha   90.00000000
_cell_angle_beta   90.00000000
_cell_angle_gamma   120.00000858
_symmetry_Int_Tables_number   1
_chemical_formula_structural   NdTmMgNi7B2
_chemical_formula_sum   'Nd2 Tm2 Mg2 Ni14 B4'
_cell_volume   312.60056936
_cell_formula_units_Z   2
loop_
 _symmetry_equiv_pos_site_id
 _symmetry_equiv_pos_as_xyz
  1  'x, y, z'
loop_
 _atom_site_type_symbol
 _atom_site_label
 _atom_site_symmetry_multiplicity
 _atom_site_fract_x
 _atom_site_fract_y
 _atom_site_fract_z
 _atom_site_occupancy
  Nd  Nd0  1  0.666667  0.333333  0.469801  1
  Nd  Nd1  1  0.333333  0.666667  0.969801  1
  Tm  Tm2  1  0.333333  0.666667  0.743728  1
  Tm  Tm3  1  0.666667  0.333333  0.243728  1
  Mg  Mg4  1  0.333333  0.666667  0.535396  1
  Mg  Mg5  1  0.666667  0.333333  0.035396  1
  Ni  Ni6  1  0.000000  0.000000  0.001480  1
  Ni  Ni7  1  0.000000  0.000000  0.501480  1
  Ni  Ni8  1  0.164879  0.329759  0.149210  1
  Ni  Ni9  1  0.835121  0.670241  0.649210  1
  Ni  Ni10  1  0.670241  0.835121  0.149210  1
  Ni  Ni11  1  0.164879  0.835121  0.149210  1
  Ni  Ni12  1  0.835121  0.164879  0.649210  1
  Ni  Ni13  1  0.329759  0.164879  0.649210  1
  Ni  Ni14  1  0.834007  0.668014  0.850053  1
  Ni  Ni15  1  0.834007  0.165993  0.850053  1
  Ni  Ni16  1  0.331986  0.165993  0.850053  1
  Ni  Ni17  1  0.668014  0.834007  0.350053  1
  Ni  Ni18  1  0.165993  0.834007  0.350053  1
  Ni  Ni19  1  0.165993  0.331986  0.350053  1
  B  B20  1  0.333333  0.666667  0.249568  1
  B  B21  1  0.666667  0.333333  0.749568  1
  B  B22  1  0.000000  0.000000  0.252240  1
  B  B23  1  0.000000  0.000000  0.752240  1
