# generated using pymatgen
data_BaZnCuF7
_symmetry_space_group_name_H-M   'P 1'
_cell_length_a   10.85736500
_cell_length_b   5.51661900
_cell_length_c   9.12007827
_cell_angle_alpha   85.26737579
_cell_angle_beta   90.00000000
_cell_angle_gamma   90.00000000
_symmetry_Int_Tables_number   1
_chemical_formula_structural   BaZnCuF7
_chemical_formula_sum   'Ba4 Zn4 Cu4 F28'
_cell_volume   544.39329530
_cell_formula_units_Z   4
loop_
 _symmetry_equiv_pos_site_id
 _symmetry_equiv_pos_as_xyz
  1  'x, y, z'
loop_
 _atom_site_type_symbol
 _atom_site_label
 _atom_site_symmetry_multiplicity
 _atom_site_fract_x
 _atom_site_fract_y
 _atom_site_fract_z
 _atom_site_occupancy
  Ba  Ba0  1  0.666951  0.228650  0.461816  1
  Ba  Ba1  1  0.166951  0.771350  0.038184  1
  Ba  Ba2  1  0.333049  0.771350  0.538184  1
  Ba  Ba3  1  0.833049  0.228650  0.961816  1
  Zn  Zn4  1  0.436580  0.182858  0.885317  1
  Zn  Zn5  1  0.936580  0.817142  0.614683  1
  Zn  Zn6  1  0.063420  0.182858  0.385317  1
  Zn  Zn7  1  0.563420  0.817142  0.114683  1
  Cu  Cu8  1  0.618691  0.690764  0.737345  1
  Cu  Cu9  1  0.381309  0.309236  0.262655  1
  Cu  Cu10  1  0.118691  0.309236  0.762655  1
  Cu  Cu11  1  0.881309  0.690764  0.237345  1
  F  F12  1  0.907362  0.712387  0.027238  1
  F  F13  1  0.407362  0.287613  0.472762  1
  F  F14  1  0.092638  0.287613  0.972762  1
  F  F15  1  0.592638  0.712387  0.527238  1
  F  F16  1  0.147574  0.342931  0.553961  1
  F  F17  1  0.647574  0.657069  0.946039  1
  F  F18  1  0.852426  0.657069  0.446039  1
  F  F19  1  0.352426  0.342931  0.053961  1
  F  F20  1  0.234106  0.108202  0.289508  1
  F  F21  1  0.734106  0.891798  0.210492  1
  F  F22  1  0.765894  0.891798  0.710492  1
  F  F23  1  0.265894  0.108202  0.789508  1
  F  F24  1  0.713957  0.406046  0.720608  1
  F  F25  1  0.213957  0.593954  0.779392  1
  F  F26  1  0.286043  0.593954  0.279392  1
  F  F27  1  0.786043  0.406046  0.220608  1
  F  F28  1  0.969959  0.506601  0.741980  1
  F  F29  1  0.469959  0.493399  0.758020  1
  F  F30  1  0.030041  0.493399  0.258020  1
  F  F31  1  0.530041  0.506601  0.241980  1
  F  F32  1  0.597821  0.141622  0.994769  1
  F  F33  1  0.097821  0.858378  0.505231  1
  F  F34  1  0.402179  0.858378  0.005231  1
  F  F35  1  0.902179  0.141622  0.494769  1
  F  F36  1  0.515124  0.982335  0.722724  1
  F  F37  1  0.015124  0.017665  0.777276  1
  F  F38  1  0.484876  0.017665  0.277276  1
  F  F39  1  0.984876  0.982335  0.222724  1
