# generated using pymatgen
data_Li2EuZnAs2
_symmetry_space_group_name_H-M   'P 1'
_cell_length_a   4.33680700
_cell_length_b   4.33680722
_cell_length_c   7.14207500
_cell_angle_alpha   90.00000000
_cell_angle_beta   90.00000000
_cell_angle_gamma   120.00000594
_symmetry_Int_Tables_number   1
_chemical_formula_structural   Li2EuZnAs2
_chemical_formula_sum   'Li2 Eu1 Zn1 As2'
_cell_volume   116.33093664
_cell_formula_units_Z   1
loop_
 _symmetry_equiv_pos_site_id
 _symmetry_equiv_pos_as_xyz
  1  'x, y, z'
loop_
 _atom_site_type_symbol
 _atom_site_label
 _atom_site_symmetry_multiplicity
 _atom_site_fract_x
 _atom_site_fract_y
 _atom_site_fract_z
 _atom_site_occupancy
  Li  Li0  1  0.000000  0.000000  0.520334  1
  Li  Li1  1  0.666667  0.333333  0.646341  1
  Eu  Eu2  1  0.000000  0.000000  0.991681  1
  Zn  Zn3  1  0.333333  0.666666  0.362982  1
  As  As4  1  0.666667  0.333333  0.254086  1
  As  As5  1  0.333333  0.666666  0.724576  1
