# generated using pymatgen
data_Zr10CuSn4GeSb2
_symmetry_space_group_name_H-M   'P 1'
_cell_length_a   8.69779438
_cell_length_b   8.69779507
_cell_length_c   5.87015264
_cell_angle_alpha   90.02673332
_cell_angle_beta   90.02673348
_cell_angle_gamma   120.03144999
_symmetry_Int_Tables_number   1
_chemical_formula_structural   Zr10CuSn4GeSb2
_chemical_formula_sum   'Zr10 Cu1 Sn4 Ge1 Sb2'
_cell_volume   384.46819962
_cell_formula_units_Z   1
loop_
 _symmetry_equiv_pos_site_id
 _symmetry_equiv_pos_as_xyz
  1  'x, y, z'
loop_
 _atom_site_type_symbol
 _atom_site_label
 _atom_site_symmetry_multiplicity
 _atom_site_fract_x
 _atom_site_fract_y
 _atom_site_fract_z
 _atom_site_occupancy
  Zr  Zr0  1  0.666874  0.332357  0.999235  1
  Zr  Zr1  1  0.332357  0.666874  0.999235  1
  Zr  Zr2  1  0.332635  0.666938  0.500808  1
  Zr  Zr3  1  0.666938  0.332635  0.500808  1
  Zr  Zr4  1  0.735435  0.735435  0.749444  1
  Zr  Zr5  1  0.265402  0.000408  0.750565  1
  Zr  Zr6  1  0.000408  0.265402  0.750565  1
  Zr  Zr7  1  0.262223  0.262223  0.249920  1
  Zr  Zr8  1  0.736879  0.000570  0.250335  1
  Zr  Zr9  1  0.000570  0.736879  0.250335  1
  Cu  Cu10  1  0.998661  0.998661  0.996030  1
  Sn  Sn11  1  0.388935  0.388935  0.752540  1
  Sn  Sn12  1  0.612903  0.999320  0.751836  1
  Sn  Sn13  1  0.999320  0.612903  0.751836  1
  Sn  Sn14  1  0.610941  0.610941  0.248153  1
  Ge  Ge15  1  0.999628  0.999628  0.502768  1
  Sb  Sb16  1  0.389753  0.000140  0.247794  1
  Sb  Sb17  1  0.000140  0.389753  0.247794  1
