# generated using pymatgen
data_Tm12TcOs2Pt
_symmetry_space_group_name_H-M   'P 1'
_cell_length_a   6.26294926
_cell_length_b   7.30623412
_cell_length_c   8.94899300
_cell_angle_alpha   90.00000000
_cell_angle_beta   90.00000000
_cell_angle_gamma   89.70973369
_symmetry_Int_Tables_number   1
_chemical_formula_structural   Tm12TcOs2Pt
_chemical_formula_sum   'Tm12 Tc1 Os2 Pt1'
_cell_volume   409.48789950
_cell_formula_units_Z   1
loop_
 _symmetry_equiv_pos_site_id
 _symmetry_equiv_pos_as_xyz
  1  'x, y, z'
loop_
 _atom_site_type_symbol
 _atom_site_label
 _atom_site_symmetry_multiplicity
 _atom_site_fract_x
 _atom_site_fract_y
 _atom_site_fract_z
 _atom_site_occupancy
  Tm  Tm0  1  0.328594  0.676642  0.066327  1
  Tm  Tm1  1  0.166732  0.177188  0.437284  1
  Tm  Tm2  1  0.667606  0.317996  0.558806  1
  Tm  Tm3  1  0.837003  0.827629  0.940840  1
  Tm  Tm4  1  0.667606  0.317996  0.941194  1
  Tm  Tm5  1  0.837003  0.827629  0.559160  1
  Tm  Tm6  1  0.328594  0.676642  0.433673  1
  Tm  Tm7  1  0.166732  0.177188  0.062716  1
  Tm  Tm8  1  0.873009  0.540492  0.250000  1
  Tm  Tm9  1  0.624502  0.036528  0.250000  1
  Tm  Tm10  1  0.125307  0.458177  0.750000  1
  Tm  Tm11  1  0.373274  0.966438  0.750000  1
  Tc  Tc12  1  0.465274  0.385372  0.250000  1
  Os  Os13  1  0.035680  0.884623  0.250000  1
  Os  Os14  1  0.959404  0.115004  0.750000  1
  Pt  Pt15  1  0.543678  0.614459  0.750000  1
