# generated using pymatgen
data_Yb6Tc2N7
_symmetry_space_group_name_H-M   'P 1'
_cell_length_a   6.05148840
_cell_length_b   6.05148885
_cell_length_c   6.05148900
_cell_angle_alpha   94.86926373
_cell_angle_beta   94.86927920
_cell_angle_gamma   94.86929186
_symmetry_Int_Tables_number   1
_chemical_formula_structural   Yb6Tc2N7
_chemical_formula_sum   'Yb6 Tc2 N7'
_cell_volume   219.06343448
_cell_formula_units_Z   1
loop_
 _symmetry_equiv_pos_site_id
 _symmetry_equiv_pos_as_xyz
  1  'x, y, z'
loop_
 _atom_site_type_symbol
 _atom_site_label
 _atom_site_symmetry_multiplicity
 _atom_site_fract_x
 _atom_site_fract_y
 _atom_site_fract_z
 _atom_site_occupancy
  Yb  Yb0  1  0.664100  0.109671  0.805443  1
  Yb  Yb1  1  0.109671  0.805443  0.664100  1
  Yb  Yb2  1  0.805443  0.664100  0.109671  1
  Yb  Yb3  1  0.335900  0.890329  0.194557  1
  Yb  Yb4  1  0.890329  0.194557  0.335900  1
  Yb  Yb5  1  0.194557  0.335900  0.890329  1
  Tc  Tc6  1  0.624532  0.624532  0.624532  1
  Tc  Tc7  1  0.375468  0.375468  0.375468  1
  N  N8  1  0.000000  0.000000  0.000000  1
  N  N9  1  0.729880  0.855687  0.464818  1
  N  N10  1  0.855687  0.464818  0.729880  1
  N  N11  1  0.464818  0.729880  0.855687  1
  N  N12  1  0.270120  0.144313  0.535182  1
  N  N13  1  0.144313  0.535182  0.270120  1
  N  N14  1  0.535182  0.270120  0.144313  1
