# generated using pymatgen
data_Mn4AlCdPd10
_symmetry_space_group_name_H-M   'P 1'
_cell_length_a   4.08912500
_cell_length_b   5.51732853
_cell_length_c   10.91113268
_cell_angle_alpha   87.79885910
_cell_angle_beta   90.00000000
_cell_angle_gamma   90.00000000
_symmetry_Int_Tables_number   1
_chemical_formula_structural   Mn4AlCdPd10
_chemical_formula_sum   'Mn4 Al1 Cd1 Pd10'
_cell_volume   245.98493299
_cell_formula_units_Z   1
loop_
 _symmetry_equiv_pos_site_id
 _symmetry_equiv_pos_as_xyz
  1  'x, y, z'
loop_
 _atom_site_type_symbol
 _atom_site_label
 _atom_site_symmetry_multiplicity
 _atom_site_fract_x
 _atom_site_fract_y
 _atom_site_fract_z
 _atom_site_occupancy
  Mn  Mn0  1  0.500000  0.185085  0.366252  1
  Mn  Mn1  1  0.500000  0.814915  0.633748  1
  Mn  Mn2  1  0.500000  0.695660  0.138242  1
  Mn  Mn3  1  0.500000  0.304340  0.861758  1
  Al  Al4  1  0.000000  0.500000  0.500000  1
  Cd  Cd5  1  0.000000  0.000000  0.000000  1
  Pd  Pd6  1  0.500000  0.213684  0.124010  1
  Pd  Pd7  1  0.500000  0.786316  0.875990  1
  Pd  Pd8  1  0.500000  0.688705  0.393473  1
  Pd  Pd9  1  0.500000  0.311295  0.606527  1
  Pd  Pd10  1  0.000000  0.000000  0.500000  1
  Pd  Pd11  1  0.000000  0.500000  0.000000  1
  Pd  Pd12  1  0.000000  0.933051  0.251347  1
  Pd  Pd13  1  0.000000  0.066949  0.748653  1
  Pd  Pd14  1  0.000000  0.434416  0.262498  1
  Pd  Pd15  1  0.000000  0.565584  0.737502  1
