# generated using pymatgen
data_Tb2Lu(AgGe)3
_symmetry_space_group_name_H-M   'P 1'
_cell_length_a   7.19068195
_cell_length_b   7.19068189
_cell_length_c   4.19252300
_cell_angle_alpha   90.00000000
_cell_angle_beta   90.00000000
_cell_angle_gamma   119.71682564
_symmetry_Int_Tables_number   1
_chemical_formula_structural   Tb2Lu(AgGe)3
_chemical_formula_sum   'Tb2 Lu1 Ag3 Ge3'
_cell_volume   188.26882933
_cell_formula_units_Z   1
loop_
 _symmetry_equiv_pos_site_id
 _symmetry_equiv_pos_as_xyz
  1  'x, y, z'
loop_
 _atom_site_type_symbol
 _atom_site_label
 _atom_site_symmetry_multiplicity
 _atom_site_fract_x
 _atom_site_fract_y
 _atom_site_fract_z
 _atom_site_occupancy
  Tb  Tb0  1  0.584915  0.999375  0.000000  1
  Tb  Tb1  1  0.999375  0.584915  0.000000  1
  Lu  Lu2  1  0.413741  0.413741  0.000000  1
  Ag  Ag3  1  0.253231  0.001150  0.500000  1
  Ag  Ag4  1  0.001150  0.253231  0.500000  1
  Ag  Ag5  1  0.745729  0.745729  0.500000  1
  Ge  Ge6  1  0.334686  0.664230  0.500000  1
  Ge  Ge7  1  0.664230  0.334686  0.500000  1
  Ge  Ge8  1  0.002943  0.002943  0.000000  1
