# generated using pymatgen
data_Er12Si12OsRh3
_symmetry_space_group_name_H-M   'P 1'
_cell_length_a   4.19308500
_cell_length_b   10.61792230
_cell_length_c   12.22759906
_cell_angle_alpha   90.06607387
_cell_angle_beta   90.00000000
_cell_angle_gamma   90.00000000
_symmetry_Int_Tables_number   1
_chemical_formula_structural   Er12Si12OsRh3
_chemical_formula_sum   'Er12 Si12 Os1 Rh3'
_cell_volume   544.39497813
_cell_formula_units_Z   1
loop_
 _symmetry_equiv_pos_site_id
 _symmetry_equiv_pos_as_xyz
  1  'x, y, z'
loop_
 _atom_site_type_symbol
 _atom_site_label
 _atom_site_symmetry_multiplicity
 _atom_site_fract_x
 _atom_site_fract_y
 _atom_site_fract_z
 _atom_site_occupancy
  Er  Er0  1  0.250000  0.878280  0.019845  1
  Er  Er1  1  0.250000  0.619852  0.520884  1
  Er  Er2  1  0.750000  0.120816  0.979872  1
  Er  Er3  1  0.750000  0.378861  0.480749  1
  Er  Er4  1  0.250000  0.920703  0.603827  1
  Er  Er5  1  0.250000  0.579683  0.104640  1
  Er  Er6  1  0.750000  0.079824  0.396172  1
  Er  Er7  1  0.750000  0.420626  0.895558  1
  Er  Er8  1  0.250000  0.661403  0.799385  1
  Er  Er9  1  0.250000  0.839556  0.300439  1
  Er  Er10  1  0.750000  0.339596  0.198961  1
  Er  Er11  1  0.750000  0.159110  0.699657  1
  Si  Si12  1  0.250000  0.014050  0.822996  1
  Si  Si13  1  0.250000  0.485862  0.322225  1
  Si  Si14  1  0.750000  0.986017  0.177308  1
  Si  Si15  1  0.750000  0.510459  0.679240  1
  Si  Si16  1  0.250000  0.249025  0.839637  1
  Si  Si17  1  0.250000  0.252061  0.341754  1
  Si  Si18  1  0.750000  0.751957  0.158370  1
  Si  Si19  1  0.750000  0.748956  0.657665  1
  Si  Si20  1  0.250000  0.202110  0.544651  1
  Si  Si21  1  0.250000  0.301605  0.041161  1
  Si  Si22  1  0.750000  0.801704  0.457826  1
  Si  Si23  1  0.750000  0.696960  0.957460  1
  Os  Os24  1  0.250000  0.391600  0.679743  1
  Rh  Rh25  1  0.250000  0.109687  0.181177  1
  Rh  Rh26  1  0.750000  0.609777  0.319678  1
  Rh  Rh27  1  0.750000  0.889860  0.819119  1
