# generated using pymatgen
data_Y8Re2B24IrRh
_symmetry_space_group_name_H-M   'P 1'
_cell_length_a   3.68285400
_cell_length_b   9.18210790
_cell_length_c   11.57476980
_cell_angle_alpha   89.62567524
_cell_angle_beta   90.00000000
_cell_angle_gamma   90.00000000
_symmetry_Int_Tables_number   1
_chemical_formula_structural   Y8Re2B24IrRh
_chemical_formula_sum   'Y8 Re2 B24 Ir1 Rh1'
_cell_volume   391.40826171
_cell_formula_units_Z   1
loop_
 _symmetry_equiv_pos_site_id
 _symmetry_equiv_pos_as_xyz
  1  'x, y, z'
loop_
 _atom_site_type_symbol
 _atom_site_label
 _atom_site_symmetry_multiplicity
 _atom_site_fract_x
 _atom_site_fract_y
 _atom_site_fract_z
 _atom_site_occupancy
  Y  Y0  1  0.000000  0.818290  0.089899  1
  Y  Y1  1  0.000000  0.181794  0.910869  1
  Y  Y2  1  0.000000  0.326449  0.416715  1
  Y  Y3  1  0.000000  0.673637  0.582909  1
  Y  Y4  1  0.000000  0.444676  0.128259  1
  Y  Y5  1  0.000000  0.554116  0.872456  1
  Y  Y6  1  0.000000  0.942398  0.373444  1
  Y  Y7  1  0.000000  0.058236  0.625715  1
  Re  Re8  1  0.000000  0.638394  0.320579  1
  Re  Re9  1  0.000000  0.361812  0.679519  1
  B  B10  1  0.500000  0.053919  0.065827  1
  B  B11  1  0.500000  0.945913  0.933762  1
  B  B12  1  0.500000  0.552687  0.432376  1
  B  B13  1  0.500000  0.447330  0.567596  1
  B  B14  1  0.500000  0.247773  0.078554  1
  B  B15  1  0.500000  0.751510  0.921320  1
  B  B16  1  0.500000  0.747424  0.418773  1
  B  B17  1  0.500000  0.252721  0.581184  1
  B  B18  1  0.500000  0.290390  0.234394  1
  B  B19  1  0.500000  0.709268  0.766237  1
  B  B20  1  0.500000  0.792053  0.265803  1
  B  B21  1  0.500000  0.208065  0.734149  1
  B  B22  1  0.500000  0.132643  0.315957  1
  B  B23  1  0.500000  0.868085  0.684409  1
  B  B24  1  0.500000  0.631928  0.185823  1
  B  B25  1  0.500000  0.368056  0.814278  1
  B  B26  1  0.500000  0.483203  0.286929  1
  B  B27  1  0.500000  0.516939  0.713052  1
  B  B28  1  0.500000  0.983534  0.211944  1
  B  B29  1  0.500000  0.017107  0.787376  1
  B  B30  1  0.500000  0.108056  0.469636  1
  B  B31  1  0.500000  0.892130  0.530222  1
  B  B32  1  0.500000  0.609124  0.029773  1
  B  B33  1  0.500000  0.390601  0.970496  1
  Ir  Ir34  1  0.000000  0.862752  0.821739  1
  Rh  Rh35  1  0.000000  0.136988  0.178023  1
