# generated using pymatgen
data_Ho7Lu4Sc(Si3Ir)4
_symmetry_space_group_name_H-M   'P 1'
_cell_length_a   4.19152900
_cell_length_b   10.55445238
_cell_length_c   12.10137503
_cell_angle_alpha   89.85985544
_cell_angle_beta   90.00000000
_cell_angle_gamma   90.00000000
_symmetry_Int_Tables_number   1
_chemical_formula_structural   Ho7Lu4Sc(Si3Ir)4
_chemical_formula_sum   'Ho7 Lu4 Sc1 Si12 Ir4'
_cell_volume   535.35467710
_cell_formula_units_Z   1
loop_
 _symmetry_equiv_pos_site_id
 _symmetry_equiv_pos_as_xyz
  1  'x, y, z'
loop_
 _atom_site_type_symbol
 _atom_site_label
 _atom_site_symmetry_multiplicity
 _atom_site_fract_x
 _atom_site_fract_y
 _atom_site_fract_z
 _atom_site_occupancy
  Ho  Ho0  1  0.250000  0.920312  0.603739  1
  Ho  Ho1  1  0.250000  0.581598  0.103232  1
  Ho  Ho2  1  0.750000  0.080890  0.398717  1
  Ho  Ho3  1  0.750000  0.417570  0.895256  1
  Ho  Ho4  1  0.250000  0.659115  0.801228  1
  Ho  Ho5  1  0.250000  0.842294  0.301528  1
  Ho  Ho6  1  0.750000  0.339758  0.198709  1
  Lu  Lu7  1  0.250000  0.881860  0.019896  1
  Lu  Lu8  1  0.250000  0.618750  0.520425  1
  Lu  Lu9  1  0.750000  0.119442  0.976672  1
  Lu  Lu10  1  0.750000  0.378342  0.481244  1
  Sc  Sc11  1  0.750000  0.160410  0.700640  1
  Si  Si12  1  0.250000  0.013611  0.820702  1
  Si  Si13  1  0.250000  0.487707  0.322615  1
  Si  Si14  1  0.750000  0.990151  0.177465  1
  Si  Si15  1  0.750000  0.511935  0.677310  1
  Si  Si16  1  0.250000  0.244604  0.836238  1
  Si  Si17  1  0.250000  0.252350  0.343061  1
  Si  Si18  1  0.750000  0.754176  0.159489  1
  Si  Si19  1  0.750000  0.746551  0.658698  1
  Si  Si20  1  0.250000  0.198521  0.550440  1
  Si  Si21  1  0.250000  0.297920  0.041357  1
  Si  Si22  1  0.750000  0.798044  0.457117  1
  Si  Si23  1  0.750000  0.702689  0.956318  1
  Ir  Ir24  1  0.250000  0.389471  0.677818  1
  Ir  Ir25  1  0.250000  0.110024  0.178309  1
  Ir  Ir26  1  0.750000  0.609077  0.322140  1
  Ir  Ir27  1  0.750000  0.892828  0.819637  1
