# generated using pymatgen
data_Cs3NpCl6
_symmetry_space_group_name_H-M   'P 1'
_cell_length_a   8.23814322
_cell_length_b   8.23814263
_cell_length_c   8.23814308
_cell_angle_alpha   62.94910676
_cell_angle_beta   62.94910422
_cell_angle_gamma   62.94910650
_symmetry_Int_Tables_number   1
_chemical_formula_structural   Cs3NpCl6
_chemical_formula_sum   'Cs3 Np1 Cl6'
_cell_volume   421.23591977
_cell_formula_units_Z   1
loop_
 _symmetry_equiv_pos_site_id
 _symmetry_equiv_pos_as_xyz
  1  'x, y, z'
loop_
 _atom_site_type_symbol
 _atom_site_label
 _atom_site_symmetry_multiplicity
 _atom_site_fract_x
 _atom_site_fract_y
 _atom_site_fract_z
 _atom_site_occupancy
  Cs  Cs0  1  0.232306  0.232306  0.232306  1
  Cs  Cs1  1  0.500000  0.500000  0.500000  1
  Cs  Cs2  1  0.767694  0.767694  0.767694  1
  Np  Np3  1  0.000000  0.000000  0.000000  1
  Cl  Cl4  1  0.800763  0.315165  0.127399  1
  Cl  Cl5  1  0.684835  0.872601  0.199236  1
  Cl  Cl6  1  0.127399  0.800764  0.315164  1
  Cl  Cl7  1  0.872601  0.199236  0.684836  1
  Cl  Cl8  1  0.315165  0.127399  0.800764  1
  Cl  Cl9  1  0.199237  0.684835  0.872601  1
