# generated using pymatgen
data_CuAgSb3F18
_symmetry_space_group_name_H-M   'P 1'
_cell_length_a   9.65674800
_cell_length_b   10.91404900
_cell_length_c   14.35331900
_cell_angle_alpha   90.00000000
_cell_angle_beta   90.00000000
_cell_angle_gamma   90.00000000
_symmetry_Int_Tables_number   1
_chemical_formula_structural   CuAgSb3F18
_chemical_formula_sum   'Cu4 Ag4 Sb12 F72'
_cell_volume   1512.75687265
_cell_formula_units_Z   4
loop_
 _symmetry_equiv_pos_site_id
 _symmetry_equiv_pos_as_xyz
  1  'x, y, z'
loop_
 _atom_site_type_symbol
 _atom_site_label
 _atom_site_symmetry_multiplicity
 _atom_site_fract_x
 _atom_site_fract_y
 _atom_site_fract_z
 _atom_site_occupancy
  Cu  Cu0  1  0.000000  0.000000  0.500000  1
  Cu  Cu1  1  0.500000  0.500000  0.000000  1
  Cu  Cu2  1  0.000000  0.000000  0.000000  1
  Cu  Cu3  1  0.500000  0.500000  0.500000  1
  Ag  Ag4  1  0.536130  0.915136  0.750000  1
  Ag  Ag5  1  0.963870  0.415136  0.750000  1
  Ag  Ag6  1  0.463870  0.084864  0.250000  1
  Ag  Ag7  1  0.036130  0.584864  0.250000  1
  Sb  Sb8  1  0.109566  0.029848  0.750000  1
  Sb  Sb9  1  0.390434  0.529848  0.750000  1
  Sb  Sb10  1  0.890434  0.970152  0.250000  1
  Sb  Sb11  1  0.609566  0.470152  0.250000  1
  Sb  Sb12  1  0.691764  0.195228  0.555840  1
  Sb  Sb13  1  0.808236  0.695228  0.944160  1
  Sb  Sb14  1  0.308236  0.804772  0.055840  1
  Sb  Sb15  1  0.191764  0.304772  0.444160  1
  Sb  Sb16  1  0.308236  0.804772  0.444160  1
  Sb  Sb17  1  0.191764  0.304772  0.055840  1
  Sb  Sb18  1  0.691764  0.195228  0.944160  1
  Sb  Sb19  1  0.808236  0.695228  0.555840  1
  F  F20  1  0.111874  0.035650  0.612349  1
  F  F21  1  0.388126  0.535650  0.887651  1
  F  F22  1  0.888126  0.964350  0.112349  1
  F  F23  1  0.611874  0.464350  0.387651  1
  F  F24  1  0.888126  0.964350  0.387651  1
  F  F25  1  0.611874  0.464350  0.112349  1
  F  F26  1  0.111874  0.035650  0.887651  1
  F  F27  1  0.388126  0.535650  0.612349  1
  F  F28  1  0.128419  0.857672  0.750000  1
  F  F29  1  0.371581  0.357672  0.750000  1
  F  F30  1  0.871581  0.142328  0.250000  1
  F  F31  1  0.628419  0.642328  0.250000  1
  F  F32  1  0.307015  0.043403  0.750000  1
  F  F33  1  0.192985  0.543403  0.750000  1
  F  F34  1  0.692985  0.956597  0.250000  1
  F  F35  1  0.807015  0.456597  0.250000  1
  F  F36  1  0.091729  0.204892  0.750000  1
  F  F37  1  0.408271  0.704892  0.750000  1
  F  F38  1  0.908271  0.795108  0.250000  1
  F  F39  1  0.591729  0.295108  0.250000  1
  F  F40  1  0.913947  0.014283  0.750000  1
  F  F41  1  0.586053  0.514283  0.750000  1
  F  F42  1  0.086053  0.985717  0.250000  1
  F  F43  1  0.413947  0.485717  0.250000  1
  F  F44  1  0.834579  0.062696  0.557085  1
  F  F45  1  0.665421  0.562696  0.942915  1
  F  F46  1  0.165421  0.937304  0.057085  1
  F  F47  1  0.334579  0.437304  0.442915  1
  F  F48  1  0.165421  0.937304  0.442915  1
  F  F49  1  0.334579  0.437304  0.057085  1
  F  F50  1  0.834579  0.062696  0.942915  1
  F  F51  1  0.665421  0.562696  0.557085  1
  F  F52  1  0.794757  0.285048  0.466640  1
  F  F53  1  0.705243  0.785048  0.033360  1
  F  F54  1  0.205243  0.714952  0.966640  1
  F  F55  1  0.294757  0.214952  0.533360  1
  F  F56  1  0.205243  0.714952  0.533360  1
  F  F57  1  0.294757  0.214952  0.966640  1
  F  F58  1  0.794757  0.285048  0.033360  1
  F  F59  1  0.705243  0.785048  0.466640  1
  F  F60  1  0.598055  0.113146  0.457538  1
  F  F61  1  0.901945  0.613146  0.042462  1
  F  F62  1  0.401945  0.886854  0.957538  1
  F  F63  1  0.098055  0.386854  0.542462  1
  F  F64  1  0.401945  0.886854  0.542462  1
  F  F65  1  0.098055  0.386854  0.957538  1
  F  F66  1  0.598055  0.113146  0.042462  1
  F  F67  1  0.901945  0.613146  0.457538  1
  F  F68  1  0.552778  0.321529  0.564864  1
  F  F69  1  0.947222  0.821529  0.935136  1
  F  F70  1  0.447222  0.678471  0.064864  1
  F  F71  1  0.052778  0.178471  0.435136  1
  F  F72  1  0.447222  0.678471  0.435136  1
  F  F73  1  0.052778  0.178471  0.064864  1
  F  F74  1  0.552778  0.321529  0.935136  1
  F  F75  1  0.947222  0.821529  0.564864  1
  F  F76  1  0.598251  0.096030  0.646168  1
  F  F77  1  0.901749  0.596030  0.853832  1
  F  F78  1  0.401749  0.903970  0.146168  1
  F  F79  1  0.098251  0.403970  0.353832  1
  F  F80  1  0.401749  0.903970  0.353832  1
  F  F81  1  0.098251  0.403970  0.146168  1
  F  F82  1  0.598251  0.096030  0.853832  1
  F  F83  1  0.901749  0.596030  0.646168  1
  F  F84  1  0.797748  0.273138  0.652196  1
  F  F85  1  0.702252  0.773138  0.847804  1
  F  F86  1  0.202252  0.726862  0.152196  1
  F  F87  1  0.297748  0.226862  0.347804  1
  F  F88  1  0.202252  0.726862  0.347804  1
  F  F89  1  0.297748  0.226862  0.152196  1
  F  F90  1  0.797748  0.273138  0.847804  1
  F  F91  1  0.702252  0.773138  0.652196  1
