# generated using pymatgen
data_Ce2HgPdRh
_symmetry_space_group_name_H-M   'P 1'
_cell_length_a   7.77248050
_cell_length_b   7.77248139
_cell_length_c   3.73283100
_cell_angle_alpha   90.00000000
_cell_angle_beta   90.00000000
_cell_angle_gamma   90.77612387
_symmetry_Int_Tables_number   1
_chemical_formula_structural   Ce2HgPdRh
_chemical_formula_sum   'Ce4 Hg2 Pd2 Rh2'
_cell_volume   225.48508187
_cell_formula_units_Z   2
loop_
 _symmetry_equiv_pos_site_id
 _symmetry_equiv_pos_as_xyz
  1  'x, y, z'
loop_
 _atom_site_type_symbol
 _atom_site_label
 _atom_site_symmetry_multiplicity
 _atom_site_fract_x
 _atom_site_fract_y
 _atom_site_fract_z
 _atom_site_occupancy
  Ce  Ce0  1  0.680915  0.180915  0.500000  1
  Ce  Ce1  1  0.319085  0.819085  0.500000  1
  Ce  Ce2  1  0.166919  0.333081  0.500000  1
  Ce  Ce3  1  0.833081  0.666919  0.500000  1
  Hg  Hg4  1  0.000000  0.000000  0.000000  1
  Hg  Hg5  1  0.500000  0.500000  0.000000  1
  Pd  Pd6  1  0.628297  0.871703  0.000000  1
  Pd  Pd7  1  0.371703  0.128297  0.000000  1
  Rh  Rh8  1  0.133578  0.633578  0.000000  1
  Rh  Rh9  1  0.866422  0.366422  0.000000  1
