# generated using pymatgen
data_PrNd4Al2Ru3
_symmetry_space_group_name_H-M   'P 1'
_cell_length_a   8.57499978
_cell_length_b   8.57496964
_cell_length_c   8.57447201
_cell_angle_alpha   109.47601577
_cell_angle_beta   109.46831374
_cell_angle_gamma   109.47169120
_symmetry_Int_Tables_number   1
_chemical_formula_structural   PrNd4Al2Ru3
_chemical_formula_sum   'Pr2 Nd8 Al4 Ru6'
_cell_volume   485.33270756
_cell_formula_units_Z   2
loop_
 _symmetry_equiv_pos_site_id
 _symmetry_equiv_pos_as_xyz
  1  'x, y, z'
loop_
 _atom_site_type_symbol
 _atom_site_label
 _atom_site_symmetry_multiplicity
 _atom_site_fract_x
 _atom_site_fract_y
 _atom_site_fract_z
 _atom_site_occupancy
  Pr  Pr0  1  0.285772  0.500055  0.000188  1
  Pr  Pr1  1  0.999865  0.285583  0.499811  1
  Nd  Nd2  1  0.250083  0.684565  0.434458  1
  Nd  Nd3  1  0.750107  0.815626  0.065542  1
  Nd  Nd4  1  0.434565  0.249884  0.684267  1
  Nd  Nd5  1  0.684372  0.434372  0.250000  1
  Nd  Nd6  1  0.065618  0.750299  0.815733  1
  Nd  Nd7  1  0.815418  0.065417  0.750000  1
  Nd  Nd8  1  0.213996  0.213840  0.213947  1
  Nd  Nd9  1  0.499892  0.000049  0.286052  1
  Al  Al10  1  0.590427  0.590403  0.590404  1
  Al  Al11  1  0.499999  0.000023  0.909596  1
  Al  Al12  1  0.909347  0.499989  0.000013  1
  Al  Al13  1  0.999976  0.909334  0.499987  1
  Ru  Ru14  1  0.250023  0.117516  0.867809  1
  Ru  Ru15  1  0.749708  0.382214  0.632191  1
  Ru  Ru16  1  0.867776  0.250069  0.117578  1
  Ru  Ru17  1  0.117940  0.867939  0.250001  1
  Ru  Ru18  1  0.632490  0.750199  0.382422  1
  Ru  Ru19  1  0.382624  0.632624  0.749999  1
