# generated using pymatgen
data_Dy8Si16Tc11W
_symmetry_space_group_name_H-M   'P 1'
_cell_length_a   6.81147209
_cell_length_b   6.80021078
_cell_length_c   12.68820219
_cell_angle_alpha   90.37734302
_cell_angle_beta   90.03151581
_cell_angle_gamma   89.90268994
_symmetry_Int_Tables_number   1
_chemical_formula_structural   Dy8Si16Tc11W
_chemical_formula_sum   'Dy8 Si16 Tc11 W1'
_cell_volume   587.69681665
_cell_formula_units_Z   1
loop_
 _symmetry_equiv_pos_site_id
 _symmetry_equiv_pos_as_xyz
  1  'x, y, z'
loop_
 _atom_site_type_symbol
 _atom_site_label
 _atom_site_symmetry_multiplicity
 _atom_site_fract_x
 _atom_site_fract_y
 _atom_site_fract_z
 _atom_site_occupancy
  Dy  Dy0  1  0.006942  0.662050  0.031988  1
  Dy  Dy1  1  0.997906  0.335176  0.529591  1
  Dy  Dy2  1  0.665701  0.002062  0.969345  1
  Dy  Dy3  1  0.161274  0.496199  0.780401  1
  Dy  Dy4  1  0.839835  0.503089  0.280788  1
  Dy  Dy5  1  0.497847  0.161834  0.220777  1
  Dy  Dy6  1  0.504415  0.837442  0.718935  1
  Dy  Dy7  1  0.339178  0.992984  0.468610  1
  Si  Si8  1  0.019304  0.726329  0.437163  1
  Si  Si9  1  0.975070  0.280280  0.936658  1
  Si  Si10  1  0.723787  0.023663  0.563343  1
  Si  Si11  1  0.234714  0.481932  0.188044  1
  Si  Si12  1  0.780344  0.529187  0.681428  1
  Si  Si13  1  0.466554  0.214133  0.814773  1
  Si  Si14  1  0.518638  0.766441  0.311014  1
  Si  Si15  1  0.280364  0.978951  0.063560  1
  Si  Si16  1  0.809045  0.885828  0.187618  1
  Si  Si17  1  0.304595  0.616006  0.563832  1
  Si  Si18  1  0.697276  0.384975  0.064444  1
  Si  Si19  1  0.613657  0.307617  0.438164  1
  Si  Si20  1  0.379548  0.698521  0.935992  1
  Si  Si21  1  0.113601  0.191019  0.313359  1
  Si  Si22  1  0.190170  0.114913  0.688095  1
  Si  Si23  1  0.884258  0.805652  0.812137  1
  Tc  Tc24  1  0.312194  0.475431  0.381730  1
  Tc  Tc25  1  0.815605  0.019655  0.371812  1
  Tc  Tc26  1  0.986707  0.179154  0.126996  1
  Tc  Tc27  1  0.018918  0.817957  0.627256  1
  Tc  Tc28  1  0.481064  0.325424  0.626065  1
  Tc  Tc29  1  0.177760  0.987242  0.874095  1
  Tc  Tc30  1  0.666074  0.666019  0.499308  1
  Tc  Tc31  1  0.834499  0.168604  0.750157  1
  Tc  Tc32  1  0.168185  0.831968  0.250523  1
  Tc  Tc33  1  0.335598  0.336177  0.000096  1
  Tc  Tc34  1  0.526456  0.688425  0.117367  1
  W  W35  1  0.672916  0.507666  0.874533  1
