# generated using pymatgen
data_Dy8Cd2SnHgAu8
_symmetry_space_group_name_H-M   'P 1'
_cell_length_a   8.01863100
_cell_length_b   8.01863100
_cell_length_c   7.37006800
_cell_angle_alpha   90.00000000
_cell_angle_beta   90.00000000
_cell_angle_gamma   90.00000000
_symmetry_Int_Tables_number   1
_chemical_formula_structural   Dy8Cd2SnHgAu8
_chemical_formula_sum   'Dy8 Cd2 Sn1 Hg1 Au8'
_cell_volume   473.88389805
_cell_formula_units_Z   1
loop_
 _symmetry_equiv_pos_site_id
 _symmetry_equiv_pos_as_xyz
  1  'x, y, z'
loop_
 _atom_site_type_symbol
 _atom_site_label
 _atom_site_symmetry_multiplicity
 _atom_site_fract_x
 _atom_site_fract_y
 _atom_site_fract_z
 _atom_site_occupancy
  Dy  Dy0  1  0.845599  0.170888  0.500369  1
  Dy  Dy1  1  0.154401  0.829112  0.500369  1
  Dy  Dy2  1  0.329112  0.345599  0.999631  1
  Dy  Dy3  1  0.670888  0.654401  0.999631  1
  Dy  Dy4  1  0.687287  0.670547  0.500116  1
  Dy  Dy5  1  0.312713  0.329453  0.500116  1
  Dy  Dy6  1  0.170547  0.812713  0.999884  1
  Dy  Dy7  1  0.829453  0.187287  0.999884  1
  Cd  Cd8  1  0.500000  0.000000  0.250000  1
  Cd  Cd9  1  0.500000  0.000000  0.750000  1
  Sn  Sn10  1  0.000000  0.500000  0.250000  1
  Hg  Hg11  1  0.000000  0.500000  0.750000  1
  Au  Au12  1  0.620118  0.363977  0.266946  1
  Au  Au13  1  0.379882  0.636023  0.266946  1
  Au  Au14  1  0.136341  0.120646  0.766160  1
  Au  Au15  1  0.863659  0.879354  0.766160  1
  Au  Au16  1  0.379354  0.636341  0.733840  1
  Au  Au17  1  0.620646  0.363659  0.733840  1
  Au  Au18  1  0.863977  0.879882  0.233054  1
  Au  Au19  1  0.136023  0.120118  0.233054  1
