# generated using pymatgen
data_CdB2PbO6
_symmetry_space_group_name_H-M   'P 1'
_cell_length_a   6.18230558
_cell_length_b   6.18230566
_cell_length_c   6.18230535
_cell_angle_alpha   47.70645493
_cell_angle_beta   47.70644970
_cell_angle_gamma   47.70645600
_symmetry_Int_Tables_number   1
_chemical_formula_structural   CdB2PbO6
_chemical_formula_sum   'Cd1 B2 Pb1 O6'
_cell_volume   118.37065792
_cell_formula_units_Z   1
loop_
 _symmetry_equiv_pos_site_id
 _symmetry_equiv_pos_as_xyz
  1  'x, y, z'
loop_
 _atom_site_type_symbol
 _atom_site_label
 _atom_site_symmetry_multiplicity
 _atom_site_fract_x
 _atom_site_fract_y
 _atom_site_fract_z
 _atom_site_occupancy
  Cd  Cd0  1  0.000000  0.000000  0.000000  1
  B  B1  1  0.244201  0.244201  0.244201  1
  B  B2  1  0.755799  0.755799  0.755799  1
  Pb  Pb3  1  0.500000  0.500000  0.500000  1
  O  O4  1  0.480194  0.748166  0.034719  1
  O  O5  1  0.965280  0.519808  0.251834  1
  O  O6  1  0.748165  0.034720  0.480193  1
  O  O7  1  0.251835  0.965280  0.519807  1
  O  O8  1  0.034720  0.480192  0.748166  1
  O  O9  1  0.519806  0.251834  0.965281  1
