# generated using pymatgen
data_YPa3F15
_symmetry_space_group_name_H-M   'P 1'
_cell_length_a   8.70577633
_cell_length_b   8.70577533
_cell_length_c   8.70037463
_cell_angle_alpha   79.63438065
_cell_angle_beta   79.63438519
_cell_angle_gamma   99.99667483
_symmetry_Int_Tables_number   1
_chemical_formula_structural   YPa3F15
_chemical_formula_sum   'Y2 Pa6 F30'
_cell_volume   623.43607263
_cell_formula_units_Z   2
loop_
 _symmetry_equiv_pos_site_id
 _symmetry_equiv_pos_as_xyz
  1  'x, y, z'
loop_
 _atom_site_type_symbol
 _atom_site_label
 _atom_site_symmetry_multiplicity
 _atom_site_fract_x
 _atom_site_fract_y
 _atom_site_fract_z
 _atom_site_occupancy
  Y  Y0  1  0.178377  0.821623  0.250000  1
  Y  Y1  1  0.821623  0.178377  0.750000  1
  Pa  Pa2  1  0.749452  0.250548  0.250000  1
  Pa  Pa3  1  0.250548  0.749452  0.750000  1
  Pa  Pa4  1  0.754861  0.679013  0.673111  1
  Pa  Pa5  1  0.320987  0.245139  0.826889  1
  Pa  Pa6  1  0.245139  0.320987  0.326889  1
  Pa  Pa7  1  0.679013  0.754861  0.173111  1
  F  F8  1  0.316563  0.348827  0.052922  1
  F  F9  1  0.945965  0.813085  0.155269  1
  F  F10  1  0.842235  0.448640  0.683979  1
  F  F11  1  0.448640  0.842235  0.183979  1
  F  F12  1  0.813085  0.945965  0.655269  1
  F  F13  1  0.348827  0.316563  0.552921  1
  F  F14  1  0.683437  0.651173  0.947078  1
  F  F15  1  0.054035  0.186915  0.844731  1
  F  F16  1  0.157765  0.551360  0.316021  1
  F  F17  1  0.551360  0.157765  0.816021  1
  F  F18  1  0.186915  0.054035  0.344731  1
  F  F19  1  0.651173  0.683437  0.447078  1
  F  F20  1  0.776449  0.276519  0.990067  1
  F  F21  1  0.012182  0.276463  0.217010  1
  F  F22  1  0.779504  0.511500  0.223660  1
  F  F23  1  0.511500  0.779504  0.723660  1
  F  F24  1  0.276463  0.012182  0.717010  1
  F  F25  1  0.276519  0.776449  0.490067  1
  F  F26  1  0.223551  0.723481  0.009933  1
  F  F27  1  0.987818  0.723537  0.782990  1
  F  F28  1  0.220496  0.488500  0.776340  1
  F  F29  1  0.488500  0.220496  0.276340  1
  F  F30  1  0.723537  0.987818  0.282990  1
  F  F31  1  0.723481  0.223551  0.509933  1
  F  F32  1  0.468122  0.531878  0.250000  1
  F  F33  1  0.751038  0.966534  0.962867  1
  F  F34  1  0.033466  0.248962  0.537133  1
  F  F35  1  0.248962  0.033466  0.037133  1
  F  F36  1  0.966534  0.751038  0.462867  1
  F  F37  1  0.531878  0.468122  0.750000  1
