# generated using pymatgen
data_Dy2ZnSi3(PRh4)3
_symmetry_space_group_name_H-M   'P 1'
_cell_length_a   9.72854800
_cell_length_b   9.72854765
_cell_length_c   3.85260000
_cell_angle_alpha   90.00000000
_cell_angle_beta   90.00000000
_cell_angle_gamma   120.00000482
_symmetry_Int_Tables_number   1
_chemical_formula_structural   Dy2ZnSi3(PRh4)3
_chemical_formula_sum   'Dy2 Zn1 Si3 P3 Rh12'
_cell_volume   315.77705306
_cell_formula_units_Z   1
loop_
 _symmetry_equiv_pos_site_id
 _symmetry_equiv_pos_as_xyz
  1  'x, y, z'
loop_
 _atom_site_type_symbol
 _atom_site_label
 _atom_site_symmetry_multiplicity
 _atom_site_fract_x
 _atom_site_fract_y
 _atom_site_fract_z
 _atom_site_occupancy
  Dy  Dy0  1  0.333333  0.666667  0.741425  1
  Dy  Dy1  1  0.666667  0.333333  0.239978  1
  Zn  Zn2  1  0.000000  0.000000  0.695964  1
  Si  Si3  1  0.399730  0.286998  0.739848  1
  Si  Si4  1  0.713002  0.112732  0.739848  1
  Si  Si5  1  0.887268  0.600270  0.739848  1
  P  P6  1  0.600297  0.711255  0.240444  1
  P  P7  1  0.288745  0.889042  0.240444  1
  P  P8  1  0.110958  0.399703  0.240444  1
  Rh  Rh9  1  0.447162  0.067271  0.740282  1
  Rh  Rh10  1  0.932729  0.379891  0.740282  1
  Rh  Rh11  1  0.620109  0.552838  0.740282  1
  Rh  Rh12  1  0.550751  0.938822  0.240413  1
  Rh  Rh13  1  0.061178  0.611929  0.240413  1
  Rh  Rh14  1  0.388071  0.449249  0.240413  1
  Rh  Rh15  1  0.158163  0.291844  0.740486  1
  Rh  Rh16  1  0.708156  0.866320  0.740486  1
  Rh  Rh17  1  0.133680  0.841837  0.740486  1
  Rh  Rh18  1  0.856920  0.741209  0.239404  1
  Rh  Rh19  1  0.258791  0.115710  0.239404  1
  Rh  Rh20  1  0.884290  0.143080  0.239404  1
