# generated using pymatgen
data_Tb2Ce2DyRu2
_symmetry_space_group_name_H-M   'P 1'
_cell_length_a   6.38501425
_cell_length_b   7.04088024
_cell_length_c   8.85830400
_cell_angle_alpha   95.36054307
_cell_angle_beta   111.12457932
_cell_angle_gamma   89.99999503
_symmetry_Int_Tables_number   1
_chemical_formula_structural   Tb2Ce2DyRu2
_chemical_formula_sum   'Tb4 Ce4 Dy2 Ru4'
_cell_volume   369.60544905
_cell_formula_units_Z   2
loop_
 _symmetry_equiv_pos_site_id
 _symmetry_equiv_pos_as_xyz
  1  'x, y, z'
loop_
 _atom_site_type_symbol
 _atom_site_label
 _atom_site_symmetry_multiplicity
 _atom_site_fract_x
 _atom_site_fract_y
 _atom_site_fract_z
 _atom_site_occupancy
  Tb  Tb0  1  0.641187  0.815663  0.432677  1
  Tb  Tb1  1  0.208510  0.684337  0.567323  1
  Tb  Tb2  1  0.358813  0.184337  0.567323  1
  Tb  Tb3  1  0.791490  0.315663  0.432677  1
  Ce  Ce4  1  0.982399  0.904283  0.188176  1
  Ce  Ce5  1  0.794223  0.595717  0.811824  1
  Ce  Ce6  1  0.017601  0.095717  0.811824  1
  Ce  Ce7  1  0.205777  0.404283  0.188176  1
  Dy  Dy8  1  0.419761  0.750000  0.000000  1
  Dy  Dy9  1  0.580239  0.250000  0.000000  1
  Ru  Ru10  1  0.848667  0.593426  0.219274  1
  Ru  Ru11  1  0.629391  0.906574  0.780726  1
  Ru  Ru12  1  0.151333  0.406574  0.780726  1
  Ru  Ru13  1  0.370609  0.093426  0.219274  1
