# generated using pymatgen
data_La3(CeTc)2
_symmetry_space_group_name_H-M   'P 1'
_cell_length_a   9.14024113
_cell_length_b   9.14024178
_cell_length_c   7.30250369
_cell_angle_alpha   85.57519161
_cell_angle_beta   85.57519049
_cell_angle_gamma   42.23506738
_symmetry_Int_Tables_number   1
_chemical_formula_structural   La3(CeTc)2
_chemical_formula_sum   'La6 Ce4 Tc4'
_cell_volume   408.67524574
_cell_formula_units_Z   2
loop_
 _symmetry_equiv_pos_site_id
 _symmetry_equiv_pos_as_xyz
  1  'x, y, z'
loop_
 _atom_site_type_symbol
 _atom_site_label
 _atom_site_symmetry_multiplicity
 _atom_site_fract_x
 _atom_site_fract_y
 _atom_site_fract_z
 _atom_site_occupancy
  La  La0  1  0.347216  0.223226  0.824174  1
  La  La1  1  0.776774  0.652784  0.675826  1
  La  La2  1  0.652784  0.776774  0.175826  1
  La  La3  1  0.223226  0.347216  0.324174  1
  La  La4  1  0.574760  0.425240  0.750000  1
  La  La5  1  0.425240  0.574760  0.250000  1
  Ce  Ce6  1  0.005762  0.811839  0.898912  1
  Ce  Ce7  1  0.188161  0.994238  0.601088  1
  Ce  Ce8  1  0.994238  0.188161  0.101088  1
  Ce  Ce9  1  0.811839  0.005762  0.398912  1
  Tc  Tc10  1  0.129351  0.659102  0.602228  1
  Tc  Tc11  1  0.340898  0.870649  0.897772  1
  Tc  Tc12  1  0.870649  0.340898  0.397772  1
  Tc  Tc13  1  0.659102  0.129351  0.102228  1
