# generated using pymatgen
data_Tb2HoAlAu5
_symmetry_space_group_name_H-M   'P 1'
_cell_length_a   8.50048572
_cell_length_b   8.50048672
_cell_length_c   13.53375600
_cell_angle_alpha   90.00000000
_cell_angle_beta   90.00000000
_cell_angle_gamma   128.45069139
_symmetry_Int_Tables_number   1
_chemical_formula_structural   Tb2HoAlAu5
_chemical_formula_sum   'Tb8 Ho4 Al4 Au20'
_cell_volume   765.85628645
_cell_formula_units_Z   4
loop_
 _symmetry_equiv_pos_site_id
 _symmetry_equiv_pos_as_xyz
  1  'x, y, z'
loop_
 _atom_site_type_symbol
 _atom_site_label
 _atom_site_symmetry_multiplicity
 _atom_site_fract_x
 _atom_site_fract_y
 _atom_site_fract_z
 _atom_site_occupancy
  Tb  Tb0  1  0.927673  0.072327  0.250000  1
  Tb  Tb1  1  0.072327  0.927673  0.750000  1
  Tb  Tb2  1  0.320545  0.679455  0.250000  1
  Tb  Tb3  1  0.679455  0.320545  0.750000  1
  Tb  Tb4  1  0.881489  0.118511  0.951326  1
  Tb  Tb5  1  0.118511  0.881489  0.048674  1
  Tb  Tb6  1  0.881489  0.118511  0.548674  1
  Tb  Tb7  1  0.118511  0.881489  0.451326  1
  Ho  Ho8  1  0.630631  0.369369  0.464886  1
  Ho  Ho9  1  0.369369  0.630631  0.535114  1
  Ho  Ho10  1  0.630631  0.369369  0.035114  1
  Ho  Ho11  1  0.369369  0.630631  0.964886  1
  Al  Al12  1  0.720175  0.279825  0.250000  1
  Al  Al13  1  0.279825  0.720175  0.750000  1
  Al  Al14  1  0.532778  0.467222  0.250000  1
  Al  Al15  1  0.467222  0.532778  0.750000  1
  Au  Au16  1  0.323183  0.069342  0.250000  1
  Au  Au17  1  0.069342  0.323183  0.750000  1
  Au  Au18  1  0.676817  0.930658  0.750000  1
  Au  Au19  1  0.930658  0.676817  0.250000  1
  Au  Au20  1  0.570393  0.004343  0.396848  1
  Au  Au21  1  0.004343  0.570393  0.603152  1
  Au  Au22  1  0.570393  0.004343  0.103152  1
  Au  Au23  1  0.004343  0.570393  0.896848  1
  Au  Au24  1  0.429607  0.995657  0.603152  1
  Au  Au25  1  0.995657  0.429607  0.396848  1
  Au  Au26  1  0.429607  0.995657  0.896848  1
  Au  Au27  1  0.995657  0.429607  0.103152  1
  Au  Au28  1  0.685284  0.740490  0.395025  1
  Au  Au29  1  0.740490  0.685284  0.604975  1
  Au  Au30  1  0.685284  0.740490  0.104975  1
  Au  Au31  1  0.740490  0.685284  0.895025  1
  Au  Au32  1  0.314716  0.259510  0.604975  1
  Au  Au33  1  0.259510  0.314716  0.395025  1
  Au  Au34  1  0.314716  0.259510  0.895025  1
  Au  Au35  1  0.259510  0.314716  0.104975  1
