# generated using pymatgen
data_LiTb2Tm(B6Os)2
_symmetry_space_group_name_H-M   'P 1'
_cell_length_a   3.59193800
_cell_length_b   8.98164031
_cell_length_c   11.38872600
_cell_angle_alpha   89.79026057
_cell_angle_beta   90.00000000
_cell_angle_gamma   90.00000000
_symmetry_Int_Tables_number   1
_chemical_formula_structural   LiTb2Tm(B6Os)2
_chemical_formula_sum   'Li2 Tb4 Tm2 B24 Os4'
_cell_volume   367.41486659
_cell_formula_units_Z   2
loop_
 _symmetry_equiv_pos_site_id
 _symmetry_equiv_pos_as_xyz
  1  'x, y, z'
loop_
 _atom_site_type_symbol
 _atom_site_label
 _atom_site_symmetry_multiplicity
 _atom_site_fract_x
 _atom_site_fract_y
 _atom_site_fract_z
 _atom_site_occupancy
  Li  Li0  1  0.000000  0.945337  0.376155  1
  Li  Li1  1  0.000000  0.054663  0.623846  1
  Tb  Tb2  1  0.000000  0.315844  0.415984  1
  Tb  Tb3  1  0.000000  0.684156  0.584016  1
  Tb  Tb4  1  0.000000  0.824188  0.087849  1
  Tb  Tb5  1  0.000000  0.175812  0.912151  1
  Tm  Tm6  1  0.000000  0.442074  0.131467  1
  Tm  Tm7  1  0.000000  0.557926  0.868532  1
  B  B8  1  0.500000  0.555399  0.433147  1
  B  B9  1  0.500000  0.444601  0.566853  1
  B  B10  1  0.500000  0.053520  0.068597  1
  B  B11  1  0.500000  0.946480  0.931403  1
  B  B12  1  0.500000  0.759630  0.417480  1
  B  B13  1  0.500000  0.240370  0.582520  1
  B  B14  1  0.500000  0.248541  0.083153  1
  B  B15  1  0.500000  0.751459  0.916847  1
  B  B16  1  0.500000  0.795734  0.265792  1
  B  B17  1  0.500000  0.204266  0.734208  1
  B  B18  1  0.500000  0.288037  0.237060  1
  B  B19  1  0.500000  0.711962  0.762940  1
  B  B20  1  0.500000  0.631637  0.186475  1
  B  B21  1  0.500000  0.368363  0.813525  1
  B  B22  1  0.500000  0.122242  0.319877  1
  B  B23  1  0.500000  0.877758  0.680123  1
  B  B24  1  0.500000  0.978878  0.215391  1
  B  B25  1  0.500000  0.021122  0.784609  1
  B  B26  1  0.500000  0.482319  0.289253  1
  B  B27  1  0.500000  0.517681  0.710747  1
  B  B28  1  0.500000  0.600822  0.027330  1
  B  B29  1  0.500000  0.399178  0.972670  1
  B  B30  1  0.500000  0.090886  0.474726  1
  B  B31  1  0.500000  0.909114  0.525274  1
  Os  Os32  1  0.000000  0.642714  0.322517  1
  Os  Os33  1  0.000000  0.357286  0.677483  1
  Os  Os34  1  0.000000  0.135176  0.184593  1
  Os  Os35  1  0.000000  0.864824  0.815407  1
