# generated using pymatgen
data_Be4Cu2NiRu
_symmetry_space_group_name_H-M   'P 1'
_cell_length_a   5.35662100
_cell_length_b   5.35631801
_cell_length_c   5.47666401
_cell_angle_alpha   89.99230965
_cell_angle_beta   90.00004231
_cell_angle_gamma   89.99987164
_symmetry_Int_Tables_number   1
_chemical_formula_structural   Be4Cu2NiRu
_chemical_formula_sum   'Be8 Cu4 Ni2 Ru2'
_cell_volume   157.13515840
_cell_formula_units_Z   2
loop_
 _symmetry_equiv_pos_site_id
 _symmetry_equiv_pos_as_xyz
  1  'x, y, z'
loop_
 _atom_site_type_symbol
 _atom_site_label
 _atom_site_symmetry_multiplicity
 _atom_site_fract_x
 _atom_site_fract_y
 _atom_site_fract_z
 _atom_site_occupancy
  Be  Be0  1  0.499938  0.499990  0.249557  1
  Be  Be1  1  0.499931  0.000003  0.249557  1
  Be  Be2  1  0.999936  0.500008  0.250443  1
  Be  Be3  1  0.999931  0.999997  0.250443  1
  Be  Be4  1  0.000001  0.500013  0.749617  1
  Be  Be5  1  0.000008  0.999976  0.749612  1
  Be  Be6  1  0.500001  0.499985  0.750384  1
  Be  Be7  1  0.500008  0.000024  0.750389  1
  Cu  Cu8  1  0.250078  0.749996  0.000142  1
  Cu  Cu9  1  0.750079  0.250006  0.499858  1
  Cu  Cu10  1  0.250090  0.749995  0.500057  1
  Cu  Cu11  1  0.750091  0.250007  0.999943  1
  Ni  Ni12  1  0.249614  0.250002  0.000031  1
  Ni  Ni13  1  0.749615  0.750000  0.499967  1
  Ru  Ru14  1  0.250337  0.249998  0.500055  1
  Ru  Ru15  1  0.750339  0.750004  0.999945  1
