# generated using pymatgen
data_ScH5Ru
_symmetry_space_group_name_H-M   'P 1'
_cell_length_a   4.20653300
_cell_length_b   4.53484400
_cell_length_c   11.08952900
_cell_angle_alpha   90.00000000
_cell_angle_beta   90.00000000
_cell_angle_gamma   90.00000000
_symmetry_Int_Tables_number   1
_chemical_formula_structural   ScH5Ru
_chemical_formula_sum   'Sc4 H20 Ru4'
_cell_volume   211.54353290
_cell_formula_units_Z   4
loop_
 _symmetry_equiv_pos_site_id
 _symmetry_equiv_pos_as_xyz
  1  'x, y, z'
loop_
 _atom_site_type_symbol
 _atom_site_label
 _atom_site_symmetry_multiplicity
 _atom_site_fract_x
 _atom_site_fract_y
 _atom_site_fract_z
 _atom_site_occupancy
  Sc  Sc0  1  0.720020  0.651747  0.847979  1
  Sc  Sc1  1  0.220020  0.848253  0.152021  1
  Sc  Sc2  1  0.779980  0.348253  0.347979  1
  Sc  Sc3  1  0.279980  0.151747  0.652021  1
  H  H4  1  0.472781  0.872235  0.988120  1
  H  H5  1  0.972781  0.627765  0.011880  1
  H  H6  1  0.027219  0.127765  0.488120  1
  H  H7  1  0.527219  0.372235  0.511880  1
  H  H8  1  0.131873  0.911683  0.815514  1
  H  H9  1  0.631873  0.588317  0.184486  1
  H  H10  1  0.368127  0.088317  0.315514  1
  H  H11  1  0.868127  0.411683  0.684486  1
  H  H12  1  0.680535  0.064240  0.177318  1
  H  H13  1  0.180535  0.435760  0.822682  1
  H  H14  1  0.819465  0.935760  0.677318  1
  H  H15  1  0.319465  0.564240  0.322682  1
  H  H16  1  0.628938  0.143252  0.818838  1
  H  H17  1  0.128938  0.356748  0.181162  1
  H  H18  1  0.871062  0.856748  0.318838  1
  H  H19  1  0.371062  0.643252  0.681162  1
  H  H20  1  0.980696  0.067451  0.004022  1
  H  H21  1  0.480696  0.432549  0.995978  1
  H  H22  1  0.519304  0.932549  0.504022  1
  H  H23  1  0.019304  0.567451  0.495978  1
  Ru  Ru24  1  0.315257  0.148925  0.908238  1
  Ru  Ru25  1  0.815257  0.351075  0.091762  1
  Ru  Ru26  1  0.184743  0.851075  0.408238  1
  Ru  Ru27  1  0.684743  0.648925  0.591762  1
