# generated using pymatgen
data_SmTmSc2(ZnSn)4
_symmetry_space_group_name_H-M   'P 1'
_cell_length_a   4.47649200
_cell_length_b   4.47649181
_cell_length_c   15.35014500
_cell_angle_alpha   90.00000000
_cell_angle_beta   90.00000000
_cell_angle_gamma   120.00001615
_symmetry_Int_Tables_number   1
_chemical_formula_structural   SmTmSc2(ZnSn)4
_chemical_formula_sum   'Sm1 Tm1 Sc2 Zn4 Sn4'
_cell_volume   266.39044948
_cell_formula_units_Z   1
loop_
 _symmetry_equiv_pos_site_id
 _symmetry_equiv_pos_as_xyz
  1  'x, y, z'
loop_
 _atom_site_type_symbol
 _atom_site_label
 _atom_site_symmetry_multiplicity
 _atom_site_fract_x
 _atom_site_fract_y
 _atom_site_fract_z
 _atom_site_occupancy
  Sm  Sm0  1  0.000000  0.000000  0.000000  1
  Tm  Tm1  1  0.000000  0.000000  0.500000  1
  Sc  Sc2  1  0.000000  0.000000  0.747865  1
  Sc  Sc3  1  0.000000  0.000000  0.252135  1
  Zn  Zn4  1  0.333333  0.666667  0.164642  1
  Zn  Zn5  1  0.666667  0.333333  0.663881  1
  Zn  Zn6  1  0.666667  0.333333  0.835358  1
  Zn  Zn7  1  0.333333  0.666667  0.336119  1
  Sn  Sn8  1  0.666667  0.333333  0.385165  1
  Sn  Sn9  1  0.666667  0.333333  0.120269  1
  Sn  Sn10  1  0.333333  0.666667  0.879731  1
  Sn  Sn11  1  0.333333  0.666667  0.614835  1
