# generated using pymatgen
data_Tm4Ga4Ru3Pt
_symmetry_space_group_name_H-M   'P 1'
_cell_length_a   4.27716700
_cell_length_b   6.81059162
_cell_length_c   7.75379850
_cell_angle_alpha   89.61045209
_cell_angle_beta   90.00000000
_cell_angle_gamma   90.00000000
_symmetry_Int_Tables_number   1
_chemical_formula_structural   Tm4Ga4Ru3Pt
_chemical_formula_sum   'Tm4 Ga4 Ru3 Pt1'
_cell_volume   225.86322244
_cell_formula_units_Z   1
loop_
 _symmetry_equiv_pos_site_id
 _symmetry_equiv_pos_as_xyz
  1  'x, y, z'
loop_
 _atom_site_type_symbol
 _atom_site_label
 _atom_site_symmetry_multiplicity
 _atom_site_fract_x
 _atom_site_fract_y
 _atom_site_fract_z
 _atom_site_occupancy
  Tm  Tm0  1  0.250000  0.979468  0.308889  1
  Tm  Tm1  1  0.250000  0.484643  0.186501  1
  Tm  Tm2  1  0.750000  0.014959  0.693437  1
  Tm  Tm3  1  0.750000  0.515747  0.810887  1
  Ga  Ga4  1  0.250000  0.339280  0.578858  1
  Ga  Ga5  1  0.250000  0.832491  0.925544  1
  Ga  Ga6  1  0.750000  0.672335  0.426055  1
  Ga  Ga7  1  0.750000  0.164774  0.070543  1
  Ru  Ru8  1  0.250000  0.220219  0.894952  1
  Ru  Ru9  1  0.250000  0.725629  0.604877  1
  Ru  Ru10  1  0.750000  0.774543  0.104087  1
  Pt  Pt11  1  0.750000  0.275910  0.395371  1
