# generated using pymatgen
data_Tb5Nd3Cd2PdPt
_symmetry_space_group_name_H-M   'P 1'
_cell_length_a   9.81844560
_cell_length_b   9.81844581
_cell_length_c   9.79751000
_cell_angle_alpha   60.07051068
_cell_angle_beta   60.07050997
_cell_angle_gamma   60.20628786
_symmetry_Int_Tables_number   1
_chemical_formula_structural   Tb5Nd3Cd2PdPt
_chemical_formula_sum   'Tb10 Nd6 Cd4 Pd2 Pt2'
_cell_volume   669.61039167
_cell_formula_units_Z   2
loop_
 _symmetry_equiv_pos_site_id
 _symmetry_equiv_pos_as_xyz
  1  'x, y, z'
loop_
 _atom_site_type_symbol
 _atom_site_label
 _atom_site_symmetry_multiplicity
 _atom_site_fract_x
 _atom_site_fract_y
 _atom_site_fract_z
 _atom_site_occupancy
  Tb  Tb0  1  0.351299  0.351299  0.348811  1
  Tb  Tb1  1  0.351299  0.351299  0.948590  1
  Tb  Tb2  1  0.354315  0.942725  0.351480  1
  Tb  Tb3  1  0.942725  0.354315  0.351480  1
  Tb  Tb4  1  0.809960  0.189322  0.189048  1
  Tb  Tb5  1  0.189322  0.809960  0.811669  1
  Tb  Tb6  1  0.189322  0.809960  0.189048  1
  Tb  Tb7  1  0.809960  0.189322  0.811669  1
  Tb  Tb8  1  0.189815  0.189815  0.810185  1
  Tb  Tb9  1  0.811250  0.811250  0.188750  1
  Nd  Nd10  1  0.938612  0.562660  0.562317  1
  Nd  Nd11  1  0.562660  0.938612  0.936412  1
  Nd  Nd12  1  0.562660  0.938612  0.562317  1
  Nd  Nd13  1  0.938612  0.562660  0.936412  1
  Nd  Nd14  1  0.562315  0.562315  0.937685  1
  Nd  Nd15  1  0.937339  0.937339  0.562661  1
  Cd  Cd16  1  0.579925  0.579925  0.580138  1
  Cd  Cd17  1  0.579925  0.579925  0.260012  1
  Cd  Cd18  1  0.579398  0.260305  0.580149  1
  Cd  Cd19  1  0.260305  0.579398  0.580149  1
  Pd  Pd20  1  0.143446  0.143446  0.145379  1
  Pd  Pd21  1  0.143446  0.143446  0.567729  1
  Pt  Pt22  1  0.141157  0.570931  0.143955  1
  Pt  Pt23  1  0.570931  0.141157  0.143955  1
