# generated using pymatgen
data_MgNi2H3
_symmetry_space_group_name_H-M   'P 1'
_cell_length_a   3.21621850
_cell_length_b   4.95736960
_cell_length_c   3.38025223
_cell_angle_alpha   69.94524461
_cell_angle_beta   89.92761314
_cell_angle_gamma   71.08014290
_symmetry_Int_Tables_number   1
_chemical_formula_structural   MgNi2H3
_chemical_formula_sum   'Mg1 Ni2 H3'
_cell_volume   47.52373426
_cell_formula_units_Z   1
loop_
 _symmetry_equiv_pos_site_id
 _symmetry_equiv_pos_as_xyz
  1  'x, y, z'
loop_
 _atom_site_type_symbol
 _atom_site_label
 _atom_site_symmetry_multiplicity
 _atom_site_fract_x
 _atom_site_fract_y
 _atom_site_fract_z
 _atom_site_occupancy
  Mg  Mg0  1  0.478405  0.991062  0.798364  1
  Ni  Ni1  1  0.793691  0.362188  0.110322  1
  Ni  Ni2  1  0.163970  0.621385  0.480652  1
  H  H3  1  0.743249  0.460922  0.564475  1
  H  H4  1  0.211452  0.523523  0.032879  1
  H  H5  1  0.978622  0.992211  0.287998  1
