# generated using pymatgen
data_Ho4Tm4MoOs3C8
_symmetry_space_group_name_H-M   'P 1'
_cell_length_a   5.05966800
_cell_length_b   6.51388336
_cell_length_c   9.72343105
_cell_angle_alpha   89.65004539
_cell_angle_beta   90.00000000
_cell_angle_gamma   90.00000000
_symmetry_Int_Tables_number   1
_chemical_formula_structural   Ho4Tm4MoOs3C8
_chemical_formula_sum   'Ho4 Tm4 Mo1 Os3 C8'
_cell_volume   320.45971072
_cell_formula_units_Z   1
loop_
 _symmetry_equiv_pos_site_id
 _symmetry_equiv_pos_as_xyz
  1  'x, y, z'
loop_
 _atom_site_type_symbol
 _atom_site_label
 _atom_site_symmetry_multiplicity
 _atom_site_fract_x
 _atom_site_fract_y
 _atom_site_fract_z
 _atom_site_occupancy
  Ho  Ho0  1  0.250000  0.533211  0.213048  1
  Ho  Ho1  1  0.750000  0.465739  0.782123  1
  Ho  Ho2  1  0.750000  0.969338  0.715010  1
  Ho  Ho3  1  0.250000  0.031266  0.286812  1
  Tm  Tm4  1  0.250000  0.675756  0.555420  1
  Tm  Tm5  1  0.750000  0.325424  0.443729  1
  Tm  Tm6  1  0.750000  0.827457  0.056624  1
  Tm  Tm7  1  0.250000  0.176683  0.943616  1
  Mo  Mo8  1  0.250000  0.719602  0.868709  1
  Os  Os9  1  0.750000  0.280632  0.134057  1
  Os  Os10  1  0.750000  0.778772  0.365417  1
  Os  Os11  1  0.250000  0.221823  0.631502  1
  C  C12  1  0.250000  0.449894  0.759508  1
  C  C13  1  0.750000  0.545313  0.241405  1
  C  C14  1  0.750000  0.046466  0.259847  1
  C  C15  1  0.250000  0.955483  0.738781  1
  C  C16  1  0.250000  0.828988  0.057703  1
  C  C17  1  0.750000  0.170891  0.948433  1
  C  C18  1  0.750000  0.669406  0.552372  1
  C  C19  1  0.250000  0.327858  0.445882  1
