# generated using pymatgen
data_Nd6Al24Ir5PdRu2
_symmetry_space_group_name_H-M   'P 1'
_cell_length_a   8.90410300
_cell_length_b   8.90410388
_cell_length_c   9.60506149
_cell_angle_alpha   89.99993537
_cell_angle_beta   90.00005674
_cell_angle_gamma   119.85567929
_symmetry_Int_Tables_number   1
_chemical_formula_structural   Nd6Al24Ir5PdRu2
_chemical_formula_sum   'Nd6 Al24 Ir5 Pd1 Ru2'
_cell_volume   660.45148480
_cell_formula_units_Z   1
loop_
 _symmetry_equiv_pos_site_id
 _symmetry_equiv_pos_as_xyz
  1  'x, y, z'
loop_
 _atom_site_type_symbol
 _atom_site_label
 _atom_site_symmetry_multiplicity
 _atom_site_fract_x
 _atom_site_fract_y
 _atom_site_fract_z
 _atom_site_occupancy
  Nd  Nd0  1  0.188307  0.379664  0.249442  1
  Nd  Nd1  1  0.811693  0.620336  0.750558  1
  Nd  Nd2  1  0.620336  0.811693  0.249442  1
  Nd  Nd3  1  0.379664  0.188307  0.750558  1
  Nd  Nd4  1  0.190033  0.809967  0.252166  1
  Nd  Nd5  1  0.809967  0.190033  0.747834  1
  Al  Al6  1  0.331434  0.668566  0.024411  1
  Al  Al7  1  0.668566  0.331434  0.975589  1
  Al  Al8  1  0.666496  0.333504  0.522923  1
  Al  Al9  1  0.333504  0.666496  0.477077  1
  Al  Al10  1  0.163609  0.326617  0.572750  1
  Al  Al11  1  0.836391  0.673383  0.427250  1
  Al  Al12  1  0.673383  0.836391  0.572750  1
  Al  Al13  1  0.841614  0.675186  0.076303  1
  Al  Al14  1  0.326617  0.163609  0.427250  1
  Al  Al15  1  0.158386  0.324814  0.923697  1
  Al  Al16  1  0.163340  0.836660  0.574443  1
  Al  Al17  1  0.324814  0.158386  0.076303  1
  Al  Al18  1  0.836660  0.163340  0.425557  1
  Al  Al19  1  0.675186  0.841614  0.923697  1
  Al  Al20  1  0.836274  0.163726  0.074082  1
  Al  Al21  1  0.163726  0.836274  0.925918  1
  Al  Al22  1  0.563213  0.126474  0.249992  1
  Al  Al23  1  0.436787  0.873526  0.750008  1
  Al  Al24  1  0.873526  0.436787  0.249992  1
  Al  Al25  1  0.126474  0.563213  0.750008  1
  Al  Al26  1  0.563925  0.436075  0.252723  1
  Al  Al27  1  0.436075  0.563925  0.747277  1
  Al  Al28  1  0.999279  0.000721  0.250353  1
  Al  Al29  1  0.000721  0.999279  0.749647  1
  Ir  Ir30  1  0.500000  0.000000  0.000000  1
  Ir  Ir31  1  0.000000  0.500000  0.000000  1
  Ir  Ir32  1  0.500000  0.000000  0.500000  1
  Ir  Ir33  1  0.000000  0.500000  0.500000  1
  Ir  Ir34  1  0.500000  0.500000  0.500000  1
  Pd  Pd35  1  0.500000  0.500000  0.000000  1
  Ru  Ru36  1  0.000000  0.000000  0.000000  1
  Ru  Ru37  1  0.000000  0.000000  0.500000  1
