# generated using pymatgen
data_Zr8TaSi16W11
_symmetry_space_group_name_H-M   'P 1'
_cell_length_a   6.75933543
_cell_length_b   6.75933543
_cell_length_c   12.56323378
_cell_angle_alpha   89.97073060
_cell_angle_beta   90.02926940
_cell_angle_gamma   90.21771548
_symmetry_Int_Tables_number   1
_chemical_formula_structural   Zr8TaSi16W11
_chemical_formula_sum   'Zr8 Ta1 Si16 W11'
_cell_volume   573.99246385
_cell_formula_units_Z   1
loop_
 _symmetry_equiv_pos_site_id
 _symmetry_equiv_pos_as_xyz
  1  'x, y, z'
loop_
 _atom_site_type_symbol
 _atom_site_label
 _atom_site_symmetry_multiplicity
 _atom_site_fract_x
 _atom_site_fract_y
 _atom_site_fract_z
 _atom_site_occupancy
  Zr  Zr0  1  0.004422  0.665104  0.031255  1
  Zr  Zr1  1  0.993667  0.335296  0.531270  1
  Zr  Zr2  1  0.665104  0.004422  0.968745  1
  Zr  Zr3  1  0.164026  0.495749  0.780402  1
  Zr  Zr4  1  0.836151  0.507437  0.282468  1
  Zr  Zr5  1  0.495749  0.164026  0.219598  1
  Zr  Zr6  1  0.507437  0.836151  0.717532  1
  Zr  Zr7  1  0.335296  0.993667  0.468730  1
  Ta  Ta8  1  0.333647  0.333647  0.000000  1
  Si  Si9  1  0.035310  0.710815  0.437314  1
  Si  Si10  1  0.959759  0.294200  0.934186  1
  Si  Si11  1  0.710815  0.035310  0.562686  1
  Si  Si12  1  0.209379  0.466831  0.189963  1
  Si  Si13  1  0.788115  0.534798  0.686569  1
  Si  Si14  1  0.466831  0.209379  0.810037  1
  Si  Si15  1  0.534798  0.788115  0.313431  1
  Si  Si16  1  0.294200  0.959759  0.065814  1
  Si  Si17  1  0.875476  0.795555  0.821415  1
  Si  Si18  1  0.124635  0.203367  0.321068  1
  Si  Si19  1  0.795555  0.875476  0.178585  1
  Si  Si20  1  0.294311  0.624332  0.571766  1
  Si  Si21  1  0.709405  0.372579  0.072365  1
  Si  Si22  1  0.624332  0.294311  0.428234  1
  Si  Si23  1  0.372579  0.709405  0.927635  1
  Si  Si24  1  0.203367  0.124635  0.678932  1
  W  W25  1  0.330209  0.493822  0.381492  1
  W  W26  1  0.829818  0.004427  0.369868  1
  W  W27  1  0.002031  0.168179  0.125951  1
  W  W28  1  0.004427  0.829818  0.630132  1
  W  W29  1  0.663266  0.504481  0.879854  1
  W  W30  1  0.493822  0.330209  0.618508  1
  W  W31  1  0.504481  0.663266  0.120146  1
  W  W32  1  0.168179  0.002031  0.874049  1
  W  W33  1  0.667833  0.667833  0.500000  1
  W  W34  1  0.832597  0.168969  0.748585  1
  W  W35  1  0.168969  0.832597  0.251415  1
