# generated using pymatgen
data_LaPr5(Ga2Ge)4
_symmetry_space_group_name_H-M   'P 1'
_cell_length_a   4.31950474
_cell_length_b   4.36148290
_cell_length_c   22.16848909
_cell_angle_alpha   84.35461428
_cell_angle_beta   84.40912141
_cell_angle_gamma   89.99999328
_symmetry_Int_Tables_number   1
_chemical_formula_structural   LaPr5(Ga2Ge)4
_chemical_formula_sum   'La1 Pr5 Ga8 Ge4'
_cell_volume   413.61991767
_cell_formula_units_Z   1
loop_
 _symmetry_equiv_pos_site_id
 _symmetry_equiv_pos_as_xyz
  1  'x, y, z'
loop_
 _atom_site_type_symbol
 _atom_site_label
 _atom_site_symmetry_multiplicity
 _atom_site_fract_x
 _atom_site_fract_y
 _atom_site_fract_z
 _atom_site_occupancy
  La  La0  1  0.957967  0.707967  0.084064  1
  Pr  Pr1  1  0.291049  0.041049  0.417903  1
  Pr  Pr2  1  0.624615  0.374615  0.750769  1
  Pr  Pr3  1  0.375408  0.625408  0.249185  1
  Pr  Pr4  1  0.708799  0.958799  0.582402  1
  Pr  Pr5  1  0.041746  0.291746  0.916509  1
  Ga  Ga6  1  0.820198  0.570198  0.359605  1
  Ga  Ga7  1  0.153402  0.903402  0.693196  1
  Ga  Ga8  1  0.430424  0.180424  0.139152  1
  Ga  Ga9  1  0.764803  0.514803  0.470393  1
  Ga  Ga10  1  0.098073  0.848073  0.803855  1
  Ga  Ga11  1  0.846535  0.096535  0.306929  1
  Ga  Ga12  1  0.179805  0.429805  0.640390  1
  Ga  Ga13  1  0.513540  0.763540  0.972920  1
  Ge  Ge14  1  0.902300  0.152300  0.195402  1
  Ge  Ge15  1  0.235598  0.485598  0.528804  1
  Ge  Ge16  1  0.569178  0.819178  0.861642  1
  Ge  Ge17  1  0.486560  0.236560  0.026878  1
