# generated using pymatgen
data_La2TaH9
_symmetry_space_group_name_H-M   'P 1'
_cell_length_a   8.73693800
_cell_length_b   8.73693864
_cell_length_c   5.05352600
_cell_angle_alpha   90.00000000
_cell_angle_beta   90.00000000
_cell_angle_gamma   119.99999757
_symmetry_Int_Tables_number   1
_chemical_formula_structural   La2TaH9
_chemical_formula_sum   'La6 Ta3 H27'
_cell_volume   334.07477635
_cell_formula_units_Z   3
loop_
 _symmetry_equiv_pos_site_id
 _symmetry_equiv_pos_as_xyz
  1  'x, y, z'
loop_
 _atom_site_type_symbol
 _atom_site_label
 _atom_site_symmetry_multiplicity
 _atom_site_fract_x
 _atom_site_fract_y
 _atom_site_fract_z
 _atom_site_occupancy
  La  La0  1  0.259429  0.000000  0.500000  1
  La  La1  1  0.000000  0.259429  0.500000  1
  La  La2  1  0.740571  0.740571  0.500000  1
  La  La3  1  0.602822  0.000000  0.000000  1
  La  La4  1  0.000000  0.602822  0.000000  1
  La  La5  1  0.397178  0.397178  0.000000  1
  Ta  Ta6  1  0.000000  0.000000  0.000000  1
  Ta  Ta7  1  0.333333  0.666667  0.500000  1
  Ta  Ta8  1  0.666667  0.333333  0.500000  1
  H  H9  1  0.839177  0.000000  0.254030  1
  H  H10  1  0.000000  0.839177  0.254030  1
  H  H11  1  0.839177  0.000000  0.745970  1
  H  H12  1  0.000000  0.839177  0.745970  1
  H  H13  1  0.160823  0.160823  0.254030  1
  H  H14  1  0.160823  0.160823  0.745970  1
  H  H15  1  0.219865  0.000000  0.000000  1
  H  H16  1  0.000000  0.219865  0.000000  1
  H  H17  1  0.780135  0.780135  0.000000  1
  H  H18  1  0.186288  0.514794  0.228513  1
  H  H19  1  0.485206  0.671493  0.228513  1
  H  H20  1  0.186288  0.514794  0.771487  1
  H  H21  1  0.514794  0.186288  0.771487  1
  H  H22  1  0.328507  0.813712  0.228513  1
  H  H23  1  0.485206  0.671493  0.771487  1
  H  H24  1  0.671493  0.485206  0.771487  1
  H  H25  1  0.514794  0.186288  0.228513  1
  H  H26  1  0.328507  0.813712  0.771487  1
  H  H27  1  0.671493  0.485206  0.228513  1
  H  H28  1  0.813712  0.328507  0.771487  1
  H  H29  1  0.813712  0.328507  0.228513  1
  H  H30  1  0.322365  0.448483  0.500000  1
  H  H31  1  0.551517  0.873881  0.500000  1
  H  H32  1  0.448483  0.322365  0.500000  1
  H  H33  1  0.126119  0.677635  0.500000  1
  H  H34  1  0.873881  0.551517  0.500000  1
  H  H35  1  0.677635  0.126119  0.500000  1
