# generated using pymatgen
data_HoEr5GaTcNi
_symmetry_space_group_name_H-M   'P 1'
_cell_length_a   8.28603652
_cell_length_b   8.28600077
_cell_length_c   8.28600013
_cell_angle_alpha   113.20399129
_cell_angle_beta   111.22515443
_cell_angle_gamma   104.12023874
_symmetry_Int_Tables_number   1
_chemical_formula_structural   HoEr5GaTcNi
_chemical_formula_sum   'Ho2 Er10 Ga2 Tc2 Ni2'
_cell_volume   434.96852121
_cell_formula_units_Z   2
loop_
 _symmetry_equiv_pos_site_id
 _symmetry_equiv_pos_as_xyz
  1  'x, y, z'
loop_
 _atom_site_type_symbol
 _atom_site_label
 _atom_site_symmetry_multiplicity
 _atom_site_fract_x
 _atom_site_fract_y
 _atom_site_fract_z
 _atom_site_occupancy
  Ho  Ho0  1  0.052727  0.743861  0.308866  1
  Ho  Ho1  1  0.947273  0.256139  0.691134  1
  Er  Er2  1  0.564971  0.256201  0.308768  1
  Er  Er3  1  0.435029  0.743799  0.691232  1
  Er  Er4  1  0.667508  0.852899  0.185237  1
  Er  Er5  1  0.332492  0.517729  0.185391  1
  Er  Er6  1  0.332492  0.147101  0.814763  1
  Er  Er7  1  0.667508  0.482271  0.814609  1
  Er  Er8  1  0.180122  0.218456  0.398461  1
  Er  Er9  1  0.819878  0.218339  0.038334  1
  Er  Er10  1  0.180122  0.781661  0.961666  1
  Er  Er11  1  0.819878  0.781544  0.601539  1
  Ga  Ga12  1  0.000000  0.500000  0.500000  1
  Ga  Ga13  1  0.500000  0.000000  0.500000  1
  Tc  Tc14  1  0.679242  0.499932  0.179310  1
  Tc  Tc15  1  0.320758  0.500068  0.820690  1
  Ni  Ni16  1  0.882027  0.882096  0.999930  1
  Ni  Ni17  1  0.117973  0.117904  0.000070  1
