# generated using pymatgen
data_Cs2Zr6TiCBr18
_symmetry_space_group_name_H-M   'P 1'
_cell_length_a   11.02362860
_cell_length_b   11.10712107
_cell_length_c   11.15621742
_cell_angle_alpha   55.27612461
_cell_angle_beta   56.25020601
_cell_angle_gamma   56.08140477
_symmetry_Int_Tables_number   1
_chemical_formula_structural   Cs2Zr6TiCBr18
_chemical_formula_sum   'Cs2 Zr6 Ti1 C1 Br18'
_cell_volume   873.23997216
_cell_formula_units_Z   1
loop_
 _symmetry_equiv_pos_site_id
 _symmetry_equiv_pos_as_xyz
  1  'x, y, z'
loop_
 _atom_site_type_symbol
 _atom_site_label
 _atom_site_symmetry_multiplicity
 _atom_site_fract_x
 _atom_site_fract_y
 _atom_site_fract_z
 _atom_site_occupancy
  Cs  Cs0  1  0.773166  0.776796  0.774133  1
  Cs  Cs1  1  0.223751  0.226579  0.227783  1
  Zr  Zr2  1  0.847819  0.096953  0.194892  1
  Zr  Zr3  1  0.096417  0.195734  0.848484  1
  Zr  Zr4  1  0.193922  0.848292  0.098974  1
  Zr  Zr5  1  0.901520  0.805459  0.154121  1
  Zr  Zr6  1  0.804148  0.152711  0.903492  1
  Zr  Zr7  1  0.502771  0.500157  0.495035  1
  Ti  Ti8  1  0.135930  0.914294  0.824748  1
  C  C9  1  0.996739  0.001967  0.004202  1
  Br  Br10  1  0.227353  0.461759  0.642239  1
  Br  Br11  1  0.781934  0.531355  0.349324  1
  Br  Br12  1  0.346931  0.051881  0.935064  1
  Br  Br13  1  0.652987  0.947745  0.065155  1
  Br  Br14  1  0.938049  0.346605  0.048387  1
  Br  Br15  1  0.708859  0.879463  0.411223  1
  Br  Br16  1  0.365694  0.768124  0.521722  1
  Br  Br17  1  0.589138  0.292164  0.114473  1
  Br  Br18  1  0.282697  0.108947  0.601830  1
  Br  Br19  1  0.119075  0.587061  0.291794  1
  Br  Br20  1  0.956512  0.056745  0.663969  1
  Br  Br21  1  0.395107  0.720544  0.880598  1
  Br  Br22  1  0.881001  0.412960  0.707597  1
  Br  Br23  1  0.067618  0.668173  0.943628  1
  Br  Br24  1  0.467200  0.640943  0.219410  1
  Br  Br25  1  0.649319  0.222200  0.461403  1
  Br  Br26  1  0.540060  0.350763  0.770707  1
  Br  Br27  1  0.054283  0.933626  0.345614  1
