# generated using pymatgen
data_Dy4Co5P12Ir7Rh8
_symmetry_space_group_name_H-M   'P 1'
_cell_length_a   3.87340200
_cell_length_b   10.71259605
_cell_length_c   12.34528124
_cell_angle_alpha   89.90599635
_cell_angle_beta   90.00000000
_cell_angle_gamma   90.00000000
_symmetry_Int_Tables_number   1
_chemical_formula_structural   Dy4Co5P12Ir7Rh8
_chemical_formula_sum   'Dy4 Co5 P12 Ir7 Rh8'
_cell_volume   512.25676789
_cell_formula_units_Z   1
loop_
 _symmetry_equiv_pos_site_id
 _symmetry_equiv_pos_as_xyz
  1  'x, y, z'
loop_
 _atom_site_type_symbol
 _atom_site_label
 _atom_site_symmetry_multiplicity
 _atom_site_fract_x
 _atom_site_fract_y
 _atom_site_fract_z
 _atom_site_occupancy
  Dy  Dy0  1  0.250000  0.581531  0.709491  1
  Dy  Dy1  1  0.250000  0.916168  0.208264  1
  Dy  Dy2  1  0.750000  0.416476  0.291228  1
  Dy  Dy3  1  0.750000  0.087230  0.792351  1
  Co  Co4  1  0.750000  0.382802  0.802779  1
  Co  Co5  1  0.250000  0.463329  0.930316  1
  Co  Co6  1  0.250000  0.038266  0.435005  1
  Co  Co7  1  0.750000  0.538248  0.063488  1
  Co  Co8  1  0.750000  0.963286  0.567234  1
  P  P9  1  0.250000  0.425544  0.103207  1
  P  P10  1  0.250000  0.077360  0.607652  1
  P  P11  1  0.750000  0.565427  0.887280  1
  P  P12  1  0.750000  0.924955  0.395020  1
  P  P13  1  0.250000  0.274504  0.870539  1
  P  P14  1  0.250000  0.230030  0.372075  1
  P  P15  1  0.750000  0.729258  0.126619  1
  P  P16  1  0.750000  0.770390  0.628581  1
  P  P17  1  0.250000  0.596628  0.388034  1
  P  P18  1  0.250000  0.901978  0.887723  1
  P  P19  1  0.750000  0.401696  0.621275  1
  P  P20  1  0.750000  0.099408  0.111855  1
  Ir  Ir21  1  0.250000  0.230576  0.177863  1
  Ir  Ir22  1  0.250000  0.276210  0.681478  1
  Ir  Ir23  1  0.750000  0.766985  0.821629  1
  Ir  Ir24  1  0.750000  0.729755  0.320294  1
  Ir  Ir25  1  0.250000  0.886413  0.699321  1
  Ir  Ir26  1  0.250000  0.612998  0.198074  1
  Ir  Ir27  1  0.750000  0.114479  0.302357  1
  Rh  Rh28  1  0.250000  0.716153  0.984361  1
  Rh  Rh29  1  0.250000  0.782860  0.483576  1
  Rh  Rh30  1  0.750000  0.283686  0.011420  1
  Rh  Rh31  1  0.750000  0.216508  0.519584  1
  Rh  Rh32  1  0.250000  0.406962  0.479596  1
  Rh  Rh33  1  0.250000  0.092826  0.978489  1
  Rh  Rh34  1  0.750000  0.590426  0.522348  1
  Rh  Rh35  1  0.750000  0.908648  0.019595  1
