# generated using pymatgen
data_Dy3HoC5
_symmetry_space_group_name_H-M   'P 1'
_cell_length_a   3.67127100
_cell_length_b   6.57504604
_cell_length_c   11.94284408
_cell_angle_alpha   89.98693805
_cell_angle_beta   90.00000000
_cell_angle_gamma   90.00000000
_symmetry_Int_Tables_number   1
_chemical_formula_structural   Dy3HoC5
_chemical_formula_sum   'Dy6 Ho2 C10'
_cell_volume   288.28562883
_cell_formula_units_Z   2
loop_
 _symmetry_equiv_pos_site_id
 _symmetry_equiv_pos_as_xyz
  1  'x, y, z'
loop_
 _atom_site_type_symbol
 _atom_site_label
 _atom_site_symmetry_multiplicity
 _atom_site_fract_x
 _atom_site_fract_y
 _atom_site_fract_z
 _atom_site_occupancy
  Dy  Dy0  1  0.000000  0.255617  0.542201  1
  Dy  Dy1  1  0.000000  0.744383  0.457799  1
  Dy  Dy2  1  0.500000  0.105693  0.803540  1
  Dy  Dy3  1  0.500000  0.894307  0.196460  1
  Dy  Dy4  1  0.500000  0.605667  0.696745  1
  Dy  Dy5  1  0.500000  0.394333  0.303255  1
  Ho  Ho6  1  0.000000  0.756722  0.957884  1
  Ho  Ho7  1  0.000000  0.243278  0.042116  1
  C  C8  1  0.500000  0.500000  0.500000  1
  C  C9  1  0.500000  0.000000  0.000000  1
  C  C10  1  0.000000  0.359341  0.735460  1
  C  C11  1  0.000000  0.640659  0.264540  1
  C  C12  1  0.000000  0.858914  0.765539  1
  C  C13  1  0.000000  0.141086  0.234461  1
  C  C14  1  0.000000  0.402513  0.844536  1
  C  C15  1  0.000000  0.597487  0.155464  1
  C  C16  1  0.000000  0.097900  0.343485  1
  C  C17  1  0.000000  0.902100  0.656515  1
