# generated using pymatgen
data_Ba6Sc2(WO6)3
_symmetry_space_group_name_H-M   'P 1'
_cell_length_a   14.70230427
_cell_length_b   14.70230424
_cell_length_c   14.70230430
_cell_angle_alpha   22.99363987
_cell_angle_beta   22.99364087
_cell_angle_gamma   22.99363818
_symmetry_Int_Tables_number   1
_chemical_formula_structural   Ba6Sc2(WO6)3
_chemical_formula_sum   'Ba6 Sc2 W3 O18'
_cell_volume   425.60118164
_cell_formula_units_Z   1
loop_
 _symmetry_equiv_pos_site_id
 _symmetry_equiv_pos_as_xyz
  1  'x, y, z'
loop_
 _atom_site_type_symbol
 _atom_site_label
 _atom_site_symmetry_multiplicity
 _atom_site_fract_x
 _atom_site_fract_y
 _atom_site_fract_z
 _atom_site_occupancy
  Ba  Ba0  1  0.637596  0.637596  0.637596  1
  Ba  Ba1  1  0.086165  0.086165  0.086165  1
  Ba  Ba2  1  0.362404  0.362404  0.362404  1
  Ba  Ba3  1  0.812566  0.812566  0.812566  1
  Ba  Ba4  1  0.187434  0.187434  0.187434  1
  Ba  Ba5  1  0.913835  0.913835  0.913835  1
  Sc  Sc6  1  0.275213  0.275213  0.275213  1
  Sc  Sc7  1  0.724787  0.724787  0.724787  1
  W  W8  1  0.446827  0.446827  0.446827  1
  W  W9  1  0.553173  0.553173  0.553173  1
  W  W10  1  0.000000  0.000000  0.000000  1
  O  O11  1  0.867281  0.344091  0.867282  1
  O  O12  1  0.867281  0.867281  0.344092  1
  O  O13  1  0.344091  0.867281  0.867282  1
  O  O14  1  0.655909  0.132719  0.132718  1
  O  O15  1  0.132719  0.132719  0.655908  1
  O  O16  1  0.132719  0.655909  0.132718  1
  O  O17  1  0.423718  0.903062  0.423719  1
  O  O18  1  0.423718  0.423718  0.903063  1
  O  O19  1  0.903062  0.423718  0.423719  1
  O  O20  1  0.096938  0.576282  0.576281  1
  O  O21  1  0.576282  0.576282  0.096937  1
  O  O22  1  0.576282  0.096938  0.576281  1
  O  O23  1  0.309352  0.787732  0.309352  1
  O  O24  1  0.309352  0.309352  0.787732  1
  O  O25  1  0.787732  0.309352  0.309352  1
  O  O26  1  0.212268  0.690648  0.690648  1
  O  O27  1  0.690648  0.690648  0.212268  1
  O  O28  1  0.690648  0.212268  0.690648  1
