# generated using pymatgen
data_Ca20Cd3Ni8Pb
_symmetry_space_group_name_H-M   'P 1'
_cell_length_a   7.75159500
_cell_length_b   7.75159500
_cell_length_c   14.91819500
_cell_angle_alpha   90.00000000
_cell_angle_beta   90.00000000
_cell_angle_gamma   90.00000000
_symmetry_Int_Tables_number   1
_chemical_formula_structural   Ca20Cd3Ni8Pb
_chemical_formula_sum   'Ca20 Cd3 Ni8 Pb1'
_cell_volume   896.39294022
_cell_formula_units_Z   1
loop_
 _symmetry_equiv_pos_site_id
 _symmetry_equiv_pos_as_xyz
  1  'x, y, z'
loop_
 _atom_site_type_symbol
 _atom_site_label
 _atom_site_symmetry_multiplicity
 _atom_site_fract_x
 _atom_site_fract_y
 _atom_site_fract_z
 _atom_site_occupancy
  Ca  Ca0  1  0.672884  0.168905  0.114404  1
  Ca  Ca1  1  0.170865  0.670282  0.619847  1
  Ca  Ca2  1  0.327116  0.831095  0.114404  1
  Ca  Ca3  1  0.829135  0.329718  0.619847  1
  Ca  Ca4  1  0.831095  0.672884  0.114404  1
  Ca  Ca5  1  0.329718  0.170865  0.619847  1
  Ca  Ca6  1  0.168905  0.327116  0.114404  1
  Ca  Ca7  1  0.670282  0.829135  0.619847  1
  Ca  Ca8  1  0.831095  0.327116  0.885596  1
  Ca  Ca9  1  0.329718  0.829135  0.380153  1
  Ca  Ca10  1  0.168905  0.672884  0.885596  1
  Ca  Ca11  1  0.670282  0.170865  0.380153  1
  Ca  Ca12  1  0.672884  0.831095  0.885596  1
  Ca  Ca13  1  0.170865  0.329718  0.380153  1
  Ca  Ca14  1  0.327116  0.168905  0.885596  1
  Ca  Ca15  1  0.829135  0.670282  0.380153  1
  Ca  Ca16  1  0.500000  0.500000  0.754864  1
  Ca  Ca17  1  0.000000  0.000000  0.247936  1
  Ca  Ca18  1  0.000000  0.000000  0.752064  1
  Ca  Ca19  1  0.500000  0.500000  0.245136  1
  Cd  Cd20  1  0.500000  0.500000  0.500000  1
  Cd  Cd21  1  0.500000  0.500000  0.000000  1
  Cd  Cd22  1  0.000000  0.000000  0.500000  1
  Ni  Ni23  1  0.608578  0.108943  0.751276  1
  Ni  Ni24  1  0.108943  0.608578  0.248724  1
  Ni  Ni25  1  0.891057  0.391422  0.248724  1
  Ni  Ni26  1  0.391422  0.891057  0.751276  1
  Ni  Ni27  1  0.891057  0.608578  0.751276  1
  Ni  Ni28  1  0.391422  0.108943  0.248724  1
  Ni  Ni29  1  0.108943  0.391422  0.751276  1
  Ni  Ni30  1  0.608578  0.891057  0.248724  1
  Pb  Pb31  1  0.000000  0.000000  0.000000  1
