# generated using pymatgen
data_Lu7Hf9(TaSi4)4
_symmetry_space_group_name_H-M   'P 1'
_cell_length_a   7.12996182
_cell_length_b   7.13427731
_cell_length_c   13.03872326
_cell_angle_alpha   90.07771553
_cell_angle_beta   90.02370639
_cell_angle_gamma   89.95054584
_symmetry_Int_Tables_number   1
_chemical_formula_structural   Lu7Hf9(TaSi4)4
_chemical_formula_sum   'Lu7 Hf9 Ta4 Si16'
_cell_volume   663.24145011
_cell_formula_units_Z   1
loop_
 _symmetry_equiv_pos_site_id
 _symmetry_equiv_pos_as_xyz
  1  'x, y, z'
loop_
 _atom_site_type_symbol
 _atom_site_label
 _atom_site_symmetry_multiplicity
 _atom_site_fract_x
 _atom_site_fract_y
 _atom_site_fract_z
 _atom_site_occupancy
  Lu  Lu0  1  0.497651  0.154398  0.533495  1
  Lu  Lu1  1  0.502408  0.845759  0.035497  1
  Lu  Lu2  1  0.655053  0.003510  0.283151  1
  Lu  Lu3  1  0.345665  0.997115  0.784837  1
  Lu  Lu4  1  0.844896  0.502792  0.966582  1
  Lu  Lu5  1  0.153488  0.496838  0.465929  1
  Lu  Lu6  1  0.003015  0.654695  0.715332  1
  Hf  Hf7  1  0.002866  0.349069  0.214514  1
  Hf  Hf8  1  0.495264  0.354181  0.126494  1
  Hf  Hf9  1  0.504362  0.645380  0.625591  1
  Hf  Hf10  1  0.854406  0.005280  0.876786  1
  Hf  Hf11  1  0.143636  0.994829  0.374019  1
  Hf  Hf12  1  0.645701  0.502683  0.372799  1
  Hf  Hf13  1  0.354594  0.495006  0.875327  1
  Hf  Hf14  1  0.004687  0.853607  0.125319  1
  Hf  Hf15  1  0.994932  0.145478  0.623668  1
  Ta  Ta16  1  0.675697  0.324083  0.749776  1
  Ta  Ta17  1  0.321867  0.674307  0.249865  1
  Ta  Ta18  1  0.824298  0.823347  0.499211  1
  Ta  Ta19  1  0.174498  0.177610  0.001465  1
  Si  Si20  1  0.800225  0.146282  0.071241  1
  Si  Si21  1  0.203501  0.857474  0.567707  1
  Si  Si22  1  0.642997  0.703941  0.818492  1
  Si  Si23  1  0.352963  0.297266  0.317365  1
  Si  Si24  1  0.857621  0.204999  0.429270  1
  Si  Si25  1  0.142509  0.795828  0.932567  1
  Si  Si26  1  0.706568  0.640644  0.181311  1
  Si  Si27  1  0.296559  0.357122  0.681731  1
  Si  Si28  1  0.549089  0.201801  0.935226  1
  Si  Si29  1  0.451500  0.797904  0.434066  1
  Si  Si30  1  0.701530  0.951253  0.684294  1
  Si  Si31  1  0.296911  0.050490  0.184470  1
  Si  Si32  1  0.798424  0.451579  0.565071  1
  Si  Si33  1  0.200129  0.547425  0.066938  1
  Si  Si34  1  0.951882  0.697643  0.314919  1
  Si  Si35  1  0.048608  0.298382  0.815674  1
