# generated using pymatgen
data_Er4ReBr4
_symmetry_space_group_name_H-M   'P 1'
_cell_length_a   8.86974896
_cell_length_b   8.86974888
_cell_length_c   6.56888058
_cell_angle_alpha   89.45339318
_cell_angle_beta   89.45339768
_cell_angle_gamma   89.38367842
_symmetry_Int_Tables_number   1
_chemical_formula_structural   Er4ReBr4
_chemical_formula_sum   'Er8 Re2 Br8'
_cell_volume   516.71347137
_cell_formula_units_Z   2
loop_
 _symmetry_equiv_pos_site_id
 _symmetry_equiv_pos_as_xyz
  1  'x, y, z'
loop_
 _atom_site_type_symbol
 _atom_site_label
 _atom_site_symmetry_multiplicity
 _atom_site_fract_x
 _atom_site_fract_y
 _atom_site_fract_z
 _atom_site_occupancy
  Er  Er0  1  0.249288  0.901037  0.010851  1
  Er  Er1  1  0.750712  0.098963  0.989149  1
  Er  Er2  1  0.098963  0.750712  0.489149  1
  Er  Er3  1  0.901037  0.249288  0.510851  1
  Er  Er4  1  0.751437  0.902392  0.509025  1
  Er  Er5  1  0.248563  0.097608  0.490975  1
  Er  Er6  1  0.097608  0.248563  0.990975  1
  Er  Er7  1  0.902392  0.751437  0.009025  1
  Re  Re8  1  0.994299  0.005701  0.250000  1
  Re  Re9  1  0.005701  0.994299  0.750000  1
  Br  Br10  1  0.422339  0.815526  0.403923  1
  Br  Br11  1  0.577661  0.184474  0.596077  1
  Br  Br12  1  0.184474  0.577661  0.096077  1
  Br  Br13  1  0.815526  0.422339  0.903923  1
  Br  Br14  1  0.418001  0.193879  0.098046  1
  Br  Br15  1  0.581999  0.806121  0.901954  1
  Br  Br16  1  0.806121  0.581999  0.401954  1
  Br  Br17  1  0.193879  0.418001  0.598046  1
