# generated using pymatgen
data_LiYb3ErFeC8
_symmetry_space_group_name_H-M   'P 1'
_cell_length_a   6.75027727
_cell_length_b   6.71635202
_cell_length_c   6.73349764
_cell_angle_alpha   134.56110171
_cell_angle_beta   111.24963264
_cell_angle_gamma   86.64135447
_symmetry_Int_Tables_number   1
_chemical_formula_structural   LiYb3ErFeC8
_chemical_formula_sum   'Li1 Yb3 Er1 Fe1 C8'
_cell_volume   193.71777688
_cell_formula_units_Z   1
loop_
 _symmetry_equiv_pos_site_id
 _symmetry_equiv_pos_as_xyz
  1  'x, y, z'
loop_
 _atom_site_type_symbol
 _atom_site_label
 _atom_site_symmetry_multiplicity
 _atom_site_fract_x
 _atom_site_fract_y
 _atom_site_fract_z
 _atom_site_occupancy
  Li  Li0  1  0.002956  0.248797  0.242323  1
  Yb  Yb1  1  0.800465  0.642008  0.150199  1
  Yb  Yb2  1  0.517169  0.864058  0.670269  1
  Yb  Yb3  1  0.495907  0.153843  0.354500  1
  Er  Er4  1  0.201512  0.353207  0.839947  1
  Fe  Fe5  1  0.991564  0.734171  0.741746  1
  C  C6  1  0.814801  0.142751  0.691707  1
  C  C7  1  0.206380  0.889748  0.347052  1
  C  C8  1  0.451149  0.614162  0.820745  1
  C  C9  1  0.529021  0.376935  0.158157  1
  C  C10  1  0.913870  0.007850  0.753887  1
  C  C11  1  0.092083  0.846684  0.108953  1
  C  C12  1  0.255131  0.646473  0.741283  1
  C  C13  1  0.727992  0.479314  0.379231  1
