# generated using pymatgen
data_Tm4Mg2ZnGaPt4
_symmetry_space_group_name_H-M   'P 1'
_cell_length_a   4.21310500
_cell_length_b   6.92212031
_cell_length_c   8.23979788
_cell_angle_alpha   89.44387158
_cell_angle_beta   90.00000000
_cell_angle_gamma   90.00000000
_symmetry_Int_Tables_number   1
_chemical_formula_structural   Tm4Mg2ZnGaPt4
_chemical_formula_sum   'Tm4 Mg2 Zn1 Ga1 Pt4'
_cell_volume   240.29101211
_cell_formula_units_Z   1
loop_
 _symmetry_equiv_pos_site_id
 _symmetry_equiv_pos_as_xyz
  1  'x, y, z'
loop_
 _atom_site_type_symbol
 _atom_site_label
 _atom_site_symmetry_multiplicity
 _atom_site_fract_x
 _atom_site_fract_y
 _atom_site_fract_z
 _atom_site_occupancy
  Tm  Tm0  1  0.250000  0.966989  0.321729  1
  Tm  Tm1  1  0.250000  0.450591  0.179502  1
  Tm  Tm2  1  0.750000  0.051928  0.676981  1
  Tm  Tm3  1  0.750000  0.532387  0.821897  1
  Mg  Mg4  1  0.250000  0.867440  0.941480  1
  Mg  Mg5  1  0.750000  0.628187  0.442992  1
  Zn  Zn6  1  0.250000  0.364202  0.560224  1
  Ga  Ga7  1  0.750000  0.134351  0.058489  1
  Pt  Pt8  1  0.250000  0.252695  0.875663  1
  Pt  Pt9  1  0.250000  0.753957  0.626795  1
  Pt  Pt10  1  0.750000  0.751210  0.125755  1
  Pt  Pt11  1  0.750000  0.246064  0.368494  1
