# generated using pymatgen
data_Sr5Si5Br3
_symmetry_space_group_name_H-M   'P 1'
_cell_length_a   12.06657681
_cell_length_b   12.06657520
_cell_length_c   15.48644490
_cell_angle_alpha   71.31295084
_cell_angle_beta   71.31295327
_cell_angle_gamma   21.55266645
_symmetry_Int_Tables_number   1
_chemical_formula_structural   Sr5Si5Br3
_chemical_formula_sum   'Sr10 Si10 Br6'
_cell_volume   783.04222513
_cell_formula_units_Z   2
loop_
 _symmetry_equiv_pos_site_id
 _symmetry_equiv_pos_as_xyz
  1  'x, y, z'
loop_
 _atom_site_type_symbol
 _atom_site_label
 _atom_site_symmetry_multiplicity
 _atom_site_fract_x
 _atom_site_fract_y
 _atom_site_fract_z
 _atom_site_occupancy
  Sr  Sr0  1  0.353940  0.353940  0.056451  1
  Sr  Sr1  1  0.909258  0.909258  0.555199  1
  Sr  Sr2  1  0.090742  0.090742  0.444801  1
  Sr  Sr3  1  0.020107  0.020107  0.724478  1
  Sr  Sr4  1  0.979893  0.979893  0.275522  1
  Sr  Sr5  1  0.838487  0.838487  0.830646  1
  Sr  Sr6  1  0.728535  0.728535  0.662140  1
  Sr  Sr7  1  0.646060  0.646060  0.943549  1
  Sr  Sr8  1  0.161513  0.161513  0.169354  1
  Sr  Sr9  1  0.271465  0.271465  0.337860  1
  Si  Si10  1  0.506847  0.506847  0.573068  1
  Si  Si11  1  0.421876  0.421876  0.703920  1
  Si  Si12  1  0.493153  0.493153  0.426932  1
  Si  Si13  1  0.748527  0.748527  0.030071  1
  Si  Si14  1  0.675088  0.675088  0.313851  1
  Si  Si15  1  0.240456  0.240456  0.820133  1
  Si  Si16  1  0.759544  0.759544  0.179867  1
  Si  Si17  1  0.324912  0.324912  0.686149  1
  Si  Si18  1  0.578124  0.578124  0.296080  1
  Si  Si19  1  0.251473  0.251473  0.969929  1
  Br  Br20  1  0.590426  0.590426  0.787244  1
  Br  Br21  1  0.065216  0.065216  0.062448  1
  Br  Br22  1  0.934784  0.934784  0.937552  1
  Br  Br23  1  0.823558  0.823558  0.434532  1
  Br  Br24  1  0.409574  0.409574  0.212756  1
  Br  Br25  1  0.176442  0.176442  0.565468  1
