# generated using pymatgen
data_Ti6TcAs6Ru5
_symmetry_space_group_name_H-M   'P 1'
_cell_length_a   7.50353064
_cell_length_b   7.49921508
_cell_length_c   7.49638116
_cell_angle_alpha   128.15715389
_cell_angle_beta   121.25556521
_cell_angle_gamma   82.05766287
_symmetry_Int_Tables_number   1
_chemical_formula_structural   Ti6TcAs6Ru5
_chemical_formula_sum   'Ti6 Tc1 As6 Ru5'
_cell_volume   272.91211863
_cell_formula_units_Z   1
loop_
 _symmetry_equiv_pos_site_id
 _symmetry_equiv_pos_as_xyz
  1  'x, y, z'
loop_
 _atom_site_type_symbol
 _atom_site_label
 _atom_site_symmetry_multiplicity
 _atom_site_fract_x
 _atom_site_fract_y
 _atom_site_fract_z
 _atom_site_occupancy
  Ti  Ti0  1  0.469165  0.250037  0.282899  1
  Ti  Ti1  1  0.531639  0.808116  0.778926  1
  Ti  Ti2  1  0.746980  0.664770  0.410978  1
  Ti  Ti3  1  0.254781  0.667187  0.917537  1
  Ti  Ti4  1  0.053637  0.845298  0.290291  1
  Ti  Ti5  1  0.944215  0.240058  0.792636  1
  Tc  Tc6  1  0.660420  0.495027  0.906072  1
  As  As7  1  0.837805  0.580872  0.748651  1
  As  As8  1  0.162847  0.912095  0.742758  1
  As  As9  1  0.670069  0.915228  0.250615  1
  As  As10  1  0.330102  0.577985  0.242563  1
  As  As11  1  0.281012  0.282694  0.500668  1
  As  As12  1  0.717292  0.217016  0.000517  1
  Ru  Ru13  1  0.337805  0.244646  0.834588  1
  Ru  Ru14  1  0.914010  0.247828  0.410171  1
  Ru  Ru15  1  0.083876  0.496557  0.330494  1
  Ru  Ru16  1  0.003050  0.999189  0.000838  1
  Ru  Ru17  1  0.501296  0.995795  0.499198  1
