# generated using pymatgen
data_Tb3ZnCd2IrPd2
_symmetry_space_group_name_H-M   'P 1'
_cell_length_a   7.53117305
_cell_length_b   7.53534432
_cell_length_c   3.92433200
_cell_angle_alpha   90.00000000
_cell_angle_beta   90.00000000
_cell_angle_gamma   120.38300564
_symmetry_Int_Tables_number   1
_chemical_formula_structural   Tb3ZnCd2IrPd2
_chemical_formula_sum   'Tb3 Zn1 Cd2 Ir1 Pd2'
_cell_volume   192.12018962
_cell_formula_units_Z   1
loop_
 _symmetry_equiv_pos_site_id
 _symmetry_equiv_pos_as_xyz
  1  'x, y, z'
loop_
 _atom_site_type_symbol
 _atom_site_label
 _atom_site_symmetry_multiplicity
 _atom_site_fract_x
 _atom_site_fract_y
 _atom_site_fract_z
 _atom_site_occupancy
  Tb  Tb0  1  0.012128  0.410148  0.000000  1
  Tb  Tb1  1  0.586757  0.606133  0.000000  1
  Tb  Tb2  1  0.414451  0.986618  0.000000  1
  Zn  Zn3  1  0.739797  0.998571  0.500000  1
  Cd  Cd4  1  0.999651  0.748360  0.500000  1
  Cd  Cd5  1  0.257972  0.248666  0.500000  1
  Ir  Ir6  1  0.341563  0.673039  0.500000  1
  Pd  Pd7  1  0.975374  0.002211  0.000000  1
  Pd  Pd8  1  0.672305  0.326255  0.500000  1
