# generated using pymatgen
data_NaReO3F2
_symmetry_space_group_name_H-M   'P 1'
_cell_length_a   3.82780863
_cell_length_b   10.20076400
_cell_length_c   5.81875106
_cell_angle_alpha   90.00000000
_cell_angle_beta   109.13453246
_cell_angle_gamma   90.00000000
_symmetry_Int_Tables_number   1
_chemical_formula_structural   NaReO3F2
_chemical_formula_sum   'Na2 Re2 O6 F4'
_cell_volume   214.64970531
_cell_formula_units_Z   2
loop_
 _symmetry_equiv_pos_site_id
 _symmetry_equiv_pos_as_xyz
  1  'x, y, z'
loop_
 _atom_site_type_symbol
 _atom_site_label
 _atom_site_symmetry_multiplicity
 _atom_site_fract_x
 _atom_site_fract_y
 _atom_site_fract_z
 _atom_site_occupancy
  Na  Na0  1  0.000000  0.000000  0.500000  1
  Na  Na1  1  0.000000  0.500000  0.500000  1
  Re  Re2  1  0.237892  0.750000  0.072821  1
  Re  Re3  1  0.762109  0.250000  0.927179  1
  O  O4  1  0.799410  0.750000  0.120339  1
  O  O5  1  0.814910  0.119012  0.126033  1
  O  O6  1  0.814910  0.380988  0.126033  1
  O  O7  1  0.185091  0.619011  0.873967  1
  O  O8  1  0.185091  0.880988  0.873967  1
  O  O9  1  0.200591  0.250000  0.879662  1
  F  F10  1  0.431799  0.623754  0.357683  1
  F  F11  1  0.431799  0.876246  0.357683  1
  F  F12  1  0.568201  0.123754  0.642317  1
  F  F13  1  0.568201  0.376246  0.642317  1
