# generated using pymatgen
data_Dy3Co8ReP6
_symmetry_space_group_name_H-M   'P 1'
_cell_length_a   3.73849800
_cell_length_b   10.54545800
_cell_length_c   12.23401800
_cell_angle_alpha   90.00000000
_cell_angle_beta   90.00000000
_cell_angle_gamma   90.00000000
_symmetry_Int_Tables_number   1
_chemical_formula_structural   Dy3Co8ReP6
_chemical_formula_sum   'Dy6 Co16 Re2 P12'
_cell_volume   482.31604997
_cell_formula_units_Z   2
loop_
 _symmetry_equiv_pos_site_id
 _symmetry_equiv_pos_as_xyz
  1  'x, y, z'
loop_
 _atom_site_type_symbol
 _atom_site_label
 _atom_site_symmetry_multiplicity
 _atom_site_fract_x
 _atom_site_fract_y
 _atom_site_fract_z
 _atom_site_occupancy
  Dy  Dy0  1  0.000000  0.500000  0.524329  1
  Dy  Dy1  1  0.500000  0.000000  0.475671  1
  Dy  Dy2  1  0.500000  0.818068  0.205773  1
  Dy  Dy3  1  0.500000  0.181932  0.205773  1
  Dy  Dy4  1  0.000000  0.681932  0.794227  1
  Dy  Dy5  1  0.000000  0.318068  0.794227  1
  Co  Co6  1  0.500000  0.500000  0.702096  1
  Co  Co7  1  0.000000  0.000000  0.297904  1
  Co  Co8  1  0.000000  0.500000  0.988186  1
  Co  Co9  1  0.500000  0.000000  0.011814  1
  Co  Co10  1  0.500000  0.332473  0.989811  1
  Co  Co11  1  0.500000  0.667527  0.989811  1
  Co  Co12  1  0.000000  0.167527  0.010189  1
  Co  Co13  1  0.000000  0.832473  0.010189  1
  Co  Co14  1  0.500000  0.296628  0.431142  1
  Co  Co15  1  0.500000  0.703372  0.431142  1
  Co  Co16  1  0.000000  0.203372  0.568858  1
  Co  Co17  1  0.000000  0.796628  0.568858  1
  Co  Co18  1  0.500000  0.879216  0.708484  1
  Co  Co19  1  0.500000  0.120784  0.708484  1
  Co  Co20  1  0.000000  0.620784  0.291516  1
  Co  Co21  1  0.000000  0.379216  0.291516  1
  Re  Re22  1  0.500000  0.500000  0.156107  1
  Re  Re23  1  0.000000  0.000000  0.843893  1
  P  P24  1  0.500000  0.500000  0.880141  1
  P  P25  1  0.000000  0.000000  0.119859  1
  P  P26  1  0.500000  0.500000  0.349062  1
  P  P27  1  0.000000  0.000000  0.650938  1
  P  P28  1  0.500000  0.311669  0.615922  1
  P  P29  1  0.500000  0.688331  0.615922  1
  P  P30  1  0.000000  0.188331  0.384078  1
  P  P31  1  0.000000  0.811669  0.384078  1
  P  P32  1  0.500000  0.845873  0.892347  1
  P  P33  1  0.500000  0.154127  0.892347  1
  P  P34  1  0.000000  0.654127  0.107653  1
  P  P35  1  0.000000  0.345873  0.107653  1
