# generated using pymatgen
data_NaLi2PS4
_symmetry_space_group_name_H-M   'P 1'
_cell_length_a   6.06718300
_cell_length_b   6.06718289
_cell_length_c   6.06718301
_cell_angle_alpha   117.53687494
_cell_angle_beta   117.53687642
_cell_angle_gamma   94.32198142
_symmetry_Int_Tables_number   1
_chemical_formula_structural   NaLi2PS4
_chemical_formula_sum   'Na1 Li2 P1 S4'
_cell_volume   163.30018503
_cell_formula_units_Z   1
loop_
 _symmetry_equiv_pos_site_id
 _symmetry_equiv_pos_as_xyz
  1  'x, y, z'
loop_
 _atom_site_type_symbol
 _atom_site_label
 _atom_site_symmetry_multiplicity
 _atom_site_fract_x
 _atom_site_fract_y
 _atom_site_fract_z
 _atom_site_occupancy
  Na  Na0  1  0.500000  0.500000  0.000000  1
  Li  Li1  1  0.250000  0.750000  0.500000  1
  Li  Li2  1  0.750000  0.250000  0.500000  1
  P  P3  1  0.000000  0.000000  0.000000  1
  S  S4  1  0.332858  0.951409  0.000000  1
  S  S5  1  0.951409  0.332858  0.000000  1
  S  S6  1  0.667142  0.667142  0.618550  1
  S  S7  1  0.048591  0.048591  0.381450  1
