# generated using pymatgen
data_DyHo4SnBi2
_symmetry_space_group_name_H-M   'P 1'
_cell_length_a   9.09047243
_cell_length_b   9.04023192
_cell_length_c   6.44269300
_cell_angle_alpha   90.00000000
_cell_angle_beta   90.00000000
_cell_angle_gamma   119.81733823
_symmetry_Int_Tables_number   1
_chemical_formula_structural   DyHo4SnBi2
_chemical_formula_sum   'Dy2 Ho8 Sn2 Bi4'
_cell_volume   459.36777687
_cell_formula_units_Z   2
loop_
 _symmetry_equiv_pos_site_id
 _symmetry_equiv_pos_as_xyz
  1  'x, y, z'
loop_
 _atom_site_type_symbol
 _atom_site_label
 _atom_site_symmetry_multiplicity
 _atom_site_fract_x
 _atom_site_fract_y
 _atom_site_fract_z
 _atom_site_occupancy
  Dy  Dy0  1  0.994568  0.759005  0.750000  1
  Dy  Dy1  1  0.994568  0.235563  0.250000  1
  Ho  Ho2  1  0.756391  0.761508  0.250000  1
  Ho  Ho3  1  0.756391  0.994883  0.750000  1
  Ho  Ho4  1  0.245406  0.245560  0.750000  1
  Ho  Ho5  1  0.245406  0.999846  0.250000  1
  Ho  Ho6  1  0.340757  0.670379  0.500000  1
  Ho  Ho7  1  0.665147  0.332572  0.000000  1
  Ho  Ho8  1  0.665147  0.332572  0.500000  1
  Ho  Ho9  1  0.340757  0.670379  0.000000  1
  Sn  Sn10  1  0.607729  0.605872  0.750000  1
  Sn  Sn11  1  0.607729  0.001858  0.250000  1
  Bi  Bi12  1  0.388815  0.999292  0.750000  1
  Bi  Bi13  1  0.388815  0.389523  0.250000  1
  Bi  Bi14  1  0.001188  0.609828  0.250000  1
  Bi  Bi15  1  0.001188  0.391360  0.750000  1
