# generated using pymatgen
data_GdBr37
_symmetry_space_group_name_H-M   'P 1'
_cell_length_a   14.20848141
_cell_length_b   15.29732181
_cell_length_c   14.42416200
_cell_angle_alpha   103.00376457
_cell_angle_beta   48.80056783
_cell_angle_gamma   81.50743146
_symmetry_Int_Tables_number   1
_chemical_formula_structural   GdBr37
_chemical_formula_sum   'Gd1 Br37'
_cell_volume   2102.91272627
_cell_formula_units_Z   1
loop_
 _symmetry_equiv_pos_site_id
 _symmetry_equiv_pos_as_xyz
  1  'x, y, z'
loop_
 _atom_site_type_symbol
 _atom_site_label
 _atom_site_symmetry_multiplicity
 _atom_site_fract_x
 _atom_site_fract_y
 _atom_site_fract_z
 _atom_site_occupancy
  Gd  Gd0  1  0.500000  0.000000  0.000000  1
  Br  Br1  1  0.789883  0.300562  0.136346  1
  Br  Br2  1  0.210117  0.699438  0.863654  1
  Br  Br3  1  0.744843  0.083497  0.363814  1
  Br  Br4  1  0.255157  0.916503  0.636186  1
  Br  Br5  1  0.115756  0.349118  0.170227  1
  Br  Br6  1  0.884244  0.650882  0.829773  1
  Br  Br7  1  0.868632  0.533715  0.246935  1
  Br  Br8  1  0.131368  0.466285  0.753065  1
  Br  Br9  1  0.686463  0.275774  0.522617  1
  Br  Br10  1  0.313537  0.724226  0.477383  1
  Br  Br11  1  0.051619  0.145182  0.474079  1
  Br  Br12  1  0.948381  0.854818  0.525921  1
  Br  Br13  1  0.978764  0.007504  0.285844  1
  Br  Br14  1  0.021236  0.992496  0.714156  1
  Br  Br15  1  0.954644  0.340093  0.598141  1
  Br  Br16  1  0.045356  0.659907  0.401859  1
  Br  Br17  1  0.581097  0.428796  0.234478  1
  Br  Br18  1  0.418903  0.571204  0.765522  1
  Br  Br19  1  0.172784  0.478667  0.276043  1
  Br  Br20  1  0.827216  0.521333  0.723957  1
  Br  Br21  1  0.000000  0.500000  0.000000  1
  Br  Br22  1  0.575899  0.956076  0.132815  1
  Br  Br23  1  0.424101  0.043924  0.867185  1
  Br  Br24  1  0.313789  0.053100  0.303129  1
  Br  Br25  1  0.686211  0.946900  0.696871  1
  Br  Br26  1  0.532669  0.133589  0.413934  1
  Br  Br27  1  0.467331  0.866411  0.586066  1
  Br  Br28  1  0.093027  0.215416  0.069793  1
  Br  Br29  1  0.906973  0.784584  0.930207  1
  Br  Br30  1  0.664389  0.692087  0.401597  1
  Br  Br31  1  0.335611  0.307913  0.598403  1
  Br  Br32  1  0.901101  0.147624  0.922631  1
  Br  Br33  1  0.098899  0.852376  0.077369  1
  Br  Br34  1  0.506892  0.177876  0.057226  1
  Br  Br35  1  0.493108  0.822124  0.942774  1
  Br  Br36  1  0.649589  0.431153  0.651040  1
  Br  Br37  1  0.350411  0.568847  0.348960  1
