# generated using pymatgen
data_Ti4Nb3Re8W
_symmetry_space_group_name_H-M   'P 1'
_cell_length_a   6.31544300
_cell_length_b   6.31544300
_cell_length_c   6.31606200
_cell_angle_alpha   90.00000000
_cell_angle_beta   90.00000000
_cell_angle_gamma   90.00000000
_symmetry_Int_Tables_number   1
_chemical_formula_structural   Ti4Nb3Re8W
_chemical_formula_sum   'Ti4 Nb3 Re8 W1'
_cell_volume   251.91499779
_cell_formula_units_Z   1
loop_
 _symmetry_equiv_pos_site_id
 _symmetry_equiv_pos_as_xyz
  1  'x, y, z'
loop_
 _atom_site_type_symbol
 _atom_site_label
 _atom_site_symmetry_multiplicity
 _atom_site_fract_x
 _atom_site_fract_y
 _atom_site_fract_z
 _atom_site_occupancy
  Ti  Ti0  1  0.500000  0.500000  0.000000  1
  Ti  Ti1  1  0.000000  0.000000  0.000000  1
  Ti  Ti2  1  0.000000  0.500000  0.500000  1
  Ti  Ti3  1  0.500000  0.000000  0.500000  1
  Nb  Nb4  1  0.000000  0.000000  0.500000  1
  Nb  Nb5  1  0.000000  0.500000  0.000000  1
  Nb  Nb6  1  0.500000  0.000000  0.000000  1
  Re  Re7  1  0.251738  0.251738  0.251760  1
  Re  Re8  1  0.748262  0.748262  0.748240  1
  Re  Re9  1  0.748262  0.748262  0.251760  1
  Re  Re10  1  0.748262  0.251738  0.251760  1
  Re  Re11  1  0.748262  0.251738  0.748240  1
  Re  Re12  1  0.251738  0.251738  0.748240  1
  Re  Re13  1  0.251738  0.748262  0.748240  1
  Re  Re14  1  0.251738  0.748262  0.251760  1
  W  W15  1  0.500000  0.500000  0.500000  1
