# generated using pymatgen
data_La2OsO5
_symmetry_space_group_name_H-M   'P 1'
_cell_length_a   7.04783736
_cell_length_b   7.04783784
_cell_length_c   7.04783824
_cell_angle_alpha   100.60521192
_cell_angle_beta   100.60520926
_cell_angle_gamma   129.19181356
_symmetry_Int_Tables_number   1
_chemical_formula_structural   La2OsO5
_chemical_formula_sum   'La4 Os2 O10'
_cell_volume   245.08861069
_cell_formula_units_Z   2
loop_
 _symmetry_equiv_pos_site_id
 _symmetry_equiv_pos_as_xyz
  1  'x, y, z'
loop_
 _atom_site_type_symbol
 _atom_site_label
 _atom_site_symmetry_multiplicity
 _atom_site_fract_x
 _atom_site_fract_y
 _atom_site_fract_z
 _atom_site_occupancy
  La  La0  1  0.818092  0.395433  0.213525  1
  La  La1  1  0.395433  0.181908  0.577342  1
  La  La2  1  0.604567  0.818092  0.422658  1
  La  La3  1  0.181908  0.604567  0.786475  1
  Os  Os4  1  0.182264  0.182264  0.000000  1
  Os  Os5  1  0.817736  0.817736  0.000000  1
  O  O6  1  0.353592  0.071072  0.907587  1
  O  O7  1  0.071072  0.163485  0.717480  1
  O  O8  1  0.446005  0.353592  0.282520  1
  O  O9  1  0.163485  0.446005  0.092413  1
  O  O10  1  0.646408  0.928928  0.092413  1
  O  O11  1  0.928928  0.836515  0.282520  1
  O  O12  1  0.250000  0.750000  0.500000  1
  O  O13  1  0.750000  0.250000  0.500000  1
  O  O14  1  0.836515  0.553995  0.907587  1
  O  O15  1  0.553995  0.646408  0.717480  1
