# generated using pymatgen
data_Nb4AlB4Ru10W
_symmetry_space_group_name_H-M   'P 1'
_cell_length_a   9.39903700
_cell_length_b   9.39903700
_cell_length_c   2.99319900
_cell_angle_alpha   90.00000000
_cell_angle_beta   90.00000000
_cell_angle_gamma   90.00000000
_symmetry_Int_Tables_number   1
_chemical_formula_structural   Nb4AlB4Ru10W
_chemical_formula_sum   'Nb4 Al1 B4 Ru10 W1'
_cell_volume   264.42487634
_cell_formula_units_Z   1
loop_
 _symmetry_equiv_pos_site_id
 _symmetry_equiv_pos_as_xyz
  1  'x, y, z'
loop_
 _atom_site_type_symbol
 _atom_site_label
 _atom_site_symmetry_multiplicity
 _atom_site_fract_x
 _atom_site_fract_y
 _atom_site_fract_z
 _atom_site_occupancy
  Nb  Nb0  1  0.818844  0.673660  0.000000  1
  Nb  Nb1  1  0.181156  0.326340  0.000000  1
  Nb  Nb2  1  0.326340  0.818844  0.000000  1
  Nb  Nb3  1  0.673660  0.181156  0.000000  1
  Al  Al4  1  0.500000  0.500000  0.000000  1
  B  B5  1  0.615293  0.870410  0.000000  1
  B  B6  1  0.384707  0.129590  0.000000  1
  B  B7  1  0.129590  0.615293  0.000000  1
  B  B8  1  0.870410  0.384707  0.000000  1
  Ru  Ru9  1  0.500000  0.000000  0.500000  1
  Ru  Ru10  1  0.000000  0.500000  0.500000  1
  Ru  Ru11  1  0.569714  0.715041  0.500000  1
  Ru  Ru12  1  0.430286  0.284959  0.500000  1
  Ru  Ru13  1  0.070151  0.782687  0.500000  1
  Ru  Ru14  1  0.929849  0.217313  0.500000  1
  Ru  Ru15  1  0.284959  0.569714  0.500000  1
  Ru  Ru16  1  0.715041  0.430286  0.500000  1
  Ru  Ru17  1  0.217313  0.070151  0.500000  1
  Ru  Ru18  1  0.782687  0.929849  0.500000  1
  W  W19  1  0.000000  0.000000  0.000000  1
