# generated using pymatgen
data_Ho8Ta9Ti2Si16Ru
_symmetry_space_group_name_H-M   'P 1'
_cell_length_a   7.01916766
_cell_length_b   7.01103660
_cell_length_c   12.90970627
_cell_angle_alpha   90.12165743
_cell_angle_beta   89.90534451
_cell_angle_gamma   89.73464054
_symmetry_Int_Tables_number   1
_chemical_formula_structural   Ho8Ta9Ti2Si16Ru
_chemical_formula_sum   'Ho8 Ta9 Ti2 Si16 Ru1'
_cell_volume   635.29871204
_cell_formula_units_Z   1
loop_
 _symmetry_equiv_pos_site_id
 _symmetry_equiv_pos_as_xyz
  1  'x, y, z'
loop_
 _atom_site_type_symbol
 _atom_site_label
 _atom_site_symmetry_multiplicity
 _atom_site_fract_x
 _atom_site_fract_y
 _atom_site_fract_z
 _atom_site_occupancy
  Ho  Ho0  1  0.341330  0.002012  0.468054  1
  Ho  Ho1  1  0.496873  0.842103  0.719314  1
  Ho  Ho2  1  0.500982  0.158576  0.216949  1
  Ho  Ho3  1  0.842141  0.497055  0.280997  1
  Ho  Ho4  1  0.158692  0.501396  0.783644  1
  Ho  Ho5  1  0.658377  0.999021  0.968944  1
  Ho  Ho6  1  0.002978  0.339955  0.531510  1
  Ho  Ho7  1  0.998217  0.661008  0.031060  1
  Ta  Ta8  1  0.174457  0.827278  0.247708  1
  Ta  Ta9  1  0.828023  0.175381  0.752493  1
  Ta  Ta10  1  0.670241  0.669809  0.499404  1
  Ta  Ta11  1  0.147928  0.002753  0.873822  1
  Ta  Ta12  1  0.495075  0.656838  0.123473  1
  Ta  Ta13  1  0.504376  0.347849  0.625287  1
  Ta  Ta14  1  0.657439  0.494278  0.876728  1
  Ta  Ta15  1  0.348236  0.505784  0.375269  1
  Ta  Ta16  1  0.848540  0.991085  0.374961  1
  Ti  Ti17  1  0.003671  0.148107  0.126150  1
  Ti  Ti18  1  0.991453  0.847836  0.625290  1
  Si  Si19  1  0.201962  0.133629  0.683131  1
  Si  Si20  1  0.368264  0.702326  0.932370  1
  Si  Si21  1  0.634549  0.293933  0.431737  1
  Si  Si22  1  0.703067  0.366889  0.068101  1
  Si  Si23  1  0.294486  0.635741  0.568648  1
  Si  Si24  1  0.796028  0.868634  0.181569  1
  Si  Si25  1  0.135211  0.201623  0.315551  1
  Si  Si26  1  0.865125  0.796113  0.817420  1
  Si  Si27  1  0.290650  0.958649  0.061604  1
  Si  Si28  1  0.545039  0.794725  0.313215  1
  Si  Si29  1  0.449143  0.209123  0.817967  1
  Si  Si30  1  0.796182  0.546013  0.685289  1
  Si  Si31  1  0.208026  0.448583  0.181049  1
  Si  Si32  1  0.706908  0.045380  0.565598  1
  Si  Si33  1  0.959090  0.292326  0.940171  1
  Si  Si34  1  0.046340  0.704847  0.436001  1
  Ru  Ru35  1  0.330901  0.333343  0.999522  1
