# generated using pymatgen
data_V3Cr2Ru
_symmetry_space_group_name_H-M   'P 1'
_cell_length_a   4.19852500
_cell_length_b   4.19714704
_cell_length_c   5.16527700
_cell_angle_alpha   89.98896989
_cell_angle_beta   89.99773466
_cell_angle_gamma   120.00308088
_symmetry_Int_Tables_number   1
_chemical_formula_structural   V3Cr2Ru
_chemical_formula_sum   'V3 Cr2 Ru1'
_cell_volume   78.82458251
_cell_formula_units_Z   1
loop_
 _symmetry_equiv_pos_site_id
 _symmetry_equiv_pos_as_xyz
  1  'x, y, z'
loop_
 _atom_site_type_symbol
 _atom_site_label
 _atom_site_symmetry_multiplicity
 _atom_site_fract_x
 _atom_site_fract_y
 _atom_site_fract_z
 _atom_site_occupancy
  V  V0  1  0.384053  0.722523  0.694727  1
  V  V1  1  0.717370  0.389189  0.344116  1
  V  V2  1  0.050694  0.055822  0.019442  1
  Cr  Cr3  1  0.384110  0.722554  0.180573  1
  Cr  Cr4  1  0.717378  0.389168  0.858092  1
  Ru  Ru5  1  0.050645  0.055800  0.519422  1
