# generated using pymatgen
data_DyYMn12P7
_symmetry_space_group_name_H-M   'P 1'
_cell_length_a   9.29797300
_cell_length_b   9.29797340
_cell_length_c   3.59623500
_cell_angle_alpha   90.00000000
_cell_angle_beta   90.00000000
_cell_angle_gamma   120.00000212
_symmetry_Int_Tables_number   1
_chemical_formula_structural   DyYMn12P7
_chemical_formula_sum   'Dy1 Y1 Mn12 P7'
_cell_volume   269.24972363
_cell_formula_units_Z   1
loop_
 _symmetry_equiv_pos_site_id
 _symmetry_equiv_pos_as_xyz
  1  'x, y, z'
loop_
 _atom_site_type_symbol
 _atom_site_label
 _atom_site_symmetry_multiplicity
 _atom_site_fract_x
 _atom_site_fract_y
 _atom_site_fract_z
 _atom_site_occupancy
  Dy  Dy0  1  0.333333  0.666667  0.000000  1
  Y  Y1  1  0.000000  0.000000  0.500000  1
  Mn  Mn2  1  0.042240  0.284687  0.000000  1
  Mn  Mn3  1  0.715313  0.757553  0.000000  1
  Mn  Mn4  1  0.242447  0.957760  0.000000  1
  Mn  Mn5  1  0.547466  0.057522  0.000000  1
  Mn  Mn6  1  0.942478  0.489945  0.000000  1
  Mn  Mn7  1  0.510055  0.452534  0.000000  1
  Mn  Mn8  1  0.622248  0.895904  0.500000  1
  Mn  Mn9  1  0.104096  0.726344  0.500000  1
  Mn  Mn10  1  0.273656  0.377752  0.500000  1
  Mn  Mn11  1  0.791406  0.229634  0.500000  1
  Mn  Mn12  1  0.770366  0.561773  0.500000  1
  Mn  Mn13  1  0.438227  0.208594  0.500000  1
  P  P14  1  0.786027  0.041972  0.000000  1
  P  P15  1  0.958028  0.744055  0.000000  1
  P  P16  1  0.255945  0.213973  0.000000  1
  P  P17  1  0.386531  0.925532  0.500000  1
  P  P18  1  0.074468  0.461000  0.500000  1
  P  P19  1  0.539000  0.613469  0.500000  1
  P  P20  1  0.666667  0.333333  0.000000  1
