# generated using pymatgen
data_Nd3Lu(Sc4Pb5)2
_symmetry_space_group_name_H-M   'P 1'
_cell_length_a   6.40249025
_cell_length_b   9.28568175
_cell_length_c   11.35446287
_cell_angle_alpha   114.09405015
_cell_angle_beta   106.37584966
_cell_angle_gamma   90.00000119
_symmetry_Int_Tables_number   1
_chemical_formula_structural   Nd3Lu(Sc4Pb5)2
_chemical_formula_sum   'Nd3 Lu1 Sc8 Pb10'
_cell_volume   586.10207544
_cell_formula_units_Z   1
loop_
 _symmetry_equiv_pos_site_id
 _symmetry_equiv_pos_as_xyz
  1  'x, y, z'
loop_
 _atom_site_type_symbol
 _atom_site_label
 _atom_site_symmetry_multiplicity
 _atom_site_fract_x
 _atom_site_fract_y
 _atom_site_fract_z
 _atom_site_occupancy
  Nd  Nd0  1  0.141713  0.257942  0.283425  1
  Nd  Nd1  1  0.858525  0.743965  0.717052  1
  Nd  Nd2  1  0.641566  0.026357  0.283132  1
  Lu  Lu3  1  0.358161  0.973204  0.716324  1
  Sc  Sc4  1  0.559068  0.309003  0.618521  1
  Sc  Sc5  1  0.440983  0.691864  0.382839  1
  Sc  Sc6  1  0.941854  0.691864  0.382839  1
  Sc  Sc7  1  0.059454  0.309003  0.618521  1
  Sc  Sc8  1  0.437211  0.677810  0.874422  1
  Sc  Sc9  1  0.562678  0.322175  0.125356  1
  Sc  Sc10  1  0.936806  0.195024  0.873612  1
  Sc  Sc11  1  0.062654  0.803712  0.125308  1
  Pb  Pb12  1  0.290870  0.594454  0.581740  1
  Pb  Pb13  1  0.709964  0.410640  0.419927  1
  Pb  Pb14  1  0.790145  0.990469  0.580290  1
  Pb  Pb15  1  0.210926  0.008765  0.421851  1
  Pb  Pb16  1  0.250620  0.000000  0.998391  1
  Pb  Pb17  1  0.747771  0.000000  0.998391  1
  Pb  Pb18  1  0.068913  0.478247  0.137825  1
  Pb  Pb19  1  0.931137  0.521940  0.862273  1
  Pb  Pb20  1  0.569249  0.659889  0.138499  1
  Pb  Pb21  1  0.429730  0.333673  0.859461  1
