# generated using pymatgen
data_LaTm2NiIr8
_symmetry_space_group_name_H-M   'P 1'
_cell_length_a   5.33319377
_cell_length_b   5.33319387
_cell_length_c   9.13845166
_cell_angle_alpha   73.03426338
_cell_angle_beta   73.03426351
_cell_angle_gamma   59.99999542
_symmetry_Int_Tables_number   1
_chemical_formula_structural   LaTm2NiIr8
_chemical_formula_sum   'La1 Tm2 Ni1 Ir8'
_cell_volume   211.93862692
_cell_formula_units_Z   1
loop_
 _symmetry_equiv_pos_site_id
 _symmetry_equiv_pos_as_xyz
  1  'x, y, z'
loop_
 _atom_site_type_symbol
 _atom_site_label
 _atom_site_symmetry_multiplicity
 _atom_site_fract_x
 _atom_site_fract_y
 _atom_site_fract_z
 _atom_site_occupancy
  La  La0  1  0.000279  0.000279  0.999164  1
  Tm  Tm1  1  0.141380  0.141380  0.575861  1
  Tm  Tm2  1  0.860429  0.860429  0.418713  1
  Ni  Ni3  1  0.666633  0.666633  0.000100  1
  Ir  Ir4  1  0.077558  0.584784  0.752873  1
  Ir  Ir5  1  0.584784  0.584784  0.752873  1
  Ir  Ir6  1  0.584784  0.077558  0.752873  1
  Ir  Ir7  1  0.914896  0.418784  0.247537  1
  Ir  Ir8  1  0.418784  0.418784  0.247537  1
  Ir  Ir9  1  0.418784  0.914896  0.247537  1
  Ir  Ir10  1  0.332465  0.332465  0.002606  1
  Ir  Ir11  1  0.499225  0.499225  0.502325  1
