# generated using pymatgen
data_Pr3NdMg2P5
_symmetry_space_group_name_H-M   'P 1'
_cell_length_a   4.22580800
_cell_length_b   4.22580793
_cell_length_c   17.23337500
_cell_angle_alpha   90.00000000
_cell_angle_beta   90.00000000
_cell_angle_gamma   120.00000054
_symmetry_Int_Tables_number   1
_chemical_formula_structural   Pr3NdMg2P5
_chemical_formula_sum   'Pr3 Nd1 Mg2 P5'
_cell_volume   266.51427928
_cell_formula_units_Z   1
loop_
 _symmetry_equiv_pos_site_id
 _symmetry_equiv_pos_as_xyz
  1  'x, y, z'
loop_
 _atom_site_type_symbol
 _atom_site_label
 _atom_site_symmetry_multiplicity
 _atom_site_fract_x
 _atom_site_fract_y
 _atom_site_fract_z
 _atom_site_occupancy
  Pr  Pr0  1  0.333333  0.666667  0.096294  1
  Pr  Pr1  1  0.000000  0.000000  0.711026  1
  Pr  Pr2  1  0.000000  0.000000  0.289505  1
  Nd  Nd3  1  0.666667  0.333333  0.903088  1
  Mg  Mg4  1  0.666667  0.333333  0.445147  1
  Mg  Mg5  1  0.333333  0.666667  0.555021  1
  P  P6  1  0.666667  0.333333  0.599265  1
  P  P7  1  0.333333  0.666667  0.401046  1
  P  P8  1  0.666667  0.333333  0.198326  1
  P  P9  1  0.333333  0.666667  0.802470  1
  P  P10  1  0.000000  0.000000  0.998812  1
