# generated using pymatgen
data_Ba3BiI3
_symmetry_space_group_name_H-M   'P 1'
_cell_length_a   12.41559490
_cell_length_b   12.41559459
_cell_length_c   12.41559500
_cell_angle_alpha   109.47122294
_cell_angle_beta   109.47122243
_cell_angle_gamma   109.47122166
_symmetry_Int_Tables_number   1
_chemical_formula_structural   Ba3BiI3
_chemical_formula_sum   'Ba12 Bi4 I12'
_cell_volume   1473.26433614
_cell_formula_units_Z   4
loop_
 _symmetry_equiv_pos_site_id
 _symmetry_equiv_pos_as_xyz
  1  'x, y, z'
loop_
 _atom_site_type_symbol
 _atom_site_label
 _atom_site_symmetry_multiplicity
 _atom_site_fract_x
 _atom_site_fract_y
 _atom_site_fract_z
 _atom_site_occupancy
  Ba  Ba0  1  0.490494  0.495246  0.245246  1
  Ba  Ba1  1  0.750000  0.245246  0.254754  1
  Ba  Ba2  1  0.750000  0.004754  0.495246  1
  Ba  Ba3  1  0.245246  0.490494  0.495246  1
  Ba  Ba4  1  0.254754  0.750000  0.245246  1
  Ba  Ba5  1  0.009506  0.254754  0.004754  1
  Ba  Ba6  1  0.004754  0.009506  0.254754  1
  Ba  Ba7  1  0.495246  0.750000  0.004754  1
  Ba  Ba8  1  0.495246  0.245246  0.490494  1
  Ba  Ba9  1  0.004754  0.495246  0.750000  1
  Ba  Ba10  1  0.254754  0.004754  0.009506  1
  Ba  Ba11  1  0.245246  0.254754  0.750000  1
  Bi  Bi12  1  0.250000  0.250000  0.250000  1
  Bi  Bi13  1  0.500000  0.000000  0.250000  1
  Bi  Bi14  1  0.000000  0.250000  0.500000  1
  Bi  Bi15  1  0.250000  0.500000  0.000000  1
  I  I16  1  0.250000  0.747869  0.752131  1
  I  I17  1  0.495738  0.497869  0.747869  1
  I  I18  1  0.004262  0.752131  0.002131  1
  I  I19  1  0.752131  0.250000  0.747869  1
  I  I20  1  0.002131  0.004262  0.752131  1
  I  I21  1  0.250000  0.002131  0.497869  1
  I  I22  1  0.747869  0.495738  0.497869  1
  I  I23  1  0.497869  0.250000  0.002131  1
  I  I24  1  0.747869  0.752131  0.250000  1
  I  I25  1  0.752131  0.002131  0.004262  1
  I  I26  1  0.002131  0.497869  0.250000  1
  I  I27  1  0.497869  0.747869  0.495738  1
