# generated using pymatgen
data_Nd16Cd2Hg2Ir3Pd
_symmetry_space_group_name_H-M   'P 1'
_cell_length_a   9.94046350
_cell_length_b   9.94046380
_cell_length_c   9.95169214
_cell_angle_alpha   60.21674358
_cell_angle_beta   60.21673833
_cell_angle_gamma   60.24745534
_symmetry_Int_Tables_number   1
_chemical_formula_structural   Nd16Cd2Hg2Ir3Pd
_chemical_formula_sum   'Nd16 Cd2 Hg2 Ir3 Pd1'
_cell_volume   698.90984684
_cell_formula_units_Z   1
loop_
 _symmetry_equiv_pos_site_id
 _symmetry_equiv_pos_as_xyz
  1  'x, y, z'
loop_
 _atom_site_type_symbol
 _atom_site_label
 _atom_site_symmetry_multiplicity
 _atom_site_fract_x
 _atom_site_fract_y
 _atom_site_fract_z
 _atom_site_occupancy
  Nd  Nd0  1  0.347483  0.347483  0.347212  1
  Nd  Nd1  1  0.353848  0.353848  0.947396  1
  Nd  Nd2  1  0.354442  0.945974  0.354052  1
  Nd  Nd3  1  0.945974  0.354442  0.354052  1
  Nd  Nd4  1  0.804126  0.190652  0.191110  1
  Nd  Nd5  1  0.188945  0.809002  0.809127  1
  Nd  Nd6  1  0.190652  0.804126  0.191110  1
  Nd  Nd7  1  0.809002  0.188945  0.809127  1
  Nd  Nd8  1  0.190211  0.190211  0.804855  1
  Nd  Nd9  1  0.808189  0.808189  0.190039  1
  Nd  Nd10  1  0.939298  0.562206  0.562443  1
  Nd  Nd11  1  0.562311  0.937814  0.939611  1
  Nd  Nd12  1  0.562206  0.939298  0.562443  1
  Nd  Nd13  1  0.937814  0.562311  0.939611  1
  Nd  Nd14  1  0.561909  0.561909  0.940912  1
  Nd  Nd15  1  0.938349  0.938349  0.562505  1
  Cd  Cd16  1  0.579405  0.258613  0.580302  1
  Cd  Cd17  1  0.258613  0.579405  0.580302  1
  Hg  Hg18  1  0.583521  0.583521  0.585488  1
  Hg  Hg19  1  0.583290  0.583290  0.247631  1
  Ir  Ir20  1  0.141809  0.141809  0.573648  1
  Ir  Ir21  1  0.141714  0.573768  0.141845  1
  Ir  Ir22  1  0.573768  0.141714  0.141845  1
  Pd  Pd23  1  0.143118  0.143118  0.143332  1
