# generated using pymatgen
data_Ta6Cr3Si3N2
_symmetry_space_group_name_H-M   'P 1'
_cell_length_a   8.09772300
_cell_length_b   8.07772692
_cell_length_c   8.07623600
_cell_angle_alpha   119.99389462
_cell_angle_beta   90.00000000
_cell_angle_gamma   120.08192547
_symmetry_Int_Tables_number   1
_chemical_formula_structural   Ta6Cr3Si3N2
_chemical_formula_sum   'Ta12 Cr6 Si6 N4'
_cell_volume   373.11899484
_cell_formula_units_Z   2
loop_
 _symmetry_equiv_pos_site_id
 _symmetry_equiv_pos_as_xyz
  1  'x, y, z'
loop_
 _atom_site_type_symbol
 _atom_site_label
 _atom_site_symmetry_multiplicity
 _atom_site_fract_x
 _atom_site_fract_y
 _atom_site_fract_z
 _atom_site_occupancy
  Ta  Ta0  1  0.321696  0.749973  0.177104  1
  Ta  Ta1  1  0.929835  0.359669  0.179586  1
  Ta  Ta2  1  0.928276  0.749973  0.177104  1
  Ta  Ta3  1  0.678304  0.250029  0.427132  1
  Ta  Ta4  1  0.676462  0.852924  0.425936  1
  Ta  Ta5  1  0.071725  0.250029  0.427133  1
  Ta  Ta6  1  0.323538  0.147076  0.573013  1
  Ta  Ta7  1  0.319598  0.754381  0.571982  1
  Ta  Ta8  1  0.934783  0.754381  0.571982  1
  Ta  Ta9  1  0.065217  0.245621  0.817602  1
  Ta  Ta10  1  0.680402  0.245621  0.817602  1
  Ta  Ta11  1  0.070165  0.640331  0.819917  1
  Cr  Cr12  1  0.000000  0.000000  0.994720  1
  Cr  Cr13  1  0.500000  0.000000  0.994720  1
  Cr  Cr14  1  0.494737  0.489473  0.993345  1
  Cr  Cr15  1  0.505263  0.510527  0.503872  1
  Cr  Cr16  1  0.696556  0.893112  0.799305  1
  Cr  Cr17  1  0.303443  0.106888  0.906193  1
  Si  Si18  1  0.711282  0.922566  0.127551  1
  Si  Si19  1  0.288717  0.077434  0.204985  1
  Si  Si20  1  0.288364  0.419170  0.206883  1
  Si  Si21  1  0.630805  0.419170  0.206883  1
  Si  Si22  1  0.369194  0.580830  0.787713  1
  Si  Si23  1  0.711635  0.580830  0.787713  1
  N  N24  1  0.000060  0.500120  0.000368  1
  N  N25  1  0.000000  0.000000  0.499703  1
  N  N26  1  0.500000  0.000000  0.499703  1
  N  N27  1  0.999940  0.499880  0.500248  1
