# generated using pymatgen
data_Pr3Sc7Si20(IrPt3)2
_symmetry_space_group_name_H-M   'P 1'
_cell_length_a   12.51356363
_cell_length_b   12.54370141
_cell_length_c   4.22082700
_cell_angle_alpha   90.00000000
_cell_angle_beta   90.00000000
_cell_angle_gamma   90.13796109
_symmetry_Int_Tables_number   1
_chemical_formula_structural   Pr3Sc7Si20(IrPt3)2
_chemical_formula_sum   'Pr3 Sc7 Si20 Ir2 Pt6'
_cell_volume   662.52612303
_cell_formula_units_Z   1
loop_
 _symmetry_equiv_pos_site_id
 _symmetry_equiv_pos_as_xyz
  1  'x, y, z'
loop_
 _atom_site_type_symbol
 _atom_site_label
 _atom_site_symmetry_multiplicity
 _atom_site_fract_x
 _atom_site_fract_y
 _atom_site_fract_z
 _atom_site_occupancy
  Pr  Pr0  1  0.114388  0.614190  0.500000  1
  Pr  Pr1  1  0.885688  0.385703  0.500000  1
  Pr  Pr2  1  0.613121  0.886827  0.500000  1
  Sc  Sc3  1  0.386408  0.113844  0.500000  1
  Sc  Sc4  1  0.673439  0.175065  0.500000  1
  Sc  Sc5  1  0.324837  0.826671  0.500000  1
  Sc  Sc6  1  0.177916  0.324369  0.500000  1
  Sc  Sc7  1  0.823539  0.674196  0.500000  1
  Sc  Sc8  1  0.001062  0.000116  0.000000  1
  Sc  Sc9  1  0.499810  0.498993  0.000000  1
  Si  Si10  1  0.564953  0.067648  0.000000  1
  Si  Si11  1  0.432043  0.935206  0.000000  1
  Si  Si12  1  0.070640  0.432790  0.000000  1
  Si  Si13  1  0.929677  0.566727  0.000000  1
  Si  Si14  1  0.205836  0.165664  0.000000  1
  Si  Si15  1  0.796588  0.834044  0.000000  1
  Si  Si16  1  0.167623  0.798667  0.000000  1
  Si  Si17  1  0.699760  0.336440  0.000000  1
  Si  Si18  1  0.833106  0.203312  0.000000  1
  Si  Si19  1  0.298128  0.662682  0.000000  1
  Si  Si20  1  0.664542  0.699641  0.000000  1
  Si  Si21  1  0.335496  0.298488  0.000000  1
  Si  Si22  1  0.009519  0.147547  0.500000  1
  Si  Si23  1  0.992337  0.853092  0.500000  1
  Si  Si24  1  0.150464  0.994548  0.500000  1
  Si  Si25  1  0.505685  0.348861  0.500000  1
  Si  Si26  1  0.852704  0.009243  0.500000  1
  Si  Si27  1  0.490682  0.647969  0.500000  1
  Si  Si28  1  0.649599  0.507854  0.500000  1
  Si  Si29  1  0.349865  0.490590  0.500000  1
  Ir  Ir30  1  0.738380  0.523351  0.000000  1
  Ir  Ir31  1  0.261417  0.475000  0.000000  1
  Pt  Pt32  1  0.024660  0.238730  0.000000  1
  Pt  Pt33  1  0.977020  0.761316  0.000000  1
  Pt  Pt34  1  0.243168  0.979722  0.000000  1
  Pt  Pt35  1  0.520534  0.255594  0.000000  1
  Pt  Pt36  1  0.760092  0.024175  0.000000  1
  Pt  Pt37  1  0.475273  0.741125  0.000000  1
