# generated using pymatgen
data_Hf3Zn3RuAu2
_symmetry_space_group_name_H-M   'P 1'
_cell_length_a   7.39628900
_cell_length_b   7.39628787
_cell_length_c   3.37429100
_cell_angle_alpha   90.00000000
_cell_angle_beta   90.00000000
_cell_angle_gamma   120.00001846
_symmetry_Int_Tables_number   1
_chemical_formula_structural   Hf3Zn3RuAu2
_chemical_formula_sum   'Hf3 Zn3 Ru1 Au2'
_cell_volume   159.86035125
_cell_formula_units_Z   1
loop_
 _symmetry_equiv_pos_site_id
 _symmetry_equiv_pos_as_xyz
  1  'x, y, z'
loop_
 _atom_site_type_symbol
 _atom_site_label
 _atom_site_symmetry_multiplicity
 _atom_site_fract_x
 _atom_site_fract_y
 _atom_site_fract_z
 _atom_site_occupancy
  Hf  Hf0  1  0.590140  0.975968  0.000000  1
  Hf  Hf1  1  0.024032  0.614172  0.000000  1
  Hf  Hf2  1  0.385828  0.409860  0.000000  1
  Zn  Zn3  1  0.278227  0.001399  0.500000  1
  Zn  Zn4  1  0.998601  0.276828  0.500000  1
  Zn  Zn5  1  0.723172  0.721773  0.500000  1
  Ru  Ru6  1  0.333333  0.666667  0.500000  1
  Au  Au7  1  0.666667  0.333333  0.500000  1
  Au  Au8  1  0.000000  0.000000  0.000000  1
