# generated using pymatgen
data_YbTh3U4(ReB6)4
_symmetry_space_group_name_H-M   'P 1'
_cell_length_a   3.71184200
_cell_length_b   9.38458729
_cell_length_c   11.51519701
_cell_angle_alpha   89.94130964
_cell_angle_beta   90.00000000
_cell_angle_gamma   90.00000000
_symmetry_Int_Tables_number   1
_chemical_formula_structural   YbTh3U4(ReB6)4
_chemical_formula_sum   'Yb1 Th3 U4 Re4 B24'
_cell_volume   401.12137402
_cell_formula_units_Z   1
loop_
 _symmetry_equiv_pos_site_id
 _symmetry_equiv_pos_as_xyz
  1  'x, y, z'
loop_
 _atom_site_type_symbol
 _atom_site_label
 _atom_site_symmetry_multiplicity
 _atom_site_fract_x
 _atom_site_fract_y
 _atom_site_fract_z
 _atom_site_occupancy
  Yb  Yb0  1  0.000000  0.336393  0.407483  1
  Th  Th1  1  0.000000  0.662213  0.590546  1
  Th  Th2  1  0.000000  0.835229  0.093099  1
  Th  Th3  1  0.000000  0.164876  0.907950  1
  U  U4  1  0.000000  0.960769  0.396861  1
  U  U5  1  0.000000  0.044658  0.600976  1
  U  U6  1  0.000000  0.457208  0.104465  1
  U  U7  1  0.000000  0.540910  0.897702  1
  Re  Re8  1  0.000000  0.647296  0.317941  1
  Re  Re9  1  0.000000  0.352246  0.682730  1
  Re  Re10  1  0.000000  0.147815  0.181835  1
  Re  Re11  1  0.000000  0.852201  0.817497  1
  B  B12  1  0.500000  0.552514  0.427952  1
  B  B13  1  0.500000  0.443290  0.570132  1
  B  B14  1  0.500000  0.056413  0.073215  1
  B  B15  1  0.500000  0.943660  0.926987  1
  B  B16  1  0.500000  0.744196  0.421331  1
  B  B17  1  0.500000  0.255703  0.577022  1
  B  B18  1  0.500000  0.246157  0.080142  1
  B  B19  1  0.500000  0.753727  0.921204  1
  B  B20  1  0.500000  0.802033  0.275781  1
  B  B21  1  0.500000  0.198202  0.723919  1
  B  B22  1  0.500000  0.303328  0.226915  1
  B  B23  1  0.500000  0.696901  0.774559  1
  B  B24  1  0.500000  0.642883  0.189403  1
  B  B25  1  0.500000  0.355861  0.811743  1
  B  B26  1  0.500000  0.146592  0.312669  1
  B  B27  1  0.500000  0.855569  0.687317  1
  B  B28  1  0.500000  0.993382  0.221808  1
  B  B29  1  0.500000  0.007944  0.778096  1
  B  B30  1  0.500000  0.489814  0.280902  1
  B  B31  1  0.500000  0.507712  0.719842  1
  B  B32  1  0.500000  0.636094  0.037887  1
  B  B33  1  0.500000  0.363406  0.963297  1
  B  B34  1  0.500000  0.139217  0.461861  1
  B  B35  1  0.500000  0.863592  0.536933  1
