# generated using pymatgen
data_Pr6EuRhI12
_symmetry_space_group_name_H-M   'P 1'
_cell_length_a   10.11257499
_cell_length_b   10.11257670
_cell_length_c   10.11257648
_cell_angle_alpha   106.79804068
_cell_angle_beta   106.79803987
_cell_angle_gamma   106.79803954
_symmetry_Int_Tables_number   1
_chemical_formula_structural   Pr6EuRhI12
_chemical_formula_sum   'Pr6 Eu1 Rh1 I12'
_cell_volume   865.95476025
_cell_formula_units_Z   1
loop_
 _symmetry_equiv_pos_site_id
 _symmetry_equiv_pos_as_xyz
  1  'x, y, z'
loop_
 _atom_site_type_symbol
 _atom_site_label
 _atom_site_symmetry_multiplicity
 _atom_site_fract_x
 _atom_site_fract_y
 _atom_site_fract_z
 _atom_site_occupancy
  Pr  Pr0  1  0.803513  0.523273  0.597453  1
  Pr  Pr1  1  0.523273  0.597453  0.803513  1
  Pr  Pr2  1  0.196487  0.476727  0.402547  1
  Pr  Pr3  1  0.476727  0.402547  0.196487  1
  Pr  Pr4  1  0.597453  0.803513  0.523273  1
  Pr  Pr5  1  0.402547  0.196487  0.476727  1
  Eu  Eu6  1  0.000000  0.000000  0.000000  1
  Rh  Rh7  1  0.500000  0.500000  0.500000  1
  I  I8  1  0.725714  0.180100  0.574169  1
  I  I9  1  0.957511  0.877987  0.650693  1
  I  I10  1  0.574169  0.725714  0.180100  1
  I  I11  1  0.122013  0.349307  0.042489  1
  I  I12  1  0.650693  0.957511  0.877987  1
  I  I13  1  0.877987  0.650693  0.957511  1
  I  I14  1  0.042489  0.122013  0.349307  1
  I  I15  1  0.819900  0.425831  0.274286  1
  I  I16  1  0.349307  0.042489  0.122013  1
  I  I17  1  0.274286  0.819900  0.425831  1
  I  I18  1  0.180100  0.574169  0.725714  1
  I  I19  1  0.425831  0.274286  0.819900  1
