# generated using pymatgen
data_Sm12Dy4InHg3Rh4
_symmetry_space_group_name_H-M   'P 1'
_cell_length_a   9.75631161
_cell_length_b   9.75631197
_cell_length_c   9.76565038
_cell_angle_alpha   59.93751488
_cell_angle_beta   59.93751460
_cell_angle_gamma   60.03504501
_symmetry_Int_Tables_number   1
_chemical_formula_structural   Sm12Dy4InHg3Rh4
_chemical_formula_sum   'Sm12 Dy4 In1 Hg3 Rh4'
_cell_volume   656.84268612
_cell_formula_units_Z   1
loop_
 _symmetry_equiv_pos_site_id
 _symmetry_equiv_pos_as_xyz
  1  'x, y, z'
loop_
 _atom_site_type_symbol
 _atom_site_label
 _atom_site_symmetry_multiplicity
 _atom_site_fract_x
 _atom_site_fract_y
 _atom_site_fract_z
 _atom_site_occupancy
  Sm  Sm0  1  0.689822  0.309963  0.311219  1
  Sm  Sm1  1  0.690481  0.690481  0.312449  1
  Sm  Sm2  1  0.309963  0.689822  0.311219  1
  Sm  Sm3  1  0.936854  0.936854  0.561824  1
  Sm  Sm4  1  0.147974  0.147974  0.551951  1
  Sm  Sm5  1  0.561109  0.937093  0.561641  1
  Sm  Sm6  1  0.151137  0.151137  0.149923  1
  Sm  Sm7  1  0.311448  0.311448  0.689952  1
  Sm  Sm8  1  0.937093  0.561109  0.561641  1
  Sm  Sm9  1  0.561031  0.561031  0.936951  1
  Sm  Sm10  1  0.560744  0.937214  0.936724  1
  Sm  Sm11  1  0.937214  0.560744  0.936724  1
  Dy  Dy12  1  0.149837  0.549792  0.147350  1
  Dy  Dy13  1  0.311438  0.689310  0.691434  1
  Dy  Dy14  1  0.689310  0.311438  0.691434  1
  Dy  Dy15  1  0.549792  0.149837  0.147350  1
  In  In16  1  0.919876  0.919876  0.920729  1
  Hg  Hg17  1  0.915040  0.915040  0.253798  1
  Hg  Hg18  1  0.253951  0.914308  0.915720  1
  Hg  Hg19  1  0.914308  0.253951  0.915720  1
  Rh  Rh20  1  0.357789  0.357789  0.353432  1
  Rh  Rh21  1  0.926310  0.358375  0.357404  1
  Rh  Rh22  1  0.359103  0.359103  0.926010  1
  Rh  Rh23  1  0.358375  0.926310  0.357404  1
