# generated using pymatgen
data_PaB4
_symmetry_space_group_name_H-M   'P 1'
_cell_length_a   7.10272400
_cell_length_b   7.10272400
_cell_length_c   4.00638700
_cell_angle_alpha   90.00000000
_cell_angle_beta   90.00000000
_cell_angle_gamma   90.00000000
_symmetry_Int_Tables_number   1
_chemical_formula_structural   PaB4
_chemical_formula_sum   'Pa4 B16'
_cell_volume   202.11696865
_cell_formula_units_Z   4
loop_
 _symmetry_equiv_pos_site_id
 _symmetry_equiv_pos_as_xyz
  1  'x, y, z'
loop_
 _atom_site_type_symbol
 _atom_site_label
 _atom_site_symmetry_multiplicity
 _atom_site_fract_x
 _atom_site_fract_y
 _atom_site_fract_z
 _atom_site_occupancy
  Pa  Pa0  1  0.811582  0.311582  0.000000  1
  Pa  Pa1  1  0.188418  0.688418  0.000000  1
  Pa  Pa2  1  0.311582  0.188418  0.000000  1
  Pa  Pa3  1  0.688418  0.811582  0.000000  1
  B  B4  1  0.500000  0.500000  0.800700  1
  B  B5  1  0.000000  0.000000  0.800700  1
  B  B6  1  0.500000  0.500000  0.199300  1
  B  B7  1  0.000000  0.000000  0.199300  1
  B  B8  1  0.587870  0.087870  0.500000  1
  B  B9  1  0.412130  0.912130  0.500000  1
  B  B10  1  0.087870  0.412130  0.500000  1
  B  B11  1  0.912130  0.587870  0.500000  1
  B  B12  1  0.677967  0.538953  0.500000  1
  B  B13  1  0.322033  0.461047  0.500000  1
  B  B14  1  0.177967  0.961047  0.500000  1
  B  B15  1  0.822033  0.038953  0.500000  1
  B  B16  1  0.461047  0.677967  0.500000  1
  B  B17  1  0.538953  0.322033  0.500000  1
  B  B18  1  0.038953  0.177967  0.500000  1
  B  B19  1  0.961047  0.822033  0.500000  1
