# generated using pymatgen
data_BaLiHoS3
_symmetry_space_group_name_H-M   'P 1'
_cell_length_a   4.09430100
_cell_length_b   7.06770295
_cell_length_c   10.29544200
_cell_angle_alpha   89.99953067
_cell_angle_beta   89.99988837
_cell_angle_gamma   106.83699301
_symmetry_Int_Tables_number   1
_chemical_formula_structural   BaLiHoS3
_chemical_formula_sum   'Ba2 Li2 Ho2 S6'
_cell_volume   285.15119700
_cell_formula_units_Z   2
loop_
 _symmetry_equiv_pos_site_id
 _symmetry_equiv_pos_as_xyz
  1  'x, y, z'
loop_
 _atom_site_type_symbol
 _atom_site_label
 _atom_site_symmetry_multiplicity
 _atom_site_fract_x
 _atom_site_fract_y
 _atom_site_fract_z
 _atom_site_occupancy
  Ba  Ba0  1  0.254955  0.509901  0.250005  1
  Ba  Ba1  1  0.745042  0.490092  0.750008  1
  Li  Li2  1  0.529045  0.058057  0.250008  1
  Li  Li3  1  0.470947  0.941939  0.750008  1
  Ho  Ho4  1  0.000005  0.000035  0.999990  1
  Ho  Ho5  1  0.000004  0.999988  0.499943  1
  S  S6  1  0.629564  0.259164  0.060430  1
  S  S7  1  0.934126  0.868126  0.250007  1
  S  S8  1  0.629558  0.259164  0.439581  1
  S  S9  1  0.370430  0.740831  0.560430  1
  S  S10  1  0.065869  0.131873  0.750010  1
  S  S11  1  0.370436  0.740831  0.939583  1
