# generated using pymatgen
data_Ac3Pt2Cl
_symmetry_space_group_name_H-M   'P 1'
_cell_length_a   7.66681307
_cell_length_b   7.66681369
_cell_length_c   7.66681300
_cell_angle_alpha   146.71118621
_cell_angle_beta   132.27693546
_cell_angle_gamma   59.42742989
_symmetry_Int_Tables_number   1
_chemical_formula_structural   Ac3Pt2Cl
_chemical_formula_sum   'Ac3 Pt2 Cl1'
_cell_volume   181.40498337
_cell_formula_units_Z   1
loop_
 _symmetry_equiv_pos_site_id
 _symmetry_equiv_pos_as_xyz
  1  'x, y, z'
loop_
 _atom_site_type_symbol
 _atom_site_label
 _atom_site_symmetry_multiplicity
 _atom_site_fract_x
 _atom_site_fract_y
 _atom_site_fract_z
 _atom_site_occupancy
  Ac  Ac0  1  0.500000  0.000000  0.500000  1
  Ac  Ac1  1  0.186121  0.686121  0.500000  1
  Ac  Ac2  1  0.813879  0.313879  0.500000  1
  Pt  Pt3  1  0.658198  0.658198  0.000000  1
  Pt  Pt4  1  0.341802  0.341802  0.000000  1
  Cl  Cl5  1  0.000000  0.000000  0.000000  1
