# generated using pymatgen
data_Na3Er2Zr3(As3Pd4)4
_symmetry_space_group_name_H-M   'P 1'
_cell_length_a   13.57541900
_cell_length_b   13.57541857
_cell_length_c   4.12258300
_cell_angle_alpha   90.00000000
_cell_angle_beta   90.00000000
_cell_angle_gamma   119.94044798
_symmetry_Int_Tables_number   1
_chemical_formula_structural   Na3Er2Zr3(As3Pd4)4
_chemical_formula_sum   'Na3 Er2 Zr3 As12 Pd16'
_cell_volume   658.36511829
_cell_formula_units_Z   1
loop_
 _symmetry_equiv_pos_site_id
 _symmetry_equiv_pos_as_xyz
  1  'x, y, z'
loop_
 _atom_site_type_symbol
 _atom_site_label
 _atom_site_symmetry_multiplicity
 _atom_site_fract_x
 _atom_site_fract_y
 _atom_site_fract_z
 _atom_site_occupancy
  Na  Na0  1  0.186821  0.186821  0.500000  1
  Na  Na1  1  0.333423  0.666612  0.000000  1
  Na  Na2  1  0.666612  0.333423  0.000000  1
  Er  Er3  1  0.813479  0.000479  0.500000  1
  Er  Er4  1  0.000479  0.813479  0.500000  1
  Zr  Zr5  1  0.556071  0.556071  0.000000  1
  Zr  Zr6  1  0.443104  0.999091  0.000000  1
  Zr  Zr7  1  0.999091  0.443104  0.000000  1
  As  As8  1  0.824203  0.824203  0.000000  1
  As  As9  1  0.174574  0.001423  0.000000  1
  As  As10  1  0.001423  0.174574  0.000000  1
  As  As11  1  0.165312  0.480980  0.500000  1
  As  As12  1  0.518072  0.683491  0.500000  1
  As  As13  1  0.316370  0.833726  0.500000  1
  As  As14  1  0.683491  0.518072  0.500000  1
  As  As15  1  0.833726  0.316370  0.500000  1
  As  As16  1  0.480980  0.165312  0.500000  1
  As  As17  1  0.358002  0.358002  0.000000  1
  As  As18  1  0.642489  0.000095  0.000000  1
  As  As19  1  0.000095  0.642489  0.000000  1
  Pd  Pd20  1  0.724937  0.724937  0.500000  1
  Pd  Pd21  1  0.274621  0.998431  0.500000  1
  Pd  Pd22  1  0.998431  0.274621  0.500000  1
  Pd  Pd23  1  0.182246  0.376704  0.000000  1
  Pd  Pd24  1  0.627833  0.809946  0.000000  1
  Pd  Pd25  1  0.189342  0.818672  0.000000  1
  Pd  Pd26  1  0.809946  0.627833  0.000000  1
  Pd  Pd27  1  0.818672  0.189342  0.000000  1
  Pd  Pd28  1  0.376704  0.182246  0.000000  1
  Pd  Pd29  1  0.356863  0.481689  0.500000  1
  Pd  Pd30  1  0.519201  0.875656  0.500000  1
  Pd  Pd31  1  0.125504  0.643147  0.500000  1
  Pd  Pd32  1  0.875656  0.519201  0.500000  1
  Pd  Pd33  1  0.643147  0.125504  0.500000  1
  Pd  Pd34  1  0.481689  0.356863  0.500000  1
  Pd  Pd35  1  0.997389  0.997389  0.000000  1
