# generated using pymatgen
data_La3Pr6NdIr4
_symmetry_space_group_name_H-M   'P 1'
_cell_length_a   9.15028680
_cell_length_b   9.14058895
_cell_length_c   7.37860056
_cell_angle_alpha   84.04660763
_cell_angle_beta   83.72334616
_cell_angle_gamma   43.36947898
_symmetry_Int_Tables_number   1
_chemical_formula_structural   La3Pr6NdIr4
_chemical_formula_sum   'La3 Pr6 Nd1 Ir4'
_cell_volume   420.98332626
_cell_formula_units_Z   1
loop_
 _symmetry_equiv_pos_site_id
 _symmetry_equiv_pos_as_xyz
  1  'x, y, z'
loop_
 _atom_site_type_symbol
 _atom_site_label
 _atom_site_symmetry_multiplicity
 _atom_site_fract_x
 _atom_site_fract_y
 _atom_site_fract_z
 _atom_site_occupancy
  La  La0  1  0.015042  0.797379  0.914429  1
  La  La1  1  0.203075  0.982980  0.585068  1
  La  La2  1  0.984218  0.201214  0.087602  1
  Pr  Pr3  1  0.794745  0.018633  0.418912  1
  Pr  Pr4  1  0.353939  0.212010  0.816509  1
  Pr  Pr5  1  0.788322  0.646238  0.681448  1
  Pr  Pr6  1  0.646872  0.787495  0.182996  1
  Pr  Pr7  1  0.214580  0.353296  0.317750  1
  Pr  Pr8  1  0.569310  0.431131  0.749520  1
  Nd  Nd9  1  0.430984  0.567855  0.250165  1
  Ir  Ir10  1  0.179868  0.598657  0.578284  1
  Ir  Ir11  1  0.399675  0.823080  0.922163  1
  Ir  Ir12  1  0.822200  0.399914  0.420363  1
  Ir  Ir13  1  0.597171  0.180120  0.074794  1
