# generated using pymatgen
data_Ca5IrPd
_symmetry_space_group_name_H-M   'P 1'
_cell_length_a   8.78463041
_cell_length_b   8.78463053
_cell_length_c   7.67048686
_cell_angle_alpha   82.90262498
_cell_angle_beta   82.90262487
_cell_angle_gamma   43.73311068
_symmetry_Int_Tables_number   1
_chemical_formula_structural   Ca5IrPd
_chemical_formula_sum   'Ca10 Ir2 Pd2'
_cell_volume   405.55814508
_cell_formula_units_Z   2
loop_
 _symmetry_equiv_pos_site_id
 _symmetry_equiv_pos_as_xyz
  1  'x, y, z'
loop_
 _atom_site_type_symbol
 _atom_site_label
 _atom_site_symmetry_multiplicity
 _atom_site_fract_x
 _atom_site_fract_y
 _atom_site_fract_z
 _atom_site_occupancy
  Ca  Ca0  1  0.028449  0.794063  0.912433  1
  Ca  Ca1  1  0.205937  0.971551  0.587567  1
  Ca  Ca2  1  0.986086  0.196401  0.076738  1
  Ca  Ca3  1  0.803599  0.013914  0.423262  1
  Ca  Ca4  1  0.360252  0.202037  0.815788  1
  Ca  Ca5  1  0.797963  0.639748  0.684212  1
  Ca  Ca6  1  0.631055  0.799664  0.174162  1
  Ca  Ca7  1  0.200336  0.368945  0.325838  1
  Ca  Ca8  1  0.569019  0.430981  0.750000  1
  Ca  Ca9  1  0.416616  0.583384  0.250000  1
  Ir  Ir10  1  0.180495  0.596601  0.581235  1
  Ir  Ir11  1  0.403399  0.819505  0.918765  1
  Pd  Pd12  1  0.819238  0.402444  0.418448  1
  Pd  Pd13  1  0.597556  0.180762  0.081552  1
