# generated using pymatgen
data_HoLu4In2Sb
_symmetry_space_group_name_H-M   'P 1'
_cell_length_a   6.45300501
_cell_length_b   8.81565243
_cell_length_c   8.78135800
_cell_angle_alpha   119.78988408
_cell_angle_beta   90.00318754
_cell_angle_gamma   90.00269942
_symmetry_Int_Tables_number   1
_chemical_formula_structural   HoLu4In2Sb
_chemical_formula_sum   'Ho2 Lu8 In4 Sb2'
_cell_volume   433.53523814
_cell_formula_units_Z   2
loop_
 _symmetry_equiv_pos_site_id
 _symmetry_equiv_pos_as_xyz
  1  'x, y, z'
loop_
 _atom_site_type_symbol
 _atom_site_label
 _atom_site_symmetry_multiplicity
 _atom_site_fract_x
 _atom_site_fract_y
 _atom_site_fract_z
 _atom_site_occupancy
  Ho  Ho0  1  0.750381  0.233633  0.994741  1
  Ho  Ho1  1  0.750357  0.766073  0.759569  1
  Lu  Lu2  1  0.495165  0.334153  0.669221  1
  Lu  Lu3  1  0.495314  0.666078  0.335040  1
  Lu  Lu4  1  0.004566  0.665934  0.335228  1
  Lu  Lu5  1  0.004703  0.334313  0.669174  1
  Lu  Lu6  1  0.750050  0.999901  0.234445  1
  Lu  Lu7  1  0.250012  0.765062  0.001801  1
  Lu  Lu8  1  0.250007  0.233636  0.236126  1
  Lu  Lu9  1  0.250025  0.999995  0.764399  1
  In  In10  1  0.749705  0.000897  0.593244  1
  In  In11  1  0.249761  0.396109  0.002673  1
  In  In12  1  0.250328  0.604103  0.606667  1
  In  In13  1  0.249536  0.999621  0.399828  1
  Sb  Sb14  1  0.750131  0.606272  0.001747  1
  Sb  Sb15  1  0.749958  0.394219  0.396096  1
