# generated using pymatgen
data_Y16Al4OsPt3
_symmetry_space_group_name_H-M   'P 1'
_cell_length_a   9.64304517
_cell_length_b   9.64304617
_cell_length_c   9.64304569
_cell_angle_alpha   59.75939693
_cell_angle_beta   59.75940214
_cell_angle_gamma   59.75939450
_symmetry_Int_Tables_number   1
_chemical_formula_structural   Y16Al4OsPt3
_chemical_formula_sum   'Y16 Al4 Os1 Pt3'
_cell_volume   630.59207736
_cell_formula_units_Z   1
loop_
 _symmetry_equiv_pos_site_id
 _symmetry_equiv_pos_as_xyz
  1  'x, y, z'
loop_
 _atom_site_type_symbol
 _atom_site_label
 _atom_site_symmetry_multiplicity
 _atom_site_fract_x
 _atom_site_fract_y
 _atom_site_fract_z
 _atom_site_occupancy
  Y  Y0  1  0.354419  0.354419  0.354419  1
  Y  Y1  1  0.352064  0.352064  0.940708  1
  Y  Y2  1  0.352064  0.940708  0.352064  1
  Y  Y3  1  0.940708  0.352064  0.352064  1
  Y  Y4  1  0.811343  0.192308  0.192308  1
  Y  Y5  1  0.193758  0.805613  0.805613  1
  Y  Y6  1  0.192308  0.811343  0.192308  1
  Y  Y7  1  0.805613  0.193758  0.805613  1
  Y  Y8  1  0.192308  0.192308  0.811343  1
  Y  Y9  1  0.805613  0.805613  0.193758  1
  Y  Y10  1  0.935250  0.563387  0.563387  1
  Y  Y11  1  0.557413  0.938810  0.938810  1
  Y  Y12  1  0.563387  0.935250  0.563387  1
  Y  Y13  1  0.938810  0.557413  0.938810  1
  Y  Y14  1  0.563387  0.563387  0.935250  1
  Y  Y15  1  0.938810  0.938810  0.557413  1
  Al  Al16  1  0.578907  0.578907  0.578907  1
  Al  Al17  1  0.577990  0.577990  0.266338  1
  Al  Al18  1  0.577990  0.266338  0.577990  1
  Al  Al19  1  0.266338  0.577990  0.577990  1
  Os  Os20  1  0.142617  0.142617  0.142617  1
  Pt  Pt21  1  0.143522  0.143522  0.571864  1
  Pt  Pt22  1  0.143522  0.571864  0.143522  1
  Pt  Pt23  1  0.571864  0.143522  0.143522  1
