# generated using pymatgen
data_Sm2LuCoSn6
_symmetry_space_group_name_H-M   'P 1'
_cell_length_a   8.45852069
_cell_length_b   8.45852090
_cell_length_c   13.28531400
_cell_angle_alpha   90.00000000
_cell_angle_beta   90.00000000
_cell_angle_gamma   148.60680019
_symmetry_Int_Tables_number   1
_chemical_formula_structural   Sm2LuCoSn6
_chemical_formula_sum   'Sm4 Lu2 Co2 Sn12'
_cell_volume   495.13310350
_cell_formula_units_Z   2
loop_
 _symmetry_equiv_pos_site_id
 _symmetry_equiv_pos_as_xyz
  1  'x, y, z'
loop_
 _atom_site_type_symbol
 _atom_site_label
 _atom_site_symmetry_multiplicity
 _atom_site_fract_x
 _atom_site_fract_y
 _atom_site_fract_z
 _atom_site_occupancy
  Sm  Sm0  1  0.900908  0.099092  0.092416  1
  Sm  Sm1  1  0.099092  0.900908  0.592416  1
  Sm  Sm2  1  0.099092  0.900908  0.907584  1
  Sm  Sm3  1  0.900908  0.099092  0.407584  1
  Lu  Lu4  1  0.899007  0.100993  0.750000  1
  Lu  Lu5  1  0.100993  0.899007  0.250000  1
  Co  Co6  1  0.297201  0.702799  0.250000  1
  Co  Co7  1  0.702799  0.297201  0.750000  1
  Sn  Sn8  1  0.755020  0.244980  0.571600  1
  Sn  Sn9  1  0.427014  0.572986  0.579392  1
  Sn  Sn10  1  0.572986  0.427014  0.420608  1
  Sn  Sn11  1  0.732268  0.267732  0.250000  1
  Sn  Sn12  1  0.267732  0.732268  0.750000  1
  Sn  Sn13  1  0.244980  0.755020  0.071600  1
  Sn  Sn14  1  0.244980  0.755020  0.428400  1
  Sn  Sn15  1  0.572986  0.427014  0.079392  1
  Sn  Sn16  1  0.453670  0.546330  0.250000  1
  Sn  Sn17  1  0.546330  0.453670  0.750000  1
  Sn  Sn18  1  0.755020  0.244980  0.928400  1
  Sn  Sn19  1  0.427014  0.572986  0.920608  1
