# generated using pymatgen
data_Nd3Ni2Sn3Ir
_symmetry_space_group_name_H-M   'P 1'
_cell_length_a   7.52395000
_cell_length_b   7.52394878
_cell_length_c   4.03231900
_cell_angle_alpha   90.00000000
_cell_angle_beta   90.00000000
_cell_angle_gamma   119.99998898
_symmetry_Int_Tables_number   1
_chemical_formula_structural   Nd3Ni2Sn3Ir
_chemical_formula_sum   'Nd3 Ni2 Sn3 Ir1'
_cell_volume   197.68662776
_cell_formula_units_Z   1
loop_
 _symmetry_equiv_pos_site_id
 _symmetry_equiv_pos_as_xyz
  1  'x, y, z'
loop_
 _atom_site_type_symbol
 _atom_site_label
 _atom_site_symmetry_multiplicity
 _atom_site_fract_x
 _atom_site_fract_y
 _atom_site_fract_z
 _atom_site_occupancy
  Nd  Nd0  1  0.589507  0.002990  0.000000  1
  Nd  Nd1  1  0.997010  0.586516  0.000000  1
  Nd  Nd2  1  0.413484  0.410493  0.000000  1
  Ni  Ni3  1  0.333333  0.666667  0.500000  1
  Ni  Ni4  1  0.000000  0.000000  0.000000  1
  Sn  Sn5  1  0.246541  0.995551  0.500000  1
  Sn  Sn6  1  0.004449  0.250990  0.500000  1
  Sn  Sn7  1  0.749010  0.753459  0.500000  1
  Ir  Ir8  1  0.666667  0.333333  0.500000  1
