# generated using pymatgen
data_Tb5Nd2Dy(WO6)4
_symmetry_space_group_name_H-M   'P 1'
_cell_length_a   5.46448608
_cell_length_b   7.79297084
_cell_length_c   11.58909140
_cell_angle_alpha   75.61680074
_cell_angle_beta   89.99993862
_cell_angle_gamma   89.98151934
_symmetry_Int_Tables_number   1
_chemical_formula_structural   Tb5Nd2Dy(WO6)4
_chemical_formula_sum   'Tb5 Nd2 Dy1 W4 O24'
_cell_volume   478.04780747
_cell_formula_units_Z   1
loop_
 _symmetry_equiv_pos_site_id
 _symmetry_equiv_pos_as_xyz
  1  'x, y, z'
loop_
 _atom_site_type_symbol
 _atom_site_label
 _atom_site_symmetry_multiplicity
 _atom_site_fract_x
 _atom_site_fract_y
 _atom_site_fract_z
 _atom_site_occupancy
  Tb  Tb0  1  0.740455  0.000133  0.749760  1
  Tb  Tb1  1  0.259606  0.000164  0.250292  1
  Tb  Tb2  1  0.187178  0.797313  0.576622  1
  Tb  Tb3  1  0.812619  0.797103  0.076713  1
  Tb  Tb4  1  0.187376  0.202915  0.923244  1
  Nd  Nd5  1  0.684842  0.499929  0.749951  1
  Nd  Nd6  1  0.315285  0.499754  0.250236  1
  Dy  Dy7  1  0.812858  0.203146  0.423054  1
  W  W8  1  0.253161  0.726733  0.884597  1
  W  W9  1  0.746818  0.726616  0.384616  1
  W  W10  1  0.253236  0.273156  0.615115  1
  W  W11  1  0.746975  0.273187  0.115583  1
  O  O12  1  0.041872  0.939909  0.895817  1
  O  O13  1  0.529089  0.847704  0.930429  1
  O  O14  1  0.957006  0.940711  0.395907  1
  O  O15  1  0.455842  0.792498  0.728300  1
  O  O16  1  0.470507  0.847302  0.430462  1
  O  O17  1  0.985941  0.717016  0.770648  1
  O  O18  1  0.544045  0.792285  0.228408  1
  O  O19  1  0.852947  0.640340  0.545496  1
  O  O20  1  0.351673  0.493595  0.887368  1
  O  O21  1  0.014226  0.717252  0.270831  1
  O  O22  1  0.351433  0.506211  0.612392  1
  O  O23  1  0.852848  0.359679  0.954598  1
  O  O24  1  0.147174  0.640206  0.045548  1
  O  O25  1  0.649142  0.493162  0.387437  1
  O  O26  1  0.986209  0.282970  0.729296  1
  O  O27  1  0.648287  0.506296  0.112657  1
  O  O28  1  0.145835  0.359263  0.454342  1
  O  O29  1  0.455930  0.207368  0.771453  1
  O  O30  1  0.013846  0.282846  0.229819  1
  O  O31  1  0.530024  0.152975  0.568838  1
  O  O32  1  0.544948  0.207325  0.272267  1
  O  O33  1  0.041699  0.060301  0.603843  1
  O  O34  1  0.470825  0.152472  0.069864  1
  O  O35  1  0.958243  0.060166  0.104196  1
