# generated using pymatgen
data_Dy7LuSc12Si15As
_symmetry_space_group_name_H-M   'P 1'
_cell_length_a   7.11316748
_cell_length_b   7.35606784
_cell_length_c   13.94809380
_cell_angle_alpha   90.02612052
_cell_angle_beta   88.93349833
_cell_angle_gamma   90.12160457
_symmetry_Int_Tables_number   1
_chemical_formula_structural   Dy7LuSc12Si15As
_chemical_formula_sum   'Dy7 Lu1 Sc12 Si15 As1'
_cell_volume   729.70506739
_cell_formula_units_Z   1
loop_
 _symmetry_equiv_pos_site_id
 _symmetry_equiv_pos_as_xyz
  1  'x, y, z'
loop_
 _atom_site_type_symbol
 _atom_site_label
 _atom_site_symmetry_multiplicity
 _atom_site_fract_x
 _atom_site_fract_y
 _atom_site_fract_z
 _atom_site_occupancy
  Dy  Dy0  1  0.987920  0.824649  0.902865  1
  Dy  Dy1  1  0.487604  0.675829  0.902888  1
  Dy  Dy2  1  0.991627  0.822215  0.595830  1
  Dy  Dy3  1  0.512629  0.324323  0.097461  1
  Dy  Dy4  1  0.006912  0.177814  0.404041  1
  Dy  Dy5  1  0.505720  0.321939  0.401746  1
  Dy  Dy6  1  0.498886  0.676825  0.597566  1
  Lu  Lu7  1  0.013212  0.177004  0.097980  1
  Sc  Sc8  1  0.163708  0.501313  0.750008  1
  Sc  Sc9  1  0.836378  0.498250  0.252425  1
  Sc  Sc10  1  0.336084  0.001479  0.250926  1
  Sc  Sc11  1  0.663654  0.998962  0.749299  1
  Sc  Sc12  1  0.338648  0.171572  0.626691  1
  Sc  Sc13  1  0.662542  0.827060  0.373490  1
  Sc  Sc14  1  0.159743  0.673049  0.376782  1
  Sc  Sc15  1  0.669434  0.824241  0.125365  1
  Sc  Sc16  1  0.837337  0.327981  0.622761  1
  Sc  Sc17  1  0.330253  0.175809  0.874227  1
  Sc  Sc18  1  0.832067  0.322408  0.874679  1
  Sc  Sc19  1  0.168267  0.677300  0.125001  1
  Si  Si20  1  0.034837  0.116773  0.749272  1
  Si  Si21  1  0.965069  0.884668  0.249373  1
  Si  Si22  1  0.461311  0.617365  0.248941  1
  Si  Si23  1  0.537815  0.383119  0.750811  1
  Si  Si24  1  0.287554  0.871242  0.750033  1
  Si  Si25  1  0.714539  0.127636  0.248673  1
  Si  Si26  1  0.210822  0.373193  0.249320  1
  Si  Si27  1  0.789957  0.626386  0.750229  1
  Si  Si28  1  0.814527  0.539760  0.457258  1
  Si  Si29  1  0.335091  0.962750  0.460756  1
  Si  Si30  1  0.844296  0.533988  0.039765  1
  Si  Si31  1  0.664969  0.037003  0.539911  1
  Si  Si32  1  0.155564  0.464078  0.960765  1
  Si  Si33  1  0.655715  0.034722  0.959880  1
  Si  Si34  1  0.342532  0.966661  0.040265  1
  As  As35  1  0.182776  0.460632  0.542716  1
