# generated using pymatgen
data_Sr2Li3NdPt3
_symmetry_space_group_name_H-M   'P 1'
_cell_length_a   7.52765569
_cell_length_b   7.48826229
_cell_length_c   4.22053900
_cell_angle_alpha   90.00000000
_cell_angle_beta   90.00000000
_cell_angle_gamma   119.82701559
_symmetry_Int_Tables_number   1
_chemical_formula_structural   Sr2Li3NdPt3
_chemical_formula_sum   'Sr2 Li3 Nd1 Pt3'
_cell_volume   206.39241303
_cell_formula_units_Z   1
loop_
 _symmetry_equiv_pos_site_id
 _symmetry_equiv_pos_as_xyz
  1  'x, y, z'
loop_
 _atom_site_type_symbol
 _atom_site_label
 _atom_site_symmetry_multiplicity
 _atom_site_fract_x
 _atom_site_fract_y
 _atom_site_fract_z
 _atom_site_occupancy
  Sr  Sr0  1  0.413745  0.415155  0.000000  1
  Sr  Sr1  1  0.586255  0.001409  0.000000  1
  Li  Li2  1  0.773657  0.767265  0.500000  1
  Li  Li3  1  0.226343  0.993608  0.500000  1
  Li  Li4  1  0.000000  0.230374  0.500000  1
  Nd  Nd5  1  0.000000  0.594343  0.000000  1
  Pt  Pt6  1  0.000000  0.981061  0.000000  1
  Pt  Pt7  1  0.695912  0.356347  0.500000  1
  Pt  Pt8  1  0.304088  0.660436  0.500000  1
