# generated using pymatgen
data_Rb2YbMgBi2
_symmetry_space_group_name_H-M   'P 1'
_cell_length_a   5.21080200
_cell_length_b   5.21080200
_cell_length_c   8.84263500
_cell_angle_alpha   90.00000000
_cell_angle_beta   90.00000000
_cell_angle_gamma   90.00000000
_symmetry_Int_Tables_number   1
_chemical_formula_structural   Rb2YbMgBi2
_chemical_formula_sum   'Rb2 Yb1 Mg1 Bi2'
_cell_volume   240.09927088
_cell_formula_units_Z   1
loop_
 _symmetry_equiv_pos_site_id
 _symmetry_equiv_pos_as_xyz
  1  'x, y, z'
loop_
 _atom_site_type_symbol
 _atom_site_label
 _atom_site_symmetry_multiplicity
 _atom_site_fract_x
 _atom_site_fract_y
 _atom_site_fract_z
 _atom_site_occupancy
  Rb  Rb0  1  0.499999  0.000000  0.145655  1
  Rb  Rb1  1  0.000000  0.499999  0.854346  1
  Yb  Yb2  1  0.499999  0.499999  0.500000  1
  Mg  Mg3  1  0.000000  0.000000  0.500000  1
  Bi  Bi4  1  0.000000  0.499999  0.299545  1
  Bi  Bi5  1  0.499999  0.000000  0.700456  1
