# generated using pymatgen
data_CaLa2(GaIr)2
_symmetry_space_group_name_H-M   'P 1'
_cell_length_a   5.72271800
_cell_length_b   8.13275900
_cell_length_c   14.18327700
_cell_angle_alpha   90.00000000
_cell_angle_beta   90.00000000
_cell_angle_gamma   90.00000000
_symmetry_Int_Tables_number   1
_chemical_formula_structural   CaLa2(GaIr)2
_chemical_formula_sum   'Ca4 La8 Ga8 Ir8'
_cell_volume   660.11079245
_cell_formula_units_Z   4
loop_
 _symmetry_equiv_pos_site_id
 _symmetry_equiv_pos_as_xyz
  1  'x, y, z'
loop_
 _atom_site_type_symbol
 _atom_site_label
 _atom_site_symmetry_multiplicity
 _atom_site_fract_x
 _atom_site_fract_y
 _atom_site_fract_z
 _atom_site_occupancy
  Ca  Ca0  1  0.367255  0.254849  0.250000  1
  Ca  Ca1  1  0.367255  0.245151  0.750000  1
  Ca  Ca2  1  0.632745  0.754849  0.250000  1
  Ca  Ca3  1  0.632745  0.745151  0.750000  1
  La  La4  1  0.153694  0.603299  0.097625  1
  La  La5  1  0.153694  0.896701  0.902375  1
  La  La6  1  0.846306  0.103299  0.402375  1
  La  La7  1  0.846306  0.396701  0.597625  1
  La  La8  1  0.846306  0.396701  0.902375  1
  La  La9  1  0.846306  0.103299  0.097625  1
  La  La10  1  0.153694  0.896701  0.597625  1
  La  La11  1  0.153694  0.603299  0.402375  1
  Ga  Ga12  1  0.379946  0.250000  0.000000  1
  Ga  Ga13  1  0.620054  0.750000  0.500000  1
  Ga  Ga14  1  0.620054  0.750000  0.000000  1
  Ga  Ga15  1  0.379946  0.250000  0.500000  1
  Ga  Ga16  1  0.847500  0.409591  0.250000  1
  Ga  Ga17  1  0.847500  0.090409  0.750000  1
  Ga  Ga18  1  0.152500  0.909591  0.250000  1
  Ga  Ga19  1  0.152500  0.590409  0.750000  1
  Ir  Ir20  1  0.647654  0.470176  0.091589  1
  Ir  Ir21  1  0.647654  0.029824  0.908411  1
  Ir  Ir22  1  0.352346  0.970176  0.408411  1
  Ir  Ir23  1  0.352346  0.529824  0.591589  1
  Ir  Ir24  1  0.352346  0.529824  0.908411  1
  Ir  Ir25  1  0.352346  0.970176  0.091589  1
  Ir  Ir26  1  0.647654  0.029824  0.591589  1
  Ir  Ir27  1  0.647654  0.470176  0.408411  1
