# generated using pymatgen
data_Rb8Li4Ho3TmSb8
_symmetry_space_group_name_H-M   'P 1'
_cell_length_a   11.19017152
_cell_length_b   11.19017073
_cell_length_c   7.21893335
_cell_angle_alpha   90.06880478
_cell_angle_beta   89.93119302
_cell_angle_gamma   99.40680466
_symmetry_Int_Tables_number   1
_chemical_formula_structural   Rb8Li4Ho3TmSb8
_chemical_formula_sum   'Rb8 Li4 Ho3 Tm1 Sb8'
_cell_volume   891.79752827
_cell_formula_units_Z   1
loop_
 _symmetry_equiv_pos_site_id
 _symmetry_equiv_pos_as_xyz
  1  'x, y, z'
loop_
 _atom_site_type_symbol
 _atom_site_label
 _atom_site_symmetry_multiplicity
 _atom_site_fract_x
 _atom_site_fract_y
 _atom_site_fract_z
 _atom_site_occupancy
  Rb  Rb0  1  0.570316  0.928818  0.749830  1
  Rb  Rb1  1  0.928818  0.570316  0.250170  1
  Rb  Rb2  1  0.429462  0.071693  0.250209  1
  Rb  Rb3  1  0.071693  0.429462  0.749791  1
  Rb  Rb4  1  0.676181  0.322926  0.777891  1
  Rb  Rb5  1  0.824627  0.176133  0.278311  1
  Rb  Rb6  1  0.322926  0.676181  0.222109  1
  Rb  Rb7  1  0.176133  0.824627  0.721689  1
  Li  Li8  1  0.619639  0.619639  0.000000  1
  Li  Li9  1  0.878556  0.878556  0.500000  1
  Li  Li10  1  0.378887  0.378887  0.000000  1
  Li  Li11  1  0.122811  0.122811  0.500000  1
  Ho  Ho12  1  0.869296  0.869296  0.000000  1
  Ho  Ho13  1  0.629418  0.629418  0.500000  1
  Ho  Ho14  1  0.130684  0.130684  0.000000  1
  Tm  Tm15  1  0.370446  0.370446  0.500000  1
  Sb  Sb16  1  0.346383  0.155982  0.748838  1
  Sb  Sb17  1  0.155982  0.346383  0.251162  1
  Sb  Sb18  1  0.653094  0.845080  0.249618  1
  Sb  Sb19  1  0.845080  0.653094  0.750382  1
  Sb  Sb20  1  0.906322  0.094343  0.761619  1
  Sb  Sb21  1  0.593697  0.405206  0.260715  1
  Sb  Sb22  1  0.094343  0.906322  0.238381  1
  Sb  Sb23  1  0.405206  0.593697  0.739285  1
