# generated using pymatgen
data_La5Nd3(HgPt)2
_symmetry_space_group_name_H-M   'P 1'
_cell_length_a   10.13223396
_cell_length_b   10.13223365
_cell_length_c   10.13223300
_cell_angle_alpha   59.99999887
_cell_angle_beta   59.99999988
_cell_angle_gamma   59.99999891
_symmetry_Int_Tables_number   1
_chemical_formula_structural   La5Nd3(HgPt)2
_chemical_formula_sum   'La10 Nd6 Hg4 Pt4'
_cell_volume   735.53030087
_cell_formula_units_Z   2
loop_
 _symmetry_equiv_pos_site_id
 _symmetry_equiv_pos_as_xyz
  1  'x, y, z'
loop_
 _atom_site_type_symbol
 _atom_site_label
 _atom_site_symmetry_multiplicity
 _atom_site_fract_x
 _atom_site_fract_y
 _atom_site_fract_z
 _atom_site_occupancy
  La  La0  1  0.351004  0.351004  0.351004  1
  La  La1  1  0.351004  0.351004  0.946989  1
  La  La2  1  0.351004  0.946989  0.351004  1
  La  La3  1  0.946989  0.351004  0.351004  1
  La  La4  1  0.805200  0.194800  0.194800  1
  La  La5  1  0.194800  0.805200  0.805200  1
  La  La6  1  0.194800  0.805200  0.194800  1
  La  La7  1  0.805200  0.194800  0.805200  1
  La  La8  1  0.194800  0.194800  0.805200  1
  La  La9  1  0.805200  0.805200  0.194800  1
  Nd  Nd10  1  0.933904  0.566096  0.566096  1
  Nd  Nd11  1  0.566096  0.933904  0.933904  1
  Nd  Nd12  1  0.566096  0.933904  0.566096  1
  Nd  Nd13  1  0.933904  0.566096  0.933904  1
  Nd  Nd14  1  0.566096  0.566096  0.933904  1
  Nd  Nd15  1  0.933904  0.933904  0.566096  1
  Hg  Hg16  1  0.585395  0.585395  0.585395  1
  Hg  Hg17  1  0.585395  0.585395  0.243815  1
  Hg  Hg18  1  0.585395  0.243815  0.585395  1
  Hg  Hg19  1  0.243815  0.585395  0.585395  1
  Pt  Pt20  1  0.142804  0.142804  0.142804  1
  Pt  Pt21  1  0.142804  0.142804  0.571586  1
  Pt  Pt22  1  0.142804  0.571586  0.142804  1
  Pt  Pt23  1  0.571586  0.142804  0.142804  1
