# generated using pymatgen
data_Zr10AlAgBi5Pb
_symmetry_space_group_name_H-M   'P 1'
_cell_length_a   8.88491075
_cell_length_b   8.90364363
_cell_length_c   5.97712653
_cell_angle_alpha   90.00588647
_cell_angle_beta   89.98819579
_cell_angle_gamma   119.93042230
_symmetry_Int_Tables_number   1
_chemical_formula_structural   Zr10AlAgBi5Pb
_chemical_formula_sum   'Zr10 Al1 Ag1 Bi5 Pb1'
_cell_volume   409.77737149
_cell_formula_units_Z   1
loop_
 _symmetry_equiv_pos_site_id
 _symmetry_equiv_pos_as_xyz
  1  'x, y, z'
loop_
 _atom_site_type_symbol
 _atom_site_label
 _atom_site_symmetry_multiplicity
 _atom_site_fract_x
 _atom_site_fract_y
 _atom_site_fract_z
 _atom_site_occupancy
  Zr  Zr0  1  0.726744  0.000000  0.258722  1
  Zr  Zr1  1  0.000099  0.727506  0.257891  1
  Zr  Zr2  1  0.272593  0.272494  0.257891  1
  Zr  Zr3  1  0.270597  0.000000  0.742643  1
  Zr  Zr4  1  0.000769  0.271950  0.741622  1
  Zr  Zr5  1  0.728819  0.728050  0.741622  1
  Zr  Zr6  1  0.334234  0.667919  0.499201  1
  Zr  Zr7  1  0.666316  0.332081  0.499201  1
  Zr  Zr8  1  0.666413  0.332300  0.000759  1
  Zr  Zr9  1  0.334112  0.667700  0.000759  1
  Al  Al10  1  0.999939  0.000000  0.498225  1
  Ag  Ag11  1  0.999900  0.000000  0.001778  1
  Bi  Bi12  1  0.999794  0.383386  0.248473  1
  Bi  Bi13  1  0.616408  0.616614  0.248473  1
  Bi  Bi14  1  0.615957  0.000000  0.752152  1
  Bi  Bi15  1  0.001307  0.616731  0.751149  1
  Bi  Bi16  1  0.384575  0.383269  0.751149  1
  Pb  Pb17  1  0.381422  0.000000  0.248293  1
