# generated using pymatgen
data_Tb4AgPt3Pb2
_symmetry_space_group_name_H-M   'P 1'
_cell_length_a   8.11986717
_cell_length_b   8.11986717
_cell_length_c   3.58996900
_cell_angle_alpha   90.00000000
_cell_angle_beta   90.00000000
_cell_angle_gamma   89.24086940
_symmetry_Int_Tables_number   1
_chemical_formula_structural   Tb4AgPt3Pb2
_chemical_formula_sum   'Tb4 Ag1 Pt3 Pb2'
_cell_volume   236.67393327
_cell_formula_units_Z   1
loop_
 _symmetry_equiv_pos_site_id
 _symmetry_equiv_pos_as_xyz
  1  'x, y, z'
loop_
 _atom_site_type_symbol
 _atom_site_label
 _atom_site_symmetry_multiplicity
 _atom_site_fract_x
 _atom_site_fract_y
 _atom_site_fract_z
 _atom_site_occupancy
  Tb  Tb0  1  0.308913  0.160037  0.499999  1
  Tb  Tb1  1  0.851054  0.351054  0.499999  1
  Tb  Tb2  1  0.172009  0.672009  0.499999  1
  Tb  Tb3  1  0.660037  0.808913  0.499999  1
  Ag  Ag4  1  0.627834  0.127834  0.000000  1
  Pt  Pt5  1  0.132705  0.378929  0.000000  1
  Pt  Pt6  1  0.878929  0.632705  0.000000  1
  Pt  Pt7  1  0.379819  0.879819  0.000000  1
  Pb  Pb8  1  0.990744  0.997955  0.000000  1
  Pb  Pb9  1  0.497955  0.490744  0.000000  1
