# generated using pymatgen
data_DyErMn6Co6P7
_symmetry_space_group_name_H-M   'P 1'
_cell_length_a   9.05713900
_cell_length_b   9.05713885
_cell_length_c   3.63002000
_cell_angle_alpha   90.00000000
_cell_angle_beta   90.00000000
_cell_angle_gamma   120.00000419
_symmetry_Int_Tables_number   1
_chemical_formula_structural   DyErMn6Co6P7
_chemical_formula_sum   'Dy1 Er1 Mn6 Co6 P7'
_cell_volume   257.88239202
_cell_formula_units_Z   1
loop_
 _symmetry_equiv_pos_site_id
 _symmetry_equiv_pos_as_xyz
  1  'x, y, z'
loop_
 _atom_site_type_symbol
 _atom_site_label
 _atom_site_symmetry_multiplicity
 _atom_site_fract_x
 _atom_site_fract_y
 _atom_site_fract_z
 _atom_site_occupancy
  Dy  Dy0  1  0.333333  0.666667  0.500000  1
  Er  Er1  1  0.666667  0.333333  0.000000  1
  Mn  Mn2  1  0.879705  0.722696  0.000000  1
  Mn  Mn3  1  0.277304  0.157009  0.000000  1
  Mn  Mn4  1  0.842991  0.120295  0.000000  1
  Mn  Mn5  1  0.119622  0.896002  0.500000  1
  Mn  Mn6  1  0.103998  0.223619  0.500000  1
  Mn  Mn7  1  0.776381  0.880378  0.500000  1
  Co  Co8  1  0.369387  0.940122  0.000000  1
  Co  Co9  1  0.059878  0.429265  0.000000  1
  Co  Co10  1  0.570735  0.630613  0.000000  1
  Co  Co11  1  0.948668  0.560444  0.500000  1
  Co  Co12  1  0.439556  0.388224  0.500000  1
  Co  Co13  1  0.611776  0.051332  0.500000  1
  P  P14  1  0.111112  0.698623  0.000000  1
  P  P15  1  0.301377  0.412490  0.000000  1
  P  P16  1  0.587510  0.888888  0.000000  1
  P  P17  1  0.711985  0.592696  0.500000  1
  P  P18  1  0.407304  0.119290  0.500000  1
  P  P19  1  0.880710  0.288015  0.500000  1
  P  P20  1  0.000000  0.000000  0.000000  1
