# generated using pymatgen
data_Tm8Lu4AlZnFe4
_symmetry_space_group_name_H-M   'P 1'
_cell_length_a   8.17482730
_cell_length_b   8.17482738
_cell_length_c   8.17482700
_cell_angle_alpha   111.50399809
_cell_angle_beta   110.51373236
_cell_angle_gamma   106.43945684
_symmetry_Int_Tables_number   1
_chemical_formula_structural   Tm8Lu4AlZnFe4
_chemical_formula_sum   'Tm8 Lu4 Al1 Zn1 Fe4'
_cell_volume   419.63596243
_cell_formula_units_Z   1
loop_
 _symmetry_equiv_pos_site_id
 _symmetry_equiv_pos_as_xyz
  1  'x, y, z'
loop_
 _atom_site_type_symbol
 _atom_site_label
 _atom_site_symmetry_multiplicity
 _atom_site_fract_x
 _atom_site_fract_y
 _atom_site_fract_z
 _atom_site_occupancy
  Tm  Tm0  1  0.431619  0.229378  0.202240  1
  Tm  Tm1  1  0.568381  0.770622  0.797760  1
  Tm  Tm2  1  0.027137  0.229378  0.797760  1
  Tm  Tm3  1  0.972863  0.770622  0.202240  1
  Tm  Tm4  1  0.186573  0.285595  0.472168  1
  Tm  Tm5  1  0.813427  0.714405  0.527832  1
  Tm  Tm6  1  0.186573  0.714405  0.900979  1
  Tm  Tm7  1  0.813427  0.285595  0.099021  1
  Lu  Lu8  1  0.316243  0.615747  0.299501  1
  Lu  Lu9  1  0.683757  0.384253  0.700499  1
  Lu  Lu10  1  0.316243  0.016742  0.700499  1
  Lu  Lu11  1  0.683757  0.983258  0.299501  1
  Al  Al12  1  0.500000  0.500000  0.000000  1
  Zn  Zn13  1  0.000000  0.000000  0.000000  1
  Fe  Fe14  1  0.379495  0.000000  0.379495  1
  Fe  Fe15  1  0.620505  0.000000  0.620505  1
  Fe  Fe16  1  0.110496  0.610496  0.500000  1
  Fe  Fe17  1  0.889504  0.389504  0.500000  1
