# generated using pymatgen
data_Yb2ErTm17Ir12
_symmetry_space_group_name_H-M   'P 1'
_cell_length_a   10.73713370
_cell_length_b   10.77050901
_cell_length_c   6.30554203
_cell_angle_alpha   89.99618732
_cell_angle_beta   90.23638323
_cell_angle_gamma   89.99889985
_symmetry_Int_Tables_number   1
_chemical_formula_structural   Yb2ErTm17Ir12
_chemical_formula_sum   'Yb2 Er1 Tm17 Ir12'
_cell_volume   729.19438731
_cell_formula_units_Z   1
loop_
 _symmetry_equiv_pos_site_id
 _symmetry_equiv_pos_as_xyz
  1  'x, y, z'
loop_
 _atom_site_type_symbol
 _atom_site_label
 _atom_site_symmetry_multiplicity
 _atom_site_fract_x
 _atom_site_fract_y
 _atom_site_fract_z
 _atom_site_occupancy
  Yb  Yb0  1  0.288963  0.087888  0.374261  1
  Yb  Yb1  1  0.288959  0.912109  0.874249  1
  Er  Er2  1  0.709128  0.086339  0.878109  1
  Tm  Tm3  1  0.708855  0.913714  0.378183  1
  Tm  Tm4  1  0.586942  0.792441  0.876607  1
  Tm  Tm5  1  0.586896  0.207498  0.376627  1
  Tm  Tm6  1  0.412748  0.792859  0.378052  1
  Tm  Tm7  1  0.412630  0.207159  0.878026  1
  Tm  Tm8  1  0.209507  0.413585  0.623633  1
  Tm  Tm9  1  0.209510  0.586420  0.123632  1
  Tm  Tm10  1  0.791416  0.412726  0.121602  1
  Tm  Tm11  1  0.791413  0.587299  0.621584  1
  Tm  Tm12  1  0.912920  0.709233  0.123787  1
  Tm  Tm13  1  0.913011  0.290843  0.623686  1
  Tm  Tm14  1  0.087084  0.708318  0.622280  1
  Tm  Tm15  1  0.087079  0.291668  0.122244  1
  Tm  Tm16  1  0.000634  0.999480  0.500113  1
  Tm  Tm17  1  0.000753  0.000432  0.000184  1
  Tm  Tm18  1  0.500255  0.499932  0.998686  1
  Tm  Tm19  1  0.500271  0.500087  0.498648  1
  Ir  Ir20  1  0.848602  0.153837  0.250671  1
  Ir  Ir21  1  0.848547  0.846065  0.750114  1
  Ir  Ir22  1  0.147720  0.159969  0.753912  1
  Ir  Ir23  1  0.147716  0.840035  0.253914  1
  Ir  Ir24  1  0.652075  0.345811  0.750348  1
  Ir  Ir25  1  0.652142  0.654419  0.250472  1
  Ir  Ir26  1  0.347278  0.351481  0.246045  1
  Ir  Ir27  1  0.347291  0.648519  0.746049  1
  Ir  Ir28  1  0.504788  0.000127  0.123759  1
  Ir  Ir29  1  0.504814  0.999691  0.623321  1
  Ir  Ir30  1  0.000025  0.500307  0.878613  1
  Ir  Ir31  1  0.000031  0.499711  0.378589  1
