# generated using pymatgen
data_Tm16Mg3InPd4
_symmetry_space_group_name_H-M   'P 1'
_cell_length_a   9.65992964
_cell_length_b   9.69251460
_cell_length_c   9.69251600
_cell_angle_alpha   60.00000204
_cell_angle_beta   59.88835434
_cell_angle_gamma   59.88835107
_symmetry_Int_Tables_number   1
_chemical_formula_structural   Tm16Mg3InPd4
_chemical_formula_sum   'Tm16 Mg3 In1 Pd4'
_cell_volume   640.61485405
_cell_formula_units_Z   1
loop_
 _symmetry_equiv_pos_site_id
 _symmetry_equiv_pos_as_xyz
  1  'x, y, z'
loop_
 _atom_site_type_symbol
 _atom_site_label
 _atom_site_symmetry_multiplicity
 _atom_site_fract_x
 _atom_site_fract_y
 _atom_site_fract_z
 _atom_site_occupancy
  Tm  Tm0  1  0.351596  0.352602  0.352602  1
  Tm  Tm1  1  0.351596  0.352602  0.943198  1
  Tm  Tm2  1  0.351596  0.943198  0.352602  1
  Tm  Tm3  1  0.945800  0.351399  0.351399  1
  Tm  Tm4  1  0.813681  0.186966  0.186966  1
  Tm  Tm5  1  0.189501  0.811174  0.811174  1
  Tm  Tm6  1  0.189501  0.811174  0.188149  1
  Tm  Tm7  1  0.813681  0.186966  0.812387  1
  Tm  Tm8  1  0.189501  0.188149  0.811174  1
  Tm  Tm9  1  0.813681  0.812387  0.186966  1
  Tm  Tm10  1  0.934220  0.566474  0.566474  1
  Tm  Tm11  1  0.566153  0.933203  0.933203  1
  Tm  Tm12  1  0.566153  0.933203  0.567440  1
  Tm  Tm13  1  0.934220  0.566474  0.932834  1
  Tm  Tm14  1  0.566153  0.567440  0.933203  1
  Tm  Tm15  1  0.934220  0.932834  0.566474  1
  Mg  Mg16  1  0.579077  0.581132  0.581132  1
  Mg  Mg17  1  0.579077  0.581132  0.258658  1
  Mg  Mg18  1  0.579077  0.258658  0.581132  1
  In  In19  1  0.251592  0.582802  0.582802  1
  Pd  Pd20  1  0.144435  0.144181  0.144181  1
  Pd  Pd21  1  0.144435  0.144181  0.567202  1
  Pd  Pd22  1  0.144435  0.567202  0.144181  1
  Pd  Pd23  1  0.566618  0.144460  0.144460  1
