# generated using pymatgen
data_Lu6Zn5GaC2
_symmetry_space_group_name_H-M   'P 1'
_cell_length_a   8.97423123
_cell_length_b   8.97423150
_cell_length_c   8.95221355
_cell_angle_alpha   59.91860694
_cell_angle_beta   59.91860354
_cell_angle_gamma   59.99999484
_symmetry_Int_Tables_number   1
_chemical_formula_structural   Lu6Zn5GaC2
_chemical_formula_sum   'Lu12 Zn10 Ga2 C4'
_cell_volume   509.18375711
_cell_formula_units_Z   2
loop_
 _symmetry_equiv_pos_site_id
 _symmetry_equiv_pos_as_xyz
  1  'x, y, z'
loop_
 _atom_site_type_symbol
 _atom_site_label
 _atom_site_symmetry_multiplicity
 _atom_site_fract_x
 _atom_site_fract_y
 _atom_site_fract_z
 _atom_site_occupancy
  Lu  Lu0  1  0.445613  0.445613  0.054299  1
  Lu  Lu1  1  0.054475  0.445613  0.054299  1
  Lu  Lu2  1  0.445613  0.054475  0.054299  1
  Lu  Lu3  1  0.054639  0.054639  0.445680  1
  Lu  Lu4  1  0.445042  0.054639  0.445680  1
  Lu  Lu5  1  0.054639  0.445042  0.445680  1
  Lu  Lu6  1  0.804210  0.804210  0.195679  1
  Lu  Lu7  1  0.195901  0.804210  0.195679  1
  Lu  Lu8  1  0.804210  0.195901  0.195679  1
  Lu  Lu9  1  0.195507  0.195507  0.804535  1
  Lu  Lu10  1  0.804451  0.195507  0.804535  1
  Lu  Lu11  1  0.195507  0.804451  0.804535  1
  Zn  Zn12  1  0.829032  0.514671  0.827266  1
  Zn  Zn13  1  0.514671  0.829032  0.827266  1
  Zn  Zn14  1  0.829032  0.829032  0.827266  1
  Zn  Zn15  1  0.421971  0.421971  0.734085  1
  Zn  Zn16  1  0.420975  0.735069  0.422980  1
  Zn  Zn17  1  0.735069  0.420975  0.422980  1
  Zn  Zn18  1  0.420975  0.420975  0.422980  1
  Zn  Zn19  1  0.624563  0.125690  0.625184  1
  Zn  Zn20  1  0.125690  0.624563  0.625184  1
  Zn  Zn21  1  0.624563  0.624563  0.625184  1
  Ga  Ga22  1  0.828430  0.828430  0.514712  1
  Ga  Ga23  1  0.624996  0.624996  0.125011  1
  C  C24  1  0.125054  0.125054  0.624837  1
  C  C25  1  0.124999  0.625174  0.124829  1
  C  C26  1  0.625174  0.124999  0.124829  1
  C  C27  1  0.124999  0.124999  0.124829  1
