# generated using pymatgen
data_Ho7Sn23(IrRh)3
_symmetry_space_group_name_H-M   'P 1'
_cell_length_a   9.85547000
_cell_length_b   9.85546917
_cell_length_c   10.09559500
_cell_angle_alpha   90.00000000
_cell_angle_beta   90.00000000
_cell_angle_gamma   119.99999609
_symmetry_Int_Tables_number   1
_chemical_formula_structural   Ho7Sn23(IrRh)3
_chemical_formula_sum   'Ho7 Sn23 Ir3 Rh3'
_cell_volume   849.21413147
_cell_formula_units_Z   1
loop_
 _symmetry_equiv_pos_site_id
 _symmetry_equiv_pos_as_xyz
  1  'x, y, z'
loop_
 _atom_site_type_symbol
 _atom_site_label
 _atom_site_symmetry_multiplicity
 _atom_site_fract_x
 _atom_site_fract_y
 _atom_site_fract_z
 _atom_site_occupancy
  Ho  Ho0  1  0.000000  0.000000  0.011265  1
  Ho  Ho1  1  0.520440  0.479560  0.691315  1
  Ho  Ho2  1  0.520440  0.040879  0.691315  1
  Ho  Ho3  1  0.959121  0.479560  0.691315  1
  Ho  Ho4  1  0.038616  0.519309  0.305384  1
  Ho  Ho5  1  0.480691  0.961384  0.305384  1
  Ho  Ho6  1  0.480691  0.519309  0.305384  1
  Sn  Sn7  1  0.666667  0.333333  0.172664  1
  Sn  Sn8  1  0.666667  0.333333  0.875627  1
  Sn  Sn9  1  0.333333  0.666667  0.122285  1
  Sn  Sn10  1  0.350993  0.352000  0.998712  1
  Sn  Sn11  1  0.001007  0.649007  0.998712  1
  Sn  Sn12  1  0.648000  0.998993  0.998712  1
  Sn  Sn13  1  0.648000  0.649007  0.998712  1
  Sn  Sn14  1  0.333333  0.666667  0.822407  1
  Sn  Sn15  1  0.445169  0.222585  0.455974  1
  Sn  Sn16  1  0.222842  0.777158  0.543920  1
  Sn  Sn17  1  0.222842  0.445683  0.543920  1
  Sn  Sn18  1  0.554317  0.777158  0.543920  1
  Sn  Sn19  1  0.119944  0.880056  0.285914  1
  Sn  Sn20  1  0.777415  0.554831  0.455974  1
  Sn  Sn21  1  0.777415  0.222585  0.455974  1
  Sn  Sn22  1  0.350993  0.998993  0.998712  1
  Sn  Sn23  1  0.119944  0.239888  0.285914  1
  Sn  Sn24  1  0.760112  0.880056  0.285914  1
  Sn  Sn25  1  0.238818  0.119409  0.719379  1
  Sn  Sn26  1  0.880591  0.761182  0.719379  1
  Sn  Sn27  1  0.880591  0.119409  0.719379  1
  Sn  Sn28  1  0.000000  0.000000  0.501009  1
  Sn  Sn29  1  0.001007  0.352000  0.998712  1
  Ir  Ir30  1  0.336519  0.168260  0.197982  1
  Ir  Ir31  1  0.831740  0.663481  0.197982  1
  Ir  Ir32  1  0.831740  0.168260  0.197982  1
  Rh  Rh33  1  0.169038  0.830962  0.800956  1
  Rh  Rh34  1  0.169038  0.338074  0.800956  1
  Rh  Rh35  1  0.661926  0.830962  0.800956  1
