# generated using pymatgen
data_Tb4Yb2Si24Os7Ru
_symmetry_space_group_name_H-M   'P 1'
_cell_length_a   10.14363706
_cell_length_b   10.14363678
_cell_length_c   8.15647309
_cell_angle_alpha   89.98355322
_cell_angle_beta   89.98354421
_cell_angle_gamma   132.48514124
_symmetry_Int_Tables_number   1
_chemical_formula_structural   Tb4Yb2Si24Os7Ru
_chemical_formula_sum   'Tb4 Yb2 Si24 Os7 Ru1'
_cell_volume   618.90465668
_cell_formula_units_Z   1
loop_
 _symmetry_equiv_pos_site_id
 _symmetry_equiv_pos_as_xyz
  1  'x, y, z'
loop_
 _atom_site_type_symbol
 _atom_site_label
 _atom_site_symmetry_multiplicity
 _atom_site_fract_x
 _atom_site_fract_y
 _atom_site_fract_z
 _atom_site_occupancy
  Tb  Tb0  1  0.500533  0.000631  0.750064  1
  Tb  Tb1  1  0.999049  0.499536  0.250013  1
  Tb  Tb2  1  0.499536  0.999049  0.250013  1
  Tb  Tb3  1  0.000631  0.500533  0.750064  1
  Yb  Yb4  1  0.500113  0.500113  0.499426  1
  Yb  Yb5  1  0.000641  0.000641  0.999888  1
  Si  Si6  1  0.796841  0.203080  0.500099  1
  Si  Si7  1  0.296879  0.703003  0.000175  1
  Si  Si8  1  0.203080  0.796841  0.500099  1
  Si  Si9  1  0.703003  0.296879  0.000175  1
  Si  Si10  1  0.334299  0.334299  0.831309  1
  Si  Si11  1  0.668480  0.668480  0.165971  1
  Si  Si12  1  0.167671  0.167671  0.332110  1
  Si  Si13  1  0.832148  0.832148  0.668101  1
  Si  Si14  1  0.121261  0.889625  0.730458  1
  Si  Si15  1  0.110215  0.877980  0.269636  1
  Si  Si16  1  0.609077  0.376841  0.230365  1
  Si  Si17  1  0.622010  0.390492  0.770028  1
  Si  Si18  1  0.877980  0.110215  0.269636  1
  Si  Si19  1  0.889625  0.121261  0.730458  1
  Si  Si20  1  0.390492  0.622010  0.770028  1
  Si  Si21  1  0.376841  0.609077  0.230365  1
  Si  Si22  1  0.346831  0.114889  0.506100  1
  Si  Si23  1  0.884607  0.653065  0.494225  1
  Si  Si24  1  0.385209  0.153045  0.007275  1
  Si  Si25  1  0.846443  0.614894  0.993556  1
  Si  Si26  1  0.653065  0.884607  0.494225  1
  Si  Si27  1  0.114889  0.346831  0.506100  1
  Si  Si28  1  0.614894  0.846443  0.993556  1
  Si  Si29  1  0.153045  0.385209  0.007275  1
  Os  Os30  1  0.671265  0.328630  0.500187  1
  Os  Os31  1  0.171327  0.828542  0.999760  1
  Os  Os32  1  0.328630  0.671265  0.500187  1
  Os  Os33  1  0.828542  0.171327  0.999760  1
  Os  Os34  1  0.126482  0.126482  0.626337  1
  Os  Os35  1  0.873819  0.873819  0.373371  1
  Os  Os36  1  0.374152  0.374152  0.125979  1
  Ru  Ru37  1  0.626392  0.626392  0.873625  1
