# generated using pymatgen
data_Dy5Ti3P12(Ir5Rh3)2
_symmetry_space_group_name_H-M   'P 1'
_cell_length_a   12.77123021
_cell_length_b   12.77156883
_cell_length_c   3.93009700
_cell_angle_alpha   90.00000000
_cell_angle_beta   90.00000000
_cell_angle_gamma   119.93171954
_symmetry_Int_Tables_number   1
_chemical_formula_structural   Dy5Ti3P12(Ir5Rh3)2
_chemical_formula_sum   'Dy5 Ti3 P12 Ir10 Rh6'
_cell_volume   555.53225980
_cell_formula_units_Z   1
loop_
 _symmetry_equiv_pos_site_id
 _symmetry_equiv_pos_as_xyz
  1  'x, y, z'
loop_
 _atom_site_type_symbol
 _atom_site_label
 _atom_site_symmetry_multiplicity
 _atom_site_fract_x
 _atom_site_fract_y
 _atom_site_fract_z
 _atom_site_occupancy
  Dy  Dy0  1  0.333397  0.666382  0.500000  1
  Dy  Dy1  1  0.666517  0.333082  0.500000  1
  Dy  Dy2  1  0.999615  0.811369  0.000000  1
  Dy  Dy3  1  0.188385  0.188773  0.000000  1
  Dy  Dy4  1  0.811299  0.999841  0.000000  1
  Ti  Ti5  1  0.000292  0.445995  0.500000  1
  Ti  Ti6  1  0.553960  0.554384  0.500000  1
  Ti  Ti7  1  0.446667  0.000229  0.500000  1
  P  P8  1  0.000057  0.640404  0.500000  1
  P  P9  1  0.359657  0.359565  0.500000  1
  P  P10  1  0.640070  0.000590  0.500000  1
  P  P11  1  0.516903  0.683988  0.000000  1
  P  P12  1  0.315479  0.832187  0.000000  1
  P  P13  1  0.167639  0.483232  0.000000  1
  P  P14  1  0.482503  0.167332  0.000000  1
  P  P15  1  0.684602  0.517115  0.000000  1
  P  P16  1  0.832353  0.315857  0.000000  1
  P  P17  1  0.000544  0.176944  0.500000  1
  P  P18  1  0.823247  0.822663  0.500000  1
  P  P19  1  0.176842  0.999847  0.500000  1
  Ir  Ir20  1  0.641903  0.132211  0.000000  1
  Ir  Ir21  1  0.999912  0.282004  0.000000  1
  Ir  Ir22  1  0.717959  0.718602  0.000000  1
  Ir  Ir23  1  0.281271  0.999825  0.000000  1
  Ir  Ir24  1  0.196871  0.821212  0.500000  1
  Ir  Ir25  1  0.178663  0.375376  0.500000  1
  Ir  Ir26  1  0.375114  0.178713  0.500000  1
  Ir  Ir27  1  0.803244  0.624501  0.500000  1
  Ir  Ir28  1  0.821811  0.196100  0.500000  1
  Ir  Ir29  1  0.999982  0.999923  0.500000  1
  Rh  Rh30  1  0.511427  0.868680  0.000000  1
  Rh  Rh31  1  0.131444  0.642119  0.000000  1
  Rh  Rh32  1  0.357170  0.488608  0.000000  1
  Rh  Rh33  1  0.489807  0.357824  0.000000  1
  Rh  Rh34  1  0.868175  0.510466  0.000000  1
  Rh  Rh35  1  0.625220  0.804057  0.500000  1
