# generated using pymatgen
data_La6Nd2SiPd24
_symmetry_space_group_name_H-M   'P 1'
_cell_length_a   8.52615246
_cell_length_b   8.52615246
_cell_length_c   8.52615246
_cell_angle_alpha   90.02658125
_cell_angle_beta   89.97341875
_cell_angle_gamma   89.97341875
_symmetry_Int_Tables_number   1
_chemical_formula_structural   La6Nd2SiPd24
_chemical_formula_sum   'La6 Nd2 Si1 Pd24'
_cell_volume   619.81080394
_cell_formula_units_Z   1
loop_
 _symmetry_equiv_pos_site_id
 _symmetry_equiv_pos_as_xyz
  1  'x, y, z'
loop_
 _atom_site_type_symbol
 _atom_site_label
 _atom_site_symmetry_multiplicity
 _atom_site_fract_x
 _atom_site_fract_y
 _atom_site_fract_z
 _atom_site_occupancy
  La  La0  1  0.253881  0.253760  0.253760  1
  La  La1  1  0.746119  0.746240  0.746240  1
  La  La2  1  0.746240  0.746119  0.253760  1
  La  La3  1  0.746240  0.253760  0.746119  1
  La  La4  1  0.253760  0.253881  0.746240  1
  La  La5  1  0.253760  0.746240  0.253881  1
  Nd  Nd6  1  0.253409  0.746591  0.746591  1
  Nd  Nd7  1  0.746591  0.253409  0.253409  1
  Si  Si8  1  0.000000  0.000000  0.000000  1
  Pd  Pd9  1  0.256642  0.500194  0.999829  1
  Pd  Pd10  1  0.743358  0.499806  0.000171  1
  Pd  Pd11  1  0.999829  0.256642  0.499806  1
  Pd  Pd12  1  0.500194  0.256642  0.000171  1
  Pd  Pd13  1  0.000171  0.743358  0.500194  1
  Pd  Pd14  1  0.499806  0.743358  0.999829  1
  Pd  Pd15  1  0.500194  0.000171  0.256642  1
  Pd  Pd16  1  0.256642  0.999829  0.500194  1
  Pd  Pd17  1  0.499806  0.999829  0.743358  1
  Pd  Pd18  1  0.743358  0.000171  0.499806  1
  Pd  Pd19  1  0.999829  0.499806  0.256642  1
  Pd  Pd20  1  0.000171  0.500194  0.743358  1
  Pd  Pd21  1  0.251679  0.500173  0.500173  1
  Pd  Pd22  1  0.748321  0.499827  0.499827  1
  Pd  Pd23  1  0.500173  0.251679  0.499827  1
  Pd  Pd24  1  0.499827  0.748321  0.500173  1
  Pd  Pd25  1  0.500173  0.499827  0.251679  1
  Pd  Pd26  1  0.499827  0.500173  0.748321  1
  Pd  Pd27  1  0.280263  0.999668  0.999668  1
  Pd  Pd28  1  0.719737  0.000332  0.000332  1
  Pd  Pd29  1  0.999668  0.280263  0.000332  1
  Pd  Pd30  1  0.000332  0.719737  0.999668  1
  Pd  Pd31  1  0.999668  0.000332  0.280263  1
  Pd  Pd32  1  0.000332  0.999668  0.719737  1
