# generated using pymatgen
data_RbZrSi4N7
_symmetry_space_group_name_H-M   'P 1'
_cell_length_a   5.98541703
_cell_length_b   5.98541532
_cell_length_c   9.76305500
_cell_angle_alpha   90.00000000
_cell_angle_beta   90.00000000
_cell_angle_gamma   120.00035780
_symmetry_Int_Tables_number   1
_chemical_formula_structural   RbZrSi4N7
_chemical_formula_sum   'Rb2 Zr2 Si8 N14'
_cell_volume   302.90295365
_cell_formula_units_Z   2
loop_
 _symmetry_equiv_pos_site_id
 _symmetry_equiv_pos_as_xyz
  1  'x, y, z'
loop_
 _atom_site_type_symbol
 _atom_site_label
 _atom_site_symmetry_multiplicity
 _atom_site_fract_x
 _atom_site_fract_y
 _atom_site_fract_z
 _atom_site_occupancy
  Rb  Rb0  1  0.333335  0.666663  0.361629  1
  Rb  Rb1  1  0.666663  0.333335  0.861628  1
  Zr  Zr2  1  0.666671  0.333329  0.236402  1
  Zr  Zr3  1  0.333330  0.666671  0.736400  1
  Si  Si4  1  0.174111  0.348210  0.046803  1
  Si  Si5  1  0.825888  0.651790  0.546803  1
  Si  Si6  1  0.651789  0.825888  0.046803  1
  Si  Si7  1  0.174112  0.825887  0.046802  1
  Si  Si8  1  0.825886  0.174111  0.546801  1
  Si  Si9  1  0.348210  0.174111  0.546803  1
  Si  Si10  1  0.000004  0.999996  0.312458  1
  Si  Si11  1  0.999997  0.000006  0.812458  1
  N  N12  1  0.016649  0.508317  0.103955  1
  N  N13  1  0.983350  0.491683  0.603955  1
  N  N14  1  0.491685  0.508318  0.103952  1
  N  N15  1  0.491682  0.983351  0.103955  1
  N  N16  1  0.508317  0.016649  0.603955  1
  N  N17  1  0.508317  0.491684  0.603953  1
  N  N18  1  0.842604  0.685201  0.370102  1
  N  N19  1  0.157395  0.314799  0.870101  1
  N  N20  1  0.314799  0.157396  0.370101  1
  N  N21  1  0.842608  0.157392  0.370100  1
  N  N22  1  0.157393  0.842607  0.870100  1
  N  N23  1  0.685201  0.842606  0.870100  1
  N  N24  1  0.000007  0.999993  0.119683  1
  N  N25  1  0.999994  0.000007  0.619681  1
