# generated using pymatgen
data_K6Ga3Sn5Pt8
_symmetry_space_group_name_H-M   'P 1'
_cell_length_a   7.14972728
_cell_length_b   7.14972698
_cell_length_c   12.02491839
_cell_angle_alpha   89.78809896
_cell_angle_beta   89.78809547
_cell_angle_gamma   107.25459004
_symmetry_Int_Tables_number   1
_chemical_formula_structural   K6Ga3Sn5Pt8
_chemical_formula_sum   'K6 Ga3 Sn5 Pt8'
_cell_volume   587.02184449
_cell_formula_units_Z   1
loop_
 _symmetry_equiv_pos_site_id
 _symmetry_equiv_pos_as_xyz
  1  'x, y, z'
loop_
 _atom_site_type_symbol
 _atom_site_label
 _atom_site_symmetry_multiplicity
 _atom_site_fract_x
 _atom_site_fract_y
 _atom_site_fract_z
 _atom_site_occupancy
  K  K0  1  0.206396  0.790760  0.501492  1
  K  K1  1  0.211037  0.792537  0.999624  1
  K  K2  1  0.790760  0.206396  0.501492  1
  K  K3  1  0.792537  0.211037  0.999624  1
  K  K4  1  0.023451  0.023451  0.242673  1
  K  K5  1  0.975104  0.975104  0.751238  1
  Ga  Ga6  1  0.648386  0.648386  0.580909  1
  Ga  Ga7  1  0.355601  0.355601  0.076776  1
  Ga  Ga8  1  0.643907  0.643907  0.920695  1
  Sn  Sn9  1  0.510692  0.892062  0.250301  1
  Sn  Sn10  1  0.104175  0.494236  0.753830  1
  Sn  Sn11  1  0.494236  0.104175  0.753830  1
  Sn  Sn12  1  0.892062  0.510692  0.250301  1
  Sn  Sn13  1  0.346514  0.346514  0.420392  1
  Pt  Pt14  1  0.528374  0.258517  0.242452  1
  Pt  Pt15  1  0.736851  0.476056  0.750480  1
  Pt  Pt16  1  0.476056  0.736851  0.750480  1
  Pt  Pt17  1  0.258517  0.528374  0.242452  1
  Pt  Pt18  1  0.342196  0.342196  0.874964  1
  Pt  Pt19  1  0.654557  0.654557  0.124551  1
  Pt  Pt20  1  0.344426  0.344426  0.634546  1
  Pt  Pt21  1  0.664163  0.664163  0.376896  1
