# generated using pymatgen
data_SrPr3(Ir2O7)2
_symmetry_space_group_name_H-M   'P 1'
_cell_length_a   7.45903989
_cell_length_b   7.42531671
_cell_length_c   7.45904000
_cell_angle_alpha   59.84964889
_cell_angle_beta   59.99999951
_cell_angle_gamma   59.84964390
_symmetry_Int_Tables_number   1
_chemical_formula_structural   SrPr3(Ir2O7)2
_chemical_formula_sum   'Sr1 Pr3 Ir4 O14'
_cell_volume   291.45742651
_cell_formula_units_Z   1
loop_
 _symmetry_equiv_pos_site_id
 _symmetry_equiv_pos_as_xyz
  1  'x, y, z'
loop_
 _atom_site_type_symbol
 _atom_site_label
 _atom_site_symmetry_multiplicity
 _atom_site_fract_x
 _atom_site_fract_y
 _atom_site_fract_z
 _atom_site_occupancy
  Sr  Sr0  1  0.125000  0.625000  0.125000  1
  Pr  Pr1  1  0.125000  0.125000  0.625000  1
  Pr  Pr2  1  0.125000  0.125000  0.125000  1
  Pr  Pr3  1  0.625000  0.125000  0.125000  1
  Ir  Ir4  1  0.625000  0.625000  0.625000  1
  Ir  Ir5  1  0.125000  0.625000  0.625000  1
  Ir  Ir6  1  0.625000  0.125000  0.625000  1
  Ir  Ir7  1  0.625000  0.625000  0.125000  1
  O  O8  1  0.950427  0.544371  0.554776  1
  O  O9  1  0.296514  0.295044  0.704221  1
  O  O10  1  0.950427  0.544371  0.950427  1
  O  O11  1  0.704221  0.295044  0.296514  1
  O  O12  1  0.554776  0.544371  0.950427  1
  O  O13  1  0.545779  0.954956  0.545779  1
  O  O14  1  0.545779  0.954956  0.953486  1
  O  O15  1  0.253135  0.240596  0.253135  1
  O  O16  1  0.299573  0.705629  0.695224  1
  O  O17  1  0.704221  0.295044  0.704221  1
  O  O18  1  0.996865  0.009404  0.996865  1
  O  O19  1  0.953486  0.954956  0.545779  1
  O  O20  1  0.299573  0.705629  0.299573  1
  O  O21  1  0.695224  0.705629  0.299573  1
