# generated using pymatgen
data_Nd4MgSc3Pt4
_symmetry_space_group_name_H-M   'P 1'
_cell_length_a   4.62432300
_cell_length_b   7.21243036
_cell_length_c   8.53089721
_cell_angle_alpha   93.59911902
_cell_angle_beta   90.00000000
_cell_angle_gamma   90.00000000
_symmetry_Int_Tables_number   1
_chemical_formula_structural   Nd4MgSc3Pt4
_chemical_formula_sum   'Nd4 Mg1 Sc3 Pt4'
_cell_volume   283.96649112
_cell_formula_units_Z   1
loop_
 _symmetry_equiv_pos_site_id
 _symmetry_equiv_pos_as_xyz
  1  'x, y, z'
loop_
 _atom_site_type_symbol
 _atom_site_label
 _atom_site_symmetry_multiplicity
 _atom_site_fract_x
 _atom_site_fract_y
 _atom_site_fract_z
 _atom_site_occupancy
  Nd  Nd0  1  0.750000  0.468897  0.173304  1
  Nd  Nd1  1  0.250000  0.030168  0.683284  1
  Nd  Nd2  1  0.750000  0.974472  0.316846  1
  Nd  Nd3  1  0.250000  0.517067  0.834169  1
  Mg  Mg4  1  0.250000  0.141616  0.069585  1
  Sc  Sc5  1  0.750000  0.859880  0.929071  1
  Sc  Sc6  1  0.250000  0.635137  0.432539  1
  Sc  Sc7  1  0.750000  0.370125  0.569045  1
  Pt  Pt8  1  0.750000  0.741213  0.596173  1
  Pt  Pt9  1  0.750000  0.233185  0.879611  1
  Pt  Pt10  1  0.250000  0.264864  0.403856  1
  Pt  Pt11  1  0.250000  0.763379  0.112518  1
