# generated using pymatgen
data_Na4As2PbO9
_symmetry_space_group_name_H-M   'P 1'
_cell_length_a   7.50366316
_cell_length_b   8.05568209
_cell_length_c   9.05703335
_cell_angle_alpha   90.09994948
_cell_angle_beta   114.47179066
_cell_angle_gamma   90.00000335
_symmetry_Int_Tables_number   1
_chemical_formula_structural   Na4As2PbO9
_chemical_formula_sum   'Na8 As4 Pb2 O18'
_cell_volume   498.28877958
_cell_formula_units_Z   2
loop_
 _symmetry_equiv_pos_site_id
 _symmetry_equiv_pos_as_xyz
  1  'x, y, z'
loop_
 _atom_site_type_symbol
 _atom_site_label
 _atom_site_symmetry_multiplicity
 _atom_site_fract_x
 _atom_site_fract_y
 _atom_site_fract_z
 _atom_site_occupancy
  Na  Na0  1  0.255687  0.000000  0.000000  1
  Na  Na1  1  0.744314  0.000000  0.000000  1
  Na  Na2  1  0.103194  0.241917  0.206388  1
  Na  Na3  1  0.626964  0.711331  0.253927  1
  Na  Na4  1  0.000000  0.500000  0.500000  1
  Na  Na5  1  0.500000  0.500000  0.500000  1
  Na  Na6  1  0.373036  0.288669  0.746073  1
  Na  Na7  1  0.896805  0.758082  0.793613  1
  As  As8  1  0.605592  0.245264  0.211185  1
  As  As9  1  0.124934  0.713511  0.249869  1
  As  As10  1  0.875066  0.286488  0.750131  1
  As  As11  1  0.394407  0.754735  0.788816  1
  Pb  Pb12  1  0.000000  0.000000  0.499999  1
  Pb  Pb13  1  0.500000  0.000000  0.499999  1
  O  O14  1  0.503227  0.225232  0.006454  1
  O  O15  1  0.034535  0.815197  0.069069  1
  O  O16  1  0.134915  0.504722  0.269830  1
  O  O17  1  0.440881  0.131851  0.265442  1
  O  O18  1  0.824560  0.131851  0.265442  1
  O  O19  1  0.653901  0.431831  0.307804  1
  O  O20  1  0.372232  0.770358  0.356746  1
  O  O21  1  0.984513  0.770358  0.356746  1
  O  O22  1  0.239057  0.118820  0.478113  1
  O  O23  1  0.760943  0.881179  0.521886  1
  O  O24  1  0.015486  0.229641  0.643253  1
  O  O25  1  0.627767  0.229641  0.643253  1
  O  O26  1  0.346099  0.568170  0.692196  1
  O  O27  1  0.175440  0.868150  0.734558  1
  O  O28  1  0.559118  0.868150  0.734558  1
  O  O29  1  0.865084  0.495278  0.730169  1
  O  O30  1  0.965465  0.184803  0.930932  1
  O  O31  1  0.496773  0.774768  0.993546  1
