# generated using pymatgen
data_Tm13Lu5(ZrIr6)2
_symmetry_space_group_name_H-M   'P 1'
_cell_length_a   10.72270914
_cell_length_b   10.73636607
_cell_length_c   6.24334604
_cell_angle_alpha   89.99826821
_cell_angle_beta   89.98707925
_cell_angle_gamma   90.01291204
_symmetry_Int_Tables_number   1
_chemical_formula_structural   Tm13Lu5(ZrIr6)2
_chemical_formula_sum   'Tm13 Lu5 Zr2 Ir12'
_cell_volume   718.75225570
_cell_formula_units_Z   1
loop_
 _symmetry_equiv_pos_site_id
 _symmetry_equiv_pos_as_xyz
  1  'x, y, z'
loop_
 _atom_site_type_symbol
 _atom_site_label
 _atom_site_symmetry_multiplicity
 _atom_site_fract_x
 _atom_site_fract_y
 _atom_site_fract_z
 _atom_site_occupancy
  Tm  Tm0  1  0.710401  0.914179  0.374622  1
  Tm  Tm1  1  0.587248  0.792914  0.874913  1
  Tm  Tm2  1  0.587317  0.207232  0.375017  1
  Tm  Tm3  1  0.412231  0.792904  0.375001  1
  Tm  Tm4  1  0.412507  0.207033  0.874971  1
  Tm  Tm5  1  0.207423  0.412417  0.624917  1
  Tm  Tm6  1  0.207432  0.587555  0.124932  1
  Tm  Tm7  1  0.792529  0.412464  0.124900  1
  Tm  Tm8  1  0.792579  0.587512  0.624970  1
  Tm  Tm9  1  0.913975  0.710413  0.125587  1
  Tm  Tm10  1  0.913661  0.289390  0.625757  1
  Tm  Tm11  1  0.086303  0.710660  0.625533  1
  Tm  Tm12  1  0.086282  0.289368  0.125674  1
  Lu  Lu13  1  0.290009  0.085729  0.375063  1
  Lu  Lu14  1  0.290099  0.914268  0.875246  1
  Lu  Lu15  1  0.709908  0.085942  0.875009  1
  Lu  Lu16  1  0.499947  0.499965  0.999814  1
  Lu  Lu17  1  0.499973  0.499982  0.499906  1
  Zr  Zr18  1  0.000375  0.000167  0.499734  1
  Zr  Zr19  1  0.000053  0.000063  0.999522  1
  Ir  Ir20  1  0.853619  0.145874  0.249359  1
  Ir  Ir21  1  0.853762  0.854226  0.750097  1
  Ir  Ir22  1  0.146587  0.145631  0.749390  1
  Ir  Ir23  1  0.146543  0.854379  0.249485  1
  Ir  Ir24  1  0.654000  0.345666  0.750176  1
  Ir  Ir25  1  0.653888  0.653890  0.249954  1
  Ir  Ir26  1  0.346031  0.345615  0.250233  1
  Ir  Ir27  1  0.345984  0.654337  0.750241  1
  Ir  Ir28  1  0.499661  0.000146  0.121937  1
  Ir  Ir29  1  0.499656  0.000128  0.622520  1
  Ir  Ir30  1  0.000014  0.500005  0.877738  1
  Ir  Ir31  1  0.000004  0.499946  0.377782  1
