# generated using pymatgen
data_TmPaZnCuRh2
_symmetry_space_group_name_H-M   'P 1'
_cell_length_a   3.75022000
_cell_length_b   7.06368042
_cell_length_c   8.35756743
_cell_angle_alpha   92.83742591
_cell_angle_beta   90.00000000
_cell_angle_gamma   90.00000000
_symmetry_Int_Tables_number   1
_chemical_formula_structural   TmPaZnCuRh2
_chemical_formula_sum   'Tm2 Pa2 Zn2 Cu2 Rh4'
_cell_volume   221.12350622
_cell_formula_units_Z   2
loop_
 _symmetry_equiv_pos_site_id
 _symmetry_equiv_pos_as_xyz
  1  'x, y, z'
loop_
 _atom_site_type_symbol
 _atom_site_label
 _atom_site_symmetry_multiplicity
 _atom_site_fract_x
 _atom_site_fract_y
 _atom_site_fract_z
 _atom_site_occupancy
  Tm  Tm0  1  0.750000  0.935386  0.681281  1
  Tm  Tm1  1  0.250000  0.064614  0.318719  1
  Pa  Pa2  1  0.250000  0.546833  0.201440  1
  Pa  Pa3  1  0.750000  0.453167  0.798560  1
  Zn  Zn4  1  0.750000  0.885959  0.065466  1
  Zn  Zn5  1  0.250000  0.114041  0.934534  1
  Cu  Cu6  1  0.250000  0.621553  0.557601  1
  Cu  Cu7  1  0.750000  0.378447  0.442399  1
  Rh  Rh8  1  0.250000  0.718694  0.881057  1
  Rh  Rh9  1  0.750000  0.281306  0.118943  1
  Rh  Rh10  1  0.750000  0.752962  0.355597  1
  Rh  Rh11  1  0.250000  0.247038  0.644403  1
