# generated using pymatgen
data_Tm2Th12FeCo5
_symmetry_space_group_name_H-M   'P 1'
_cell_length_a   9.76928618
_cell_length_b   9.76928613
_cell_length_c   6.12916074
_cell_angle_alpha   90.12314155
_cell_angle_beta   89.87685648
_cell_angle_gamma   120.09805799
_symmetry_Int_Tables_number   1
_chemical_formula_structural   Tm2Th12FeCo5
_chemical_formula_sum   'Tm2 Th12 Fe1 Co5'
_cell_volume   506.08794738
_cell_formula_units_Z   1
loop_
 _symmetry_equiv_pos_site_id
 _symmetry_equiv_pos_as_xyz
  1  'x, y, z'
loop_
 _atom_site_type_symbol
 _atom_site_label
 _atom_site_symmetry_multiplicity
 _atom_site_fract_x
 _atom_site_fract_y
 _atom_site_fract_z
 _atom_site_occupancy
  Tm  Tm0  1  0.333044  0.666956  0.051877  1
  Tm  Tm1  1  0.666772  0.333228  0.548280  1
  Th  Th2  1  0.127669  0.872331  0.238338  1
  Th  Th3  1  0.254220  0.127679  0.737717  1
  Th  Th4  1  0.872321  0.745780  0.737717  1
  Th  Th5  1  0.123262  0.251207  0.238963  1
  Th  Th6  1  0.748793  0.876738  0.238963  1
  Th  Th7  1  0.873280  0.126720  0.738037  1
  Th  Th8  1  0.542415  0.457585  0.063685  1
  Th  Th9  1  0.083818  0.541201  0.565305  1
  Th  Th10  1  0.458799  0.916182  0.565305  1
  Th  Th11  1  0.543833  0.085517  0.065514  1
  Th  Th12  1  0.914483  0.456167  0.065514  1
  Th  Th13  1  0.457528  0.542472  0.562144  1
  Fe  Fe14  1  0.818523  0.181477  0.285645  1
  Co  Co15  1  0.634886  0.816406  0.790308  1
  Co  Co16  1  0.183594  0.365114  0.790308  1
  Co  Co17  1  0.816459  0.635508  0.292312  1
  Co  Co18  1  0.364492  0.183541  0.292312  1
  Co  Co19  1  0.181806  0.818194  0.791756  1
