# generated using pymatgen
data_Tb14Ho6Co3Bi8Os
_symmetry_space_group_name_H-M   'P 1'
_cell_length_a   8.00622625
_cell_length_b   8.93795777
_cell_length_c   12.46990962
_cell_angle_alpha   90.03311168
_cell_angle_beta   89.70142358
_cell_angle_gamma   90.03442311
_symmetry_Int_Tables_number   1
_chemical_formula_structural   Tb14Ho6Co3Bi8Os
_chemical_formula_sum   'Tb14 Ho6 Co3 Bi8 Os1'
_cell_volume   892.32573064
_cell_formula_units_Z   1
loop_
 _symmetry_equiv_pos_site_id
 _symmetry_equiv_pos_as_xyz
  1  'x, y, z'
loop_
 _atom_site_type_symbol
 _atom_site_label
 _atom_site_symmetry_multiplicity
 _atom_site_fract_x
 _atom_site_fract_y
 _atom_site_fract_z
 _atom_site_occupancy
  Tb  Tb0  1  0.346111  0.750219  0.701076  1
  Tb  Tb1  1  0.653108  0.249732  0.300392  1
  Tb  Tb2  1  0.847896  0.249911  0.800226  1
  Tb  Tb3  1  0.154597  0.750091  0.205913  1
  Tb  Tb4  1  0.880807  0.750006  0.805811  1
  Tb  Tb5  1  0.114937  0.250006  0.189164  1
  Tb  Tb6  1  0.384306  0.249492  0.688858  1
  Tb  Tb7  1  0.615453  0.750486  0.312387  1
  Tb  Tb8  1  0.676259  0.536644  0.563222  1
  Tb  Tb9  1  0.323109  0.461610  0.436780  1
  Tb  Tb10  1  0.051679  0.750333  0.497835  1
  Tb  Tb11  1  0.947877  0.249679  0.502581  1
  Tb  Tb12  1  0.554028  0.249977  0.003079  1
  Tb  Tb13  1  0.444943  0.750037  0.996569  1
  Ho  Ho14  1  0.175632  0.457849  0.935624  1
  Ho  Ho15  1  0.324849  0.038524  0.437004  1
  Ho  Ho16  1  0.825022  0.537256  0.063398  1
  Ho  Ho17  1  0.674505  0.963269  0.563077  1
  Ho  Ho18  1  0.825113  0.962630  0.063482  1
  Ho  Ho19  1  0.175648  0.042238  0.935595  1
  Co  Co20  1  0.931776  0.250028  0.008734  1
  Co  Co21  1  0.564629  0.249118  0.508012  1
  Co  Co22  1  0.434048  0.750900  0.492435  1
  Bi  Bi23  1  0.571836  0.508544  0.826211  1
  Bi  Bi24  1  0.429671  0.490860  0.173479  1
  Bi  Bi25  1  0.072850  0.490369  0.672560  1
  Bi  Bi26  1  0.429582  0.009198  0.173662  1
  Bi  Bi27  1  0.926788  0.508878  0.327033  1
  Bi  Bi28  1  0.571955  0.991401  0.826018  1
  Bi  Bi29  1  0.927499  0.991213  0.327186  1
  Bi  Bi30  1  0.072144  0.009535  0.672378  1
  Os  Os31  1  0.071344  0.749966  0.990218  1
