# generated using pymatgen
data_RbSm2ErCBr6
_symmetry_space_group_name_H-M   'P 1'
_cell_length_a   8.95029179
_cell_length_b   8.98489231
_cell_length_c   9.55528300
_cell_angle_alpha   71.02279302
_cell_angle_beta   84.92395230
_cell_angle_gamma   89.23611205
_symmetry_Int_Tables_number   1
_chemical_formula_structural   RbSm2ErCBr6
_chemical_formula_sum   'Rb2 Sm4 Er2 C2 Br12'
_cell_volume   723.69936911
_cell_formula_units_Z   2
loop_
 _symmetry_equiv_pos_site_id
 _symmetry_equiv_pos_as_xyz
  1  'x, y, z'
loop_
 _atom_site_type_symbol
 _atom_site_label
 _atom_site_symmetry_multiplicity
 _atom_site_fract_x
 _atom_site_fract_y
 _atom_site_fract_z
 _atom_site_occupancy
  Rb  Rb0  1  0.467342  0.361031  0.331268  1
  Rb  Rb1  1  0.532659  0.638969  0.668732  1
  Sm  Sm2  1  0.915419  0.740965  0.003989  1
  Sm  Sm3  1  0.084581  0.259035  0.996010  1
  Sm  Sm4  1  0.739765  0.086663  0.000888  1
  Sm  Sm5  1  0.260234  0.913337  0.999113  1
  Er  Er6  1  0.973113  0.888539  0.320531  1
  Er  Er7  1  0.026886  0.111461  0.679470  1
  C  C8  1  0.006476  0.026641  0.921269  1
  C  C9  1  0.993523  0.973359  0.078731  1
  Br  Br10  1  0.074216  0.189714  0.333166  1
  Br  Br11  1  0.925784  0.810286  0.666834  1
  Br  Br12  1  0.207244  0.590644  0.000538  1
  Br  Br13  1  0.792757  0.409356  0.999462  1
  Br  Br14  1  0.405263  0.203394  0.002390  1
  Br  Br15  1  0.594736  0.796607  0.997609  1
  Br  Br16  1  0.671600  0.998146  0.329616  1
  Br  Br17  1  0.328400  0.001854  0.670384  1
  Br  Br18  1  0.273616  0.776377  0.326406  1
  Br  Br19  1  0.726384  0.223623  0.673594  1
  Br  Br20  1  0.853536  0.595186  0.329805  1
  Br  Br21  1  0.146463  0.404814  0.670195  1
