# generated using pymatgen
data_Y4HoCo2
_symmetry_space_group_name_H-M   'P 1'
_cell_length_a   6.31979033
_cell_length_b   6.92693435
_cell_length_c   8.52511177
_cell_angle_alpha   96.13923203
_cell_angle_beta   111.75616002
_cell_angle_gamma   90.00000722
_symmetry_Int_Tables_number   1
_chemical_formula_structural   Y4HoCo2
_chemical_formula_sum   'Y8 Ho2 Co4'
_cell_volume   344.31305925
_cell_formula_units_Z   2
loop_
 _symmetry_equiv_pos_site_id
 _symmetry_equiv_pos_as_xyz
  1  'x, y, z'
loop_
 _atom_site_type_symbol
 _atom_site_label
 _atom_site_symmetry_multiplicity
 _atom_site_fract_x
 _atom_site_fract_y
 _atom_site_fract_z
 _atom_site_occupancy
  Y  Y0  1  0.977874  0.913088  0.185773  1
  Y  Y1  1  0.792102  0.586912  0.814227  1
  Y  Y2  1  0.022126  0.086912  0.814227  1
  Y  Y3  1  0.207898  0.413088  0.185773  1
  Y  Y4  1  0.650269  0.817521  0.435026  1
  Y  Y5  1  0.215244  0.682479  0.564974  1
  Y  Y6  1  0.349731  0.182479  0.564974  1
  Y  Y7  1  0.784756  0.317521  0.435026  1
  Ho  Ho8  1  0.428714  0.750000  0.000000  1
  Ho  Ho9  1  0.571286  0.250000  0.000000  1
  Co  Co10  1  0.820372  0.569303  0.216700  1
  Co  Co11  1  0.603672  0.930697  0.783300  1
  Co  Co12  1  0.179628  0.430697  0.783300  1
  Co  Co13  1  0.396328  0.069303  0.216700  1
