# generated using pymatgen
data_K3Sc3(PO4)4
_symmetry_space_group_name_H-M   'P 1'
_cell_length_a   9.54173714
_cell_length_b   9.54173715
_cell_length_c   9.85208300
_cell_angle_alpha   88.72480333
_cell_angle_beta   88.72480333
_cell_angle_gamma   62.85679662
_symmetry_Int_Tables_number   1
_chemical_formula_structural   K3Sc3(PO4)4
_chemical_formula_sum   'K6 Sc6 P8 O32'
_cell_volume   797.92359257
_cell_formula_units_Z   2
loop_
 _symmetry_equiv_pos_site_id
 _symmetry_equiv_pos_as_xyz
  1  'x, y, z'
loop_
 _atom_site_type_symbol
 _atom_site_label
 _atom_site_symmetry_multiplicity
 _atom_site_fract_x
 _atom_site_fract_y
 _atom_site_fract_z
 _atom_site_occupancy
  K  K0  1  0.313577  0.437203  0.172340  1
  K  K1  1  0.562797  0.686423  0.327660  1
  K  K2  1  0.686423  0.562797  0.827660  1
  K  K3  1  0.437203  0.313577  0.672340  1
  K  K4  1  0.000000  0.500000  0.500000  1
  K  K5  1  0.500000  0.000000  0.000000  1
  Sc  Sc6  1  0.082743  0.917257  0.250000  1
  Sc  Sc7  1  0.917257  0.082743  0.750000  1
  Sc  Sc8  1  0.043272  0.663404  0.820694  1
  Sc  Sc9  1  0.336596  0.956728  0.679306  1
  Sc  Sc10  1  0.956728  0.336596  0.179306  1
  Sc  Sc11  1  0.663404  0.043272  0.320694  1
  P  P12  1  0.217379  0.768382  0.558141  1
  P  P13  1  0.231618  0.782621  0.941859  1
  P  P14  1  0.782621  0.231618  0.441859  1
  P  P15  1  0.768382  0.217379  0.058141  1
  P  P16  1  0.871846  0.723125  0.138405  1
  P  P17  1  0.276875  0.128154  0.361595  1
  P  P18  1  0.128154  0.276875  0.861595  1
  P  P19  1  0.723125  0.871846  0.638405  1
  O  O20  1  0.184671  0.648649  0.644166  1
  O  O21  1  0.351351  0.815329  0.855834  1
  O  O22  1  0.815329  0.351351  0.355834  1
  O  O23  1  0.648649  0.184671  0.144166  1
  O  O24  1  0.121705  0.939860  0.619072  1
  O  O25  1  0.060140  0.878295  0.880928  1
  O  O26  1  0.878295  0.060140  0.380928  1
  O  O27  1  0.939860  0.121705  0.119072  1
  O  O28  1  0.177132  0.755919  0.409708  1
  O  O29  1  0.244081  0.822868  0.090292  1
  O  O30  1  0.822868  0.244081  0.590292  1
  O  O31  1  0.755919  0.177132  0.909708  1
  O  O32  1  0.390539  0.743012  0.568026  1
  O  O33  1  0.256988  0.609461  0.931974  1
  O  O34  1  0.609461  0.256988  0.431974  1
  O  O35  1  0.743012  0.390539  0.068026  1
  O  O36  1  0.708605  0.854435  0.184488  1
  O  O37  1  0.145565  0.291395  0.315512  1
  O  O38  1  0.291395  0.145565  0.815512  1
  O  O39  1  0.854435  0.708605  0.684488  1
  O  O40  1  0.880284  0.702797  0.982231  1
  O  O41  1  0.297203  0.119716  0.517769  1
  O  O42  1  0.119716  0.297203  0.017769  1
  O  O43  1  0.702797  0.880284  0.482231  1
  O  O44  1  0.891815  0.567445  0.208343  1
  O  O45  1  0.432555  0.108185  0.291657  1
  O  O46  1  0.108185  0.432555  0.791657  1
  O  O47  1  0.567445  0.891815  0.708343  1
  O  O48  1  0.999876  0.763821  0.189247  1
  O  O49  1  0.236179  0.000124  0.310753  1
  O  O50  1  0.000124  0.236179  0.810753  1
  O  O51  1  0.763821  0.999876  0.689247  1
