# generated using pymatgen
data_Ho3Tm4LuPt4
_symmetry_space_group_name_H-M   'P 1'
_cell_length_a   4.73141000
_cell_length_b   7.10098293
_cell_length_c   8.66692347
_cell_angle_alpha   90.15666169
_cell_angle_beta   90.00000000
_cell_angle_gamma   90.00000000
_symmetry_Int_Tables_number   1
_chemical_formula_structural   Ho3Tm4LuPt4
_chemical_formula_sum   'Ho3 Tm4 Lu1 Pt4'
_cell_volume   291.18727401
_cell_formula_units_Z   1
loop_
 _symmetry_equiv_pos_site_id
 _symmetry_equiv_pos_as_xyz
  1  'x, y, z'
loop_
 _atom_site_type_symbol
 _atom_site_label
 _atom_site_symmetry_multiplicity
 _atom_site_fract_x
 _atom_site_fract_y
 _atom_site_fract_z
 _atom_site_occupancy
  Ho  Ho0  1  0.250000  0.488289  0.170137  1
  Ho  Ho1  1  0.750000  0.012278  0.669560  1
  Ho  Ho2  1  0.750000  0.511552  0.830294  1
  Tm  Tm3  1  0.250000  0.855488  0.922479  1
  Tm  Tm4  1  0.250000  0.357224  0.576990  1
  Tm  Tm5  1  0.750000  0.143676  0.079208  1
  Tm  Tm6  1  0.250000  0.987360  0.331273  1
  Lu  Lu7  1  0.750000  0.644404  0.422047  1
  Pt  Pt8  1  0.250000  0.256038  0.905055  1
  Pt  Pt9  1  0.250000  0.756608  0.591409  1
  Pt  Pt10  1  0.750000  0.743548  0.095422  1
  Pt  Pt11  1  0.750000  0.243534  0.406126  1
