# generated using pymatgen
data_Y3ThIrAu
_symmetry_space_group_name_H-M   'P 1'
_cell_length_a   9.62876330
_cell_length_b   9.62876285
_cell_length_c   9.62876300
_cell_angle_alpha   60.00000293
_cell_angle_beta   60.00000447
_cell_angle_gamma   59.99999945
_symmetry_Int_Tables_number   1
_chemical_formula_structural   Y3ThIrAu
_chemical_formula_sum   'Y12 Th4 Ir4 Au4'
_cell_volume   631.24292439
_cell_formula_units_Z   4
loop_
 _symmetry_equiv_pos_site_id
 _symmetry_equiv_pos_as_xyz
  1  'x, y, z'
loop_
 _atom_site_type_symbol
 _atom_site_label
 _atom_site_symmetry_multiplicity
 _atom_site_fract_x
 _atom_site_fract_y
 _atom_site_fract_z
 _atom_site_occupancy
  Y  Y0  1  0.810731  0.189269  0.189269  1
  Y  Y1  1  0.189269  0.810731  0.810731  1
  Y  Y2  1  0.189269  0.810731  0.189269  1
  Y  Y3  1  0.810731  0.189269  0.810731  1
  Y  Y4  1  0.189269  0.189269  0.810731  1
  Y  Y5  1  0.810731  0.810731  0.189269  1
  Y  Y6  1  0.934888  0.565112  0.565112  1
  Y  Y7  1  0.565112  0.934888  0.934888  1
  Y  Y8  1  0.565112  0.934888  0.565112  1
  Y  Y9  1  0.934888  0.565112  0.934888  1
  Y  Y10  1  0.565112  0.565112  0.934888  1
  Y  Y11  1  0.934888  0.934888  0.565112  1
  Th  Th12  1  0.353911  0.353911  0.353911  1
  Th  Th13  1  0.353911  0.353911  0.938267  1
  Th  Th14  1  0.353911  0.938267  0.353911  1
  Th  Th15  1  0.938267  0.353911  0.353911  1
  Ir  Ir16  1  0.143881  0.143881  0.143881  1
  Ir  Ir17  1  0.143881  0.143881  0.568355  1
  Ir  Ir18  1  0.143881  0.568355  0.143881  1
  Ir  Ir19  1  0.568355  0.143881  0.143881  1
  Au  Au20  1  0.590359  0.590359  0.590359  1
  Au  Au21  1  0.590359  0.590359  0.228924  1
  Au  Au22  1  0.590359  0.228924  0.590359  1
  Au  Au23  1  0.228924  0.590359  0.590359  1
