# generated using pymatgen
data_Tb4P8Pd15Pt
_symmetry_space_group_name_H-M   'P 1'
_cell_length_a   4.18833800
_cell_length_b   7.42270289
_cell_length_c   15.08694355
_cell_angle_alpha   89.94605729
_cell_angle_beta   90.00000000
_cell_angle_gamma   90.00000000
_symmetry_Int_Tables_number   1
_chemical_formula_structural   Tb4P8Pd15Pt
_chemical_formula_sum   'Tb4 P8 Pd15 Pt1'
_cell_volume   469.03459009
_cell_formula_units_Z   1
loop_
 _symmetry_equiv_pos_site_id
 _symmetry_equiv_pos_as_xyz
  1  'x, y, z'
loop_
 _atom_site_type_symbol
 _atom_site_label
 _atom_site_symmetry_multiplicity
 _atom_site_fract_x
 _atom_site_fract_y
 _atom_site_fract_z
 _atom_site_occupancy
  Tb  Tb0  1  0.250000  0.855691  0.181869  1
  Tb  Tb1  1  0.750000  0.143247  0.818119  1
  Tb  Tb2  1  0.250000  0.356980  0.317683  1
  Tb  Tb3  1  0.750000  0.644221  0.681792  1
  P  P4  1  0.250000  0.308587  0.695798  1
  P  P5  1  0.250000  0.778629  0.553268  1
  P  P6  1  0.750000  0.220593  0.443323  1
  P  P7  1  0.750000  0.188637  0.194392  1
  P  P8  1  0.250000  0.810359  0.805212  1
  P  P9  1  0.250000  0.278469  0.945477  1
  P  P10  1  0.750000  0.721180  0.054882  1
  P  P11  1  0.750000  0.688058  0.305341  1
  Pd  Pd12  1  0.250000  0.983269  0.674188  1
  Pd  Pd13  1  0.250000  0.484767  0.825055  1
  Pd  Pd14  1  0.750000  0.380141  0.992484  1
  Pd  Pd15  1  0.750000  0.740108  0.883330  1
  Pd  Pd16  1  0.750000  0.533588  0.443764  1
  Pd  Pd17  1  0.750000  0.237827  0.617611  1
  Pd  Pd18  1  0.750000  0.514587  0.174894  1
  Pd  Pd19  1  0.750000  0.032292  0.057303  1
  Pd  Pd20  1  0.250000  0.759292  0.383429  1
  Pd  Pd21  1  0.250000  0.259574  0.116501  1
  Pd  Pd22  1  0.250000  0.967536  0.942250  1
  Pd  Pd23  1  0.250000  0.125461  0.492292  1
  Pd  Pd24  1  0.750000  0.883496  0.507120  1
  Pd  Pd25  1  0.750000  0.013577  0.324209  1
  Pd  Pd26  1  0.250000  0.620109  0.007163  1
  Pt  Pt27  1  0.250000  0.469726  0.561250  1
