# generated using pymatgen
data_Y8Al2RuPt
_symmetry_space_group_name_H-M   'P 1'
_cell_length_a   9.59576019
_cell_length_b   9.62340736
_cell_length_c   9.59576022
_cell_angle_alpha   59.90464567
_cell_angle_beta   59.76622819
_cell_angle_gamma   59.90465250
_symmetry_Int_Tables_number   1
_chemical_formula_structural   Y8Al2RuPt
_chemical_formula_sum   'Y16 Al4 Ru2 Pt2'
_cell_volume   624.56015191
_cell_formula_units_Z   2
loop_
 _symmetry_equiv_pos_site_id
 _symmetry_equiv_pos_as_xyz
  1  'x, y, z'
loop_
 _atom_site_type_symbol
 _atom_site_label
 _atom_site_symmetry_multiplicity
 _atom_site_fract_x
 _atom_site_fract_y
 _atom_site_fract_z
 _atom_site_occupancy
  Y  Y0  1  0.805211  0.194789  0.805211  1
  Y  Y1  1  0.936614  0.564976  0.560353  1
  Y  Y2  1  0.561831  0.938169  0.561831  1
  Y  Y3  1  0.811227  0.193889  0.191702  1
  Y  Y4  1  0.192106  0.807894  0.192106  1
  Y  Y5  1  0.352366  0.939280  0.352366  1
  Y  Y6  1  0.936614  0.938055  0.560353  1
  Y  Y7  1  0.560353  0.938055  0.936614  1
  Y  Y8  1  0.191702  0.803181  0.811227  1
  Y  Y9  1  0.351361  0.353128  0.942385  1
  Y  Y10  1  0.560353  0.564976  0.936614  1
  Y  Y11  1  0.352366  0.355988  0.352366  1
  Y  Y12  1  0.191702  0.193889  0.811227  1
  Y  Y13  1  0.811227  0.803181  0.191702  1
  Y  Y14  1  0.938939  0.561061  0.938939  1
  Y  Y15  1  0.942385  0.353128  0.351361  1
  Al  Al16  1  0.577941  0.578576  0.577941  1
  Al  Al17  1  0.577941  0.265544  0.577941  1
  Al  Al18  1  0.577548  0.577975  0.266504  1
  Al  Al19  1  0.266504  0.577975  0.577548  1
  Ru  Ru20  1  0.143444  0.572024  0.143444  1
  Ru  Ru21  1  0.143444  0.141088  0.143444  1
  Pt  Pt22  1  0.144461  0.141591  0.572358  1
  Pt  Pt23  1  0.572358  0.141591  0.144461  1
