# generated using pymatgen
data_Ba8TbY3(FeO5)4
_symmetry_space_group_name_H-M   'P 1'
_cell_length_a   6.15791401
_cell_length_b   7.95194368
_cell_length_c   12.78539423
_cell_angle_alpha   91.77274586
_cell_angle_beta   89.99261856
_cell_angle_gamma   90.00213139
_symmetry_Int_Tables_number   1
_chemical_formula_structural   Ba8TbY3(FeO5)4
_chemical_formula_sum   'Ba8 Tb1 Y3 Fe4 O20'
_cell_volume   625.76767853
_cell_formula_units_Z   1
loop_
 _symmetry_equiv_pos_site_id
 _symmetry_equiv_pos_as_xyz
  1  'x, y, z'
loop_
 _atom_site_type_symbol
 _atom_site_label
 _atom_site_symmetry_multiplicity
 _atom_site_fract_x
 _atom_site_fract_y
 _atom_site_fract_z
 _atom_site_occupancy
  Ba  Ba0  1  0.763766  0.482710  0.346976  1
  Ba  Ba1  1  0.736263  0.982535  0.846942  1
  Ba  Ba2  1  0.236248  0.517420  0.652866  1
  Ba  Ba3  1  0.263809  0.017315  0.153117  1
  Ba  Ba4  1  0.760107  0.993232  0.379549  1
  Ba  Ba5  1  0.739889  0.493346  0.879563  1
  Ba  Ba6  1  0.239896  0.006709  0.620231  1
  Ba  Ba7  1  0.260142  0.506824  0.120547  1
  Tb  Tb8  1  0.249442  0.232963  0.870752  1
  Y  Y9  1  0.749484  0.266810  0.629089  1
  Y  Y10  1  0.750517  0.766764  0.129286  1
  Y  Y11  1  0.250510  0.733257  0.370736  1
  Fe  Fe12  1  0.732556  0.742854  0.582681  1
  Fe  Fe13  1  0.767428  0.242995  0.083159  1
  Fe  Fe14  1  0.267462  0.257145  0.417260  1
  Fe  Fe15  1  0.232573  0.757066  0.917303  1
  O  O16  1  0.766433  0.971710  0.631241  1
  O  O17  1  0.733434  0.472064  0.131313  1
  O  O18  1  0.233565  0.028217  0.368758  1
  O  O19  1  0.266424  0.528200  0.868689  1
  O  O20  1  0.732240  0.061822  0.175143  1
  O  O21  1  0.767632  0.562137  0.674985  1
  O  O22  1  0.267662  0.937657  0.824844  1
  O  O23  1  0.232385  0.437960  0.325019  1
  O  O24  1  0.548978  0.745735  0.275182  1
  O  O25  1  0.950237  0.245774  0.775036  1
  O  O26  1  0.450899  0.254416  0.724422  1
  O  O27  1  0.049018  0.754272  0.224827  1
  O  O28  1  0.556858  0.221122  0.973668  1
  O  O29  1  0.944147  0.721210  0.473461  1
  O  O30  1  0.444137  0.778814  0.026489  1
  O  O31  1  0.055996  0.278802  0.526476  1
  O  O32  1  0.052610  0.233549  0.024534  1
  O  O33  1  0.447272  0.733451  0.523927  1
  O  O34  1  0.947258  0.766585  0.976014  1
  O  O35  1  0.552722  0.266558  0.475912  1
