# generated using pymatgen
data_Zr2Co12SiP6
_symmetry_space_group_name_H-M   'P 1'
_cell_length_a   8.93339300
_cell_length_b   8.93339351
_cell_length_c   3.56251100
_cell_angle_alpha   90.00000000
_cell_angle_beta   90.00000000
_cell_angle_gamma   120.00000923
_symmetry_Int_Tables_number   1
_chemical_formula_structural   Zr2Co12SiP6
_chemical_formula_sum   'Zr2 Co12 Si1 P6'
_cell_volume   246.21794937
_cell_formula_units_Z   1
loop_
 _symmetry_equiv_pos_site_id
 _symmetry_equiv_pos_as_xyz
  1  'x, y, z'
loop_
 _atom_site_type_symbol
 _atom_site_label
 _atom_site_symmetry_multiplicity
 _atom_site_fract_x
 _atom_site_fract_y
 _atom_site_fract_z
 _atom_site_occupancy
  Zr  Zr0  1  0.333333  0.666667  0.000000  1
  Zr  Zr1  1  0.666667  0.333333  0.500000  1
  Co  Co2  1  0.437373  0.063634  0.000000  1
  Co  Co3  1  0.936366  0.373739  0.000000  1
  Co  Co4  1  0.626261  0.562627  0.000000  1
  Co  Co5  1  0.387321  0.439045  0.500000  1
  Co  Co6  1  0.560955  0.948276  0.500000  1
  Co  Co7  1  0.051724  0.612679  0.500000  1
  Co  Co8  1  0.161728  0.284697  0.000000  1
  Co  Co9  1  0.715303  0.877031  0.000000  1
  Co  Co10  1  0.122969  0.838272  0.000000  1
  Co  Co11  1  0.233421  0.100724  0.500000  1
  Co  Co12  1  0.899276  0.132696  0.500000  1
  Co  Co13  1  0.867304  0.766579  0.500000  1
  Si  Si14  1  0.000000  0.000000  0.000000  1
  P  P15  1  0.116587  0.405851  0.500000  1
  P  P16  1  0.594149  0.710735  0.500000  1
  P  P17  1  0.289265  0.883413  0.500000  1
  P  P18  1  0.408946  0.292675  0.000000  1
  P  P19  1  0.707325  0.116272  0.000000  1
  P  P20  1  0.883728  0.591054  0.000000  1
