# generated using pymatgen
data_Tb3Pa(CoB4)4
_symmetry_space_group_name_H-M   'P 1'
_cell_length_a   3.40145900
_cell_length_b   5.91020301
_cell_length_c   11.45999702
_cell_angle_alpha   90.00610790
_cell_angle_beta   90.00000000
_cell_angle_gamma   90.00000000
_symmetry_Int_Tables_number   1
_chemical_formula_structural   Tb3Pa(CoB4)4
_chemical_formula_sum   'Tb3 Pa1 Co4 B16'
_cell_volume   230.38390815
_cell_formula_units_Z   1
loop_
 _symmetry_equiv_pos_site_id
 _symmetry_equiv_pos_as_xyz
  1  'x, y, z'
loop_
 _atom_site_type_symbol
 _atom_site_label
 _atom_site_symmetry_multiplicity
 _atom_site_fract_x
 _atom_site_fract_y
 _atom_site_fract_z
 _atom_site_occupancy
  Tb  Tb0  1  0.500000  0.627481  0.848791  1
  Tb  Tb1  1  0.500000  0.128128  0.649965  1
  Tb  Tb2  1  0.500000  0.872153  0.351734  1
  Pa  Pa3  1  0.500000  0.373109  0.150126  1
  Co  Co4  1  0.500000  0.364674  0.408815  1
  Co  Co5  1  0.500000  0.634566  0.588457  1
  Co  Co6  1  0.500000  0.134062  0.911882  1
  Co  Co7  1  0.500000  0.864869  0.090789  1
  B  B8  1  0.000000  0.111184  0.045445  1
  B  B9  1  0.000000  0.888480  0.953617  1
  B  B10  1  0.000000  0.389199  0.545926  1
  B  B11  1  0.000000  0.611736  0.455149  1
  B  B12  1  0.000000  0.139712  0.467590  1
  B  B13  1  0.000000  0.860928  0.533098  1
  B  B14  1  0.000000  0.360495  0.964875  1
  B  B15  1  0.000000  0.638586  0.033319  1
  B  B16  1  0.000000  0.021472  0.190342  1
  B  B17  1  0.000000  0.977065  0.809761  1
  B  B18  1  0.000000  0.477462  0.689712  1
  B  B19  1  0.000000  0.522570  0.310799  1
  B  B20  1  0.000000  0.218092  0.315741  1
  B  B21  1  0.000000  0.782148  0.684393  1
  B  B22  1  0.000000  0.283376  0.815096  1
  B  B23  1  0.000000  0.718453  0.184579  1
