# generated using pymatgen
data_Sr3SmTi4O12
_symmetry_space_group_name_H-M   'P 1'
_cell_length_a   5.55994364
_cell_length_b   5.55994317
_cell_length_c   9.61235834
_cell_angle_alpha   73.30732551
_cell_angle_beta   73.30732666
_cell_angle_gamma   60.26098065
_symmetry_Int_Tables_number   1
_chemical_formula_structural   Sr3SmTi4O12
_chemical_formula_sum   'Sr3 Sm1 Ti4 O12'
_cell_volume   243.36589572
_cell_formula_units_Z   1
loop_
 _symmetry_equiv_pos_site_id
 _symmetry_equiv_pos_as_xyz
  1  'x, y, z'
loop_
 _atom_site_type_symbol
 _atom_site_label
 _atom_site_symmetry_multiplicity
 _atom_site_fract_x
 _atom_site_fract_y
 _atom_site_fract_z
 _atom_site_occupancy
  Sr  Sr0  1  0.121686  0.878314  0.500000  1
  Sr  Sr1  1  0.376614  0.123338  0.748716  1
  Sr  Sr2  1  0.876662  0.623386  0.251284  1
  Sm  Sm3  1  0.611729  0.388271  0.000000  1
  Ti  Ti4  1  0.246938  0.002559  0.126520  1
  Ti  Ti5  1  0.752156  0.499371  0.623699  1
  Ti  Ti6  1  0.997441  0.753062  0.873480  1
  Ti  Ti7  1  0.500629  0.247844  0.376301  1
  O  O8  1  0.922078  0.570375  0.756116  1
  O  O9  1  0.429625  0.077922  0.243884  1
  O  O10  1  0.039962  0.960038  0.000000  1
  O  O11  1  0.581486  0.418514  0.500000  1
  O  O12  1  0.633769  0.884468  0.511019  1
  O  O13  1  0.170177  0.386770  0.012254  1
  O  O14  1  0.613230  0.829823  0.987746  1
  O  O15  1  0.115532  0.366231  0.488981  1
  O  O16  1  0.394681  0.633667  0.772548  1
  O  O17  1  0.889388  0.140117  0.259884  1
  O  O18  1  0.366333  0.605319  0.227452  1
  O  O19  1  0.859883  0.110612  0.740116  1
