# generated using pymatgen
data_Er10NiBi4Ru
_symmetry_space_group_name_H-M   'P 1'
_cell_length_a   7.90763254
_cell_length_b   8.89068300
_cell_length_c   12.27977069
_cell_angle_alpha   90.00000000
_cell_angle_beta   90.58712380
_cell_angle_gamma   90.00000000
_symmetry_Int_Tables_number   1
_chemical_formula_structural   Er10NiBi4Ru
_chemical_formula_sum   'Er20 Ni2 Bi8 Ru2'
_cell_volume   863.27479298
_cell_formula_units_Z   2
loop_
 _symmetry_equiv_pos_site_id
 _symmetry_equiv_pos_as_xyz
  1  'x, y, z'
loop_
 _atom_site_type_symbol
 _atom_site_label
 _atom_site_symmetry_multiplicity
 _atom_site_fract_x
 _atom_site_fract_y
 _atom_site_fract_z
 _atom_site_occupancy
  Er  Er0  1  0.836586  0.750000  0.791037  1
  Er  Er1  1  0.163414  0.250000  0.208963  1
  Er  Er2  1  0.344257  0.250000  0.703451  1
  Er  Er3  1  0.655743  0.750000  0.296549  1
  Er  Er4  1  0.377402  0.750000  0.694525  1
  Er  Er5  1  0.622598  0.250000  0.305475  1
  Er  Er6  1  0.879216  0.250000  0.813484  1
  Er  Er7  1  0.120784  0.750000  0.186516  1
  Er  Er8  1  0.947425  0.750000  0.503614  1
  Er  Er9  1  0.052575  0.250000  0.496386  1
  Er  Er10  1  0.450438  0.250000  0.999281  1
  Er  Er11  1  0.549562  0.750000  0.000719  1
  Er  Er12  1  0.675542  0.041663  0.564649  1
  Er  Er13  1  0.324458  0.958337  0.435351  1
  Er  Er14  1  0.175562  0.959432  0.935319  1
  Er  Er15  1  0.324458  0.541663  0.435351  1
  Er  Er16  1  0.824438  0.040568  0.064681  1
  Er  Er17  1  0.675542  0.458337  0.564649  1
  Er  Er18  1  0.824438  0.459432  0.064681  1
  Er  Er19  1  0.175562  0.540568  0.935319  1
  Ni  Ni20  1  0.069734  0.250000  0.994447  1
  Ni  Ni21  1  0.930266  0.750000  0.005553  1
  Bi  Bi22  1  0.570047  0.489657  0.828750  1
  Bi  Bi23  1  0.429953  0.510343  0.171250  1
  Bi  Bi24  1  0.066689  0.507171  0.675210  1
  Bi  Bi25  1  0.429953  0.989657  0.171250  1
  Bi  Bi26  1  0.933311  0.492829  0.324790  1
  Bi  Bi27  1  0.570047  0.010343  0.828750  1
  Bi  Bi28  1  0.933311  0.007171  0.324790  1
  Bi  Bi29  1  0.066689  0.992829  0.675210  1
  Ru  Ru30  1  0.574734  0.750000  0.513121  1
  Ru  Ru31  1  0.425266  0.250000  0.486879  1
