# generated using pymatgen
data_GeIrRhSe5
_symmetry_space_group_name_H-M   'P 1'
_cell_length_a   3.74740700
_cell_length_b   7.75098632
_cell_length_c   13.05154564
_cell_angle_alpha   77.37897122
_cell_angle_beta   90.00000000
_cell_angle_gamma   90.00000000
_symmetry_Int_Tables_number   1
_chemical_formula_structural   GeIrRhSe5
_chemical_formula_sum   'Ge2 Ir2 Rh2 Se10'
_cell_volume   369.93625704
_cell_formula_units_Z   2
loop_
 _symmetry_equiv_pos_site_id
 _symmetry_equiv_pos_as_xyz
  1  'x, y, z'
loop_
 _atom_site_type_symbol
 _atom_site_label
 _atom_site_symmetry_multiplicity
 _atom_site_fract_x
 _atom_site_fract_y
 _atom_site_fract_z
 _atom_site_occupancy
  Ge  Ge0  1  0.500000  0.162749  0.681118  1
  Ge  Ge1  1  0.500000  0.837251  0.318882  1
  Ir  Ir2  1  0.500000  0.745535  0.148150  1
  Ir  Ir3  1  0.500000  0.254465  0.851850  1
  Rh  Rh4  1  0.000000  0.249545  0.149530  1
  Rh  Rh5  1  0.000000  0.750455  0.850470  1
  Se  Se6  1  0.000000  0.954166  0.101957  1
  Se  Se7  1  0.000000  0.045834  0.898043  1
  Se  Se8  1  0.000000  0.468773  0.779445  1
  Se  Se9  1  0.000000  0.531227  0.220555  1
  Se  Se10  1  0.500000  0.663579  0.974760  1
  Se  Se11  1  0.500000  0.336421  0.025240  1
  Se  Se12  1  0.500000  0.167257  0.281235  1
  Se  Se13  1  0.500000  0.832743  0.718765  1
  Se  Se14  1  0.000000  0.234910  0.561430  1
  Se  Se15  1  0.000000  0.765090  0.438570  1
