# generated using pymatgen
data_Er6Sc2PtAu9
_symmetry_space_group_name_H-M   'P 1'
_cell_length_a   7.83856438
_cell_length_b   7.83856481
_cell_length_c   7.83856449
_cell_angle_alpha   66.44747267
_cell_angle_beta   66.44746842
_cell_angle_gamma   66.44745819
_symmetry_Int_Tables_number   1
_chemical_formula_structural   Er6Sc2PtAu9
_chemical_formula_sum   'Er6 Sc2 Pt1 Au9'
_cell_volume   387.87784058
_cell_formula_units_Z   1
loop_
 _symmetry_equiv_pos_site_id
 _symmetry_equiv_pos_as_xyz
  1  'x, y, z'
loop_
 _atom_site_type_symbol
 _atom_site_label
 _atom_site_symmetry_multiplicity
 _atom_site_fract_x
 _atom_site_fract_y
 _atom_site_fract_z
 _atom_site_occupancy
  Er  Er0  1  0.894592  0.171046  0.636989  1
  Er  Er1  1  0.636989  0.894592  0.171046  1
  Er  Er2  1  0.171046  0.636989  0.894592  1
  Er  Er3  1  0.106066  0.799168  0.399818  1
  Er  Er4  1  0.399818  0.106066  0.799168  1
  Er  Er5  1  0.799168  0.399818  0.106066  1
  Sc  Sc6  1  0.659801  0.659801  0.659801  1
  Sc  Sc7  1  0.337035  0.337035  0.337035  1
  Pt  Pt8  1  0.804010  0.804010  0.804010  1
  Au  Au9  1  0.011948  0.011948  0.011948  1
  Au  Au10  1  0.498561  0.498561  0.498561  1
  Au  Au11  1  0.186323  0.186323  0.186323  1
  Au  Au12  1  0.936094  0.538476  0.327858  1
  Au  Au13  1  0.327858  0.936094  0.538476  1
  Au  Au14  1  0.538476  0.327858  0.936094  1
  Au  Au15  1  0.063479  0.437401  0.691335  1
  Au  Au16  1  0.691335  0.063479  0.437401  1
  Au  Au17  1  0.437401  0.691335  0.063479  1
