# generated using pymatgen
data_Y6Nb3Al13Os7
_symmetry_space_group_name_H-M   'P 1'
_cell_length_a   9.06026048
_cell_length_b   9.06026100
_cell_length_c   9.06026012
_cell_angle_alpha   59.64495459
_cell_angle_beta   59.64495515
_cell_angle_gamma   59.64495414
_symmetry_Int_Tables_number   1
_chemical_formula_structural   Y6Nb3Al13Os7
_chemical_formula_sum   'Y6 Nb3 Al13 Os7'
_cell_volume   521.66194951
_cell_formula_units_Z   1
loop_
 _symmetry_equiv_pos_site_id
 _symmetry_equiv_pos_as_xyz
  1  'x, y, z'
loop_
 _atom_site_type_symbol
 _atom_site_label
 _atom_site_symmetry_multiplicity
 _atom_site_fract_x
 _atom_site_fract_y
 _atom_site_fract_z
 _atom_site_occupancy
  Y  Y0  1  0.710414  0.710414  0.282211  1
  Y  Y1  1  0.293173  0.708985  0.293173  1
  Y  Y2  1  0.708985  0.293173  0.293173  1
  Y  Y3  1  0.293173  0.293173  0.708985  1
  Y  Y4  1  0.710414  0.282211  0.710414  1
  Y  Y5  1  0.282211  0.710414  0.710414  1
  Nb  Nb6  1  0.877396  0.877396  0.361673  1
  Nb  Nb7  1  0.877396  0.361673  0.877396  1
  Nb  Nb8  1  0.361673  0.877396  0.877396  1
  Al  Al9  1  0.881011  0.881011  0.881011  1
  Al  Al10  1  0.121166  0.121166  0.639811  1
  Al  Al11  1  0.121166  0.639811  0.121166  1
  Al  Al12  1  0.639811  0.121166  0.121166  1
  Al  Al13  1  0.120547  0.120547  0.120547  1
  Al  Al14  1  0.670440  0.670440  0.993237  1
  Al  Al15  1  0.670440  0.993237  0.670440  1
  Al  Al16  1  0.993237  0.670440  0.670440  1
  Al  Al17  1  0.665839  0.665839  0.665839  1
  Al  Al18  1  0.331282  0.331282  0.008493  1
  Al  Al19  1  0.331282  0.008493  0.331282  1
  Al  Al20  1  0.008493  0.331282  0.331282  1
  Al  Al21  1  0.331808  0.331808  0.331808  1
  Os  Os22  1  0.002095  0.002095  0.002095  1
  Os  Os23  1  0.998438  0.998438  0.498205  1
  Os  Os24  1  0.502575  0.996313  0.502575  1
  Os  Os25  1  0.996313  0.502575  0.502575  1
  Os  Os26  1  0.502575  0.502575  0.996313  1
  Os  Os27  1  0.998438  0.498205  0.998438  1
  Os  Os28  1  0.498205  0.998438  0.998438  1
