# generated using pymatgen
data_SmAlGa2Au3
_symmetry_space_group_name_H-M   'P 1'
_cell_length_a   4.38874000
_cell_length_b   7.08485300
_cell_length_c   8.60185600
_cell_angle_alpha   90.00000000
_cell_angle_beta   90.00000000
_cell_angle_gamma   90.00000000
_symmetry_Int_Tables_number   1
_chemical_formula_structural   SmAlGa2Au3
_chemical_formula_sum   'Sm2 Al2 Ga4 Au6'
_cell_volume   267.46247838
_cell_formula_units_Z   2
loop_
 _symmetry_equiv_pos_site_id
 _symmetry_equiv_pos_as_xyz
  1  'x, y, z'
loop_
 _atom_site_type_symbol
 _atom_site_label
 _atom_site_symmetry_multiplicity
 _atom_site_fract_x
 _atom_site_fract_y
 _atom_site_fract_z
 _atom_site_occupancy
  Sm  Sm0  1  0.500000  0.000000  0.744367  1
  Sm  Sm1  1  0.000000  0.500000  0.255633  1
  Al  Al2  1  0.000000  0.000000  0.395178  1
  Al  Al3  1  0.500000  0.500000  0.604822  1
  Ga  Ga4  1  0.000000  0.293596  0.893304  1
  Ga  Ga5  1  0.500000  0.206404  0.106696  1
  Ga  Ga6  1  0.000000  0.706404  0.893304  1
  Ga  Ga7  1  0.500000  0.793596  0.106696  1
  Au  Au8  1  0.000000  0.716702  0.599702  1
  Au  Au9  1  0.500000  0.783298  0.400298  1
  Au  Au10  1  0.500000  0.500000  0.923138  1
  Au  Au11  1  0.000000  0.000000  0.076862  1
  Au  Au12  1  0.500000  0.216702  0.400298  1
  Au  Au13  1  0.000000  0.283298  0.599702  1
