# generated using pymatgen
data_Tb6Y5(Lu3Bi4)3
_symmetry_space_group_name_H-M   'P 1'
_cell_length_a   8.20026020
_cell_length_b   9.44406775
_cell_length_c   12.01247503
_cell_angle_alpha   89.98809361
_cell_angle_beta   90.09607390
_cell_angle_gamma   89.96654079
_symmetry_Int_Tables_number   1
_chemical_formula_structural   Tb6Y5(Lu3Bi4)3
_chemical_formula_sum   'Tb6 Y5 Lu9 Bi12'
_cell_volume   930.29038188
_cell_formula_units_Z   1
loop_
 _symmetry_equiv_pos_site_id
 _symmetry_equiv_pos_as_xyz
  1  'x, y, z'
loop_
 _atom_site_type_symbol
 _atom_site_label
 _atom_site_symmetry_multiplicity
 _atom_site_fract_x
 _atom_site_fract_y
 _atom_site_fract_z
 _atom_site_occupancy
  Tb  Tb0  1  0.185293  0.749533  0.718981  1
  Tb  Tb1  1  0.685565  0.749502  0.781716  1
  Tb  Tb2  1  0.814625  0.249522  0.281335  1
  Tb  Tb3  1  0.314004  0.249834  0.218955  1
  Tb  Tb4  1  0.192629  0.939107  0.439911  1
  Tb  Tb5  1  0.309195  0.061803  0.941534  1
  Y  Y6  1  0.806892  0.439331  0.559940  1
  Y  Y7  1  0.354828  0.749525  0.215536  1
  Y  Y8  1  0.851796  0.748228  0.282888  1
  Y  Y9  1  0.645906  0.249257  0.784240  1
  Y  Y10  1  0.146859  0.248836  0.716553  1
  Lu  Lu11  1  0.021951  0.749435  0.989455  1
  Lu  Lu12  1  0.523301  0.750152  0.510512  1
  Lu  Lu13  1  0.976745  0.249099  0.010479  1
  Lu  Lu14  1  0.476825  0.249520  0.489173  1
  Lu  Lu15  1  0.308141  0.430793  0.941245  1
  Lu  Lu16  1  0.808946  0.069296  0.559097  1
  Lu  Lu17  1  0.690822  0.931490  0.058209  1
  Lu  Lu18  1  0.191437  0.569471  0.440780  1
  Lu  Lu19  1  0.693038  0.565450  0.059088  1
  Bi  Bi20  1  0.434544  0.003214  0.671814  1
  Bi  Bi21  1  0.934658  0.495411  0.828619  1
  Bi  Bi22  1  0.565625  0.503407  0.327932  1
  Bi  Bi23  1  0.065415  0.995357  0.171601  1
  Bi  Bi24  1  0.567225  0.995805  0.328383  1
  Bi  Bi25  1  0.066026  0.503550  0.170858  1
  Bi  Bi26  1  0.433145  0.495626  0.671486  1
  Bi  Bi27  1  0.933010  0.003406  0.828776  1
  Bi  Bi28  1  0.404298  0.743545  0.957369  1
  Bi  Bi29  1  0.904448  0.755616  0.542037  1
  Bi  Bi30  1  0.597446  0.249974  0.043763  1
  Bi  Bi31  1  0.095361  0.255906  0.457733  1
