# generated using pymatgen
data_Ba2Zn5Ga8Cu13
_symmetry_space_group_name_H-M   'P 1'
_cell_length_a   8.60990058
_cell_length_b   8.61094432
_cell_length_c   8.60455900
_cell_angle_alpha   120.14694874
_cell_angle_beta   121.07408802
_cell_angle_gamma   88.94931649
_symmetry_Int_Tables_number   1
_chemical_formula_structural   Ba2Zn5Ga8Cu13
_chemical_formula_sum   'Ba2 Zn5 Ga8 Cu13'
_cell_volume   446.80123544
_cell_formula_units_Z   1
loop_
 _symmetry_equiv_pos_site_id
 _symmetry_equiv_pos_as_xyz
  1  'x, y, z'
loop_
 _atom_site_type_symbol
 _atom_site_label
 _atom_site_symmetry_multiplicity
 _atom_site_fract_x
 _atom_site_fract_y
 _atom_site_fract_z
 _atom_site_occupancy
  Ba  Ba0  1  0.749928  0.748018  0.999975  1
  Ba  Ba1  1  0.251910  0.250045  0.999929  1
  Zn  Zn2  1  0.194141  0.057579  0.251697  1
  Zn  Zn3  1  0.802618  0.939829  0.742457  1
  Zn  Zn4  1  0.298165  0.563169  0.861296  1
  Zn  Zn5  1  0.704225  0.441338  0.145611  1
  Zn  Zn6  1  0.436095  0.291022  0.727140  1
  Ga  Ga7  1  0.811353  0.305340  0.860280  1
  Ga  Ga8  1  0.448695  0.945533  0.143030  1
  Ga  Ga9  1  0.697260  0.555908  0.504666  1
  Ga  Ga10  1  0.043018  0.189795  0.488730  1
  Ga  Ga11  1  0.197550  0.694418  0.143054  1
  Ga  Ga12  1  0.554880  0.048878  0.860322  1
  Ga  Ga13  1  0.948784  0.807357  0.504724  1
  Ga  Ga14  1  0.298962  0.445750  0.488732  1
  Cu  Cu15  1  0.566705  0.709838  0.276505  1
  Cu  Cu16  1  0.932833  0.211880  0.144734  1
  Cu  Cu17  1  0.065814  0.788406  0.854207  1
  Cu  Cu18  1  0.499801  0.999383  0.499126  1
  Cu  Cu19  1  0.001803  0.499502  0.501357  1
  Cu  Cu20  1  0.291156  0.789949  0.728120  1
  Cu  Cu21  1  0.060775  0.565965  0.271784  1
  Cu  Cu22  1  0.209641  0.939351  0.500046  1
  Cu  Cu23  1  0.438699  0.710814  0.501119  1
  Cu  Cu24  1  0.705978  0.211144  0.271968  1
  Cu  Cu25  1  0.938177  0.437015  0.728189  1
  Cu  Cu26  1  0.560676  0.290396  0.500061  1
  Cu  Cu27  1  0.790363  0.062381  0.501148  1
