# generated using pymatgen
data_KFePd3O8
_symmetry_space_group_name_H-M   'P 1'
_cell_length_a   7.39276929
_cell_length_b   7.39276920
_cell_length_c   10.20334427
_cell_angle_alpha   46.24207579
_cell_angle_beta   46.24207513
_cell_angle_gamma   24.42472189
_symmetry_Int_Tables_number   1
_chemical_formula_structural   KFePd3O8
_chemical_formula_sum   'K1 Fe1 Pd3 O8'
_cell_volume   162.92776305
_cell_formula_units_Z   1
loop_
 _symmetry_equiv_pos_site_id
 _symmetry_equiv_pos_as_xyz
  1  'x, y, z'
loop_
 _atom_site_type_symbol
 _atom_site_label
 _atom_site_symmetry_multiplicity
 _atom_site_fract_x
 _atom_site_fract_y
 _atom_site_fract_z
 _atom_site_occupancy
  K  K0  1  0.492877  0.492877  0.004806  1
  Fe  Fe1  1  0.350791  0.350791  0.814848  1
  Pd  Pd2  1  0.649758  0.649758  0.183650  1
  Pd  Pd3  1  0.168575  0.168575  0.482424  1
  Pd  Pd4  1  0.830571  0.830571  0.522394  1
  O  O5  1  0.148473  0.148473  0.054057  1
  O  O6  1  0.845466  0.845466  0.954603  1
  O  O7  1  0.197355  0.197355  0.653986  1
  O  O8  1  0.800766  0.800766  0.350883  1
  O  O9  1  0.545386  0.545386  0.622370  1
  O  O10  1  0.451280  0.451280  0.372879  1
  O  O11  1  0.182038  0.182038  0.273390  1
  O  O12  1  0.836665  0.836665  0.709710  1
