# generated using pymatgen
data_Ce2Ta2TiSi4
_symmetry_space_group_name_H-M   'P 1'
_cell_length_a   7.08600604
_cell_length_b   7.08733904
_cell_length_c   13.20628405
_cell_angle_alpha   90.00793908
_cell_angle_beta   89.99301851
_cell_angle_gamma   90.00941131
_symmetry_Int_Tables_number   1
_chemical_formula_structural   Ce2Ta2TiSi4
_chemical_formula_sum   'Ce8 Ta8 Ti4 Si16'
_cell_volume   663.23181061
_cell_formula_units_Z   4
loop_
 _symmetry_equiv_pos_site_id
 _symmetry_equiv_pos_as_xyz
  1  'x, y, z'
loop_
 _atom_site_type_symbol
 _atom_site_label
 _atom_site_symmetry_multiplicity
 _atom_site_fract_x
 _atom_site_fract_y
 _atom_site_fract_z
 _atom_site_occupancy
  Ce  Ce0  1  0.995412  0.665054  0.032293  1
  Ce  Ce1  1  0.004084  0.334958  0.533322  1
  Ce  Ce2  1  0.665891  0.994425  0.966844  1
  Ce  Ce3  1  0.166729  0.504816  0.782310  1
  Ce  Ce4  1  0.834144  0.495182  0.282313  1
  Ce  Ce5  1  0.506077  0.166719  0.216847  1
  Ce  Ce6  1  0.493846  0.833226  0.718014  1
  Ce  Ce7  1  0.334593  0.005891  0.467080  1
  Ta  Ta8  1  0.343349  0.507527  0.372895  1
  Ta  Ta9  1  0.844001  0.994518  0.376778  1
  Ta  Ta10  1  0.006644  0.157534  0.123479  1
  Ta  Ta11  1  0.992846  0.843840  0.622561  1
  Ta  Ta12  1  0.669536  0.670875  0.499699  1
  Ta  Ta13  1  0.829915  0.168694  0.749742  1
  Ta  Ta14  1  0.168893  0.831457  0.250620  1
  Ta  Ta15  1  0.329364  0.329089  0.000792  1
  Ti  Ti16  1  0.506447  0.342106  0.626427  1
  Ti  Ti17  1  0.157436  0.005755  0.876860  1
  Ti  Ti18  1  0.493196  0.656127  0.127477  1
  Ti  Ti19  1  0.658173  0.492070  0.872807  1
  Si  Si20  1  0.041404  0.705675  0.434863  1
  Si  Si21  1  0.959380  0.292768  0.934009  1
  Si  Si22  1  0.703262  0.042155  0.566001  1
  Si  Si23  1  0.207272  0.460349  0.184274  1
  Si  Si24  1  0.790879  0.540573  0.685360  1
  Si  Si25  1  0.458940  0.206653  0.815559  1
  Si  Si26  1  0.541781  0.794954  0.314545  1
  Si  Si27  1  0.294839  0.957192  0.065092  1
  Si  Si28  1  0.798118  0.870255  0.186271  1
  Si  Si29  1  0.297934  0.627569  0.563681  1
  Si  Si30  1  0.701940  0.373365  0.062290  1
  Si  Si31  1  0.628383  0.298499  0.436809  1
  Si  Si32  1  0.372623  0.699033  0.937905  1
  Si  Si33  1  0.129118  0.204462  0.313773  1
  Si  Si34  1  0.201039  0.128635  0.687643  1
  Si  Si35  1  0.872515  0.798003  0.812763  1
