# generated using pymatgen
data_SmTm3Rh4F28
_symmetry_space_group_name_H-M   'P 1'
_cell_length_a   5.51572248
_cell_length_b   8.85431614
_cell_length_c   11.88086633
_cell_angle_alpha   62.71457387
_cell_angle_beta   90.04151013
_cell_angle_gamma   90.03995334
_symmetry_Int_Tables_number   1
_chemical_formula_structural   SmTm3Rh4F28
_chemical_formula_sum   'Sm1 Tm3 Rh4 F28'
_cell_volume   515.67623800
_cell_formula_units_Z   1
loop_
 _symmetry_equiv_pos_site_id
 _symmetry_equiv_pos_as_xyz
  1  'x, y, z'
loop_
 _atom_site_type_symbol
 _atom_site_label
 _atom_site_symmetry_multiplicity
 _atom_site_fract_x
 _atom_site_fract_y
 _atom_site_fract_z
 _atom_site_occupancy
  Sm  Sm0  1  0.739485  0.814947  0.265609  1
  Tm  Tm1  1  0.760303  0.815373  0.765338  1
  Tm  Tm2  1  0.260898  0.184881  0.735029  1
  Tm  Tm3  1  0.237507  0.191901  0.233433  1
  Rh  Rh4  1  0.758869  0.276482  0.953768  1
  Rh  Rh5  1  0.257222  0.725355  0.548287  1
  Rh  Rh6  1  0.244390  0.725909  0.039751  1
  Rh  Rh7  1  0.742265  0.269439  0.458196  1
  F  F8  1  0.442295  0.704430  0.912302  1
  F  F9  1  0.944300  0.292693  0.584024  1
  F  F10  1  0.557259  0.296277  0.080928  1
  F  F11  1  0.062333  0.704300  0.419602  1
  F  F12  1  0.445627  0.277371  0.547492  1
  F  F13  1  0.943163  0.720112  0.952847  1
  F  F14  1  0.553899  0.716546  0.461973  1
  F  F15  1  0.054940  0.282119  0.043761  1
  F  F16  1  0.770561  0.521390  0.857387  1
  F  F17  1  0.267285  0.479904  0.644021  1
  F  F18  1  0.231463  0.479993  0.138315  1
  F  F19  1  0.727772  0.513665  0.360770  1
  F  F20  1  0.757927  0.031986  0.046876  1
  F  F21  1  0.257962  0.969218  0.452893  1
  F  F22  1  0.244342  0.971583  0.947405  1
  F  F23  1  0.743166  0.024526  0.552211  1
  F  F24  1  0.966032  0.730082  0.640303  1
  F  F25  1  0.470904  0.271107  0.859429  1
  F  F26  1  0.032805  0.269353  0.363625  1
  F  F27  1  0.536467  0.727248  0.131371  1
  F  F28  1  0.055211  0.743708  0.171762  1
  F  F29  1  0.543435  0.249550  0.328441  1
  F  F30  1  0.957628  0.254969  0.825133  1
  F  F31  1  0.452657  0.746241  0.677785  1
  F  F32  1  0.404178  0.977407  0.230292  1
  F  F33  1  0.917484  0.039478  0.269191  1
  F  F34  1  0.579257  0.026833  0.768251  1
  F  F35  1  0.078707  0.973626  0.732198  1
