# generated using pymatgen
data_Hf13Ta2Nb(Co2N)4
_symmetry_space_group_name_H-M   'P 1'
_cell_length_a   8.47738600
_cell_length_b   8.47171705
_cell_length_c   8.42318793
_cell_angle_alpha   59.80802625
_cell_angle_beta   59.82922735
_cell_angle_gamma   60.02100035
_symmetry_Int_Tables_number   1
_chemical_formula_structural   Hf13Ta2Nb(Co2N)4
_chemical_formula_sum   'Hf13 Ta2 Nb1 Co8 N4'
_cell_volume   426.64563542
_cell_formula_units_Z   1
loop_
 _symmetry_equiv_pos_site_id
 _symmetry_equiv_pos_as_xyz
  1  'x, y, z'
loop_
 _atom_site_type_symbol
 _atom_site_label
 _atom_site_symmetry_multiplicity
 _atom_site_fract_x
 _atom_site_fract_y
 _atom_site_fract_z
 _atom_site_occupancy
  Hf  Hf0  1  0.625000  0.625000  0.125000  1
  Hf  Hf1  1  0.813816  0.814107  0.186684  1
  Hf  Hf2  1  0.187948  0.187666  0.811849  1
  Hf  Hf3  1  0.812436  0.187802  0.811958  1
  Hf  Hf4  1  0.185396  0.813983  0.186633  1
  Hf  Hf5  1  0.187946  0.812534  0.811855  1
  Hf  Hf6  1  0.813813  0.185392  0.186688  1
  Hf  Hf7  1  0.436184  0.435893  0.063316  1
  Hf  Hf8  1  0.062052  0.062334  0.438151  1
  Hf  Hf9  1  0.437564  0.062198  0.438042  1
  Hf  Hf10  1  0.064604  0.436017  0.063367  1
  Hf  Hf11  1  0.062054  0.437466  0.438145  1
  Hf  Hf12  1  0.436187  0.064608  0.063312  1
  Ta  Ta13  1  0.625000  0.125000  0.625000  1
  Ta  Ta14  1  0.625000  0.625000  0.625000  1
  Nb  Nb15  1  0.125000  0.625000  0.625000  1
  Co  Co16  1  0.758668  0.410019  0.421300  1
  Co  Co17  1  0.411616  0.758418  0.420871  1
  Co  Co18  1  0.418659  0.416066  0.749213  1
  Co  Co19  1  0.411607  0.409093  0.420870  1
  Co  Co20  1  0.491332  0.839981  0.828700  1
  Co  Co21  1  0.838384  0.491582  0.829129  1
  Co  Co22  1  0.831341  0.833934  0.500787  1
  Co  Co23  1  0.838393  0.840907  0.829130  1
  N  N24  1  0.625000  0.125000  0.125000  1
  N  N25  1  0.125000  0.625000  0.125000  1
  N  N26  1  0.125000  0.125000  0.625000  1
  N  N27  1  0.125000  0.125000  0.125000  1
