# generated using pymatgen
data_Sm5(IrO6)2
_symmetry_space_group_name_H-M   'P 1'
_cell_length_a   7.00790382
_cell_length_b   7.00790291
_cell_length_c   7.40215602
_cell_angle_alpha   74.69087143
_cell_angle_beta   74.69087586
_cell_angle_gamma   51.85261788
_symmetry_Int_Tables_number   1
_chemical_formula_structural   Sm5(IrO6)2
_chemical_formula_sum   'Sm5 Ir2 O12'
_cell_volume   273.28804096
_cell_formula_units_Z   1
loop_
 _symmetry_equiv_pos_site_id
 _symmetry_equiv_pos_as_xyz
  1  'x, y, z'
loop_
 _atom_site_type_symbol
 _atom_site_label
 _atom_site_symmetry_multiplicity
 _atom_site_fract_x
 _atom_site_fract_y
 _atom_site_fract_z
 _atom_site_occupancy
  Sm  Sm0  1  0.301939  0.301939  0.359317  1
  Sm  Sm1  1  0.698061  0.698061  0.640683  1
  Sm  Sm2  1  0.694346  0.694346  0.165832  1
  Sm  Sm3  1  0.305654  0.305654  0.834168  1
  Sm  Sm4  1  0.000000  0.000000  0.500000  1
  Ir  Ir5  1  0.752760  0.247240  0.000000  1
  Ir  Ir6  1  0.247240  0.752760  0.000000  1
  O  O7  1  0.095928  0.599918  0.574383  1
  O  O8  1  0.000209  0.000209  0.171155  1
  O  O9  1  0.400082  0.904072  0.425617  1
  O  O10  1  0.500522  0.500522  0.178697  1
  O  O11  1  0.101462  0.568779  0.083314  1
  O  O12  1  0.904072  0.400082  0.425617  1
  O  O13  1  0.999791  0.999791  0.828845  1
  O  O14  1  0.599918  0.095927  0.574383  1
  O  O15  1  0.499478  0.499478  0.821303  1
  O  O16  1  0.568779  0.101462  0.083314  1
  O  O17  1  0.431221  0.898538  0.916686  1
  O  O18  1  0.898538  0.431221  0.916686  1
