# generated using pymatgen
data_DyLu11(Si3Ir)4
_symmetry_space_group_name_H-M   'P 1'
_cell_length_a   4.18261100
_cell_length_b   10.47049999
_cell_length_c   12.06711544
_cell_angle_alpha   89.91344362
_cell_angle_beta   90.00000000
_cell_angle_gamma   90.00000000
_symmetry_Int_Tables_number   1
_chemical_formula_structural   DyLu11(Si3Ir)4
_chemical_formula_sum   'Dy1 Lu11 Si12 Ir4'
_cell_volume   528.46699361
_cell_formula_units_Z   1
loop_
 _symmetry_equiv_pos_site_id
 _symmetry_equiv_pos_as_xyz
  1  'x, y, z'
loop_
 _atom_site_type_symbol
 _atom_site_label
 _atom_site_symmetry_multiplicity
 _atom_site_fract_x
 _atom_site_fract_y
 _atom_site_fract_z
 _atom_site_occupancy
  Dy  Dy0  1  0.250000  0.878853  0.019454  1
  Lu  Lu1  1  0.250000  0.620769  0.519639  1
  Lu  Lu2  1  0.750000  0.121082  0.979948  1
  Lu  Lu3  1  0.750000  0.379430  0.480374  1
  Lu  Lu4  1  0.250000  0.919324  0.602763  1
  Lu  Lu5  1  0.250000  0.579564  0.103529  1
  Lu  Lu6  1  0.750000  0.080874  0.397339  1
  Lu  Lu7  1  0.750000  0.419305  0.897076  1
  Lu  Lu8  1  0.250000  0.658753  0.799320  1
  Lu  Lu9  1  0.250000  0.840625  0.300923  1
  Lu  Lu10  1  0.750000  0.340822  0.199968  1
  Lu  Lu11  1  0.750000  0.159516  0.699428  1
  Si  Si12  1  0.250000  0.013258  0.819211  1
  Si  Si13  1  0.250000  0.487563  0.321629  1
  Si  Si14  1  0.750000  0.988573  0.179609  1
  Si  Si15  1  0.750000  0.512231  0.678753  1
  Si  Si16  1  0.250000  0.247946  0.840909  1
  Si  Si17  1  0.250000  0.253089  0.342205  1
  Si  Si18  1  0.750000  0.751398  0.159804  1
  Si  Si19  1  0.750000  0.747362  0.657883  1
  Si  Si20  1  0.250000  0.197950  0.544512  1
  Si  Si21  1  0.250000  0.302026  0.044639  1
  Si  Si22  1  0.750000  0.802348  0.455563  1
  Si  Si23  1  0.750000  0.695507  0.955111  1
  Ir  Ir24  1  0.250000  0.390897  0.679057  1
  Ir  Ir25  1  0.250000  0.111180  0.181186  1
  Ir  Ir26  1  0.750000  0.609256  0.322058  1
  Ir  Ir27  1  0.750000  0.890498  0.818110  1
