# generated using pymatgen
data_Tb2GdMg3AgSn2
_symmetry_space_group_name_H-M   'P 1'
_cell_length_a   7.57158249
_cell_length_b   7.57158191
_cell_length_c   4.53040300
_cell_angle_alpha   90.00000000
_cell_angle_beta   90.00000000
_cell_angle_gamma   120.07197913
_symmetry_Int_Tables_number   1
_chemical_formula_structural   Tb2GdMg3AgSn2
_chemical_formula_sum   'Tb2 Gd1 Mg3 Ag1 Sn2'
_cell_volume   224.76324634
_cell_formula_units_Z   1
loop_
 _symmetry_equiv_pos_site_id
 _symmetry_equiv_pos_as_xyz
  1  'x, y, z'
loop_
 _atom_site_type_symbol
 _atom_site_label
 _atom_site_symmetry_multiplicity
 _atom_site_fract_x
 _atom_site_fract_y
 _atom_site_fract_z
 _atom_site_occupancy
  Tb  Tb0  1  0.585417  0.000097  0.500000  1
  Tb  Tb1  1  0.000097  0.585417  0.500000  1
  Gd  Gd2  1  0.415085  0.415085  0.500000  1
  Mg  Mg3  1  0.763059  0.763059  0.000000  1
  Mg  Mg4  1  0.237004  0.999471  0.000000  1
  Mg  Mg5  1  0.999471  0.237004  0.000000  1
  Ag  Ag6  1  0.999897  0.999897  0.500000  1
  Sn  Sn7  1  0.666832  0.333139  0.000000  1
  Sn  Sn8  1  0.333139  0.666832  0.000000  1
