# generated using pymatgen
data_Sb2Te2S
_symmetry_space_group_name_H-M   'P 1'
_cell_length_a   10.30873476
_cell_length_b   10.30873499
_cell_length_c   10.30873509
_cell_angle_alpha   23.52439914
_cell_angle_beta   23.52439656
_cell_angle_gamma   23.52439350
_symmetry_Int_Tables_number   1
_chemical_formula_structural   Sb2Te2S
_chemical_formula_sum   'Sb2 Te2 S1'
_cell_volume   153.26797823
_cell_formula_units_Z   1
loop_
 _symmetry_equiv_pos_site_id
 _symmetry_equiv_pos_as_xyz
  1  'x, y, z'
loop_
 _atom_site_type_symbol
 _atom_site_label
 _atom_site_symmetry_multiplicity
 _atom_site_fract_x
 _atom_site_fract_y
 _atom_site_fract_z
 _atom_site_occupancy
  Sb  Sb0  1  0.889093  0.889093  0.889093  1
  Sb  Sb1  1  0.110907  0.110907  0.110907  1
  Te  Te2  1  0.719374  0.719374  0.719374  1
  Te  Te3  1  0.280626  0.280626  0.280626  1
  S  S4  1  0.500000  0.500000  0.500000  1
