# generated using pymatgen
data_Pr6ZrTi(Co4P3)4
_symmetry_space_group_name_H-M   'P 1'
_cell_length_a   3.79261400
_cell_length_b   10.83811400
_cell_length_c   12.65582800
_cell_angle_alpha   90.00000000
_cell_angle_beta   90.00000000
_cell_angle_gamma   90.00000000
_symmetry_Int_Tables_number   1
_chemical_formula_structural   Pr6ZrTi(Co4P3)4
_chemical_formula_sum   'Pr6 Zr1 Ti1 Co16 P12'
_cell_volume   520.21506223
_cell_formula_units_Z   1
loop_
 _symmetry_equiv_pos_site_id
 _symmetry_equiv_pos_as_xyz
  1  'x, y, z'
loop_
 _atom_site_type_symbol
 _atom_site_label
 _atom_site_symmetry_multiplicity
 _atom_site_fract_x
 _atom_site_fract_y
 _atom_site_fract_z
 _atom_site_occupancy
  Pr  Pr0  1  0.000000  0.500000  0.529310  1
  Pr  Pr1  1  0.500000  0.000000  0.475770  1
  Pr  Pr2  1  0.500000  0.820488  0.205418  1
  Pr  Pr3  1  0.500000  0.179512  0.205418  1
  Pr  Pr4  1  0.000000  0.681053  0.794745  1
  Pr  Pr5  1  0.000000  0.318947  0.794745  1
  Zr  Zr6  1  0.500000  0.500000  0.153734  1
  Ti  Ti7  1  0.000000  0.000000  0.846803  1
  Co  Co8  1  0.500000  0.500000  0.704567  1
  Co  Co9  1  0.000000  0.000000  0.295186  1
  Co  Co10  1  0.000000  0.500000  0.984327  1
  Co  Co11  1  0.500000  0.000000  0.010506  1
  Co  Co12  1  0.500000  0.329219  0.990559  1
  Co  Co13  1  0.500000  0.670781  0.990559  1
  Co  Co14  1  0.000000  0.164347  0.001963  1
  Co  Co15  1  0.000000  0.835653  0.001963  1
  Co  Co16  1  0.500000  0.294345  0.434578  1
  Co  Co17  1  0.500000  0.705655  0.434578  1
  Co  Co18  1  0.000000  0.202826  0.569325  1
  Co  Co19  1  0.000000  0.797174  0.569325  1
  Co  Co20  1  0.500000  0.881780  0.706679  1
  Co  Co21  1  0.500000  0.118220  0.706679  1
  Co  Co22  1  0.000000  0.619262  0.300698  1
  Co  Co23  1  0.000000  0.380738  0.300698  1
  P  P24  1  0.500000  0.500000  0.885841  1
  P  P25  1  0.000000  0.000000  0.111657  1
  P  P26  1  0.500000  0.500000  0.357095  1
  P  P27  1  0.000000  0.000000  0.651992  1
  P  P28  1  0.500000  0.302552  0.614235  1
  P  P29  1  0.500000  0.697448  0.614235  1
  P  P30  1  0.000000  0.194999  0.388346  1
  P  P31  1  0.000000  0.805001  0.388346  1
  P  P32  1  0.500000  0.847268  0.893167  1
  P  P33  1  0.500000  0.152732  0.893167  1
  P  P34  1  0.000000  0.660897  0.096893  1
  P  P35  1  0.000000  0.339103  0.096893  1
