# generated using pymatgen
data_Ho13Er3InAg3Rh4
_symmetry_space_group_name_H-M   'P 1'
_cell_length_a   9.50929324
_cell_length_b   9.50661146
_cell_length_c   9.51128792
_cell_angle_alpha   60.19024426
_cell_angle_beta   60.16422982
_cell_angle_gamma   60.19309858
_symmetry_Int_Tables_number   1
_chemical_formula_structural   Ho13Er3InAg3Rh4
_chemical_formula_sum   'Ho13 Er3 In1 Ag3 Rh4'
_cell_volume   610.50567033
_cell_formula_units_Z   1
loop_
 _symmetry_equiv_pos_site_id
 _symmetry_equiv_pos_as_xyz
  1  'x, y, z'
loop_
 _atom_site_type_symbol
 _atom_site_label
 _atom_site_symmetry_multiplicity
 _atom_site_fract_x
 _atom_site_fract_y
 _atom_site_fract_z
 _atom_site_occupancy
  Ho  Ho0  1  0.189671  0.189657  0.810555  1
  Ho  Ho1  1  0.435743  0.063347  0.063095  1
  Ho  Ho2  1  0.435083  0.060917  0.434905  1
  Ho  Ho3  1  0.063448  0.435641  0.063119  1
  Ho  Ho4  1  0.648308  0.053630  0.648366  1
  Ho  Ho5  1  0.188957  0.812222  0.812454  1
  Ho  Ho6  1  0.063116  0.063091  0.435810  1
  Ho  Ho7  1  0.810464  0.189787  0.189629  1
  Ho  Ho8  1  0.812374  0.812391  0.188912  1
  Ho  Ho9  1  0.648059  0.648320  0.053682  1
  Ho  Ho10  1  0.648498  0.648302  0.648593  1
  Ho  Ho11  1  0.060840  0.435122  0.434975  1
  Ho  Ho12  1  0.053605  0.648327  0.648129  1
  Er  Er13  1  0.812007  0.189127  0.812325  1
  Er  Er14  1  0.435097  0.435138  0.060755  1
  Er  Er15  1  0.189936  0.810268  0.189804  1
  In  In16  1  0.421010  0.421157  0.420917  1
  Ag  Ag17  1  0.417369  0.748925  0.417346  1
  Ag  Ag18  1  0.417453  0.417390  0.749079  1
  Ag  Ag19  1  0.749007  0.417352  0.417392  1
  Rh  Rh20  1  0.856638  0.428936  0.856877  1
  Rh  Rh21  1  0.857249  0.856823  0.428851  1
  Rh  Rh22  1  0.428949  0.856559  0.857377  1
  Rh  Rh23  1  0.857119  0.857571  0.857055  1
