# generated using pymatgen
data_CeLuB6Os
_symmetry_space_group_name_H-M   'P 1'
_cell_length_a   3.66652300
_cell_length_b   9.13259900
_cell_length_c   11.52306700
_cell_angle_alpha   90.00000000
_cell_angle_beta   90.00000000
_cell_angle_gamma   90.00000000
_symmetry_Int_Tables_number   1
_chemical_formula_structural   CeLuB6Os
_chemical_formula_sum   'Ce4 Lu4 B24 Os4'
_cell_volume   385.84856508
_cell_formula_units_Z   4
loop_
 _symmetry_equiv_pos_site_id
 _symmetry_equiv_pos_as_xyz
  1  'x, y, z'
loop_
 _atom_site_type_symbol
 _atom_site_label
 _atom_site_symmetry_multiplicity
 _atom_site_fract_x
 _atom_site_fract_y
 _atom_site_fract_z
 _atom_site_occupancy
  Ce  Ce0  1  0.000000  0.322197  0.413723  1
  Ce  Ce1  1  0.000000  0.677803  0.586277  1
  Ce  Ce2  1  0.000000  0.822197  0.086277  1
  Ce  Ce3  1  0.000000  0.177803  0.913723  1
  Lu  Lu4  1  0.000000  0.945035  0.374545  1
  Lu  Lu5  1  0.000000  0.054965  0.625455  1
  Lu  Lu6  1  0.000000  0.445035  0.125455  1
  Lu  Lu7  1  0.000000  0.554965  0.874545  1
  B  B8  1  0.500000  0.554598  0.432007  1
  B  B9  1  0.500000  0.445402  0.567993  1
  B  B10  1  0.500000  0.054598  0.067993  1
  B  B11  1  0.500000  0.945402  0.932007  1
  B  B12  1  0.500000  0.750747  0.419217  1
  B  B13  1  0.500000  0.249253  0.580783  1
  B  B14  1  0.500000  0.250747  0.080783  1
  B  B15  1  0.500000  0.749253  0.919217  1
  B  B16  1  0.500000  0.793079  0.266930  1
  B  B17  1  0.500000  0.206921  0.733069  1
  B  B18  1  0.500000  0.293079  0.233070  1
  B  B19  1  0.500000  0.706921  0.766931  1
  B  B20  1  0.500000  0.631516  0.184527  1
  B  B21  1  0.500000  0.368484  0.815473  1
  B  B22  1  0.500000  0.131516  0.315473  1
  B  B23  1  0.500000  0.868484  0.684527  1
  B  B24  1  0.500000  0.983942  0.214547  1
  B  B25  1  0.500000  0.016058  0.785453  1
  B  B26  1  0.500000  0.483942  0.285453  1
  B  B27  1  0.500000  0.516058  0.714547  1
  B  B28  1  0.500000  0.604899  0.028803  1
  B  B29  1  0.500000  0.395101  0.971197  1
  B  B30  1  0.500000  0.104899  0.471197  1
  B  B31  1  0.500000  0.895101  0.528803  1
  Os  Os32  1  0.000000  0.639577  0.319786  1
  Os  Os33  1  0.000000  0.360423  0.680214  1
  Os  Os34  1  0.000000  0.139577  0.180214  1
  Os  Os35  1  0.000000  0.860423  0.819786  1
