# generated using pymatgen
data_GaPb4W3O13
_symmetry_space_group_name_H-M   'P 1'
_cell_length_a   7.43970314
_cell_length_b   7.43970199
_cell_length_c   7.43970231
_cell_angle_alpha   61.20351956
_cell_angle_beta   61.20352725
_cell_angle_gamma   61.20352493
_symmetry_Int_Tables_number   1
_chemical_formula_structural   GaPb4W3O13
_chemical_formula_sum   'Ga1 Pb4 W3 O13'
_cell_volume   299.05594806
_cell_formula_units_Z   1
loop_
 _symmetry_equiv_pos_site_id
 _symmetry_equiv_pos_as_xyz
  1  'x, y, z'
loop_
 _atom_site_type_symbol
 _atom_site_label
 _atom_site_symmetry_multiplicity
 _atom_site_fract_x
 _atom_site_fract_y
 _atom_site_fract_z
 _atom_site_occupancy
  Ga  Ga0  1  0.499984  0.499984  0.499984  1
  Pb  Pb1  1  0.996515  0.996515  0.996515  1
  Pb  Pb2  1  0.501906  0.999087  0.999087  1
  Pb  Pb3  1  0.999087  0.999087  0.501906  1
  Pb  Pb4  1  0.999087  0.501906  0.999087  1
  W  W5  1  0.001059  0.499784  0.499784  1
  W  W6  1  0.499784  0.499784  0.001059  1
  W  W7  1  0.499784  0.001059  0.499784  1
  O  O8  1  0.821648  0.431649  0.431649  1
  O  O9  1  0.424102  0.824872  0.824872  1
  O  O10  1  0.431649  0.431649  0.821648  1
  O  O11  1  0.824872  0.824872  0.424102  1
  O  O12  1  0.824872  0.424102  0.824872  1
  O  O13  1  0.431649  0.821648  0.431649  1
  O  O14  1  0.181224  0.565903  0.565903  1
  O  O15  1  0.573674  0.178168  0.178168  1
  O  O16  1  0.565903  0.565903  0.181224  1
  O  O17  1  0.178168  0.178168  0.573674  1
  O  O18  1  0.178168  0.573674  0.178168  1
  O  O19  1  0.565903  0.181224  0.565903  1
  O  O20  1  0.125964  0.125964  0.125964  1
