# generated using pymatgen
data_Pa3Co10GeB4
_symmetry_space_group_name_H-M   'P 1'
_cell_length_a   5.00220400
_cell_length_b   5.00220423
_cell_length_c   9.94009800
_cell_angle_alpha   90.00000000
_cell_angle_beta   90.00000000
_cell_angle_gamma   119.99999850
_symmetry_Int_Tables_number   1
_chemical_formula_structural   Pa3Co10GeB4
_chemical_formula_sum   'Pa3 Co10 Ge1 B4'
_cell_volume   215.39921804
_cell_formula_units_Z   1
loop_
 _symmetry_equiv_pos_site_id
 _symmetry_equiv_pos_as_xyz
  1  'x, y, z'
loop_
 _atom_site_type_symbol
 _atom_site_label
 _atom_site_symmetry_multiplicity
 _atom_site_fract_x
 _atom_site_fract_y
 _atom_site_fract_z
 _atom_site_occupancy
  Pa  Pa0  1  0.000000  0.000000  0.663543  1
  Pa  Pa1  1  0.000000  0.000000  0.336457  1
  Pa  Pa2  1  0.000000  0.000000  0.000000  1
  Co  Co3  1  0.499611  0.999223  0.500000  1
  Co  Co4  1  0.499611  0.500389  0.500000  1
  Co  Co5  1  0.000777  0.500389  0.500000  1
  Co  Co6  1  0.498863  0.997725  0.201618  1
  Co  Co7  1  0.498863  0.501137  0.201618  1
  Co  Co8  1  0.002275  0.501137  0.201618  1
  Co  Co9  1  0.498863  0.997725  0.798382  1
  Co  Co10  1  0.498863  0.501137  0.798382  1
  Co  Co11  1  0.002275  0.501137  0.798382  1
  Co  Co12  1  0.333333  0.666667  0.000000  1
  Ge  Ge13  1  0.666667  0.333333  0.000000  1
  B  B14  1  0.333333  0.666667  0.653110  1
  B  B15  1  0.666667  0.333333  0.651417  1
  B  B16  1  0.666667  0.333333  0.348583  1
  B  B17  1  0.333333  0.666667  0.346890  1
