# generated using pymatgen
data_La3SmErP12Ru19
_symmetry_space_group_name_H-M   'P 1'
_cell_length_a   12.64150700
_cell_length_b   12.64150707
_cell_length_c   4.02804700
_cell_angle_alpha   90.00000000
_cell_angle_beta   90.00000000
_cell_angle_gamma   120.00000243
_symmetry_Int_Tables_number   1
_chemical_formula_structural   La3SmErP12Ru19
_chemical_formula_sum   'La3 Sm1 Er1 P12 Ru19'
_cell_volume   557.47173407
_cell_formula_units_Z   1
loop_
 _symmetry_equiv_pos_site_id
 _symmetry_equiv_pos_as_xyz
  1  'x, y, z'
loop_
 _atom_site_type_symbol
 _atom_site_label
 _atom_site_symmetry_multiplicity
 _atom_site_fract_x
 _atom_site_fract_y
 _atom_site_fract_z
 _atom_site_occupancy
  La  La0  1  0.182623  0.184181  0.500000  1
  La  La1  1  0.815819  0.998444  0.500000  1
  La  La2  1  0.001556  0.817377  0.500000  1
  Sm  Sm3  1  0.333333  0.666667  0.000000  1
  Er  Er4  1  0.666667  0.333333  0.000000  1
  P  P5  1  0.810927  0.808550  0.000000  1
  P  P6  1  0.191450  0.002377  0.000000  1
  P  P7  1  0.997623  0.189073  0.000000  1
  P  P8  1  0.171073  0.476574  0.500000  1
  P  P9  1  0.523426  0.694499  0.500000  1
  P  P10  1  0.305501  0.828927  0.500000  1
  P  P11  1  0.697221  0.520219  0.500000  1
  P  P12  1  0.822998  0.302779  0.500000  1
  P  P13  1  0.479781  0.177002  0.500000  1
  P  P14  1  0.375049  0.376411  0.000000  1
  P  P15  1  0.623589  0.998638  0.000000  1
  P  P16  1  0.001362  0.624951  0.000000  1
  Ru  Ru17  1  0.554559  0.554590  0.000000  1
  Ru  Ru18  1  0.445410  0.999969  0.000000  1
  Ru  Ru19  1  0.000031  0.445441  0.000000  1
  Ru  Ru20  1  0.713502  0.710706  0.500000  1
  Ru  Ru21  1  0.289294  0.002796  0.500000  1
  Ru  Ru22  1  0.997204  0.286498  0.500000  1
  Ru  Ru23  1  0.183657  0.379713  0.000000  1
  Ru  Ru24  1  0.620287  0.803942  0.000000  1
  Ru  Ru25  1  0.196058  0.816343  0.000000  1
  Ru  Ru26  1  0.805043  0.616993  0.000000  1
  Ru  Ru27  1  0.811950  0.194957  0.000000  1
  Ru  Ru28  1  0.383007  0.188050  0.000000  1
  Ru  Ru29  1  0.366848  0.491901  0.500000  1
  Ru  Ru30  1  0.508099  0.874947  0.500000  1
  Ru  Ru31  1  0.125053  0.633152  0.500000  1
  Ru  Ru32  1  0.874131  0.504226  0.500000  1
  Ru  Ru33  1  0.630094  0.125869  0.500000  1
  Ru  Ru34  1  0.495774  0.369906  0.500000  1
  Ru  Ru35  1  0.000000  0.000000  0.000000  1
