# generated using pymatgen
data_LaAs12IrOs3
_symmetry_space_group_name_H-M   'P 1'
_cell_length_a   7.47274652
_cell_length_b   7.48411620
_cell_length_c   7.47274708
_cell_angle_alpha   109.50203712
_cell_angle_beta   109.44037971
_cell_angle_gamma   109.50204790
_symmetry_Int_Tables_number   1
_chemical_formula_structural   LaAs12IrOs3
_chemical_formula_sum   'La1 As12 Ir1 Os3'
_cell_volume   321.59836636
_cell_formula_units_Z   1
loop_
 _symmetry_equiv_pos_site_id
 _symmetry_equiv_pos_as_xyz
  1  'x, y, z'
loop_
 _atom_site_type_symbol
 _atom_site_label
 _atom_site_symmetry_multiplicity
 _atom_site_fract_x
 _atom_site_fract_y
 _atom_site_fract_z
 _atom_site_occupancy
  La  La0  1  0.000000  0.000000  0.000000  1
  As  As1  1  0.347357  0.197476  0.850482  1
  As  As2  1  0.652643  0.802524  0.149518  1
  As  As3  1  0.650092  0.503216  0.850015  1
  As  As4  1  0.349908  0.496784  0.149985  1
  As  As5  1  0.199923  0.853123  0.349908  1
  As  As6  1  0.800077  0.146877  0.650092  1
  As  As7  1  0.503126  0.850119  0.652643  1
  As  As8  1  0.496874  0.149881  0.347357  1
  As  As9  1  0.850015  0.346799  0.199923  1
  As  As10  1  0.149985  0.653201  0.800077  1
  As  As11  1  0.850482  0.653006  0.503126  1
  As  As12  1  0.149518  0.346994  0.496874  1
  Ir  Ir13  1  0.000000  0.500000  0.000000  1
  Os  Os14  1  0.000000  0.000000  0.500000  1
  Os  Os15  1  0.500000  0.000000  0.000000  1
  Os  Os16  1  0.500000  0.500000  0.500000  1
