# generated using pymatgen
data_Tm6Al24GaFe7
_symmetry_space_group_name_H-M   'P 1'
_cell_length_a   8.67658623
_cell_length_b   8.67658637
_cell_length_c   9.29504776
_cell_angle_alpha   90.20745433
_cell_angle_beta   89.79255256
_cell_angle_gamma   119.78827666
_symmetry_Int_Tables_number   1
_chemical_formula_structural   Tm6Al24GaFe7
_chemical_formula_sum   'Tm6 Al24 Ga1 Fe7'
_cell_volume   607.29378893
_cell_formula_units_Z   1
loop_
 _symmetry_equiv_pos_site_id
 _symmetry_equiv_pos_as_xyz
  1  'x, y, z'
loop_
 _atom_site_type_symbol
 _atom_site_label
 _atom_site_symmetry_multiplicity
 _atom_site_fract_x
 _atom_site_fract_y
 _atom_site_fract_z
 _atom_site_occupancy
  Tm  Tm0  1  0.804211  0.195789  0.743411  1
  Tm  Tm1  1  0.195789  0.804211  0.256589  1
  Tm  Tm2  1  0.387649  0.194323  0.752783  1
  Tm  Tm3  1  0.612351  0.805677  0.247217  1
  Tm  Tm4  1  0.805677  0.612351  0.752783  1
  Tm  Tm5  1  0.194323  0.387649  0.247217  1
  Al  Al6  1  0.675971  0.324029  0.985366  1
  Al  Al7  1  0.324029  0.675971  0.014634  1
  Al  Al8  1  0.333463  0.666537  0.483226  1
  Al  Al9  1  0.666537  0.333463  0.516774  1
  Al  Al10  1  0.838192  0.161808  0.423016  1
  Al  Al11  1  0.161808  0.838192  0.576984  1
  Al  Al12  1  0.322392  0.160033  0.428148  1
  Al  Al13  1  0.160314  0.839686  0.921471  1
  Al  Al14  1  0.677608  0.839967  0.571852  1
  Al  Al15  1  0.839686  0.160314  0.078529  1
  Al  Al16  1  0.839967  0.677608  0.428148  1
  Al  Al17  1  0.682456  0.856713  0.919718  1
  Al  Al18  1  0.160033  0.322392  0.571852  1
  Al  Al19  1  0.317544  0.143287  0.080282  1
  Al  Al20  1  0.143287  0.317544  0.919718  1
  Al  Al21  1  0.856713  0.682456  0.080282  1
  Al  Al22  1  0.435727  0.564273  0.737110  1
  Al  Al23  1  0.564273  0.435727  0.262890  1
  Al  Al24  1  0.114793  0.558681  0.750432  1
  Al  Al25  1  0.885207  0.441319  0.249568  1
  Al  Al26  1  0.441319  0.885207  0.750432  1
  Al  Al27  1  0.558681  0.114793  0.249568  1
  Al  Al28  1  0.000730  0.999270  0.749182  1
  Al  Al29  1  0.999270  0.000730  0.250818  1
  Ga  Ga30  1  0.500000  0.500000  0.000000  1
  Fe  Fe31  1  0.000000  0.500000  0.000000  1
  Fe  Fe32  1  0.500000  0.500000  0.500000  1
  Fe  Fe33  1  0.500000  0.000000  0.000000  1
  Fe  Fe34  1  0.000000  0.500000  0.500000  1
  Fe  Fe35  1  0.500000  0.000000  0.500000  1
  Fe  Fe36  1  0.000000  0.000000  0.000000  1
  Fe  Fe37  1  0.000000  0.000000  0.500000  1
