# generated using pymatgen
data_Tb2Nb2P7Rh9W
_symmetry_space_group_name_H-M   'P 1'
_cell_length_a   3.94683600
_cell_length_b   9.59362547
_cell_length_c   9.59667745
_cell_angle_alpha   119.88426871
_cell_angle_beta   90.00018719
_cell_angle_gamma   89.99997882
_symmetry_Int_Tables_number   1
_chemical_formula_structural   Tb2Nb2P7Rh9W
_chemical_formula_sum   'Tb2 Nb2 P7 Rh9 W1'
_cell_volume   315.05665515
_cell_formula_units_Z   1
loop_
 _symmetry_equiv_pos_site_id
 _symmetry_equiv_pos_as_xyz
  1  'x, y, z'
loop_
 _atom_site_type_symbol
 _atom_site_label
 _atom_site_symmetry_multiplicity
 _atom_site_fract_x
 _atom_site_fract_y
 _atom_site_fract_z
 _atom_site_occupancy
  Tb  Tb0  1  0.261362  0.667135  0.333534  1
  Tb  Tb1  1  0.762034  0.333071  0.666281  1
  Nb  Nb2  1  0.762018  0.126642  0.219611  1
  Nb  Nb3  1  0.762000  0.779881  0.904455  1
  P  P4  1  0.262253  0.001149  0.998434  1
  P  P5  1  0.761746  0.880718  0.594522  1
  P  P6  1  0.761683  0.410184  0.287736  1
  P  P7  1  0.761694  0.712368  0.122020  1
  P  P8  1  0.262037  0.116971  0.416138  1
  P  P9  1  0.262041  0.584524  0.701413  1
  P  P10  1  0.262015  0.296507  0.883049  1
  Rh  Rh11  1  0.261889  0.883926  0.161880  1
  Rh  Rh12  1  0.261902  0.839876  0.722638  1
  Rh  Rh13  1  0.261895  0.276798  0.114117  1
  Rh  Rh14  1  0.761894  0.612058  0.557389  1
  Rh  Rh15  1  0.761897  0.440808  0.052427  1
  Rh  Rh16  1  0.761882  0.947197  0.390931  1
  Rh  Rh17  1  0.261923  0.368351  0.438220  1
  Rh  Rh18  1  0.261922  0.560083  0.929097  1
  Rh  Rh19  1  0.261926  0.070567  0.634322  1
  W  W20  1  0.761988  0.091189  0.871783  1
