# generated using pymatgen
data_La7ZnCu2
_symmetry_space_group_name_H-M   'P 1'
_cell_length_a   3.87765100
_cell_length_b   12.52384600
_cell_length_c   12.52384600
_cell_angle_alpha   90.00000000
_cell_angle_beta   90.00000000
_cell_angle_gamma   90.00000000
_symmetry_Int_Tables_number   1
_chemical_formula_structural   La7ZnCu2
_chemical_formula_sum   'La14 Zn2 Cu4'
_cell_volume   608.19683535
_cell_formula_units_Z   2
loop_
 _symmetry_equiv_pos_site_id
 _symmetry_equiv_pos_as_xyz
  1  'x, y, z'
loop_
 _atom_site_type_symbol
 _atom_site_label
 _atom_site_symmetry_multiplicity
 _atom_site_fract_x
 _atom_site_fract_y
 _atom_site_fract_z
 _atom_site_occupancy
  La  La0  1  0.500000  0.000000  0.500000  1
  La  La1  1  0.500000  0.500000  0.000000  1
  La  La2  1  0.000000  0.321083  0.821083  1
  La  La3  1  0.000000  0.678917  0.178917  1
  La  La4  1  0.000000  0.178917  0.321083  1
  La  La5  1  0.000000  0.821083  0.678917  1
  La  La6  1  0.500000  0.556922  0.698307  1
  La  La7  1  0.500000  0.443078  0.301693  1
  La  La8  1  0.500000  0.943078  0.198307  1
  La  La9  1  0.500000  0.056922  0.801693  1
  La  La10  1  0.500000  0.698307  0.443078  1
  La  La11  1  0.500000  0.301693  0.556922  1
  La  La12  1  0.500000  0.198307  0.056922  1
  La  La13  1  0.500000  0.801693  0.943078  1
  Zn  Zn14  1  0.000000  0.500000  0.500000  1
  Zn  Zn15  1  0.000000  0.000000  0.000000  1
  Cu  Cu16  1  0.000000  0.128434  0.628434  1
  Cu  Cu17  1  0.000000  0.871566  0.371566  1
  Cu  Cu18  1  0.000000  0.371566  0.128434  1
  Cu  Cu19  1  0.000000  0.628434  0.871566  1
