# generated using pymatgen
data_KHg2Pd3
_symmetry_space_group_name_H-M   'P 1'
_cell_length_a   5.86193000
_cell_length_b   5.86193098
_cell_length_c   4.45020700
_cell_angle_alpha   90.00000000
_cell_angle_beta   90.00000000
_cell_angle_gamma   119.99998320
_symmetry_Int_Tables_number   1
_chemical_formula_structural   KHg2Pd3
_chemical_formula_sum   'K1 Hg2 Pd3'
_cell_volume   132.43178906
_cell_formula_units_Z   1
loop_
 _symmetry_equiv_pos_site_id
 _symmetry_equiv_pos_as_xyz
  1  'x, y, z'
loop_
 _atom_site_type_symbol
 _atom_site_label
 _atom_site_symmetry_multiplicity
 _atom_site_fract_x
 _atom_site_fract_y
 _atom_site_fract_z
 _atom_site_occupancy
  K  K0  1  0.000000  0.000000  0.000000  1
  Hg  Hg1  1  0.333333  0.666667  0.000000  1
  Hg  Hg2  1  0.666667  0.333333  0.000000  1
  Pd  Pd3  1  0.000000  0.500000  0.500000  1
  Pd  Pd4  1  0.500000  0.000000  0.500000  1
  Pd  Pd5  1  0.500000  0.500000  0.500000  1
