# generated using pymatgen
data_Tb3YbZr6(In2Pt)4
_symmetry_space_group_name_H-M   'P 1'
_cell_length_a   3.57935600
_cell_length_b   7.79703916
_cell_length_c   17.77483868
_cell_angle_alpha   90.09068099
_cell_angle_beta   90.00000000
_cell_angle_gamma   90.00000000
_symmetry_Int_Tables_number   1
_chemical_formula_structural   Tb3YbZr6(In2Pt)4
_chemical_formula_sum   'Tb3 Yb1 Zr6 In8 Pt4'
_cell_volume   496.06631164
_cell_formula_units_Z   1
loop_
 _symmetry_equiv_pos_site_id
 _symmetry_equiv_pos_as_xyz
  1  'x, y, z'
loop_
 _atom_site_type_symbol
 _atom_site_label
 _atom_site_symmetry_multiplicity
 _atom_site_fract_x
 _atom_site_fract_y
 _atom_site_fract_z
 _atom_site_occupancy
  Tb  Tb0  1  0.000000  0.246666  0.219311  1
  Tb  Tb1  1  0.000000  0.754009  0.781569  1
  Tb  Tb2  1  0.000000  0.254700  0.718223  1
  Yb  Yb3  1  0.000000  0.746140  0.281793  1
  Zr  Zr4  1  0.000000  0.125471  0.420979  1
  Zr  Zr5  1  0.000000  0.873518  0.578620  1
  Zr  Zr6  1  0.000000  0.373258  0.921330  1
  Zr  Zr7  1  0.000000  0.627669  0.079083  1
  Zr  Zr8  1  0.000000  0.000151  0.999924  1
  Zr  Zr9  1  0.000000  0.499796  0.500291  1
  In  In10  1  0.500000  0.426877  0.353369  1
  In  In11  1  0.500000  0.576697  0.645289  1
  In  In12  1  0.500000  0.076521  0.854140  1
  In  In13  1  0.500000  0.922384  0.147851  1
  In  In14  1  0.500000  0.295481  0.061097  1
  In  In15  1  0.500000  0.703735  0.939373  1
  In  In16  1  0.500000  0.203081  0.560705  1
  In  In17  1  0.500000  0.795527  0.437301  1
  Pt  Pt18  1  0.500000  0.038545  0.310809  1
  Pt  Pt19  1  0.500000  0.962388  0.689614  1
  Pt  Pt20  1  0.500000  0.462593  0.810530  1
  Pt  Pt21  1  0.500000  0.534795  0.188802  1
