# generated using pymatgen
data_Hf6GeAsN2
_symmetry_space_group_name_H-M   'P 1'
_cell_length_a   5.80972870
_cell_length_b   5.80972914
_cell_length_c   8.48910000
_cell_angle_alpha   90.00000000
_cell_angle_beta   90.00000000
_cell_angle_gamma   145.38951817
_symmetry_Int_Tables_number   1
_chemical_formula_structural   Hf6GeAsN2
_chemical_formula_sum   'Hf6 Ge1 As1 N2'
_cell_volume   162.74864506
_cell_formula_units_Z   1
loop_
 _symmetry_equiv_pos_site_id
 _symmetry_equiv_pos_as_xyz
  1  'x, y, z'
loop_
 _atom_site_type_symbol
 _atom_site_label
 _atom_site_symmetry_multiplicity
 _atom_site_fract_x
 _atom_site_fract_y
 _atom_site_fract_z
 _atom_site_occupancy
  Hf  Hf0  1  0.631346  0.368654  0.945530  1
  Hf  Hf1  1  0.369406  0.630594  0.445987  1
  Hf  Hf2  1  0.369406  0.630594  0.054013  1
  Hf  Hf3  1  0.631346  0.368654  0.554470  1
  Hf  Hf4  1  0.941524  0.058476  0.750000  1
  Hf  Hf5  1  0.056125  0.943875  0.250000  1
  Ge  Ge6  1  0.744409  0.255591  0.250000  1
  As  As7  1  0.255121  0.744879  0.750000  1
  N  N8  1  0.000657  0.999343  0.999075  1
  N  N9  1  0.000657  0.999343  0.500925  1
