# generated using pymatgen
data_Dy5(GaBi)2
_symmetry_space_group_name_H-M   'P 1'
_cell_length_a   8.76610813
_cell_length_b   8.76610824
_cell_length_c   8.02859100
_cell_angle_alpha   90.00000000
_cell_angle_beta   90.00000000
_cell_angle_gamma   125.46968466
_symmetry_Int_Tables_number   1
_chemical_formula_structural   Dy5(GaBi)2
_chemical_formula_sum   'Dy10 Ga4 Bi4'
_cell_volume   502.46154887
_cell_formula_units_Z   2
loop_
 _symmetry_equiv_pos_site_id
 _symmetry_equiv_pos_as_xyz
  1  'x, y, z'
loop_
 _atom_site_type_symbol
 _atom_site_label
 _atom_site_symmetry_multiplicity
 _atom_site_fract_x
 _atom_site_fract_y
 _atom_site_fract_z
 _atom_site_occupancy
  Dy  Dy0  1  0.041557  0.293337  0.333214  1
  Dy  Dy1  1  0.958443  0.706663  0.666786  1
  Dy  Dy2  1  0.458443  0.206663  0.833214  1
  Dy  Dy3  1  0.793337  0.541557  0.166786  1
  Dy  Dy4  1  0.541557  0.793337  0.166786  1
  Dy  Dy5  1  0.206663  0.458443  0.833214  1
  Dy  Dy6  1  0.706663  0.958443  0.666786  1
  Dy  Dy7  1  0.293337  0.041557  0.333214  1
  Dy  Dy8  1  0.000000  0.000000  0.000000  1
  Dy  Dy9  1  0.500000  0.500000  0.500000  1
  Ga  Ga10  1  0.371761  0.371761  0.127841  1
  Ga  Ga11  1  0.628239  0.628239  0.872159  1
  Ga  Ga12  1  0.128239  0.128239  0.627841  1
  Ga  Ga13  1  0.871761  0.871761  0.372159  1
  Bi  Bi14  1  0.792846  0.207154  0.000000  1
  Bi  Bi15  1  0.207154  0.792846  0.000000  1
  Bi  Bi16  1  0.707154  0.292846  0.500000  1
  Bi  Bi17  1  0.292846  0.707154  0.500000  1
