# generated using pymatgen
data_Dy8MgSc11Si15Pt
_symmetry_space_group_name_H-M   'P 1'
_cell_length_a   7.07591616
_cell_length_b   7.43649274
_cell_length_c   13.96076300
_cell_angle_alpha   90.00000000
_cell_angle_beta   90.00000000
_cell_angle_gamma   90.19095553
_symmetry_Int_Tables_number   1
_chemical_formula_structural   Dy8MgSc11Si15Pt
_chemical_formula_sum   'Dy8 Mg1 Sc11 Si15 Pt1'
_cell_volume   734.61125737
_cell_formula_units_Z   1
loop_
 _symmetry_equiv_pos_site_id
 _symmetry_equiv_pos_as_xyz
  1  'x, y, z'
loop_
 _atom_site_type_symbol
 _atom_site_label
 _atom_site_symmetry_multiplicity
 _atom_site_fract_x
 _atom_site_fract_y
 _atom_site_fract_z
 _atom_site_occupancy
  Dy  Dy0  1  0.011225  0.177282  0.095810  1
  Dy  Dy1  1  0.991114  0.819132  0.903498  1
  Dy  Dy2  1  0.485948  0.676051  0.903778  1
  Dy  Dy3  1  0.991114  0.819132  0.596502  1
  Dy  Dy4  1  0.510835  0.322607  0.096535  1
  Dy  Dy5  1  0.011225  0.177282  0.404190  1
  Dy  Dy6  1  0.510835  0.322607  0.403465  1
  Dy  Dy7  1  0.485948  0.676051  0.596222  1
  Mg  Mg8  1  0.157825  0.500290  0.750000  1
  Sc  Sc9  1  0.838315  0.497341  0.250000  1
  Sc  Sc10  1  0.338852  0.005544  0.250000  1
  Sc  Sc11  1  0.663894  0.996378  0.750000  1
  Sc  Sc12  1  0.321429  0.176291  0.625747  1
  Sc  Sc13  1  0.671566  0.825875  0.373895  1
  Sc  Sc14  1  0.171619  0.678244  0.373404  1
  Sc  Sc15  1  0.671566  0.825875  0.126105  1
  Sc  Sc16  1  0.833670  0.324970  0.627035  1
  Sc  Sc17  1  0.321429  0.176291  0.874253  1
  Sc  Sc18  1  0.833670  0.324970  0.872965  1
  Sc  Sc19  1  0.171619  0.678244  0.126596  1
  Si  Si20  1  0.969231  0.886361  0.250000  1
  Si  Si21  1  0.469244  0.614869  0.250000  1
  Si  Si22  1  0.533401  0.387669  0.750000  1
  Si  Si23  1  0.291542  0.875440  0.750000  1
  Si  Si24  1  0.714075  0.129231  0.250000  1
  Si  Si25  1  0.212237  0.372578  0.250000  1
  Si  Si26  1  0.775003  0.627743  0.750000  1
  Si  Si27  1  0.159640  0.464502  0.534071  1
  Si  Si28  1  0.843109  0.535979  0.461346  1
  Si  Si29  1  0.345507  0.965797  0.460647  1
  Si  Si30  1  0.843109  0.535979  0.038654  1
  Si  Si31  1  0.659653  0.033688  0.539257  1
  Si  Si32  1  0.159640  0.464502  0.965929  1
  Si  Si33  1  0.659653  0.033688  0.960743  1
  Si  Si34  1  0.345507  0.965797  0.039353  1
  Pt  Pt35  1  0.025751  0.105717  0.750000  1
