# generated using pymatgen
data_Er3Tm2ReOsC7
_symmetry_space_group_name_H-M   'P 1'
_cell_length_a   8.17773169
_cell_length_b   8.17675674
_cell_length_c   3.43613600
_cell_angle_alpha   90.00000000
_cell_angle_beta   90.00000000
_cell_angle_gamma   121.96452367
_symmetry_Int_Tables_number   1
_chemical_formula_structural   Er3Tm2ReOsC7
_chemical_formula_sum   'Er3 Tm2 Re1 Os1 C7'
_cell_volume   194.92730494
_cell_formula_units_Z   1
loop_
 _symmetry_equiv_pos_site_id
 _symmetry_equiv_pos_as_xyz
  1  'x, y, z'
loop_
 _atom_site_type_symbol
 _atom_site_label
 _atom_site_symmetry_multiplicity
 _atom_site_fract_x
 _atom_site_fract_y
 _atom_site_fract_z
 _atom_site_occupancy
  Er  Er0  1  0.500740  0.499244  0.000000  1
  Er  Er1  1  0.076044  0.336415  0.500000  1
  Er  Er2  1  0.922152  0.662707  0.500000  1
  Tm  Tm3  1  0.662080  0.923260  0.500000  1
  Tm  Tm4  1  0.338660  0.078325  0.500000  1
  Re  Re5  1  0.284869  0.715447  0.000000  1
  Os  Os6  1  0.713399  0.286275  0.000000  1
  C  C7  1  0.629354  0.369881  0.500000  1
  C  C8  1  0.375689  0.625106  0.500000  1
  C  C9  1  0.999471  0.000546  0.000000  1
  C  C10  1  0.171509  0.170767  0.000000  1
  C  C11  1  0.827849  0.829959  0.000000  1
  C  C12  1  0.999297  0.501238  0.000000  1
  C  C13  1  0.498889  0.000828  0.000000  1
