# generated using pymatgen
data_NaHg3(Pt2O7)2
_symmetry_space_group_name_H-M   'P 1'
_cell_length_a   7.27809151
_cell_length_b   7.33119125
_cell_length_c   7.27809100
_cell_angle_alpha   60.23930611
_cell_angle_beta   59.99999778
_cell_angle_gamma   60.23930684
_symmetry_Int_Tables_number   1
_chemical_formula_structural   NaHg3(Pt2O7)2
_chemical_formula_sum   'Na1 Hg3 Pt4 O14'
_cell_volume   275.58526760
_cell_formula_units_Z   1
loop_
 _symmetry_equiv_pos_site_id
 _symmetry_equiv_pos_as_xyz
  1  'x, y, z'
loop_
 _atom_site_type_symbol
 _atom_site_label
 _atom_site_symmetry_multiplicity
 _atom_site_fract_x
 _atom_site_fract_y
 _atom_site_fract_z
 _atom_site_occupancy
  Na  Na0  1  0.125000  0.625000  0.125000  1
  Hg  Hg1  1  0.125000  0.125000  0.125000  1
  Hg  Hg2  1  0.625000  0.125000  0.125000  1
  Hg  Hg3  1  0.125000  0.125000  0.625000  1
  Pt  Pt4  1  0.625000  0.625000  0.125000  1
  Pt  Pt5  1  0.625000  0.625000  0.625000  1
  Pt  Pt6  1  0.625000  0.125000  0.625000  1
  Pt  Pt7  1  0.125000  0.625000  0.625000  1
  O  O8  1  0.702642  0.297599  0.297118  1
  O  O9  1  0.702642  0.297599  0.702642  1
  O  O10  1  0.988300  0.035101  0.988300  1
  O  O11  1  0.297205  0.702826  0.297205  1
  O  O12  1  0.702764  0.702826  0.297205  1
  O  O13  1  0.952795  0.547174  0.547236  1
  O  O14  1  0.297205  0.702826  0.702764  1
  O  O15  1  0.261700  0.214899  0.261700  1
  O  O16  1  0.952795  0.547174  0.952795  1
  O  O17  1  0.547358  0.952401  0.547358  1
  O  O18  1  0.547236  0.547174  0.952795  1
  O  O19  1  0.952882  0.952401  0.547358  1
  O  O20  1  0.547358  0.952401  0.952882  1
  O  O21  1  0.297118  0.297599  0.702642  1
