# generated using pymatgen
data_Hf9V3(Ga2Sn)4
_symmetry_space_group_name_H-M   'P 1'
_cell_length_a   5.53840080
_cell_length_b   8.65936392
_cell_length_c   9.22984000
_cell_angle_alpha   90.00000000
_cell_angle_beta   90.00000000
_cell_angle_gamma   90.13412039
_symmetry_Int_Tables_number   1
_chemical_formula_structural   Hf9V3(Ga2Sn)4
_chemical_formula_sum   'Hf9 V3 Ga8 Sn4'
_cell_volume   442.65294285
_cell_formula_units_Z   1
loop_
 _symmetry_equiv_pos_site_id
 _symmetry_equiv_pos_as_xyz
  1  'x, y, z'
loop_
 _atom_site_type_symbol
 _atom_site_label
 _atom_site_symmetry_multiplicity
 _atom_site_fract_x
 _atom_site_fract_y
 _atom_site_fract_z
 _atom_site_occupancy
  Hf  Hf0  1  0.500000  0.750000  0.117180  1
  Hf  Hf1  1  0.752457  0.469381  0.611880  1
  Hf  Hf2  1  0.254232  0.527896  0.387927  1
  Hf  Hf3  1  0.745768  0.972104  0.387927  1
  Hf  Hf4  1  0.247543  0.030619  0.611880  1
  Hf  Hf5  1  0.746769  0.370837  0.197670  1
  Hf  Hf6  1  0.253301  0.630723  0.802265  1
  Hf  Hf7  1  0.746699  0.869277  0.802265  1
  Hf  Hf8  1  0.253231  0.129163  0.197670  1
  V  V9  1  0.000000  0.750000  0.114319  1
  V  V10  1  0.500000  0.250000  0.883856  1
  V  V11  1  0.000000  0.250000  0.882382  1
  Ga  Ga12  1  0.000000  0.750000  0.569772  1
  Ga  Ga13  1  0.500000  0.250000  0.433629  1
  Ga  Ga14  1  0.000000  0.250000  0.431572  1
  Ga  Ga15  1  0.500000  0.750000  0.565072  1
  Ga  Ga16  1  0.748901  0.142692  0.659770  1
  Ga  Ga17  1  0.234901  0.859663  0.346359  1
  Ga  Ga18  1  0.765099  0.640337  0.346359  1
  Ga  Ga19  1  0.251099  0.357308  0.659770  1
  Sn  Sn20  1  0.755757  0.053375  0.077123  1
  Sn  Sn21  1  0.242829  0.957412  0.918117  1
  Sn  Sn22  1  0.757171  0.542588  0.918117  1
  Sn  Sn23  1  0.244243  0.446625  0.077123  1
