# generated using pymatgen
data_Sb3RuF20
_symmetry_space_group_name_H-M   'P 1'
_cell_length_a   8.84184191
_cell_length_b   8.84183879
_cell_length_c   5.52031768
_cell_angle_alpha   88.56225009
_cell_angle_beta   88.56232618
_cell_angle_gamma   110.86843772
_symmetry_Int_Tables_number   1
_chemical_formula_structural   Sb3RuF20
_chemical_formula_sum   'Sb3 Ru1 F20'
_cell_volume   402.86314817
_cell_formula_units_Z   1
loop_
 _symmetry_equiv_pos_site_id
 _symmetry_equiv_pos_as_xyz
  1  'x, y, z'
loop_
 _atom_site_type_symbol
 _atom_site_label
 _atom_site_symmetry_multiplicity
 _atom_site_fract_x
 _atom_site_fract_y
 _atom_site_fract_z
 _atom_site_occupancy
  Sb  Sb0  1  0.201075  0.798925  0.000000  1
  Sb  Sb1  1  0.252417  0.253319  0.244672  1
  Sb  Sb2  1  0.746680  0.747583  0.755328  1
  Ru  Ru3  1  0.802442  0.197560  0.999998  1
  F  F4  1  0.262088  0.458194  0.344134  1
  F  F5  1  0.456556  0.259239  0.343093  1
  F  F6  1  0.740762  0.543444  0.656908  1
  F  F7  1  0.541806  0.737912  0.655866  1
  F  F8  1  0.324855  0.322414  0.923128  1
  F  F9  1  0.677586  0.675145  0.076872  1
  F  F10  1  0.830552  0.396021  0.123991  1
  F  F11  1  0.404948  0.837731  0.131681  1
  F  F12  1  0.162268  0.595052  0.868320  1
  F  F13  1  0.603979  0.169449  0.876009  1
  F  F14  1  0.025478  0.209780  0.120402  1
  F  F15  1  0.207390  0.021752  0.117886  1
  F  F16  1  0.978248  0.792609  0.882115  1
  F  F17  1  0.790220  0.974522  0.879598  1
  F  F18  1  0.140874  0.140531  0.526315  1
  F  F19  1  0.859470  0.859125  0.473686  1
  F  F20  1  0.908713  0.288592  0.706115  1
  F  F21  1  0.284375  0.914191  0.706279  1
  F  F22  1  0.085809  0.715624  0.293722  1
  F  F23  1  0.711409  0.091288  0.293883  1
