# generated using pymatgen
data_Er2Al3Cu7
_symmetry_space_group_name_H-M   'P 1'
_cell_length_a   4.15908200
_cell_length_b   5.06044091
_cell_length_c   8.78340487
_cell_angle_alpha   90.66990922
_cell_angle_beta   90.00000000
_cell_angle_gamma   90.00000000
_symmetry_Int_Tables_number   1
_chemical_formula_structural   Er2Al3Cu7
_chemical_formula_sum   'Er2 Al3 Cu7'
_cell_volume   184.84983043
_cell_formula_units_Z   1
loop_
 _symmetry_equiv_pos_site_id
 _symmetry_equiv_pos_as_xyz
  1  'x, y, z'
loop_
 _atom_site_type_symbol
 _atom_site_label
 _atom_site_symmetry_multiplicity
 _atom_site_fract_x
 _atom_site_fract_y
 _atom_site_fract_z
 _atom_site_occupancy
  Er  Er0  1  0.000000  0.000562  0.999557  1
  Er  Er1  1  0.000000  0.499508  0.500806  1
  Al  Al2  1  0.500000  0.514976  0.994871  1
  Al  Al3  1  0.500000  0.985038  0.504867  1
  Al  Al4  1  0.500000  0.249851  0.249909  1
  Cu  Cu5  1  0.000000  0.001083  0.335009  1
  Cu  Cu6  1  0.000000  0.499484  0.833510  1
  Cu  Cu7  1  0.000000  0.498559  0.165365  1
  Cu  Cu8  1  0.000000  0.001421  0.667141  1
  Cu  Cu9  1  0.500000  0.749486  0.749173  1
  Cu  Cu10  1  0.500000  0.749792  0.249722  1
  Cu  Cu11  1  0.500000  0.250042  0.750071  1
