# generated using pymatgen
data_Tm20Ga3Si12Ag
_symmetry_space_group_name_H-M   'P 1'
_cell_length_a   7.32478577
_cell_length_b   7.57212319
_cell_length_c   14.47423100
_cell_angle_alpha   90.18221336
_cell_angle_beta   90.42947289
_cell_angle_gamma   90.14848811
_symmetry_Int_Tables_number   1
_chemical_formula_structural   Tm20Ga3Si12Ag
_chemical_formula_sum   'Tm20 Ga3 Si12 Ag1'
_cell_volume   802.77199851
_cell_formula_units_Z   1
loop_
 _symmetry_equiv_pos_site_id
 _symmetry_equiv_pos_as_xyz
  1  'x, y, z'
loop_
 _atom_site_type_symbol
 _atom_site_label
 _atom_site_symmetry_multiplicity
 _atom_site_fract_x
 _atom_site_fract_y
 _atom_site_fract_z
 _atom_site_occupancy
  Tm  Tm0  1  0.676594  0.168566  0.626724  1
  Tm  Tm1  1  0.179591  0.326450  0.875315  1
  Tm  Tm2  1  0.322503  0.825573  0.123820  1
  Tm  Tm3  1  0.827820  0.676770  0.375031  1
  Tm  Tm4  1  0.321688  0.828344  0.377270  1
  Tm  Tm5  1  0.820918  0.675965  0.122578  1
  Tm  Tm6  1  0.677513  0.174476  0.877028  1
  Tm  Tm7  1  0.174421  0.323214  0.623154  1
  Tm  Tm8  1  0.517434  0.679688  0.602106  1
  Tm  Tm9  1  0.021360  0.817467  0.900765  1
  Tm  Tm10  1  0.479812  0.319669  0.098927  1
  Tm  Tm11  1  0.983772  0.181036  0.398029  1
  Tm  Tm12  1  0.477326  0.323869  0.399489  1
  Tm  Tm13  1  0.977616  0.178613  0.098253  1
  Tm  Tm14  1  0.522885  0.678024  0.900401  1
  Tm  Tm15  1  0.020713  0.819825  0.601035  1
  Tm  Tm16  1  0.846146  0.504874  0.751658  1
  Tm  Tm17  1  0.344632  0.991947  0.748181  1
  Tm  Tm18  1  0.155297  0.492302  0.250458  1
  Tm  Tm19  1  0.656059  0.009524  0.247907  1
  Ga  Ga20  1  0.157085  0.532943  0.039885  1
  Ga  Ga21  1  0.342498  0.033215  0.959615  1
  Ga  Ga22  1  0.837203  0.465578  0.539035  1
  Si  Si23  1  0.339518  0.028640  0.542365  1
  Si  Si24  1  0.847467  0.467801  0.959808  1
  Si  Si25  1  0.652027  0.969963  0.040367  1
  Si  Si26  1  0.154604  0.531143  0.460200  1
  Si  Si27  1  0.476275  0.392685  0.748998  1
  Si  Si28  1  0.975140  0.105225  0.752966  1
  Si  Si29  1  0.524734  0.609039  0.249658  1
  Si  Si30  1  0.026416  0.894625  0.248669  1
  Si  Si31  1  0.726130  0.866782  0.752508  1
  Si  Si32  1  0.225758  0.630704  0.750238  1
  Si  Si33  1  0.274837  0.131204  0.248076  1
  Si  Si34  1  0.774154  0.372476  0.248584  1
  Ag  Ag35  1  0.662051  0.971790  0.460902  1
