# generated using pymatgen
data_Pr12Ir2OsPd
_symmetry_space_group_name_H-M   'P 1'
_cell_length_a   6.58761469
_cell_length_b   7.46751102
_cell_length_c   10.00147300
_cell_angle_alpha   90.00000000
_cell_angle_beta   90.00000000
_cell_angle_gamma   90.31449611
_symmetry_Int_Tables_number   1
_chemical_formula_structural   Pr12Ir2OsPd
_chemical_formula_sum   'Pr12 Ir2 Os1 Pd1'
_cell_volume   491.99590291
_cell_formula_units_Z   1
loop_
 _symmetry_equiv_pos_site_id
 _symmetry_equiv_pos_as_xyz
  1  'x, y, z'
loop_
 _atom_site_type_symbol
 _atom_site_label
 _atom_site_symmetry_multiplicity
 _atom_site_fract_x
 _atom_site_fract_y
 _atom_site_fract_z
 _atom_site_occupancy
  Pr  Pr0  1  0.336351  0.670356  0.064185  1
  Pr  Pr1  1  0.171429  0.181762  0.437000  1
  Pr  Pr2  1  0.671846  0.324778  0.564989  1
  Pr  Pr3  1  0.830564  0.825451  0.931980  1
  Pr  Pr4  1  0.671846  0.324778  0.935011  1
  Pr  Pr5  1  0.830564  0.825451  0.568020  1
  Pr  Pr6  1  0.336351  0.670356  0.435815  1
  Pr  Pr7  1  0.171429  0.181762  0.063000  1
  Pr  Pr8  1  0.853279  0.523825  0.250000  1
  Pr  Pr9  1  0.630566  0.038567  0.250000  1
  Pr  Pr10  1  0.140937  0.465128  0.750000  1
  Pr  Pr11  1  0.358636  0.964418  0.750000  1
  Ir  Ir12  1  0.933081  0.118886  0.750000  1
  Ir  Ir13  1  0.562924  0.618808  0.750000  1
  Os  Os14  1  0.431067  0.381569  0.250000  1
  Pd  Pd15  1  0.069131  0.884102  0.250000  1
