# generated using pymatgen
data_Gd3NpF12
_symmetry_space_group_name_H-M   'P 1'
_cell_length_a   7.12027200
_cell_length_b   4.49069221
_cell_length_c   6.66676400
_cell_angle_alpha   90.75338973
_cell_angle_beta   90.00000000
_cell_angle_gamma   90.00000000
_symmetry_Int_Tables_number   1
_chemical_formula_structural   Gd3NpF12
_chemical_formula_sum   'Gd3 Np1 F12'
_cell_volume   213.15101758
_cell_formula_units_Z   1
loop_
 _symmetry_equiv_pos_site_id
 _symmetry_equiv_pos_as_xyz
  1  'x, y, z'
loop_
 _atom_site_type_symbol
 _atom_site_label
 _atom_site_symmetry_multiplicity
 _atom_site_fract_x
 _atom_site_fract_y
 _atom_site_fract_z
 _atom_site_occupancy
  Gd  Gd0  1  0.000000  0.562083  0.632624  1
  Gd  Gd1  1  0.500000  0.065400  0.866254  1
  Gd  Gd2  1  0.500000  0.437199  0.370840  1
  Np  Np3  1  0.000000  0.937735  0.131806  1
  F  F4  1  0.000000  0.081343  0.485058  1
  F  F5  1  0.000000  0.422719  0.974160  1
  F  F6  1  0.500000  0.914749  0.520243  1
  F  F7  1  0.500000  0.586209  0.023002  1
  F  F8  1  0.186678  0.611039  0.339212  1
  F  F9  1  0.811517  0.884209  0.831447  1
  F  F10  1  0.685578  0.381835  0.664203  1
  F  F11  1  0.316375  0.119198  0.163145  1
  F  F12  1  0.314422  0.381835  0.664203  1
  F  F13  1  0.683625  0.119198  0.163145  1
  F  F14  1  0.813322  0.611039  0.339212  1
  F  F15  1  0.188483  0.884209  0.831447  1
