# generated using pymatgen
data_Dy16Cd3Ni3HgRu
_symmetry_space_group_name_H-M   'P 1'
_cell_length_a   9.56779654
_cell_length_b   9.56779657
_cell_length_c   9.56779515
_cell_angle_alpha   59.71384984
_cell_angle_beta   59.71385002
_cell_angle_gamma   59.71384436
_symmetry_Int_Tables_number   1
_chemical_formula_structural   Dy16Cd3Ni3HgRu
_chemical_formula_sum   'Dy16 Cd3 Ni3 Hg1 Ru1'
_cell_volume   615.30279472
_cell_formula_units_Z   1
loop_
 _symmetry_equiv_pos_site_id
 _symmetry_equiv_pos_as_xyz
  1  'x, y, z'
loop_
 _atom_site_type_symbol
 _atom_site_label
 _atom_site_symmetry_multiplicity
 _atom_site_fract_x
 _atom_site_fract_y
 _atom_site_fract_z
 _atom_site_occupancy
  Dy  Dy0  1  0.597092  0.597092  0.597092  1
  Dy  Dy1  1  0.601604  0.601604  0.202019  1
  Dy  Dy2  1  0.601604  0.202019  0.601604  1
  Dy  Dy3  1  0.202019  0.601604  0.601604  1
  Dy  Dy4  1  0.060633  0.438029  0.438029  1
  Dy  Dy5  1  0.437678  0.060830  0.060830  1
  Dy  Dy6  1  0.438029  0.060633  0.438029  1
  Dy  Dy7  1  0.060830  0.437678  0.060830  1
  Dy  Dy8  1  0.438029  0.438029  0.060633  1
  Dy  Dy9  1  0.060830  0.060830  0.437678  1
  Dy  Dy10  1  0.185528  0.815604  0.815604  1
  Dy  Dy11  1  0.809138  0.187715  0.187715  1
  Dy  Dy12  1  0.815604  0.185528  0.815604  1
  Dy  Dy13  1  0.187715  0.809138  0.187715  1
  Dy  Dy14  1  0.815604  0.815604  0.185528  1
  Dy  Dy15  1  0.187715  0.187715  0.809138  1
  Cd  Cd16  1  0.829762  0.829762  0.505612  1
  Cd  Cd17  1  0.829762  0.505612  0.829762  1
  Cd  Cd18  1  0.505612  0.829762  0.829762  1
  Ni  Ni19  1  0.392024  0.392024  0.824598  1
  Ni  Ni20  1  0.392024  0.824598  0.392024  1
  Ni  Ni21  1  0.824598  0.392024  0.392024  1
  Hg  Hg22  1  0.833326  0.833326  0.833326  1
  Ru  Ru23  1  0.393241  0.393241  0.393241  1
