# generated using pymatgen
data_Lu5Co19(Si2P)4
_symmetry_space_group_name_H-M   'P 1'
_cell_length_a   12.05314804
_cell_length_b   12.04665455
_cell_length_c   3.66400900
_cell_angle_alpha   90.00000000
_cell_angle_beta   90.00000000
_cell_angle_gamma   119.96481517
_symmetry_Int_Tables_number   1
_chemical_formula_structural   Lu5Co19(Si2P)4
_chemical_formula_sum   'Lu5 Co19 Si8 P4'
_cell_volume   460.90134860
_cell_formula_units_Z   1
loop_
 _symmetry_equiv_pos_site_id
 _symmetry_equiv_pos_as_xyz
  1  'x, y, z'
loop_
 _atom_site_type_symbol
 _atom_site_label
 _atom_site_symmetry_multiplicity
 _atom_site_fract_x
 _atom_site_fract_y
 _atom_site_fract_z
 _atom_site_occupancy
  Lu  Lu0  1  0.333020  0.666221  0.000000  1
  Lu  Lu1  1  0.666987  0.331861  0.000000  1
  Lu  Lu2  1  0.001204  0.183100  0.500000  1
  Lu  Lu3  1  0.816409  0.817259  0.500000  1
  Lu  Lu4  1  0.183948  0.999862  0.500000  1
  Co  Co5  1  0.628331  0.825509  0.000000  1
  Co  Co6  1  0.175895  0.803367  0.000000  1
  Co  Co7  1  0.196085  0.371406  0.000000  1
  Co  Co8  1  0.374097  0.196434  0.000000  1
  Co  Co9  1  0.824037  0.627569  0.000000  1
  Co  Co10  1  0.798220  0.175656  0.000000  1
  Co  Co11  1  0.999220  0.556149  0.000000  1
  Co  Co12  1  0.442582  0.442869  0.000000  1
  Co  Co13  1  0.554488  0.997094  0.000000  1
  Co  Co14  1  0.521081  0.645961  0.500000  1
  Co  Co15  1  0.354051  0.875237  0.500000  1
  Co  Co16  1  0.123606  0.477923  0.500000  1
  Co  Co17  1  0.485942  0.125227  0.500000  1
  Co  Co18  1  0.645372  0.520759  0.500000  1
  Co  Co19  1  0.873577  0.352463  0.500000  1
  Co  Co20  1  0.999827  0.722796  0.500000  1
  Co  Co21  1  0.277822  0.276727  0.500000  1
  Co  Co22  1  0.721556  0.004738  0.500000  1
  Co  Co23  1  0.999261  0.000174  0.000000  1
  Si  Si24  1  0.999521  0.367454  0.000000  1
  Si  Si25  1  0.631760  0.631940  0.000000  1
  Si  Si26  1  0.368321  0.000352  0.000000  1
  Si  Si27  1  0.520787  0.839757  0.500000  1
  Si  Si28  1  0.159471  0.680432  0.500000  1
  Si  Si29  1  0.318749  0.478558  0.500000  1
  Si  Si30  1  0.479684  0.318408  0.500000  1
  Si  Si31  1  0.839640  0.520947  0.500000  1
  P  P32  1  0.685079  0.165288  0.500000  1
  P  P33  1  0.999843  0.820366  0.000000  1
  P  P34  1  0.180513  0.179064  0.000000  1
  P  P35  1  0.820012  0.001072  0.000000  1
