# generated using pymatgen
data_Li3Ce8Si12Ru
_symmetry_space_group_name_H-M   'P 1'
_cell_length_a   8.25505600
_cell_length_b   8.25505755
_cell_length_c   8.22618600
_cell_angle_alpha   90.00000000
_cell_angle_beta   90.00000000
_cell_angle_gamma   119.99999377
_symmetry_Int_Tables_number   1
_chemical_formula_structural   Li3Ce8Si12Ru
_chemical_formula_sum   'Li3 Ce8 Si12 Ru1'
_cell_volume   485.47773065
_cell_formula_units_Z   1
loop_
 _symmetry_equiv_pos_site_id
 _symmetry_equiv_pos_as_xyz
  1  'x, y, z'
loop_
 _atom_site_type_symbol
 _atom_site_label
 _atom_site_symmetry_multiplicity
 _atom_site_fract_x
 _atom_site_fract_y
 _atom_site_fract_z
 _atom_site_occupancy
  Li  Li0  1  0.666667  0.333333  0.502708  1
  Li  Li1  1  0.666667  0.333333  0.997636  1
  Li  Li2  1  0.333333  0.666667  0.005681  1
  Ce  Ce3  1  0.000000  0.000000  0.249463  1
  Ce  Ce4  1  0.000000  0.000000  0.750126  1
  Ce  Ce5  1  0.496162  0.503838  0.256145  1
  Ce  Ce6  1  0.496162  0.992323  0.256145  1
  Ce  Ce7  1  0.007677  0.503838  0.256145  1
  Ce  Ce8  1  0.495047  0.504953  0.744324  1
  Ce  Ce9  1  0.495047  0.990093  0.744324  1
  Ce  Ce10  1  0.009907  0.504953  0.744324  1
  Si  Si11  1  0.164969  0.835031  0.500845  1
  Si  Si12  1  0.164969  0.329939  0.500845  1
  Si  Si13  1  0.670061  0.835031  0.500845  1
  Si  Si14  1  0.834955  0.165045  0.499018  1
  Si  Si15  1  0.834955  0.669910  0.499018  1
  Si  Si16  1  0.330090  0.165045  0.499018  1
  Si  Si17  1  0.834469  0.165531  0.000943  1
  Si  Si18  1  0.834469  0.668937  0.000943  1
  Si  Si19  1  0.331063  0.165531  0.000943  1
  Si  Si20  1  0.165586  0.834414  0.999169  1
  Si  Si21  1  0.165586  0.331173  0.999169  1
  Si  Si22  1  0.668827  0.834414  0.999169  1
  Ru  Ru23  1  0.333333  0.666667  0.493051  1
