# generated using pymatgen
data_YLu(ScPt)2
_symmetry_space_group_name_H-M   'P 1'
_cell_length_a   4.59064600
_cell_length_b   6.93140272
_cell_length_c   8.40937279
_cell_angle_alpha   89.66280102
_cell_angle_beta   90.00000000
_cell_angle_gamma   90.00000000
_symmetry_Int_Tables_number   1
_chemical_formula_structural   YLu(ScPt)2
_chemical_formula_sum   'Y2 Lu2 Sc4 Pt4'
_cell_volume   267.57838031
_cell_formula_units_Z   2
loop_
 _symmetry_equiv_pos_site_id
 _symmetry_equiv_pos_as_xyz
  1  'x, y, z'
loop_
 _atom_site_type_symbol
 _atom_site_label
 _atom_site_symmetry_multiplicity
 _atom_site_fract_x
 _atom_site_fract_y
 _atom_site_fract_z
 _atom_site_occupancy
  Y  Y0  1  0.250000  0.516645  0.176816  1
  Y  Y1  1  0.750000  0.483355  0.823184  1
  Lu  Lu2  1  0.750000  0.981558  0.673402  1
  Lu  Lu3  1  0.250000  0.018442  0.326598  1
  Sc  Sc4  1  0.250000  0.643045  0.570553  1
  Sc  Sc5  1  0.750000  0.356955  0.429447  1
  Sc  Sc6  1  0.750000  0.859809  0.073098  1
  Sc  Sc7  1  0.250000  0.140191  0.926902  1
  Pt  Pt8  1  0.250000  0.756961  0.896641  1
  Pt  Pt9  1  0.750000  0.243039  0.103359  1
  Pt  Pt10  1  0.750000  0.749422  0.400904  1
  Pt  Pt11  1  0.250000  0.250578  0.599096  1
