# generated using pymatgen
data_Ta6MnCr4Si6Mo
_symmetry_space_group_name_H-M   'P 1'
_cell_length_a   7.44563668
_cell_length_b   7.44585423
_cell_length_c   7.44585395
_cell_angle_alpha   126.52304597
_cell_angle_beta   127.13789651
_cell_angle_gamma   78.52913094
_symmetry_Int_Tables_number   1
_chemical_formula_structural   Ta6MnCr4Si6Mo
_chemical_formula_sum   'Ta6 Mn1 Cr4 Si6 Mo1'
_cell_volume   256.01988104
_cell_formula_units_Z   1
loop_
 _symmetry_equiv_pos_site_id
 _symmetry_equiv_pos_as_xyz
  1  'x, y, z'
loop_
 _atom_site_type_symbol
 _atom_site_label
 _atom_site_symmetry_multiplicity
 _atom_site_fract_x
 _atom_site_fract_y
 _atom_site_fract_z
 _atom_site_occupancy
  Ta  Ta0  1  0.545219  0.091135  0.044440  1
  Ta  Ta1  1  0.454781  0.499221  0.545915  1
  Ta  Ta2  1  0.953406  0.499189  0.044335  1
  Ta  Ta3  1  0.046594  0.090929  0.545783  1
  Ta  Ta4  1  0.750136  0.895135  0.645203  1
  Ta  Ta5  1  0.249864  0.895066  0.145000  1
  Mn  Mn6  1  0.000000  0.243631  0.243631  1
  Cr  Cr7  1  0.128099  0.752757  0.624823  1
  Cr  Cr8  1  0.871901  0.496723  0.624657  1
  Cr  Cr9  1  0.627316  0.752460  0.125026  1
  Cr  Cr10  1  0.372684  0.497711  0.125146  1
  Si  Si11  1  0.331578  0.824941  0.493490  1
  Si  Si12  1  0.668422  0.161910  0.493363  1
  Si  Si13  1  0.834901  0.834881  0.999868  1
  Si  Si14  1  0.165099  0.164965  0.999978  1
  Si  Si15  1  0.756800  0.499731  0.256391  1
  Si  Si16  1  0.243200  0.499591  0.742932  1
  Mo  Mo17  1  0.500000  0.242019  0.742019  1
