# generated using pymatgen
data_DyHo7(Lu3Pb4)4
_symmetry_space_group_name_H-M   'P 1'
_cell_length_a   8.11558405
_cell_length_b   15.42517812
_cell_length_c   8.18512302
_cell_angle_alpha   89.99226951
_cell_angle_beta   90.00433000
_cell_angle_gamma   89.98784099
_symmetry_Int_Tables_number   1
_chemical_formula_structural   DyHo7(Lu3Pb4)4
_chemical_formula_sum   'Dy1 Ho7 Lu12 Pb16'
_cell_volume   1024.64910284
_cell_formula_units_Z   1
loop_
 _symmetry_equiv_pos_site_id
 _symmetry_equiv_pos_as_xyz
  1  'x, y, z'
loop_
 _atom_site_type_symbol
 _atom_site_label
 _atom_site_symmetry_multiplicity
 _atom_site_fract_x
 _atom_site_fract_y
 _atom_site_fract_z
 _atom_site_occupancy
  Dy  Dy0  1  0.464196  0.599563  0.677055  1
  Ho  Ho1  1  0.964115  0.900410  0.822994  1
  Ho  Ho2  1  0.535876  0.099604  0.322984  1
  Ho  Ho3  1  0.035842  0.400406  0.177037  1
  Ho  Ho4  1  0.535859  0.400382  0.322974  1
  Ho  Ho5  1  0.035869  0.099601  0.176994  1
  Ho  Ho6  1  0.464140  0.900382  0.677040  1
  Ho  Ho7  1  0.964136  0.599600  0.823000  1
  Lu  Lu8  1  0.623448  0.621244  0.158845  1
  Lu  Lu9  1  0.123414  0.878755  0.341174  1
  Lu  Lu10  1  0.376589  0.121253  0.841164  1
  Lu  Lu11  1  0.876553  0.378749  0.658802  1
  Lu  Lu12  1  0.376565  0.378706  0.841207  1
  Lu  Lu13  1  0.876577  0.121249  0.658818  1
  Lu  Lu14  1  0.623429  0.878764  0.158816  1
  Lu  Lu15  1  0.123398  0.621244  0.341128  1
  Lu  Lu16  1  0.792219  0.750034  0.495141  1
  Lu  Lu17  1  0.292130  0.750030  0.004830  1
  Lu  Lu18  1  0.207826  0.250000  0.504807  1
  Lu  Lu19  1  0.707834  0.249991  0.995183  1
  Pb  Pb20  1  0.717594  0.457307  0.965839  1
  Pb  Pb21  1  0.217569  0.042692  0.534137  1
  Pb  Pb22  1  0.282399  0.957317  0.034134  1
  Pb  Pb23  1  0.782559  0.542661  0.465738  1
  Pb  Pb24  1  0.282337  0.542690  0.034254  1
  Pb  Pb25  1  0.782420  0.957297  0.465886  1
  Pb  Pb26  1  0.717562  0.042701  0.965865  1
  Pb  Pb27  1  0.217487  0.457223  0.534069  1
  Pb  Pb28  1  0.429478  0.750011  0.371233  1
  Pb  Pb29  1  0.929538  0.750002  0.128699  1
  Pb  Pb30  1  0.570518  0.249987  0.628744  1
  Pb  Pb31  1  0.070501  0.249999  0.871290  1
  Pb  Pb32  1  0.653108  0.750100  0.846948  1
  Pb  Pb33  1  0.152945  0.750037  0.653187  1
  Pb  Pb34  1  0.347001  0.250005  0.153190  1
  Pb  Pb35  1  0.846969  0.250003  0.346791  1
