# generated using pymatgen
data_La2Re17C3
_symmetry_space_group_name_H-M   'P 1'
_cell_length_a   7.07407757
_cell_length_b   7.07407773
_cell_length_c   7.07407697
_cell_angle_alpha   83.02061498
_cell_angle_beta   83.02061963
_cell_angle_gamma   83.02061148
_symmetry_Int_Tables_number   1
_chemical_formula_structural   La2Re17C3
_chemical_formula_sum   'La2 Re17 C3'
_cell_volume   346.72486386
_cell_formula_units_Z   1
loop_
 _symmetry_equiv_pos_site_id
 _symmetry_equiv_pos_as_xyz
  1  'x, y, z'
loop_
 _atom_site_type_symbol
 _atom_site_label
 _atom_site_symmetry_multiplicity
 _atom_site_fract_x
 _atom_site_fract_y
 _atom_site_fract_z
 _atom_site_occupancy
  La  La0  1  0.648148  0.648148  0.648148  1
  La  La1  1  0.351852  0.351852  0.351852  1
  Re  Re2  1  0.000000  0.000000  0.500000  1
  Re  Re3  1  0.500000  0.000000  0.000000  1
  Re  Re4  1  0.000000  0.500000  0.000000  1
  Re  Re5  1  0.721327  0.278673  0.000000  1
  Re  Re6  1  0.000000  0.721327  0.278673  1
  Re  Re7  1  0.278673  0.000000  0.721327  1
  Re  Re8  1  0.000000  0.278673  0.721327  1
  Re  Re9  1  0.721327  0.000000  0.278673  1
  Re  Re10  1  0.278673  0.721327  0.000000  1
  Re  Re11  1  0.347364  0.865415  0.347364  1
  Re  Re12  1  0.347364  0.347364  0.865415  1
  Re  Re13  1  0.865415  0.347364  0.347364  1
  Re  Re14  1  0.652636  0.134585  0.652636  1
  Re  Re15  1  0.652636  0.652636  0.134585  1
  Re  Re16  1  0.134585  0.652636  0.652636  1
  Re  Re17  1  0.902896  0.902896  0.902896  1
  Re  Re18  1  0.097104  0.097104  0.097104  1
  C  C19  1  0.500000  0.500000  0.000000  1
  C  C20  1  0.000000  0.500000  0.500000  1
  C  C21  1  0.500000  0.000000  0.500000  1
