# generated using pymatgen
data_Y5Tm3(Ta3Si4)4
_symmetry_space_group_name_H-M   'P 1'
_cell_length_a   7.03737300
_cell_length_b   7.03785216
_cell_length_c   13.01088300
_cell_angle_alpha   90.01140567
_cell_angle_beta   89.99901486
_cell_angle_gamma   89.99586452
_symmetry_Int_Tables_number   1
_chemical_formula_structural   Y5Tm3(Ta3Si4)4
_chemical_formula_sum   'Y5 Tm3 Ta12 Si16'
_cell_volume   644.40287847
_cell_formula_units_Z   1
loop_
 _symmetry_equiv_pos_site_id
 _symmetry_equiv_pos_as_xyz
  1  'x, y, z'
loop_
 _atom_site_type_symbol
 _atom_site_label
 _atom_site_symmetry_multiplicity
 _atom_site_fract_x
 _atom_site_fract_y
 _atom_site_fract_z
 _atom_site_occupancy
  Y  Y0  1  0.997694  0.340882  0.218443  1
  Y  Y1  1  0.002401  0.658993  0.718027  1
  Y  Y2  1  0.158896  0.497566  0.468110  1
  Y  Y3  1  0.502370  0.841469  0.031993  1
  Y  Y4  1  0.841274  0.502278  0.968063  1
  Tm  Tm5  1  0.498612  0.158066  0.531832  1
  Tm  Tm6  1  0.341689  0.998953  0.781551  1
  Tm  Tm7  1  0.658156  0.001268  0.282005  1
  Ta  Ta8  1  0.171750  0.171198  0.999866  1
  Ta  Ta9  1  0.827939  0.829136  0.499842  1
  Ta  Ta10  1  0.329015  0.671593  0.250229  1
  Ta  Ta11  1  0.670806  0.328123  0.749667  1
  Ta  Ta12  1  0.152993  0.993163  0.376304  1
  Ta  Ta13  1  0.847242  0.007373  0.875808  1
  Ta  Ta14  1  0.506676  0.653188  0.626228  1
  Ta  Ta15  1  0.347086  0.492549  0.873581  1
  Ta  Ta16  1  0.493178  0.346537  0.126534  1
  Ta  Ta17  1  0.652407  0.507136  0.374089  1
  Ta  Ta18  1  0.992556  0.152543  0.623978  1
  Ta  Ta19  1  0.007499  0.847435  0.124283  1
  Si  Si20  1  0.295486  0.045001  0.186614  1
  Si  Si21  1  0.703745  0.955649  0.685964  1
  Si  Si22  1  0.455630  0.796322  0.436029  1
  Si  Si23  1  0.205907  0.545219  0.063859  1
  Si  Si24  1  0.544601  0.204889  0.935696  1
  Si  Si25  1  0.793568  0.454149  0.563765  1
  Si  Si26  1  0.046091  0.293665  0.813617  1
  Si  Si27  1  0.954060  0.706350  0.313889  1
  Si  Si28  1  0.367114  0.294576  0.318579  1
  Si  Si29  1  0.632961  0.705204  0.817985  1
  Si  Si30  1  0.205192  0.867189  0.568472  1
  Si  Si31  1  0.134924  0.796848  0.931318  1
  Si  Si32  1  0.795671  0.133584  0.068417  1
  Si  Si33  1  0.864028  0.202990  0.431573  1
  Si  Si34  1  0.296812  0.364220  0.681423  1
  Si  Si35  1  0.703973  0.634696  0.182369  1
