# generated using pymatgen
data_Hf8Ta12Si15Sn
_symmetry_space_group_name_H-M   'P 1'
_cell_length_a   6.69760611
_cell_length_b   6.88169800
_cell_length_c   13.09567600
_cell_angle_alpha   90.00000000
_cell_angle_beta   90.00000000
_cell_angle_gamma   90.01243580
_symmetry_Int_Tables_number   1
_chemical_formula_structural   Hf8Ta12Si15Sn
_chemical_formula_sum   'Hf8 Ta12 Si15 Sn1'
_cell_volume   603.59151293
_cell_formula_units_Z   1
loop_
 _symmetry_equiv_pos_site_id
 _symmetry_equiv_pos_as_xyz
  1  'x, y, z'
loop_
 _atom_site_type_symbol
 _atom_site_label
 _atom_site_symmetry_multiplicity
 _atom_site_fract_x
 _atom_site_fract_y
 _atom_site_fract_z
 _atom_site_occupancy
  Hf  Hf0  1  0.495301  0.673144  0.594764  1
  Hf  Hf1  1  0.994657  0.825904  0.906261  1
  Hf  Hf2  1  0.496894  0.326720  0.088707  1
  Hf  Hf3  1  0.014875  0.163341  0.415050  1
  Hf  Hf4  1  0.496894  0.326720  0.411293  1
  Hf  Hf5  1  0.014875  0.163341  0.084950  1
  Hf  Hf6  1  0.495301  0.673144  0.905236  1
  Hf  Hf7  1  0.994657  0.825904  0.593739  1
  Ta  Ta8  1  0.663172  0.171356  0.624128  1
  Ta  Ta9  1  0.163357  0.329180  0.876050  1
  Ta  Ta10  1  0.333847  0.831754  0.122508  1
  Ta  Ta11  1  0.838988  0.679019  0.379261  1
  Ta  Ta12  1  0.333847  0.831754  0.377492  1
  Ta  Ta13  1  0.838988  0.679019  0.120739  1
  Ta  Ta14  1  0.663172  0.171356  0.875872  1
  Ta  Ta15  1  0.163357  0.329180  0.623950  1
  Ta  Ta16  1  0.836725  0.498170  0.750000  1
  Ta  Ta17  1  0.337773  0.004471  0.750000  1
  Ta  Ta18  1  0.173346  0.508823  0.250000  1
  Ta  Ta19  1  0.655385  0.983401  0.250000  1
  Si  Si20  1  0.669526  0.965492  0.462119  1
  Si  Si21  1  0.170856  0.536902  0.038254  1
  Si  Si22  1  0.328576  0.034732  0.958251  1
  Si  Si23  1  0.826648  0.463998  0.539141  1
  Si  Si24  1  0.328576  0.034732  0.541749  1
  Si  Si25  1  0.826648  0.463998  0.960859  1
  Si  Si26  1  0.669526  0.965492  0.037881  1
  Si  Si27  1  0.170856  0.536902  0.461746  1
  Si  Si28  1  0.462029  0.389470  0.750000  1
  Si  Si29  1  0.961525  0.113762  0.750000  1
  Si  Si30  1  0.536437  0.618701  0.250000  1
  Si  Si31  1  0.037216  0.889251  0.250000  1
  Si  Si32  1  0.703599  0.861141  0.750000  1
  Si  Si33  1  0.202619  0.639744  0.750000  1
  Si  Si34  1  0.297217  0.142154  0.250000  1
  Sn  Sn35  1  0.802735  0.347827  0.250000  1
