# generated using pymatgen
data_Hf18NbRe7Pd2
_symmetry_space_group_name_H-M   'P 1'
_cell_length_a   8.52512000
_cell_length_b   8.71296106
_cell_length_c   8.71296000
_cell_angle_alpha   119.99845623
_cell_angle_beta   89.99918233
_cell_angle_gamma   90.00081640
_symmetry_Int_Tables_number   1
_chemical_formula_structural   Hf18NbRe7Pd2
_chemical_formula_sum   'Hf18 Nb1 Re7 Pd2'
_cell_volume   560.49195276
_cell_formula_units_Z   1
loop_
 _symmetry_equiv_pos_site_id
 _symmetry_equiv_pos_as_xyz
  1  'x, y, z'
loop_
 _atom_site_type_symbol
 _atom_site_label
 _atom_site_symmetry_multiplicity
 _atom_site_fract_x
 _atom_site_fract_y
 _atom_site_fract_z
 _atom_site_occupancy
  Hf  Hf0  1  0.553010  0.803996  0.607981  1
  Hf  Hf1  1  0.553003  0.803990  0.196010  1
  Hf  Hf2  1  0.553010  0.392019  0.196004  1
  Hf  Hf3  1  0.446990  0.196004  0.392019  1
  Hf  Hf4  1  0.446997  0.196010  0.803990  1
  Hf  Hf5  1  0.446990  0.607981  0.803996  1
  Hf  Hf6  1  0.053288  0.194014  0.388026  1
  Hf  Hf7  1  0.053270  0.194012  0.805988  1
  Hf  Hf8  1  0.053288  0.611974  0.805986  1
  Hf  Hf9  1  0.946712  0.805986  0.611974  1
  Hf  Hf10  1  0.946730  0.805988  0.194012  1
  Hf  Hf11  1  0.946712  0.388026  0.194014  1
  Hf  Hf12  1  0.750534  0.457326  0.914633  1
  Hf  Hf13  1  0.750528  0.457317  0.542683  1
  Hf  Hf14  1  0.750534  0.085367  0.542674  1
  Hf  Hf15  1  0.249466  0.542674  0.085367  1
  Hf  Hf16  1  0.249472  0.542683  0.457317  1
  Hf  Hf17  1  0.249466  0.914633  0.457326  1
  Nb  Nb18  1  0.500000  0.000000  0.000000  1
  Re  Re19  1  0.750346  0.111925  0.223839  1
  Re  Re20  1  0.750348  0.111912  0.888088  1
  Re  Re21  1  0.750346  0.776161  0.888075  1
  Re  Re22  1  0.249654  0.888075  0.776161  1
  Re  Re23  1  0.249652  0.888088  0.111912  1
  Re  Re24  1  0.249654  0.223839  0.111925  1
  Re  Re25  1  0.000000  0.000000  0.000000  1
  Pd  Pd26  1  0.751221  0.666670  0.333330  1
  Pd  Pd27  1  0.248779  0.333330  0.666670  1
