# generated using pymatgen
data_Ac3(GaPd)4
_symmetry_space_group_name_H-M   'P 1'
_cell_length_a   8.64448058
_cell_length_b   8.64448066
_cell_length_c   8.64448100
_cell_angle_alpha   150.95427283
_cell_angle_beta   127.59423611
_cell_angle_gamma   61.03351268
_symmetry_Int_Tables_number   1
_chemical_formula_structural   Ac3(GaPd)4
_chemical_formula_sum   'Ac3 Ga4 Pd4'
_cell_volume   246.47469321
_cell_formula_units_Z   1
loop_
 _symmetry_equiv_pos_site_id
 _symmetry_equiv_pos_as_xyz
  1  'x, y, z'
loop_
 _atom_site_type_symbol
 _atom_site_label
 _atom_site_symmetry_multiplicity
 _atom_site_fract_x
 _atom_site_fract_y
 _atom_site_fract_z
 _atom_site_occupancy
  Ac  Ac0  1  0.500000  0.000000  0.500000  1
  Ac  Ac1  1  0.871078  0.871078  0.000000  1
  Ac  Ac2  1  0.128922  0.128922  0.000000  1
  Ga  Ga3  1  0.485274  0.671519  0.813756  1
  Ga  Ga4  1  0.857762  0.671519  0.186244  1
  Ga  Ga5  1  0.142238  0.328481  0.813756  1
  Ga  Ga6  1  0.514726  0.328481  0.186244  1
  Pd  Pd7  1  0.286038  0.786038  0.500000  1
  Pd  Pd8  1  0.713962  0.213962  0.500000  1
  Pd  Pd9  1  0.798414  0.500000  0.298414  1
  Pd  Pd10  1  0.201586  0.500000  0.701586  1
