# generated using pymatgen
data_Li25ZnSi8
_symmetry_space_group_name_H-M   'P 1'
_cell_length_a   7.90900906
_cell_length_b   14.87513360
_cell_length_c   4.42727700
_cell_angle_alpha   90.00000000
_cell_angle_beta   90.00000000
_cell_angle_gamma   90.26254247
_symmetry_Int_Tables_number   1
_chemical_formula_structural   Li25ZnSi8
_chemical_formula_sum   'Li25 Zn1 Si8'
_cell_volume   520.85289700
_cell_formula_units_Z   1
loop_
 _symmetry_equiv_pos_site_id
 _symmetry_equiv_pos_as_xyz
  1  'x, y, z'
loop_
 _atom_site_type_symbol
 _atom_site_label
 _atom_site_symmetry_multiplicity
 _atom_site_fract_x
 _atom_site_fract_y
 _atom_site_fract_z
 _atom_site_occupancy
  Li  Li0  1  0.151092  0.021367  0.000000  1
  Li  Li1  1  0.770431  0.153671  0.000000  1
  Li  Li2  1  0.092992  0.189982  0.000000  1
  Li  Li3  1  0.595553  0.305959  0.000000  1
  Li  Li4  1  0.265993  0.349700  0.000000  1
  Li  Li5  1  0.650097  0.474825  0.000000  1
  Li  Li6  1  0.999999  0.499987  0.000000  1
  Li  Li7  1  0.349871  0.525160  0.000000  1
  Li  Li8  1  0.733974  0.650288  0.000000  1
  Li  Li9  1  0.404352  0.694032  0.000000  1
  Li  Li10  1  0.906959  0.809984  0.000000  1
  Li  Li11  1  0.229544  0.846324  0.000000  1
  Li  Li12  1  0.849208  0.978616  0.000000  1
  Li  Li13  1  0.266300  0.086385  0.500000  1
  Li  Li14  1  0.602022  0.098839  0.500000  1
  Li  Li15  1  0.902903  0.245633  0.500000  1
  Li  Li16  1  0.410126  0.250501  0.500000  1
  Li  Li17  1  0.094138  0.392861  0.500000  1
  Li  Li18  1  0.759883  0.406388  0.500000  1
  Li  Li19  1  0.240060  0.593582  0.500000  1
  Li  Li20  1  0.905812  0.607109  0.500000  1
  Li  Li21  1  0.589832  0.749526  0.500000  1
  Li  Li22  1  0.097086  0.754334  0.500000  1
  Li  Li23  1  0.398015  0.901251  0.500000  1
  Li  Li24  1  0.733698  0.913657  0.500000  1
  Zn  Zn25  1  0.500145  0.000030  0.000000  1
  Si  Si26  1  0.419481  0.154455  0.000000  1
  Si  Si27  1  0.916296  0.338327  0.000000  1
  Si  Si28  1  0.083648  0.661652  0.000000  1
  Si  Si29  1  0.580520  0.845568  0.000000  1
  Si  Si30  1  0.932460  0.071597  0.500000  1
  Si  Si31  1  0.423853  0.429327  0.500000  1
  Si  Si32  1  0.576112  0.570674  0.500000  1
  Si  Si33  1  0.067555  0.928410  0.500000  1
