# generated using pymatgen
data_Pr8Ho12Si15S
_symmetry_space_group_name_H-M   'P 1'
_cell_length_a   7.59170618
_cell_length_b   7.75301661
_cell_length_c   14.77628900
_cell_angle_alpha   89.84035087
_cell_angle_beta   86.99409154
_cell_angle_gamma   90.24583164
_symmetry_Int_Tables_number   1
_chemical_formula_structural   Pr8Ho12Si15S
_chemical_formula_sum   'Pr8 Ho12 Si15 S1'
_cell_volume   868.50348893
_cell_formula_units_Z   1
loop_
 _symmetry_equiv_pos_site_id
 _symmetry_equiv_pos_as_xyz
  1  'x, y, z'
loop_
 _atom_site_type_symbol
 _atom_site_label
 _atom_site_symmetry_multiplicity
 _atom_site_fract_x
 _atom_site_fract_y
 _atom_site_fract_z
 _atom_site_occupancy
  Pr  Pr0  1  0.000450  0.824062  0.100178  1
  Pr  Pr1  1  0.476912  0.680051  0.399537  1
  Pr  Pr2  1  0.500658  0.318647  0.901414  1
  Pr  Pr3  1  0.022385  0.178810  0.600817  1
  Pr  Pr4  1  0.002011  0.180095  0.901875  1
  Pr  Pr5  1  0.522216  0.319050  0.600115  1
  Pr  Pr6  1  0.497457  0.685028  0.099813  1
  Pr  Pr7  1  0.977068  0.818613  0.399812  1
  Ho  Ho8  1  0.668058  0.995574  0.246156  1
  Ho  Ho9  1  0.166052  0.504945  0.245053  1
  Ho  Ho10  1  0.834031  0.494163  0.750473  1
  Ho  Ho11  1  0.331844  0.005157  0.753327  1
  Ho  Ho12  1  0.649299  0.831395  0.879495  1
  Ho  Ho13  1  0.174894  0.676663  0.623802  1
  Ho  Ho14  1  0.849561  0.337344  0.116703  1
  Ho  Ho15  1  0.324705  0.177028  0.377237  1
  Ho  Ho16  1  0.350540  0.167140  0.121152  1
  Ho  Ho17  1  0.825774  0.322247  0.377277  1
  Ho  Ho18  1  0.150141  0.665317  0.882571  1
  Ho  Ho19  1  0.675519  0.822244  0.623730  1
  Si  Si20  1  0.783317  0.620755  0.250892  1
  Si  Si21  1  0.283272  0.878124  0.251513  1
  Si  Si22  1  0.715128  0.122495  0.749577  1
  Si  Si23  1  0.215282  0.377972  0.749807  1
  Si  Si24  1  0.041749  0.116763  0.250889  1
  Si  Si25  1  0.544077  0.385133  0.250791  1
  Si  Si26  1  0.457719  0.614201  0.750811  1
  Si  Si27  1  0.957516  0.881979  0.751086  1
  Si  Si28  1  0.357704  0.968136  0.541448  1
  Si  Si29  1  0.693586  0.039831  0.042093  1
  Si  Si30  1  0.143856  0.468269  0.459606  1
  Si  Si31  1  0.200169  0.461952  0.044602  1
  Si  Si32  1  0.643592  0.029963  0.458881  1
  Si  Si33  1  0.309500  0.962137  0.955484  1
  Si  Si34  1  0.857621  0.529508  0.541933  1
  S  S35  1  0.796334  0.539210  0.950046  1
