# generated using pymatgen
data_Nd3Ho5(CdPt)2
_symmetry_space_group_name_H-M   'P 1'
_cell_length_a   9.77220271
_cell_length_b   9.77220247
_cell_length_c   9.77220200
_cell_angle_alpha   60.00000159
_cell_angle_beta   60.00000240
_cell_angle_gamma   60.00000079
_symmetry_Int_Tables_number   1
_chemical_formula_structural   Nd3Ho5(CdPt)2
_chemical_formula_sum   'Nd6 Ho10 Cd4 Pt4'
_cell_volume   659.87606676
_cell_formula_units_Z   2
loop_
 _symmetry_equiv_pos_site_id
 _symmetry_equiv_pos_as_xyz
  1  'x, y, z'
loop_
 _atom_site_type_symbol
 _atom_site_label
 _atom_site_symmetry_multiplicity
 _atom_site_fract_x
 _atom_site_fract_y
 _atom_site_fract_z
 _atom_site_occupancy
  Nd  Nd0  1  0.937808  0.562192  0.562192  1
  Nd  Nd1  1  0.562192  0.937808  0.937808  1
  Nd  Nd2  1  0.562192  0.937808  0.562192  1
  Nd  Nd3  1  0.937808  0.562192  0.937808  1
  Nd  Nd4  1  0.562192  0.562192  0.937808  1
  Nd  Nd5  1  0.937808  0.937808  0.562192  1
  Ho  Ho6  1  0.349860  0.349860  0.349860  1
  Ho  Ho7  1  0.349860  0.349860  0.950420  1
  Ho  Ho8  1  0.349860  0.950420  0.349860  1
  Ho  Ho9  1  0.950420  0.349860  0.349860  1
  Ho  Ho10  1  0.811126  0.188874  0.188874  1
  Ho  Ho11  1  0.188874  0.811126  0.811126  1
  Ho  Ho12  1  0.188874  0.811126  0.188874  1
  Ho  Ho13  1  0.811126  0.188874  0.811126  1
  Ho  Ho14  1  0.188874  0.188874  0.811126  1
  Ho  Ho15  1  0.811126  0.811126  0.188874  1
  Cd  Cd16  1  0.579878  0.579878  0.579878  1
  Cd  Cd17  1  0.579878  0.579878  0.260367  1
  Cd  Cd18  1  0.579878  0.260367  0.579878  1
  Cd  Cd19  1  0.260367  0.579878  0.579878  1
  Pt  Pt20  1  0.142243  0.142243  0.142243  1
  Pt  Pt21  1  0.142243  0.142243  0.573271  1
  Pt  Pt22  1  0.142243  0.573271  0.142243  1
  Pt  Pt23  1  0.573271  0.142243  0.142243  1
