# generated using pymatgen
data_DyTm5FeBi2
_symmetry_space_group_name_H-M   'P 1'
_cell_length_a   8.24979500
_cell_length_b   8.23281620
_cell_length_c   4.15408900
_cell_angle_alpha   90.00000000
_cell_angle_beta   90.00000000
_cell_angle_gamma   120.06825695
_symmetry_Int_Tables_number   1
_chemical_formula_structural   DyTm5FeBi2
_chemical_formula_sum   'Dy1 Tm5 Fe1 Bi2'
_cell_volume   244.17370056
_cell_formula_units_Z   1
loop_
 _symmetry_equiv_pos_site_id
 _symmetry_equiv_pos_as_xyz
  1  'x, y, z'
loop_
 _atom_site_type_symbol
 _atom_site_label
 _atom_site_symmetry_multiplicity
 _atom_site_fract_x
 _atom_site_fract_y
 _atom_site_fract_z
 _atom_site_occupancy
  Dy  Dy0  1  0.611534  0.000000  0.000000  1
  Tm  Tm1  1  0.230062  0.000000  0.500000  1
  Tm  Tm2  1  0.001064  0.230730  0.500000  1
  Tm  Tm3  1  0.770334  0.769270  0.500000  1
  Tm  Tm4  1  0.999839  0.612735  0.000000  1
  Tm  Tm5  1  0.387104  0.387265  0.000000  1
  Fe  Fe6  1  0.001229  0.000000  0.000000  1
  Bi  Bi7  1  0.332177  0.665521  0.500000  1
  Bi  Bi8  1  0.666657  0.334479  0.500000  1
