# generated using pymatgen
data_Ba2AgSn4Hg3
_symmetry_space_group_name_H-M   'P 1'
_cell_length_a   5.01008100
_cell_length_b   5.01008100
_cell_length_c   11.91616300
_cell_angle_alpha   90.00000000
_cell_angle_beta   90.00000000
_cell_angle_gamma   90.00000000
_symmetry_Int_Tables_number   1
_chemical_formula_structural   Ba2AgSn4Hg3
_chemical_formula_sum   'Ba2 Ag1 Sn4 Hg3'
_cell_volume   299.10655439
_cell_formula_units_Z   1
loop_
 _symmetry_equiv_pos_site_id
 _symmetry_equiv_pos_as_xyz
  1  'x, y, z'
loop_
 _atom_site_type_symbol
 _atom_site_label
 _atom_site_symmetry_multiplicity
 _atom_site_fract_x
 _atom_site_fract_y
 _atom_site_fract_z
 _atom_site_occupancy
  Ba  Ba0  1  0.000000  0.500000  0.756367  1
  Ba  Ba1  1  0.500000  0.000000  0.240013  1
  Ag  Ag2  1  0.000000  0.500000  0.371238  1
  Sn  Sn3  1  0.500000  0.000000  0.871456  1
  Sn  Sn4  1  0.000000  0.500000  0.136535  1
  Sn  Sn5  1  0.500000  0.500000  0.492438  1
  Sn  Sn6  1  0.000000  0.000000  0.492438  1
  Hg  Hg7  1  0.500000  0.000000  0.634115  1
  Hg  Hg8  1  0.500000  0.500000  0.002701  1
  Hg  Hg9  1  0.000000  0.000000  0.002701  1
