# generated using pymatgen
data_Ho3MgZrInIr3
_symmetry_space_group_name_H-M   'P 1'
_cell_length_a   7.33099919
_cell_length_b   7.16260796
_cell_length_c   4.20648900
_cell_angle_alpha   90.00000000
_cell_angle_beta   90.00000000
_cell_angle_gamma   118.82584742
_symmetry_Int_Tables_number   1
_chemical_formula_structural   Ho3MgZrInIr3
_chemical_formula_sum   'Ho3 Mg1 Zr1 In1 Ir3'
_cell_volume   193.50957845
_cell_formula_units_Z   1
loop_
 _symmetry_equiv_pos_site_id
 _symmetry_equiv_pos_as_xyz
  1  'x, y, z'
loop_
 _atom_site_type_symbol
 _atom_site_label
 _atom_site_symmetry_multiplicity
 _atom_site_fract_x
 _atom_site_fract_y
 _atom_site_fract_z
 _atom_site_occupancy
  Ho  Ho0  1  0.581418  0.591135  0.000000  1
  Ho  Ho1  1  0.419151  0.004016  0.000000  1
  Ho  Ho2  1  0.996859  0.393168  0.000000  1
  Mg  Mg3  1  0.249382  0.249460  0.500000  1
  Zr  Zr4  1  0.000545  0.751761  0.500000  1
  In  In5  1  0.749682  0.001346  0.500000  1
  Ir  Ir6  1  0.007664  0.984871  0.000000  1
  Ir  Ir7  1  0.672865  0.353823  0.500000  1
  Ir  Ir8  1  0.322433  0.670421  0.500000  1
