# generated using pymatgen
data_Ca4Ta3Ga4SbO20
_symmetry_space_group_name_H-M   'P 1'
_cell_length_a   9.17726207
_cell_length_b   6.75565883
_cell_length_c   7.78399900
_cell_angle_alpha   61.37205809
_cell_angle_beta   90.09535689
_cell_angle_gamma   89.66248207
_symmetry_Int_Tables_number   1
_chemical_formula_structural   Ca4Ta3Ga4SbO20
_chemical_formula_sum   'Ca4 Ta3 Ga4 Sb1 O20'
_cell_volume   423.58537608
_cell_formula_units_Z   1
loop_
 _symmetry_equiv_pos_site_id
 _symmetry_equiv_pos_as_xyz
  1  'x, y, z'
loop_
 _atom_site_type_symbol
 _atom_site_label
 _atom_site_symmetry_multiplicity
 _atom_site_fract_x
 _atom_site_fract_y
 _atom_site_fract_z
 _atom_site_occupancy
  Ca  Ca0  1  0.665873  0.710263  0.282264  1
  Ca  Ca1  1  0.832941  0.706073  0.784654  1
  Ca  Ca2  1  0.334127  0.289737  0.717736  1
  Ca  Ca3  1  0.167059  0.293927  0.215346  1
  Ta  Ta4  1  0.500000  0.000000  0.500000  1
  Ta  Ta5  1  0.500000  0.500000  0.000000  1
  Ta  Ta6  1  0.000000  0.500000  0.500000  1
  Ga  Ga7  1  0.184382  0.766526  0.747121  1
  Ga  Ga8  1  0.686610  0.238430  0.752235  1
  Ga  Ga9  1  0.313390  0.761570  0.247765  1
  Ga  Ga10  1  0.815618  0.233474  0.252879  1
  Sb  Sb11  1  0.000000  0.000000  0.000000  1
  O  O12  1  0.802756  0.987038  0.890032  1
  O  O13  1  0.561030  0.239779  0.564655  1
  O  O14  1  0.923991  0.757906  0.253881  1
  O  O15  1  0.438970  0.760221  0.435345  1
  O  O16  1  0.696193  0.990746  0.387891  1
  O  O17  1  0.200317  0.507097  0.392302  1
  O  O18  1  0.426066  0.244034  0.246306  1
  O  O19  1  0.700825  0.490033  0.109186  1
  O  O20  1  0.799683  0.492903  0.607698  1
  O  O21  1  0.551973  0.282439  0.906429  1
  O  O22  1  0.948529  0.282228  0.406306  1
  O  O23  1  0.058436  0.753717  0.940159  1
  O  O24  1  0.941564  0.246283  0.059841  1
  O  O25  1  0.573934  0.755966  0.753694  1
  O  O26  1  0.051471  0.717772  0.593694  1
  O  O27  1  0.448027  0.717561  0.093571  1
  O  O28  1  0.299175  0.509967  0.890814  1
  O  O29  1  0.303807  0.009254  0.612109  1
  O  O30  1  0.076009  0.242094  0.746119  1
  O  O31  1  0.197244  0.012962  0.109968  1
