# generated using pymatgen
data_YPa3(Co3Si5)2
_symmetry_space_group_name_H-M   'P 1'
_cell_length_a   7.87132807
_cell_length_b   7.89563830
_cell_length_c   7.89563845
_cell_angle_alpha   138.13424009
_cell_angle_beta   104.87043133
_cell_angle_gamma   89.96813491
_symmetry_Int_Tables_number   1
_chemical_formula_structural   YPa3(Co3Si5)2
_chemical_formula_sum   'Y1 Pa3 Co6 Si10'
_cell_volume   302.39575418
_cell_formula_units_Z   1
loop_
 _symmetry_equiv_pos_site_id
 _symmetry_equiv_pos_as_xyz
  1  'x, y, z'
loop_
 _atom_site_type_symbol
 _atom_site_label
 _atom_site_symmetry_multiplicity
 _atom_site_fract_x
 _atom_site_fract_y
 _atom_site_fract_z
 _atom_site_occupancy
  Y  Y0  1  0.397640  0.131504  0.266135  1
  Pa  Pa1  1  0.868318  0.633507  0.234811  1
  Pa  Pa2  1  0.134182  0.368301  0.765881  1
  Pa  Pa3  1  0.599426  0.865850  0.733577  1
  Co  Co4  1  0.997301  0.252085  0.251630  1
  Co  Co5  1  0.758495  0.140059  0.618437  1
  Co  Co6  1  0.523136  0.637119  0.886017  1
  Co  Co7  1  0.479170  0.364744  0.114426  1
  Co  Co8  1  0.997301  0.745670  0.745215  1
  Co  Co9  1  0.242980  0.859781  0.383198  1
  Si  Si10  1  0.047453  0.896872  0.150581  1
  Si  Si11  1  0.954068  0.104157  0.849911  1
  Si  Si12  1  0.258030  0.605903  0.652126  1
  Si  Si13  1  0.741696  0.394544  0.347152  1
  Si  Si14  1  0.232723  0.983576  0.752721  1
  Si  Si15  1  0.767084  0.518671  0.750700  1
  Si  Si16  1  0.767084  0.016384  0.248414  1
  Si  Si17  1  0.500596  0.248126  0.747451  1
  Si  Si18  1  0.500596  0.753145  0.252469  1
  Si  Si19  1  0.232723  0.480002  0.249148  1
