# generated using pymatgen
data_KAl3In2F12
_symmetry_space_group_name_H-M   'P 1'
_cell_length_a   7.44421923
_cell_length_b   7.44421937
_cell_length_c   7.44421900
_cell_angle_alpha   56.18662073
_cell_angle_beta   56.18662927
_cell_angle_gamma   56.18661931
_symmetry_Int_Tables_number   1
_chemical_formula_structural   KAl3In2F12
_chemical_formula_sum   'K1 Al3 In2 F12'
_cell_volume   265.95543466
_cell_formula_units_Z   1
loop_
 _symmetry_equiv_pos_site_id
 _symmetry_equiv_pos_as_xyz
  1  'x, y, z'
loop_
 _atom_site_type_symbol
 _atom_site_label
 _atom_site_symmetry_multiplicity
 _atom_site_fract_x
 _atom_site_fract_y
 _atom_site_fract_z
 _atom_site_occupancy
  K  K0  1  0.000000  0.000000  0.000000  1
  Al  Al1  1  0.500000  0.000000  0.000000  1
  Al  Al2  1  0.000000  0.000000  0.500000  1
  Al  Al3  1  0.000000  0.500000  0.000000  1
  In  In4  1  0.644606  0.644606  0.644606  1
  In  In5  1  0.355394  0.355394  0.355394  1
  F  F6  1  0.116584  0.116584  0.552302  1
  F  F7  1  0.552302  0.116584  0.116584  1
  F  F8  1  0.116584  0.552302  0.116584  1
  F  F9  1  0.883416  0.447698  0.883416  1
  F  F10  1  0.883416  0.883416  0.447698  1
  F  F11  1  0.447698  0.883416  0.883416  1
  F  F12  1  0.906510  0.278767  0.278767  1
  F  F13  1  0.278767  0.278767  0.906510  1
  F  F14  1  0.278767  0.906510  0.278767  1
  F  F15  1  0.721233  0.093490  0.721233  1
  F  F16  1  0.093490  0.721233  0.721233  1
  F  F17  1  0.721233  0.721233  0.093490  1
