# generated using pymatgen
data_V8FeRhS16
_symmetry_space_group_name_H-M   'P 1'
_cell_length_a   6.35616300
_cell_length_b   6.35616221
_cell_length_c   11.31810800
_cell_angle_alpha   90.00000000
_cell_angle_beta   90.00000000
_cell_angle_gamma   119.99999893
_symmetry_Int_Tables_number   1
_chemical_formula_structural   V8FeRhS16
_chemical_formula_sum   'V8 Fe1 Rh1 S16'
_cell_volume   395.99934507
_cell_formula_units_Z   1
loop_
 _symmetry_equiv_pos_site_id
 _symmetry_equiv_pos_as_xyz
  1  'x, y, z'
loop_
 _atom_site_type_symbol
 _atom_site_label
 _atom_site_symmetry_multiplicity
 _atom_site_fract_x
 _atom_site_fract_y
 _atom_site_fract_z
 _atom_site_occupancy
  V  V0  1  0.491402  0.982805  0.755320  1
  V  V1  1  0.508598  0.017195  0.244680  1
  V  V2  1  0.982805  0.491402  0.244680  1
  V  V3  1  0.491402  0.508598  0.755320  1
  V  V4  1  0.508598  0.491402  0.244680  1
  V  V5  1  0.017195  0.508598  0.755320  1
  V  V6  1  0.000000  0.000000  0.245453  1
  V  V7  1  0.000000  0.000000  0.754547  1
  Fe  Fe8  1  0.000000  0.000000  0.000000  1
  Rh  Rh9  1  0.000000  0.000000  0.500000  1
  S  S10  1  0.165343  0.834657  0.118124  1
  S  S11  1  0.660838  0.830419  0.372098  1
  S  S12  1  0.666667  0.333333  0.379948  1
  S  S13  1  0.834657  0.165343  0.881876  1
  S  S14  1  0.669314  0.834657  0.118124  1
  S  S15  1  0.330686  0.165343  0.881876  1
  S  S16  1  0.666667  0.333333  0.109814  1
  S  S17  1  0.830419  0.660838  0.627902  1
  S  S18  1  0.339162  0.169581  0.627902  1
  S  S19  1  0.169581  0.339162  0.372098  1
  S  S20  1  0.165343  0.330686  0.118124  1
  S  S21  1  0.834657  0.669314  0.881876  1
  S  S22  1  0.830419  0.169581  0.627902  1
  S  S23  1  0.169581  0.830419  0.372098  1
  S  S24  1  0.333333  0.666667  0.890186  1
  S  S25  1  0.333333  0.666667  0.620052  1
