# generated using pymatgen
data_KLuMnS3
_symmetry_space_group_name_H-M   'P 1'
_cell_length_a   7.40062060
_cell_length_b   7.40061980
_cell_length_c   10.44858500
_cell_angle_alpha   90.00000000
_cell_angle_beta   90.00000000
_cell_angle_gamma   31.19642831
_symmetry_Int_Tables_number   1
_chemical_formula_structural   KLuMnS3
_chemical_formula_sum   'K2 Lu2 Mn2 S6'
_cell_volume   296.41584256
_cell_formula_units_Z   2
loop_
 _symmetry_equiv_pos_site_id
 _symmetry_equiv_pos_as_xyz
  1  'x, y, z'
loop_
 _atom_site_type_symbol
 _atom_site_label
 _atom_site_symmetry_multiplicity
 _atom_site_fract_x
 _atom_site_fract_y
 _atom_site_fract_z
 _atom_site_occupancy
  K  K0  1  0.742678  0.742678  0.250000  1
  K  K1  1  0.257323  0.257323  0.750000  1
  Lu  Lu2  1  0.000000  0.000000  0.000000  1
  Lu  Lu3  1  0.000000  0.000000  0.500000  1
  Mn  Mn4  1  0.461673  0.461673  0.250000  1
  Mn  Mn5  1  0.538328  0.538328  0.750000  1
  S  S6  1  0.377943  0.377943  0.058492  1
  S  S7  1  0.059783  0.059783  0.250000  1
  S  S8  1  0.377943  0.377943  0.441509  1
  S  S9  1  0.622058  0.622058  0.558491  1
  S  S10  1  0.940219  0.940219  0.750000  1
  S  S11  1  0.622058  0.622058  0.941508  1
