# generated using pymatgen
data_Nd4Al7(SiPt2)3
_symmetry_space_group_name_H-M   'P 1'
_cell_length_a   8.47987900
_cell_length_b   8.48012356
_cell_length_c   8.48012332
_cell_angle_alpha   137.94611841
_cell_angle_beta   103.38450562
_cell_angle_gamma   91.49028437
_symmetry_Int_Tables_number   1
_chemical_formula_structural   Nd4Al7(SiPt2)3
_chemical_formula_sum   'Nd4 Al7 Si3 Pt6'
_cell_volume   378.60714809
_cell_formula_units_Z   1
loop_
 _symmetry_equiv_pos_site_id
 _symmetry_equiv_pos_as_xyz
  1  'x, y, z'
loop_
 _atom_site_type_symbol
 _atom_site_label
 _atom_site_symmetry_multiplicity
 _atom_site_fract_x
 _atom_site_fract_y
 _atom_site_fract_z
 _atom_site_occupancy
  Nd  Nd0  1  0.871038  0.627819  0.243220  1
  Nd  Nd1  1  0.130872  0.369107  0.761764  1
  Nd  Nd2  1  0.392971  0.132771  0.260201  1
  Nd  Nd3  1  0.614220  0.871026  0.743194  1
  Al  Al4  1  0.500278  0.751230  0.249050  1
  Al  Al5  1  0.500278  0.251228  0.749047  1
  Al  Al6  1  0.238837  0.987395  0.750441  1
  Al  Al7  1  0.757991  0.503630  0.743259  1
  Al  Al8  1  0.757991  0.014733  0.254361  1
  Al  Al9  1  0.238837  0.488397  0.251442  1
  Al  Al10  1  0.037010  0.893430  0.143580  1
  Si  Si11  1  0.967961  0.110749  0.857211  1
  Si  Si12  1  0.741640  0.387217  0.354423  1
  Si  Si13  1  0.253025  0.608354  0.644671  1
  Pt  Pt14  1  0.997660  0.747250  0.740992  1
  Pt  Pt15  1  0.997660  0.256668  0.250410  1
  Pt  Pt16  1  0.243892  0.867985  0.375909  1
  Pt  Pt17  1  0.759280  0.129717  0.629562  1
  Pt  Pt18  1  0.495123  0.368937  0.126186  1
  Pt  Pt19  1  0.503436  0.632358  0.871079  1
