# generated using pymatgen
data_Mn4As3Rh2
_symmetry_space_group_name_H-M   'P 1'
_cell_length_a   3.58747100
_cell_length_b   6.48609686
_cell_length_c   6.48609880
_cell_angle_alpha   59.65483572
_cell_angle_beta   90.00000000
_cell_angle_gamma   90.00000000
_symmetry_Int_Tables_number   1
_chemical_formula_structural   Mn4As3Rh2
_chemical_formula_sum   'Mn4 As3 Rh2'
_cell_volume   130.24617155
_cell_formula_units_Z   1
loop_
 _symmetry_equiv_pos_site_id
 _symmetry_equiv_pos_as_xyz
  1  'x, y, z'
loop_
 _atom_site_type_symbol
 _atom_site_label
 _atom_site_symmetry_multiplicity
 _atom_site_fract_x
 _atom_site_fract_y
 _atom_site_fract_z
 _atom_site_occupancy
  Mn  Mn0  1  0.500000  0.586803  0.413197  1
  Mn  Mn1  1  0.500000  0.407401  0.994846  1
  Mn  Mn2  1  0.500000  0.005154  0.592599  1
  Mn  Mn3  1  0.000000  0.257468  0.742532  1
  As  As4  1  0.000000  0.330931  0.341807  1
  As  As5  1  0.000000  0.658193  0.669069  1
  As  As6  1  0.500000  0.011511  0.988489  1
  Rh  Rh7  1  0.000000  0.740905  0.998467  1
  Rh  Rh8  1  0.000000  0.001533  0.259095  1
