# generated using pymatgen
data_TcSn8RuAu2
_symmetry_space_group_name_H-M   'P 1'
_cell_length_a   6.76341100
_cell_length_b   6.76341100
_cell_length_c   6.03968100
_cell_angle_alpha   90.00000000
_cell_angle_beta   90.00000000
_cell_angle_gamma   90.00000000
_symmetry_Int_Tables_number   1
_chemical_formula_structural   TcSn8RuAu2
_chemical_formula_sum   'Tc1 Sn8 Ru1 Au2'
_cell_volume   276.27752701
_cell_formula_units_Z   1
loop_
 _symmetry_equiv_pos_site_id
 _symmetry_equiv_pos_as_xyz
  1  'x, y, z'
loop_
 _atom_site_type_symbol
 _atom_site_label
 _atom_site_symmetry_multiplicity
 _atom_site_fract_x
 _atom_site_fract_y
 _atom_site_fract_z
 _atom_site_occupancy
  Tc  Tc0  1  0.500000  0.500000  0.250000  1
  Sn  Sn1  1  0.370502  0.181477  0.999545  1
  Sn  Sn2  1  0.629498  0.818523  0.999545  1
  Sn  Sn3  1  0.181477  0.629498  0.999545  1
  Sn  Sn4  1  0.370502  0.818523  0.500455  1
  Sn  Sn5  1  0.818523  0.370502  0.999545  1
  Sn  Sn6  1  0.629498  0.181477  0.500455  1
  Sn  Sn7  1  0.181477  0.370502  0.500455  1
  Sn  Sn8  1  0.818523  0.629498  0.500455  1
  Ru  Ru9  1  0.500000  0.500000  0.750000  1
  Au  Au10  1  0.000000  0.000000  0.998831  1
  Au  Au11  1  0.000000  0.000000  0.501169  1
