# generated using pymatgen
data_Pr4Hf3IrF28
_symmetry_space_group_name_H-M   'P 1'
_cell_length_a   5.78471726
_cell_length_b   9.33673476
_cell_length_c   12.52957825
_cell_angle_alpha   62.01369397
_cell_angle_beta   89.62761351
_cell_angle_gamma   89.94007226
_symmetry_Int_Tables_number   1
_chemical_formula_structural   Pr4Hf3IrF28
_chemical_formula_sum   'Pr4 Hf3 Ir1 F28'
_cell_volume   597.57637726
_cell_formula_units_Z   1
loop_
 _symmetry_equiv_pos_site_id
 _symmetry_equiv_pos_as_xyz
  1  'x, y, z'
loop_
 _atom_site_type_symbol
 _atom_site_label
 _atom_site_symmetry_multiplicity
 _atom_site_fract_x
 _atom_site_fract_y
 _atom_site_fract_z
 _atom_site_occupancy
  Pr  Pr0  1  0.757791  0.812317  0.765214  1
  Pr  Pr1  1  0.259051  0.188674  0.731896  1
  Pr  Pr2  1  0.239258  0.188614  0.238896  1
  Pr  Pr3  1  0.742350  0.811568  0.265602  1
  Hf  Hf4  1  0.754467  0.273717  0.957516  1
  Hf  Hf5  1  0.255182  0.725179  0.543200  1
  Hf  Hf6  1  0.245349  0.725891  0.043096  1
  Ir  Ir7  1  0.742269  0.273835  0.456621  1
  F  F8  1  0.452806  0.710628  0.920114  1
  F  F9  1  0.930067  0.290674  0.579841  1
  F  F10  1  0.544312  0.287951  0.080007  1
  F  F11  1  0.050019  0.711805  0.419914  1
  F  F12  1  0.452625  0.281948  0.541668  1
  F  F13  1  0.958220  0.719042  0.954500  1
  F  F14  1  0.544124  0.716356  0.455785  1
  F  F15  1  0.038935  0.280266  0.047823  1
  F  F16  1  0.769898  0.516315  0.862559  1
  F  F17  1  0.266442  0.482834  0.637379  1
  F  F18  1  0.229184  0.483846  0.138455  1
  F  F19  1  0.734771  0.509335  0.362498  1
  F  F20  1  0.760849  0.031473  0.055434  1
  F  F21  1  0.262966  0.967036  0.446909  1
  F  F22  1  0.238949  0.967517  0.943441  1
  F  F23  1  0.742011  0.038202  0.547242  1
  F  F24  1  0.978697  0.731359  0.638413  1
  F  F25  1  0.483057  0.267905  0.860157  1
  F  F26  1  0.026792  0.270792  0.366989  1
  F  F27  1  0.519669  0.731028  0.138822  1
  F  F28  1  0.047617  0.745173  0.168488  1
  F  F29  1  0.557785  0.259335  0.330950  1
  F  F30  1  0.957267  0.255862  0.832626  1
  F  F31  1  0.454274  0.743662  0.668251  1
  F  F32  1  0.411692  0.968083  0.233169  1
  F  F33  1  0.911261  0.031147  0.269974  1
  F  F34  1  0.589928  0.033200  0.767971  1
  F  F35  1  0.090065  0.967433  0.728582  1
