# generated using pymatgen
data_KBaMnP4Rh3
_symmetry_space_group_name_H-M   'P 1'
_cell_length_a   6.93975289
_cell_length_b   6.98355033
_cell_length_c   5.59851100
_cell_angle_alpha   90.00000000
_cell_angle_beta   90.00000000
_cell_angle_gamma   132.71167850
_symmetry_Int_Tables_number   1
_chemical_formula_structural   KBaMnP4Rh3
_chemical_formula_sum   'K1 Ba1 Mn1 P4 Rh3'
_cell_volume   199.36456994
_cell_formula_units_Z   1
loop_
 _symmetry_equiv_pos_site_id
 _symmetry_equiv_pos_as_xyz
  1  'x, y, z'
loop_
 _atom_site_type_symbol
 _atom_site_label
 _atom_site_symmetry_multiplicity
 _atom_site_fract_x
 _atom_site_fract_y
 _atom_site_fract_z
 _atom_site_occupancy
  K  K0  1  0.000000  0.000000  0.994782  1
  Ba  Ba1  1  0.500000  0.500000  0.506991  1
  Mn  Mn2  1  0.500000  0.000000  0.249403  1
  P  P3  1  0.640050  0.329819  0.013958  1
  P  P4  1  0.167224  0.857307  0.485591  1
  P  P5  1  0.832776  0.142693  0.485591  1
  P  P6  1  0.359950  0.670181  0.013958  1
  Rh  Rh7  1  0.500000  0.000000  0.749750  1
  Rh  Rh8  1  0.000000  0.500000  0.249980  1
  Rh  Rh9  1  0.000000  0.500000  0.749997  1
