# generated using pymatgen
data_Y(TlCl2)3
_symmetry_space_group_name_H-M   'P 1'
_cell_length_a   8.95738300
_cell_length_b   8.95738300
_cell_length_c   7.48475800
_cell_angle_alpha   90.00000000
_cell_angle_beta   90.00000000
_cell_angle_gamma   90.00000000
_symmetry_Int_Tables_number   1
_chemical_formula_structural   Y(TlCl2)3
_chemical_formula_sum   'Y2 Tl6 Cl12'
_cell_volume   600.53738911
_cell_formula_units_Z   2
loop_
 _symmetry_equiv_pos_site_id
 _symmetry_equiv_pos_as_xyz
  1  'x, y, z'
loop_
 _atom_site_type_symbol
 _atom_site_label
 _atom_site_symmetry_multiplicity
 _atom_site_fract_x
 _atom_site_fract_y
 _atom_site_fract_z
 _atom_site_occupancy
  Y  Y0  1  0.500000  0.000000  0.000000  1
  Y  Y1  1  0.000000  0.500000  0.500000  1
  Tl  Tl2  1  0.500000  0.500000  0.000000  1
  Tl  Tl3  1  0.500000  0.500000  0.500000  1
  Tl  Tl4  1  0.054181  0.269750  0.000000  1
  Tl  Tl5  1  0.945818  0.730249  0.000000  1
  Tl  Tl6  1  0.730249  0.054181  0.500000  1
  Tl  Tl7  1  0.269750  0.945818  0.500000  1
  Cl  Cl8  1  0.201156  0.545331  0.248248  1
  Cl  Cl9  1  0.798844  0.454670  0.248248  1
  Cl  Cl10  1  0.454670  0.201156  0.748248  1
  Cl  Cl11  1  0.545331  0.798844  0.748248  1
  Cl  Cl12  1  0.798844  0.454670  0.751752  1
  Cl  Cl13  1  0.201156  0.545331  0.751752  1
  Cl  Cl14  1  0.545331  0.798844  0.251752  1
  Cl  Cl15  1  0.454670  0.201156  0.251752  1
  Cl  Cl16  1  0.047632  0.209492  0.500000  1
  Cl  Cl17  1  0.952366  0.790508  0.500000  1
  Cl  Cl18  1  0.790508  0.047632  0.000000  1
  Cl  Cl19  1  0.209492  0.952366  0.000000  1
