# generated using pymatgen
data_MgFe4HgCl16
_symmetry_space_group_name_H-M   'P 1'
_cell_length_a   10.16476395
_cell_length_b   10.16476371
_cell_length_c   12.14264800
_cell_angle_alpha   56.08933895
_cell_angle_beta   56.08933985
_cell_angle_gamma   49.00850541
_symmetry_Int_Tables_number   1
_chemical_formula_structural   MgFe4HgCl16
_chemical_formula_sum   'Mg1 Fe4 Hg1 Cl16'
_cell_volume   748.10745267
_cell_formula_units_Z   1
loop_
 _symmetry_equiv_pos_site_id
 _symmetry_equiv_pos_as_xyz
  1  'x, y, z'
loop_
 _atom_site_type_symbol
 _atom_site_label
 _atom_site_symmetry_multiplicity
 _atom_site_fract_x
 _atom_site_fract_y
 _atom_site_fract_z
 _atom_site_occupancy
  Mg  Mg0  1  0.004402  0.995598  0.250000  1
  Fe  Fe1  1  0.156854  0.680099  0.526237  1
  Fe  Fe2  1  0.319901  0.843146  0.973763  1
  Fe  Fe3  1  0.842928  0.320281  0.466605  1
  Fe  Fe4  1  0.679719  0.157072  0.033395  1
  Hg  Hg5  1  0.001858  0.998142  0.750000  1
  Cl  Cl6  1  0.299581  0.396115  0.547356  1
  Cl  Cl7  1  0.603885  0.700419  0.952644  1
  Cl  Cl8  1  0.699738  0.604600  0.445606  1
  Cl  Cl9  1  0.395400  0.300262  0.054394  1
  Cl  Cl10  1  0.880148  0.836844  0.501673  1
  Cl  Cl11  1  0.163156  0.119852  0.998327  1
  Cl  Cl12  1  0.123525  0.175587  0.479625  1
  Cl  Cl13  1  0.824413  0.876475  0.020375  1
  Cl  Cl14  1  0.146349  0.685506  0.712779  1
  Cl  Cl15  1  0.314494  0.853651  0.787221  1
  Cl  Cl16  1  0.862902  0.293295  0.285589  1
  Cl  Cl17  1  0.706705  0.137098  0.214411  1
  Cl  Cl18  1  0.281750  0.837818  0.323500  1
  Cl  Cl19  1  0.162182  0.718250  0.176500  1
  Cl  Cl20  1  0.704438  0.174330  0.667734  1
  Cl  Cl21  1  0.825670  0.295562  0.832266  1
