# generated using pymatgen
data_Gd4ReB16W3
_symmetry_space_group_name_H-M   'P 1'
_cell_length_a   3.63791900
_cell_length_b   6.04787808
_cell_length_c   11.70524665
_cell_angle_alpha   90.00960844
_cell_angle_beta   90.00000000
_cell_angle_gamma   90.00000000
_symmetry_Int_Tables_number   1
_chemical_formula_structural   Gd4ReB16W3
_chemical_formula_sum   'Gd4 Re1 B16 W3'
_cell_volume   257.53521152
_cell_formula_units_Z   1
loop_
 _symmetry_equiv_pos_site_id
 _symmetry_equiv_pos_as_xyz
  1  'x, y, z'
loop_
 _atom_site_type_symbol
 _atom_site_label
 _atom_site_symmetry_multiplicity
 _atom_site_fract_x
 _atom_site_fract_y
 _atom_site_fract_z
 _atom_site_occupancy
  Gd  Gd0  1  0.000000  0.626660  0.349760  1
  Gd  Gd1  1  0.000000  0.374488  0.650333  1
  Gd  Gd2  1  0.000000  0.126423  0.149998  1
  Gd  Gd3  1  0.000000  0.873837  0.849701  1
  Re  Re4  1  0.000000  0.869312  0.585048  1
  B  B5  1  0.500000  0.786565  0.185999  1
  B  B6  1  0.500000  0.212465  0.813427  1
  B  B7  1  0.500000  0.285977  0.314293  1
  B  B8  1  0.500000  0.716226  0.684436  1
  B  B9  1  0.500000  0.865762  0.032152  1
  B  B10  1  0.500000  0.134071  0.967284  1
  B  B11  1  0.500000  0.365368  0.469143  1
  B  B12  1  0.500000  0.636740  0.532802  1
  B  B13  1  0.500000  0.884436  0.454340  1
  B  B14  1  0.500000  0.112209  0.548502  1
  B  B15  1  0.500000  0.385610  0.046501  1
  B  B16  1  0.500000  0.614057  0.952619  1
  B  B17  1  0.500000  0.974977  0.308074  1
  B  B18  1  0.500000  0.022689  0.691746  1
  B  B19  1  0.500000  0.475616  0.192671  1
  B  B20  1  0.500000  0.525184  0.806602  1
  W  W21  1  0.000000  0.629718  0.084456  1
  W  W22  1  0.000000  0.370337  0.914388  1
  W  W23  1  0.000000  0.131269  0.415727  1
