# generated using pymatgen
data_Tm4Tc6MoW
_symmetry_space_group_name_H-M   'P 1'
_cell_length_a   5.36133620
_cell_length_b   5.36133786
_cell_length_c   8.91737600
_cell_angle_alpha   90.00000000
_cell_angle_beta   90.00000000
_cell_angle_gamma   119.57805379
_symmetry_Int_Tables_number   1
_chemical_formula_structural   Tm4Tc6MoW
_chemical_formula_sum   'Tm4 Tc6 Mo1 W1'
_cell_volume   222.91783074
_cell_formula_units_Z   1
loop_
 _symmetry_equiv_pos_site_id
 _symmetry_equiv_pos_as_xyz
  1  'x, y, z'
loop_
 _atom_site_type_symbol
 _atom_site_label
 _atom_site_symmetry_multiplicity
 _atom_site_fract_x
 _atom_site_fract_y
 _atom_site_fract_z
 _atom_site_occupancy
  Tm  Tm0  1  0.333820  0.666180  0.438145  1
  Tm  Tm1  1  0.666410  0.333590  0.560317  1
  Tm  Tm2  1  0.666410  0.333590  0.939683  1
  Tm  Tm3  1  0.333820  0.666180  0.061855  1
  Tc  Tc4  1  0.000164  0.999836  0.504150  1
  Tc  Tc5  1  0.000164  0.999836  0.995850  1
  Tc  Tc6  1  0.829473  0.654942  0.250000  1
  Tc  Tc7  1  0.345058  0.170527  0.250000  1
  Tc  Tc8  1  0.173546  0.349120  0.750000  1
  Tc  Tc9  1  0.650880  0.826454  0.750000  1
  Mo  Mo10  1  0.833821  0.166179  0.250000  1
  W  W11  1  0.166436  0.833564  0.750000  1
