# generated using pymatgen
data_Y5Tm5(AlBi)3
_symmetry_space_group_name_H-M   'P 1'
_cell_length_a   8.79299900
_cell_length_b   8.82037131
_cell_length_c   6.41652300
_cell_angle_alpha   90.00000000
_cell_angle_beta   90.00000000
_cell_angle_gamma   119.94224856
_symmetry_Int_Tables_number   1
_chemical_formula_structural   Y5Tm5(AlBi)3
_chemical_formula_sum   'Y5 Tm5 Al3 Bi3'
_cell_volume   431.22776810
_cell_formula_units_Z   1
loop_
 _symmetry_equiv_pos_site_id
 _symmetry_equiv_pos_as_xyz
  1  'x, y, z'
loop_
 _atom_site_type_symbol
 _atom_site_label
 _atom_site_symmetry_multiplicity
 _atom_site_fract_x
 _atom_site_fract_y
 _atom_site_fract_z
 _atom_site_occupancy
  Y  Y0  1  0.233121  0.986224  0.250000  1
  Y  Y1  1  0.758027  0.001050  0.750000  1
  Y  Y2  1  0.984879  0.233073  0.250000  1
  Y  Y3  1  0.766857  0.766990  0.250000  1
  Y  Y4  1  0.242538  0.227953  0.750000  1
  Tm  Tm5  1  0.333387  0.685527  0.003906  1
  Tm  Tm6  1  0.665109  0.321039  0.495960  1
  Tm  Tm7  1  0.665109  0.321039  0.004040  1
  Tm  Tm8  1  0.333387  0.685527  0.496094  1
  Tm  Tm9  1  0.016478  0.773328  0.750000  1
  Al  Al10  1  0.597684  0.998380  0.250000  1
  Al  Al11  1  0.406142  0.003869  0.750000  1
  Al  Al12  1  0.993266  0.597183  0.250000  1
  Bi  Bi13  1  0.387502  0.393029  0.250000  1
  Bi  Bi14  1  0.610454  0.605786  0.750000  1
  Bi  Bi15  1  0.006061  0.399998  0.750000  1
