# generated using pymatgen
data_Ho4MnAl18Pt5
_symmetry_space_group_name_H-M   'P 1'
_cell_length_a   7.59304593
_cell_length_b   7.59304598
_cell_length_c   9.44626463
_cell_angle_alpha   89.95757565
_cell_angle_beta   89.95757010
_cell_angle_gamma   119.60012551
_symmetry_Int_Tables_number   1
_chemical_formula_structural   Ho4MnAl18Pt5
_chemical_formula_sum   'Ho4 Mn1 Al18 Pt5'
_cell_volume   473.54167676
_cell_formula_units_Z   1
loop_
 _symmetry_equiv_pos_site_id
 _symmetry_equiv_pos_as_xyz
  1  'x, y, z'
loop_
 _atom_site_type_symbol
 _atom_site_label
 _atom_site_symmetry_multiplicity
 _atom_site_fract_x
 _atom_site_fract_y
 _atom_site_fract_z
 _atom_site_occupancy
  Ho  Ho0  1  0.994892  0.670342  0.248230  1
  Ho  Ho1  1  0.005108  0.329658  0.751770  1
  Ho  Ho2  1  0.670342  0.994892  0.248230  1
  Ho  Ho3  1  0.329658  0.005108  0.751770  1
  Mn  Mn4  1  0.000000  0.000000  0.000000  1
  Al  Al5  1  0.123702  0.123702  0.241471  1
  Al  Al6  1  0.876298  0.876298  0.758529  1
  Al  Al7  1  0.998785  0.324083  0.072270  1
  Al  Al8  1  0.001215  0.675917  0.927730  1
  Al  Al9  1  0.998700  0.664639  0.578545  1
  Al  Al10  1  0.335361  0.001300  0.421455  1
  Al  Al11  1  0.001300  0.335361  0.421455  1
  Al  Al12  1  0.664639  0.998700  0.578545  1
  Al  Al13  1  0.675917  0.001215  0.927730  1
  Al  Al14  1  0.324083  0.998785  0.072270  1
  Al  Al15  1  0.333371  0.333371  0.558511  1
  Al  Al16  1  0.666629  0.666630  0.441489  1
  Al  Al17  1  0.677363  0.677364  0.052132  1
  Al  Al18  1  0.322637  0.322637  0.947868  1
  Al  Al19  1  0.340128  0.545778  0.248458  1
  Al  Al20  1  0.659872  0.454222  0.751542  1
  Al  Al21  1  0.545778  0.340128  0.248458  1
  Al  Al22  1  0.454222  0.659872  0.751542  1
  Pt  Pt23  1  0.672235  0.327765  0.000000  1
  Pt  Pt24  1  0.327765  0.672235  0.000000  1
  Pt  Pt25  1  0.327710  0.672290  0.500000  1
  Pt  Pt26  1  0.672290  0.327710  0.500000  1
  Pt  Pt27  1  0.000000  0.000000  0.500000  1
