# generated using pymatgen
data_ErLu5RePb2
_symmetry_space_group_name_H-M   'P 1'
_cell_length_a   8.07879449
_cell_length_b   8.07879527
_cell_length_c   4.28525200
_cell_angle_alpha   90.00000000
_cell_angle_beta   90.00000000
_cell_angle_gamma   120.12826465
_symmetry_Int_Tables_number   1
_chemical_formula_structural   ErLu5RePb2
_chemical_formula_sum   'Er1 Lu5 Re1 Pb2'
_cell_volume   241.90084861
_cell_formula_units_Z   1
loop_
 _symmetry_equiv_pos_site_id
 _symmetry_equiv_pos_as_xyz
  1  'x, y, z'
loop_
 _atom_site_type_symbol
 _atom_site_label
 _atom_site_symmetry_multiplicity
 _atom_site_fract_x
 _atom_site_fract_y
 _atom_site_fract_z
 _atom_site_occupancy
  Er  Er0  1  0.388083  0.388083  0.000000  1
  Lu  Lu1  1  0.237826  0.999296  0.500000  1
  Lu  Lu2  1  0.999296  0.237826  0.500000  1
  Lu  Lu3  1  0.760740  0.760740  0.500000  1
  Lu  Lu4  1  0.615483  0.999945  0.000000  1
  Lu  Lu5  1  0.999945  0.615483  0.000000  1
  Re  Re6  1  0.998156  0.998156  0.000000  1
  Pb  Pb7  1  0.332882  0.667586  0.500000  1
  Pb  Pb8  1  0.667586  0.332882  0.500000  1
