# generated using pymatgen
data_Dy13Ho3In4(PtRh)2
_symmetry_space_group_name_H-M   'P 1'
_cell_length_a   9.68987260
_cell_length_b   9.68522858
_cell_length_c   9.68482611
_cell_angle_alpha   60.04854003
_cell_angle_beta   59.98540196
_cell_angle_gamma   59.98584158
_symmetry_Int_Tables_number   1
_chemical_formula_structural   Dy13Ho3In4(PtRh)2
_chemical_formula_sum   'Dy13 Ho3 In4 Pt2 Rh2'
_cell_volume   642.79034934
_cell_formula_units_Z   1
loop_
 _symmetry_equiv_pos_site_id
 _symmetry_equiv_pos_as_xyz
  1  'x, y, z'
loop_
 _atom_site_type_symbol
 _atom_site_label
 _atom_site_symmetry_multiplicity
 _atom_site_fract_x
 _atom_site_fract_y
 _atom_site_fract_z
 _atom_site_occupancy
  Dy  Dy0  1  0.939043  0.936762  0.561694  1
  Dy  Dy1  1  0.150213  0.145644  0.553927  1
  Dy  Dy2  1  0.562507  0.936746  0.561705  1
  Dy  Dy3  1  0.153532  0.149029  0.149384  1
  Dy  Dy4  1  0.310187  0.309720  0.692894  1
  Dy  Dy5  1  0.939433  0.560772  0.560358  1
  Dy  Dy6  1  0.562216  0.561834  0.937166  1
  Dy  Dy7  1  0.563187  0.936476  0.937140  1
  Dy  Dy8  1  0.938781  0.561832  0.937156  1
  Dy  Dy9  1  0.150019  0.554303  0.145670  1
  Dy  Dy10  1  0.310729  0.689528  0.689026  1
  Dy  Dy11  1  0.687205  0.309711  0.692895  1
  Dy  Dy12  1  0.548064  0.149022  0.149383  1
  Ho  Ho13  1  0.690582  0.309626  0.309214  1
  Ho  Ho14  1  0.687048  0.692958  0.309533  1
  Ho  Ho15  1  0.310477  0.692959  0.309527  1
  In  In16  1  0.916807  0.917944  0.248441  1
  In  In17  1  0.249207  0.917043  0.917298  1
  In  In18  1  0.916777  0.248310  0.918120  1
  In  In19  1  0.916450  0.917047  0.917300  1
  Pt  Pt20  1  0.355802  0.358582  0.358012  1
  Pt  Pt21  1  0.927603  0.358573  0.358004  1
  Rh  Rh22  1  0.356861  0.359314  0.926969  1
  Rh  Rh23  1  0.357271  0.926264  0.359182  1
