# generated using pymatgen
data_La6Mg(SiSe7)2
_symmetry_space_group_name_H-M   'P 1'
_cell_length_a   10.85338500
_cell_length_b   10.85338601
_cell_length_c   6.07049500
_cell_angle_alpha   90.00000000
_cell_angle_beta   90.00000000
_cell_angle_gamma   119.99999998
_symmetry_Int_Tables_number   1
_chemical_formula_structural   La6Mg(SiSe7)2
_chemical_formula_sum   'La6 Mg1 Si2 Se14'
_cell_volume   619.27734942
_cell_formula_units_Z   1
loop_
 _symmetry_equiv_pos_site_id
 _symmetry_equiv_pos_as_xyz
  1  'x, y, z'
loop_
 _atom_site_type_symbol
 _atom_site_label
 _atom_site_symmetry_multiplicity
 _atom_site_fract_x
 _atom_site_fract_y
 _atom_site_fract_z
 _atom_site_occupancy
  La  La0  1  0.977015  0.434178  0.752059  1
  La  La1  1  0.457162  0.022985  0.752059  1
  La  La2  1  0.565822  0.542838  0.752059  1
  La  La3  1  0.689352  0.898538  0.248963  1
  La  La4  1  0.209186  0.310648  0.248963  1
  La  La5  1  0.101462  0.790814  0.248963  1
  Mg  Mg6  1  0.333333  0.666667  0.511739  1
  Si  Si7  1  0.666667  0.333333  0.164235  1
  Si  Si8  1  0.000000  0.000000  0.658499  1
  Se  Se9  1  0.666667  0.333333  0.536816  1
  Se  Se10  1  0.000000  0.000000  0.031445  1
  Se  Se11  1  0.085951  0.505457  0.274046  1
  Se  Se12  1  0.419507  0.914049  0.274046  1
  Se  Se13  1  0.494543  0.580493  0.274046  1
  Se  Se14  1  0.580388  0.830025  0.754679  1
  Se  Se15  1  0.249637  0.419612  0.754679  1
  Se  Se16  1  0.169975  0.750363  0.754679  1
  Se  Se17  1  0.812265  0.556422  0.017572  1
  Se  Se18  1  0.744157  0.187735  0.017572  1
  Se  Se19  1  0.443578  0.255843  0.017572  1
  Se  Se20  1  0.854567  0.776701  0.513115  1
  Se  Se21  1  0.922136  0.145433  0.513115  1
  Se  Se22  1  0.223299  0.077864  0.513115  1
