# generated using pymatgen
data_Na3Cd2AuO6
_symmetry_space_group_name_H-M   'P 1'
_cell_length_a   5.78609455
_cell_length_b   5.78609478
_cell_length_c   5.78923638
_cell_angle_alpha   80.04005564
_cell_angle_beta   80.04005666
_cell_angle_gamma   119.68248019
_symmetry_Int_Tables_number   1
_chemical_formula_structural   Na3Cd2AuO6
_chemical_formula_sum   'Na3 Cd2 Au1 O6'
_cell_volume   158.09193348
_cell_formula_units_Z   1
loop_
 _symmetry_equiv_pos_site_id
 _symmetry_equiv_pos_as_xyz
  1  'x, y, z'
loop_
 _atom_site_type_symbol
 _atom_site_label
 _atom_site_symmetry_multiplicity
 _atom_site_fract_x
 _atom_site_fract_y
 _atom_site_fract_z
 _atom_site_occupancy
  Na  Na0  1  0.500000  0.500000  0.000000  1
  Na  Na1  1  0.837576  0.162424  0.000000  1
  Na  Na2  1  0.162424  0.837576  0.000000  1
  Cd  Cd3  1  0.666912  0.333088  0.500000  1
  Cd  Cd4  1  0.333088  0.666912  0.500000  1
  Au  Au5  1  0.000000  0.000000  0.500000  1
  O  O6  1  0.633327  0.928927  0.717921  1
  O  O7  1  0.366673  0.071073  0.282079  1
  O  O8  1  0.774841  0.774841  0.290519  1
  O  O9  1  0.928927  0.633327  0.717921  1
  O  O10  1  0.071073  0.366673  0.282079  1
  O  O11  1  0.225159  0.225159  0.709481  1
