# generated using pymatgen
data_Y2Er4Tm14Cd5InNi2
_symmetry_space_group_name_H-M   'P 1'
_cell_length_a   9.51678415
_cell_length_b   9.51125626
_cell_length_c   9.61443816
_cell_angle_alpha   90.00600980
_cell_angle_beta   89.98038049
_cell_angle_gamma   120.01973500
_symmetry_Int_Tables_number   1
_chemical_formula_structural   Y2Er4Tm14Cd5InNi2
_chemical_formula_sum   'Y2 Er4 Tm14 Cd5 In1 Ni2'
_cell_volume   753.52248794
_cell_formula_units_Z   1
loop_
 _symmetry_equiv_pos_site_id
 _symmetry_equiv_pos_as_xyz
  1  'x, y, z'
loop_
 _atom_site_type_symbol
 _atom_site_label
 _atom_site_symmetry_multiplicity
 _atom_site_fract_x
 _atom_site_fract_y
 _atom_site_fract_z
 _atom_site_occupancy
  Y  Y0  1  0.912556  0.461867  0.250165  1
  Y  Y1  1  0.085489  0.542219  0.750052  1
  Er  Er2  1  0.538721  0.087594  0.250306  1
  Er  Er3  1  0.456128  0.543584  0.749772  1
  Er  Er4  1  0.457668  0.914591  0.749798  1
  Er  Er5  1  0.578731  0.789861  0.062143  1
  Tm  Tm6  1  0.002148  0.997682  0.502153  1
  Tm  Tm7  1  0.002352  0.998046  0.997400  1
  Tm  Tm8  1  0.540501  0.458826  0.250363  1
  Tm  Tm9  1  0.213482  0.789713  0.438222  1
  Tm  Tm10  1  0.211216  0.421087  0.437647  1
  Tm  Tm11  1  0.579235  0.790108  0.438500  1
  Tm  Tm12  1  0.788114  0.208942  0.561986  1
  Tm  Tm13  1  0.786797  0.577626  0.563462  1
  Tm  Tm14  1  0.421867  0.211552  0.563104  1
  Tm  Tm15  1  0.788295  0.209214  0.938123  1
  Tm  Tm16  1  0.786916  0.577557  0.936636  1
  Tm  Tm17  1  0.422503  0.211846  0.936921  1
  Tm  Tm18  1  0.212786  0.789570  0.061763  1
  Tm  Tm19  1  0.210633  0.420586  0.062304  1
  Cd  Cd20  1  0.884622  0.772272  0.249687  1
  Cd  Cd21  1  0.229005  0.114607  0.249872  1
  Cd  Cd22  1  0.116977  0.885476  0.750064  1
  Cd  Cd23  1  0.115741  0.228813  0.749993  1
  Cd  Cd24  1  0.770111  0.884794  0.749710  1
  In  In25  1  0.884920  0.114517  0.249952  1
  Ni  Ni26  1  0.334579  0.665766  0.250481  1
  Ni  Ni27  1  0.667907  0.331681  0.749421  1
