# generated using pymatgen
data_NdVNi4P3
_symmetry_space_group_name_H-M   'P 1'
_cell_length_a   3.71174100
_cell_length_b   10.55172500
_cell_length_c   12.09722800
_cell_angle_alpha   90.00000000
_cell_angle_beta   90.00000000
_cell_angle_gamma   90.00000000
_symmetry_Int_Tables_number   1
_chemical_formula_structural   NdVNi4P3
_chemical_formula_sum   'Nd4 V4 Ni16 P12'
_cell_volume   473.79120454
_cell_formula_units_Z   4
loop_
 _symmetry_equiv_pos_site_id
 _symmetry_equiv_pos_as_xyz
  1  'x, y, z'
loop_
 _atom_site_type_symbol
 _atom_site_label
 _atom_site_symmetry_multiplicity
 _atom_site_fract_x
 _atom_site_fract_y
 _atom_site_fract_z
 _atom_site_occupancy
  Nd  Nd0  1  0.250000  0.581558  0.704827  1
  Nd  Nd1  1  0.250000  0.918442  0.204827  1
  Nd  Nd2  1  0.750000  0.418442  0.295173  1
  Nd  Nd3  1  0.750000  0.081558  0.795173  1
  V  V4  1  0.250000  0.703296  0.989192  1
  V  V5  1  0.250000  0.796704  0.489192  1
  V  V6  1  0.750000  0.296704  0.010808  1
  V  V7  1  0.750000  0.203296  0.510808  1
  Ni  Ni8  1  0.250000  0.406378  0.490182  1
  Ni  Ni9  1  0.250000  0.093622  0.990182  1
  Ni  Ni10  1  0.750000  0.593622  0.509818  1
  Ni  Ni11  1  0.750000  0.906378  0.009818  1
  Ni  Ni12  1  0.250000  0.220061  0.174732  1
  Ni  Ni13  1  0.250000  0.279939  0.674732  1
  Ni  Ni14  1  0.750000  0.779939  0.825268  1
  Ni  Ni15  1  0.750000  0.720061  0.325268  1
  Ni  Ni16  1  0.250000  0.879732  0.700578  1
  Ni  Ni17  1  0.250000  0.620268  0.200578  1
  Ni  Ni18  1  0.750000  0.120268  0.299422  1
  Ni  Ni19  1  0.750000  0.379732  0.799422  1
  Ni  Ni20  1  0.250000  0.467389  0.932302  1
  Ni  Ni21  1  0.250000  0.032611  0.432302  1
  Ni  Ni22  1  0.750000  0.532611  0.067698  1
  Ni  Ni23  1  0.750000  0.967389  0.567698  1
  P  P24  1  0.250000  0.418639  0.111299  1
  P  P25  1  0.250000  0.081361  0.611299  1
  P  P26  1  0.750000  0.581361  0.888701  1
  P  P27  1  0.750000  0.918639  0.388701  1
  P  P28  1  0.250000  0.271495  0.868731  1
  P  P29  1  0.250000  0.228505  0.368731  1
  P  P30  1  0.750000  0.728505  0.131269  1
  P  P31  1  0.750000  0.771495  0.631269  1
  P  P32  1  0.250000  0.605153  0.393704  1
  P  P33  1  0.250000  0.894847  0.893704  1
  P  P34  1  0.750000  0.394847  0.606296  1
  P  P35  1  0.750000  0.105153  0.106296  1
