# generated using pymatgen
data_Pr4Cd3In5
_symmetry_space_group_name_H-M   'P 1'
_cell_length_a   4.99617400
_cell_length_b   7.67727519
_cell_length_c   8.63035487
_cell_angle_alpha   89.99440988
_cell_angle_beta   90.00000000
_cell_angle_gamma   90.00000000
_symmetry_Int_Tables_number   1
_chemical_formula_structural   Pr4Cd3In5
_chemical_formula_sum   'Pr4 Cd3 In5'
_cell_volume   331.03454339
_cell_formula_units_Z   1
loop_
 _symmetry_equiv_pos_site_id
 _symmetry_equiv_pos_as_xyz
  1  'x, y, z'
loop_
 _atom_site_type_symbol
 _atom_site_label
 _atom_site_symmetry_multiplicity
 _atom_site_fract_x
 _atom_site_fract_y
 _atom_site_fract_z
 _atom_site_occupancy
  Pr  Pr0  1  0.500000  0.494733  0.748982  1
  Pr  Pr1  1  0.500000  0.999996  0.748379  1
  Pr  Pr2  1  0.000000  0.496697  0.251828  1
  Pr  Pr3  1  0.000000  0.002118  0.250872  1
  Cd  Cd4  1  0.500000  0.285573  0.082152  1
  Cd  Cd5  1  0.000000  0.281705  0.585223  1
  Cd  Cd6  1  0.000000  0.795140  0.919090  1
  In  In7  1  0.500000  0.710163  0.078448  1
  In  In8  1  0.500000  0.225968  0.415459  1
  In  In9  1  0.000000  0.213590  0.917054  1
  In  In10  1  0.000000  0.712905  0.588657  1
  In  In11  1  0.500000  0.781412  0.413858  1
