# generated using pymatgen
data_ErTmI26
_symmetry_space_group_name_H-M   'P 1'
_cell_length_a   13.09071621
_cell_length_b   11.50468762
_cell_length_c   15.30306523
_cell_angle_alpha   122.21501178
_cell_angle_beta   88.86181419
_cell_angle_gamma   105.71284418
_symmetry_Int_Tables_number   1
_chemical_formula_structural   ErTmI26
_chemical_formula_sum   'Er1 Tm1 I26'
_cell_volume   1854.97977540
_cell_formula_units_Z   1
loop_
 _symmetry_equiv_pos_site_id
 _symmetry_equiv_pos_as_xyz
  1  'x, y, z'
loop_
 _atom_site_type_symbol
 _atom_site_label
 _atom_site_symmetry_multiplicity
 _atom_site_fract_x
 _atom_site_fract_y
 _atom_site_fract_z
 _atom_site_occupancy
  Er  Er0  1  0.669190  0.131304  0.063131  1
  Tm  Tm1  1  0.330081  0.866562  0.936291  1
  I  I2  1  0.378738  0.653036  0.973354  1
  I  I3  1  0.616506  0.339778  0.022032  1
  I  I4  1  0.579288  0.807922  0.392197  1
  I  I5  1  0.427516  0.198702  0.607500  1
  I  I6  1  0.730851  0.694552  0.011114  1
  I  I7  1  0.266110  0.304196  0.991166  1
  I  I8  1  0.712276  0.969727  0.161873  1
  I  I9  1  0.283067  0.028297  0.840257  1
  I  I10  1  0.447115  0.132524  0.137395  1
  I  I11  1  0.550087  0.863988  0.861856  1
  I  I12  1  0.234002  0.650655  0.705465  1
  I  I13  1  0.765990  0.350041  0.294195  1
  I  I14  1  0.120382  0.825459  0.999463  1
  I  I15  1  0.879988  0.170166  0.000085  1
  I  I16  1  0.092083  0.090337  0.216462  1
  I  I17  1  0.907349  0.905841  0.782806  1
  I  I18  1  0.279227  0.914368  0.457565  1
  I  I19  1  0.725726  0.092854  0.543876  1
  I  I20  1  0.329140  0.418674  0.648223  1
  I  I21  1  0.674976  0.585032  0.350967  1
  I  I22  1  0.855468  0.391424  0.704920  1
  I  I23  1  0.146145  0.617258  0.298481  1
  I  I24  1  0.945993  0.685349  0.597178  1
  I  I25  1  0.053490  0.310929  0.402253  1
  I  I26  1  0.254268  0.623402  0.128370  1
  I  I27  1  0.744947  0.377623  0.871528  1
