# generated using pymatgen
data_Ta2V3Co
_symmetry_space_group_name_H-M   'P 1'
_cell_length_a   4.95532300
_cell_length_b   4.95532273
_cell_length_c   8.19764700
_cell_angle_alpha   90.00000000
_cell_angle_beta   90.00000000
_cell_angle_gamma   120.00000849
_symmetry_Int_Tables_number   1
_chemical_formula_structural   Ta2V3Co
_chemical_formula_sum   'Ta4 V6 Co2'
_cell_volume   174.32662418
_cell_formula_units_Z   2
loop_
 _symmetry_equiv_pos_site_id
 _symmetry_equiv_pos_as_xyz
  1  'x, y, z'
loop_
 _atom_site_type_symbol
 _atom_site_label
 _atom_site_symmetry_multiplicity
 _atom_site_fract_x
 _atom_site_fract_y
 _atom_site_fract_z
 _atom_site_occupancy
  Ta  Ta0  1  0.333333  0.666667  0.942642  1
  Ta  Ta1  1  0.666667  0.333333  0.057358  1
  Ta  Ta2  1  0.666667  0.333333  0.442642  1
  Ta  Ta3  1  0.333333  0.666667  0.557358  1
  V  V4  1  0.168865  0.831135  0.250000  1
  V  V5  1  0.168865  0.337729  0.250000  1
  V  V6  1  0.662271  0.831135  0.250000  1
  V  V7  1  0.831135  0.168865  0.750000  1
  V  V8  1  0.831135  0.662271  0.750000  1
  V  V9  1  0.337729  0.168865  0.750000  1
  Co  Co10  1  0.000000  0.000000  0.500000  1
  Co  Co11  1  0.000000  0.000000  0.000000  1
