# generated using pymatgen
data_AcNd(In2Rh)2
_symmetry_space_group_name_H-M   'P 1'
_cell_length_a   5.70971223
_cell_length_b   5.70971222
_cell_length_c   8.18897100
_cell_angle_alpha   90.00000000
_cell_angle_beta   90.00000000
_cell_angle_gamma   133.72740459
_symmetry_Int_Tables_number   1
_chemical_formula_structural   AcNd(In2Rh)2
_chemical_formula_sum   'Ac1 Nd1 In4 Rh2'
_cell_volume   192.92021395
_cell_formula_units_Z   1
loop_
 _symmetry_equiv_pos_site_id
 _symmetry_equiv_pos_as_xyz
  1  'x, y, z'
loop_
 _atom_site_type_symbol
 _atom_site_label
 _atom_site_symmetry_multiplicity
 _atom_site_fract_x
 _atom_site_fract_y
 _atom_site_fract_z
 _atom_site_occupancy
  Ac  Ac0  1  0.565158  0.434842  0.250000  1
  Nd  Nd1  1  0.433138  0.566862  0.750000  1
  In  In2  1  0.852472  0.147528  0.045497  1
  In  In3  1  0.148002  0.851998  0.942506  1
  In  In4  1  0.148002  0.851998  0.557494  1
  In  In5  1  0.852472  0.147528  0.454503  1
  Rh  Rh6  1  0.284952  0.715048  0.250000  1
  Rh  Rh7  1  0.715805  0.284195  0.750000  1
