# generated using pymatgen
data_Cs6Y(NpI6)3
_symmetry_space_group_name_H-M   'P 1'
_cell_length_a   8.40973099
_cell_length_b   8.39958297
_cell_length_c   21.77375700
_cell_angle_alpha   91.93371133
_cell_angle_beta   88.35520318
_cell_angle_gamma   60.16985671
_symmetry_Int_Tables_number   1
_chemical_formula_structural   Cs6Y(NpI6)3
_chemical_formula_sum   'Cs6 Y1 Np3 I18'
_cell_volume   1331.67635485
_cell_formula_units_Z   1
loop_
 _symmetry_equiv_pos_site_id
 _symmetry_equiv_pos_as_xyz
  1  'x, y, z'
loop_
 _atom_site_type_symbol
 _atom_site_label
 _atom_site_symmetry_multiplicity
 _atom_site_fract_x
 _atom_site_fract_y
 _atom_site_fract_z
 _atom_site_occupancy
  Cs  Cs0  1  0.328468  0.333063  0.067413  1
  Cs  Cs1  1  0.334633  0.324966  0.433907  1
  Cs  Cs2  1  0.677540  0.661597  0.936457  1
  Cs  Cs3  1  0.662388  0.676826  0.570429  1
  Cs  Cs4  1  0.006536  0.005882  0.751588  1
  Cs  Cs5  1  0.984275  0.002544  0.241795  1
  Y  Y6  1  0.651537  0.677228  0.156831  1
  Np  Np7  1  0.677974  0.651101  0.342576  1
  Np  Np8  1  0.348716  0.322330  0.842698  1
  Np  Np9  1  0.321867  0.349448  0.657163  1
  I  I10  1  0.504690  0.998755  0.737564  1
  I  I11  1  0.998533  0.505043  0.761577  1
  I  I12  1  0.495496  0.998325  0.259236  1
  I  I13  1  0.996656  0.499448  0.235867  1
  I  I14  1  0.188627  0.135840  0.917060  1
  I  I15  1  0.135447  0.188625  0.582729  1
  I  I16  1  0.811426  0.859973  0.085800  1
  I  I17  1  0.864212  0.810045  0.417624  1
  I  I18  1  0.502797  0.505639  0.750136  1
  I  I19  1  0.494654  0.501012  0.247018  1
  I  I20  1  0.658737  0.184628  0.572099  1
  I  I21  1  0.183601  0.659235  0.928307  1
  I  I22  1  0.345207  0.812995  0.429192  1
  I  I23  1  0.816449  0.341917  0.075838  1
  I  I24  1  0.702344  0.140303  0.907828  1
  I  I25  1  0.138393  0.704824  0.593723  1
  I  I26  1  0.306008  0.855827  0.093212  1
  I  I27  1  0.862782  0.292582  0.404334  1
