# generated using pymatgen
data_HoTh(Si7Ir3)2
_symmetry_space_group_name_H-M   'P 1'
_cell_length_a   8.07193830
_cell_length_b   8.07193951
_cell_length_c   8.07193990
_cell_angle_alpha   56.82369554
_cell_angle_beta   56.82368630
_cell_angle_gamma   56.82369538
_symmetry_Int_Tables_number   1
_chemical_formula_structural   HoTh(Si7Ir3)2
_chemical_formula_sum   'Ho1 Th1 Si14 Ir6'
_cell_volume   344.63309489
_cell_formula_units_Z   1
loop_
 _symmetry_equiv_pos_site_id
 _symmetry_equiv_pos_as_xyz
  1  'x, y, z'
loop_
 _atom_site_type_symbol
 _atom_site_label
 _atom_site_symmetry_multiplicity
 _atom_site_fract_x
 _atom_site_fract_y
 _atom_site_fract_z
 _atom_site_occupancy
  Ho  Ho0  1  0.000000  0.000000  0.000000  1
  Th  Th1  1  0.500000  0.500000  0.500000  1
  Si  Si2  1  0.064501  0.853326  0.672463  1
  Si  Si3  1  0.672463  0.064501  0.853326  1
  Si  Si4  1  0.853326  0.672463  0.064501  1
  Si  Si5  1  0.172020  0.349945  0.565364  1
  Si  Si6  1  0.565364  0.172020  0.349945  1
  Si  Si7  1  0.349945  0.565364  0.172020  1
  Si  Si8  1  0.935499  0.146674  0.327537  1
  Si  Si9  1  0.327537  0.935499  0.146674  1
  Si  Si10  1  0.146674  0.327537  0.935499  1
  Si  Si11  1  0.827980  0.650055  0.434636  1
  Si  Si12  1  0.434636  0.827980  0.650055  1
  Si  Si13  1  0.650055  0.434636  0.827980  1
  Si  Si14  1  0.750021  0.750021  0.750021  1
  Si  Si15  1  0.249979  0.249979  0.249979  1
  Ir  Ir16  1  0.068012  0.751378  0.429656  1
  Ir  Ir17  1  0.429656  0.068012  0.751378  1
  Ir  Ir18  1  0.751378  0.429656  0.068012  1
  Ir  Ir19  1  0.931988  0.248622  0.570344  1
  Ir  Ir20  1  0.570344  0.931988  0.248622  1
  Ir  Ir21  1  0.248622  0.570344  0.931988  1
