# generated using pymatgen
data_Sm2HoCo8P6W
_symmetry_space_group_name_H-M   'P 1'
_cell_length_a   3.73572200
_cell_length_b   10.58467000
_cell_length_c   12.29260800
_cell_angle_alpha   90.00000000
_cell_angle_beta   90.00000000
_cell_angle_gamma   90.00000000
_symmetry_Int_Tables_number   1
_chemical_formula_structural   Sm2HoCo8P6W
_chemical_formula_sum   'Sm4 Ho2 Co16 P12 W2'
_cell_volume   486.06674044
_cell_formula_units_Z   2
loop_
 _symmetry_equiv_pos_site_id
 _symmetry_equiv_pos_as_xyz
  1  'x, y, z'
loop_
 _atom_site_type_symbol
 _atom_site_label
 _atom_site_symmetry_multiplicity
 _atom_site_fract_x
 _atom_site_fract_y
 _atom_site_fract_z
 _atom_site_occupancy
  Sm  Sm0  1  0.000000  0.500000  0.523922  1
  Sm  Sm1  1  0.500000  0.000000  0.475442  1
  Sm  Sm2  1  0.000000  0.681034  0.795216  1
  Sm  Sm3  1  0.000000  0.318966  0.795216  1
  Ho  Ho4  1  0.500000  0.819695  0.204320  1
  Ho  Ho5  1  0.500000  0.180305  0.204320  1
  Co  Co6  1  0.500000  0.500000  0.701803  1
  Co  Co7  1  0.000000  0.000000  0.296762  1
  Co  Co8  1  0.000000  0.500000  0.989068  1
  Co  Co9  1  0.500000  0.000000  0.014503  1
  Co  Co10  1  0.500000  0.331811  0.992930  1
  Co  Co11  1  0.500000  0.668189  0.992930  1
  Co  Co12  1  0.000000  0.166506  0.010974  1
  Co  Co13  1  0.000000  0.833494  0.010974  1
  Co  Co14  1  0.500000  0.295006  0.428992  1
  Co  Co15  1  0.500000  0.704994  0.428992  1
  Co  Co16  1  0.000000  0.204097  0.567617  1
  Co  Co17  1  0.000000  0.795903  0.567617  1
  Co  Co18  1  0.500000  0.879690  0.708095  1
  Co  Co19  1  0.500000  0.120310  0.708095  1
  Co  Co20  1  0.000000  0.621770  0.290349  1
  Co  Co21  1  0.000000  0.378230  0.290349  1
  P  P22  1  0.500000  0.500000  0.884067  1
  P  P23  1  0.000000  0.000000  0.119749  1
  P  P24  1  0.500000  0.500000  0.347653  1
  P  P25  1  0.000000  0.000000  0.652216  1
  P  P26  1  0.500000  0.308366  0.614026  1
  P  P27  1  0.500000  0.691634  0.614026  1
  P  P28  1  0.000000  0.190088  0.382099  1
  P  P29  1  0.000000  0.809912  0.382099  1
  P  P30  1  0.500000  0.845830  0.894801  1
  P  P31  1  0.500000  0.154170  0.894801  1
  P  P32  1  0.000000  0.656409  0.107508  1
  P  P33  1  0.000000  0.343591  0.107508  1
  W  W34  1  0.500000  0.500000  0.155506  1
  W  W35  1  0.000000  0.000000  0.845454  1
