# generated using pymatgen
data_YbHf(Si7Rh3)2
_symmetry_space_group_name_H-M   'P 1'
_cell_length_a   7.96767046
_cell_length_b   7.96766974
_cell_length_c   7.96767100
_cell_angle_alpha   57.04270662
_cell_angle_beta   57.04270139
_cell_angle_gamma   57.04270109
_symmetry_Int_Tables_number   1
_chemical_formula_structural   YbHf(Si7Rh3)2
_chemical_formula_sum   'Yb1 Hf1 Si14 Rh6'
_cell_volume   333.28355603
_cell_formula_units_Z   1
loop_
 _symmetry_equiv_pos_site_id
 _symmetry_equiv_pos_as_xyz
  1  'x, y, z'
loop_
 _atom_site_type_symbol
 _atom_site_label
 _atom_site_symmetry_multiplicity
 _atom_site_fract_x
 _atom_site_fract_y
 _atom_site_fract_z
 _atom_site_occupancy
  Yb  Yb0  1  0.000000  0.000000  0.000000  1
  Hf  Hf1  1  0.500000  0.500000  0.500000  1
  Si  Si2  1  0.750304  0.750304  0.750304  1
  Si  Si3  1  0.249696  0.249696  0.249696  1
  Si  Si4  1  0.851368  0.067238  0.671820  1
  Si  Si5  1  0.671820  0.851368  0.067238  1
  Si  Si6  1  0.067238  0.671820  0.851368  1
  Si  Si7  1  0.648796  0.826641  0.435606  1
  Si  Si8  1  0.435606  0.648796  0.826641  1
  Si  Si9  1  0.826641  0.435606  0.648796  1
  Si  Si10  1  0.173359  0.564394  0.351204  1
  Si  Si11  1  0.564394  0.351204  0.173359  1
  Si  Si12  1  0.351204  0.173359  0.564394  1
  Si  Si13  1  0.932762  0.328180  0.148632  1
  Si  Si14  1  0.328180  0.148632  0.932762  1
  Si  Si15  1  0.148632  0.932762  0.328180  1
  Rh  Rh16  1  0.075289  0.432194  0.745813  1
  Rh  Rh17  1  0.254187  0.924711  0.567806  1
  Rh  Rh18  1  0.567806  0.254187  0.924711  1
  Rh  Rh19  1  0.924711  0.567806  0.254187  1
  Rh  Rh20  1  0.432194  0.745813  0.075289  1
  Rh  Rh21  1  0.745813  0.075289  0.432194  1
