# generated using pymatgen
data_Pr2Re8Si3P
_symmetry_space_group_name_H-M   'P 1'
_cell_length_a   4.14528500
_cell_length_b   7.42483168
_cell_length_c   15.48299114
_cell_angle_alpha   89.95968863
_cell_angle_beta   90.00000000
_cell_angle_gamma   90.00000000
_symmetry_Int_Tables_number   1
_chemical_formula_structural   Pr2Re8Si3P
_chemical_formula_sum   'Pr4 Re16 Si6 P2'
_cell_volume   476.53605484
_cell_formula_units_Z   2
loop_
 _symmetry_equiv_pos_site_id
 _symmetry_equiv_pos_as_xyz
  1  'x, y, z'
loop_
 _atom_site_type_symbol
 _atom_site_label
 _atom_site_symmetry_multiplicity
 _atom_site_fract_x
 _atom_site_fract_y
 _atom_site_fract_z
 _atom_site_occupancy
  Pr  Pr0  1  0.000000  0.577752  0.118917  1
  Pr  Pr1  1  0.000000  0.422248  0.881083  1
  Pr  Pr2  1  0.500000  0.075815  0.385278  1
  Pr  Pr3  1  0.500000  0.924185  0.614722  1
  Re  Re4  1  0.000000  0.135760  0.052502  1
  Re  Re5  1  0.000000  0.864240  0.947498  1
  Re  Re6  1  0.500000  0.637939  0.448655  1
  Re  Re7  1  0.500000  0.362061  0.551345  1
  Re  Re8  1  0.000000  0.732784  0.322828  1
  Re  Re9  1  0.000000  0.267216  0.677172  1
  Re  Re10  1  0.500000  0.231617  0.179327  1
  Re  Re11  1  0.500000  0.768383  0.820673  1
  Re  Re12  1  0.000000  0.425064  0.418844  1
  Re  Re13  1  0.000000  0.574936  0.581156  1
  Re  Re14  1  0.500000  0.932865  0.082469  1
  Re  Re15  1  0.500000  0.067135  0.917531  1
  Re  Re16  1  0.000000  0.990284  0.207511  1
  Re  Re17  1  0.000000  0.009716  0.792489  1
  Re  Re18  1  0.500000  0.488668  0.294110  1
  Re  Re19  1  0.500000  0.511332  0.705890  1
  Si  Si20  1  0.500000  0.326172  0.024228  1
  Si  Si21  1  0.500000  0.673828  0.975772  1
  Si  Si22  1  0.000000  0.290161  0.273487  1
  Si  Si23  1  0.000000  0.709839  0.726513  1
  Si  Si24  1  0.500000  0.791067  0.227967  1
  Si  Si25  1  0.500000  0.208933  0.772033  1
  P  P26  1  0.000000  0.811730  0.473165  1
  P  P27  1  0.000000  0.188270  0.526835  1
