# generated using pymatgen
data_HoEr3(Co5As3)4
_symmetry_space_group_name_H-M   'P 1'
_cell_length_a   3.77357400
_cell_length_b   12.15054211
_cell_length_c   10.65517201
_cell_angle_alpha   89.99023746
_cell_angle_beta   90.00000000
_cell_angle_gamma   90.00000000
_symmetry_Int_Tables_number   1
_chemical_formula_structural   HoEr3(Co5As3)4
_chemical_formula_sum   'Ho1 Er3 Co20 As12'
_cell_volume   488.54996270
_cell_formula_units_Z   1
loop_
 _symmetry_equiv_pos_site_id
 _symmetry_equiv_pos_as_xyz
  1  'x, y, z'
loop_
 _atom_site_type_symbol
 _atom_site_label
 _atom_site_symmetry_multiplicity
 _atom_site_fract_x
 _atom_site_fract_y
 _atom_site_fract_z
 _atom_site_occupancy
  Ho  Ho0  1  0.750000  0.201599  0.417913  1
  Er  Er1  1  0.750000  0.701436  0.081908  1
  Er  Er2  1  0.250000  0.298626  0.918881  1
  Er  Er3  1  0.250000  0.798647  0.581316  1
  Co  Co4  1  0.750000  0.697335  0.384096  1
  Co  Co5  1  0.250000  0.303175  0.616340  1
  Co  Co6  1  0.250000  0.802591  0.884234  1
  Co  Co7  1  0.750000  0.197189  0.115164  1
  Co  Co8  1  0.750000  0.990891  0.211975  1
  Co  Co9  1  0.250000  0.008488  0.787713  1
  Co  Co10  1  0.250000  0.509092  0.712740  1
  Co  Co11  1  0.750000  0.491314  0.287530  1
  Co  Co12  1  0.750000  0.677657  0.784321  1
  Co  Co13  1  0.250000  0.322266  0.215847  1
  Co  Co14  1  0.250000  0.821951  0.283599  1
  Co  Co15  1  0.750000  0.177830  0.716146  1
  Co  Co16  1  0.750000  0.931728  0.969095  1
  Co  Co17  1  0.250000  0.067864  0.029947  1
  Co  Co18  1  0.250000  0.568767  0.469681  1
  Co  Co19  1  0.750000  0.432631  0.531140  1
  Co  Co20  1  0.750000  0.987285  0.592871  1
  Co  Co21  1  0.250000  0.011630  0.407138  1
  Co  Co22  1  0.250000  0.512396  0.092912  1
  Co  Co23  1  0.750000  0.487666  0.907523  1
  As  As24  1  0.750000  0.615124  0.584949  1
  As  As25  1  0.250000  0.386130  0.415370  1
  As  As26  1  0.250000  0.885245  0.084443  1
  As  As27  1  0.750000  0.114466  0.915036  1
  As  As28  1  0.750000  0.890207  0.399618  1
  As  As29  1  0.250000  0.109493  0.600416  1
  As  As30  1  0.250000  0.609640  0.900285  1
  As  As31  1  0.750000  0.390426  0.100173  1
  As  As32  1  0.750000  0.869873  0.768556  1
  As  As33  1  0.250000  0.129364  0.230740  1
  As  As34  1  0.250000  0.629710  0.268633  1
  As  As35  1  0.750000  0.370267  0.731753  1
