# generated using pymatgen
data_Si4Ni4RuRh3
_symmetry_space_group_name_H-M   'P 1'
_cell_length_a   3.69133500
_cell_length_b   5.68750702
_cell_length_c   7.03775504
_cell_angle_alpha   90.05471844
_cell_angle_beta   90.00000000
_cell_angle_gamma   90.00000000
_symmetry_Int_Tables_number   1
_chemical_formula_structural   Si4Ni4RuRh3
_chemical_formula_sum   'Si4 Ni4 Ru1 Rh3'
_cell_volume   147.75403667
_cell_formula_units_Z   1
loop_
 _symmetry_equiv_pos_site_id
 _symmetry_equiv_pos_as_xyz
  1  'x, y, z'
loop_
 _atom_site_type_symbol
 _atom_site_label
 _atom_site_symmetry_multiplicity
 _atom_site_fract_x
 _atom_site_fract_y
 _atom_site_fract_z
 _atom_site_occupancy
  Si  Si0  1  0.250000  0.251358  0.626797  1
  Si  Si1  1  0.250000  0.748276  0.874732  1
  Si  Si2  1  0.750000  0.750638  0.375260  1
  Si  Si3  1  0.750000  0.251627  0.123709  1
  Ni  Ni4  1  0.250000  0.143830  0.941175  1
  Ni  Ni5  1  0.250000  0.644117  0.558486  1
  Ni  Ni6  1  0.750000  0.854930  0.059781  1
  Ni  Ni7  1  0.750000  0.356478  0.441219  1
  Ru  Ru8  1  0.750000  0.465636  0.818419  1
  Rh  Rh9  1  0.250000  0.035279  0.323188  1
  Rh  Rh10  1  0.250000  0.533218  0.176744  1
  Rh  Rh11  1  0.750000  0.964612  0.680489  1
