# generated using pymatgen
data_CeGd3Mg3AlIr4
_symmetry_space_group_name_H-M   'P 1'
_cell_length_a   7.04585455
_cell_length_b   4.16766200
_cell_length_c   8.50210900
_cell_angle_alpha   90.00000000
_cell_angle_beta   89.62669700
_cell_angle_gamma   90.00000000
_symmetry_Int_Tables_number   1
_chemical_formula_structural   CeGd3Mg3AlIr4
_chemical_formula_sum   'Ce1 Gd3 Mg3 Al1 Ir4'
_cell_volume   249.65692335
_cell_formula_units_Z   1
loop_
 _symmetry_equiv_pos_site_id
 _symmetry_equiv_pos_as_xyz
  1  'x, y, z'
loop_
 _atom_site_type_symbol
 _atom_site_label
 _atom_site_symmetry_multiplicity
 _atom_site_fract_x
 _atom_site_fract_y
 _atom_site_fract_z
 _atom_site_occupancy
  Ce  Ce0  1  0.535816  0.750000  0.684723  1
  Gd  Gd1  1  0.958541  0.250000  0.180678  1
  Gd  Gd2  1  0.464802  0.250000  0.312681  1
  Gd  Gd3  1  0.036644  0.750000  0.820661  1
  Mg  Mg4  1  0.863233  0.250000  0.559357  1
  Mg  Mg5  1  0.367822  0.250000  0.942774  1
  Mg  Mg6  1  0.133681  0.750000  0.440054  1
  Al  Al7  1  0.633739  0.750000  0.056613  1
  Ir  Ir8  1  0.752550  0.250000  0.887600  1
  Ir  Ir9  1  0.258443  0.250000  0.629651  1
  Ir  Ir10  1  0.254259  0.750000  0.125074  1
  Ir  Ir11  1  0.740470  0.750000  0.360133  1
