# generated using pymatgen
data_Er6Zn23P
_symmetry_space_group_name_H-M   'P 1'
_cell_length_a   9.00749594
_cell_length_b   9.00745242
_cell_length_c   9.00749900
_cell_angle_alpha   60.00030846
_cell_angle_beta   60.00071489
_cell_angle_gamma   60.00026975
_symmetry_Int_Tables_number   1
_chemical_formula_structural   Er6Zn23P
_chemical_formula_sum   'Er6 Zn23 P1'
_cell_volume   516.77264999
_cell_formula_units_Z   1
loop_
 _symmetry_equiv_pos_site_id
 _symmetry_equiv_pos_as_xyz
  1  'x, y, z'
loop_
 _atom_site_type_symbol
 _atom_site_label
 _atom_site_symmetry_multiplicity
 _atom_site_fract_x
 _atom_site_fract_y
 _atom_site_fract_z
 _atom_site_occupancy
  Er  Er0  1  0.711982  0.288017  0.288021  1
  Er  Er1  1  0.711979  0.288021  0.711979  1
  Er  Er2  1  0.711981  0.711981  0.288019  1
  Er  Er3  1  0.288018  0.711983  0.711979  1
  Er  Er4  1  0.288021  0.711979  0.288021  1
  Er  Er5  1  0.288019  0.288019  0.711981  1
  Zn  Zn6  1  0.623281  0.125573  0.125573  1
  Zn  Zn7  1  0.125571  0.623281  0.125573  1
  Zn  Zn8  1  0.125573  0.125574  0.623281  1
  Zn  Zn9  1  0.125573  0.125574  0.125574  1
  Zn  Zn10  1  0.376719  0.874427  0.874427  1
  Zn  Zn11  1  0.874429  0.376719  0.874427  1
  Zn  Zn12  1  0.874427  0.874426  0.376719  1
  Zn  Zn13  1  0.874427  0.874426  0.874426  1
  Zn  Zn14  1  0.500000  0.000000  0.000000  1
  Zn  Zn15  1  0.500000  0.000000  0.500000  1
  Zn  Zn16  1  0.500000  0.500000  0.000000  1
  Zn  Zn17  1  0.000000  0.500000  0.500000  1
  Zn  Zn18  1  0.000000  0.500000  0.000000  1
  Zn  Zn19  1  0.000000  0.000000  0.500000  1
  Zn  Zn20  1  0.000000  0.000000  0.000000  1
  Zn  Zn21  1  0.008219  0.330594  0.330594  1
  Zn  Zn22  1  0.330594  0.008218  0.330594  1
  Zn  Zn23  1  0.330593  0.330596  0.008218  1
  Zn  Zn24  1  0.330594  0.330593  0.330593  1
  Zn  Zn25  1  0.991781  0.669406  0.669406  1
  Zn  Zn26  1  0.669406  0.991782  0.669406  1
  Zn  Zn27  1  0.669407  0.669404  0.991782  1
  Zn  Zn28  1  0.669406  0.669407  0.669407  1
  P  P29  1  0.500000  0.500000  0.500000  1
