# generated using pymatgen
data_Ti(Mn6Re)4
_symmetry_space_group_name_H-M   'P 1'
_cell_length_a   7.56925906
_cell_length_b   7.56925967
_cell_length_c   7.56925900
_cell_angle_alpha   109.47121616
_cell_angle_beta   109.47121781
_cell_angle_gamma   109.47122181
_symmetry_Int_Tables_number   1
_chemical_formula_structural   Ti(Mn6Re)4
_chemical_formula_sum   'Ti1 Mn24 Re4'
_cell_volume   333.83993058
_cell_formula_units_Z   1
loop_
 _symmetry_equiv_pos_site_id
 _symmetry_equiv_pos_as_xyz
  1  'x, y, z'
loop_
 _atom_site_type_symbol
 _atom_site_label
 _atom_site_symmetry_multiplicity
 _atom_site_fract_x
 _atom_site_fract_y
 _atom_site_fract_z
 _atom_site_occupancy
  Ti  Ti0  1  0.000000  0.000000  0.000000  1
  Mn  Mn1  1  0.389635  0.676315  0.000000  1
  Mn  Mn2  1  0.713320  0.323685  0.323685  1
  Mn  Mn3  1  0.389635  0.000000  0.676315  1
  Mn  Mn4  1  0.676315  0.389635  0.000000  1
  Mn  Mn5  1  0.000000  0.389635  0.676315  1
  Mn  Mn6  1  0.323685  0.713320  0.323685  1
  Mn  Mn7  1  0.323685  0.323685  0.713320  1
  Mn  Mn8  1  0.000000  0.676315  0.389635  1
  Mn  Mn9  1  0.676315  0.000000  0.389635  1
  Mn  Mn10  1  0.610365  0.610365  0.286680  1
  Mn  Mn11  1  0.286680  0.610365  0.610365  1
  Mn  Mn12  1  0.610365  0.286680  0.610365  1
  Mn  Mn13  1  0.373618  0.195639  0.000000  1
  Mn  Mn14  1  0.177979  0.804361  0.804361  1
  Mn  Mn15  1  0.373618  0.000000  0.195639  1
  Mn  Mn16  1  0.195639  0.373618  0.000000  1
  Mn  Mn17  1  0.000000  0.373618  0.195639  1
  Mn  Mn18  1  0.804361  0.177979  0.804361  1
  Mn  Mn19  1  0.804361  0.804361  0.177979  1
  Mn  Mn20  1  0.000000  0.195639  0.373618  1
  Mn  Mn21  1  0.195639  0.000000  0.373618  1
  Mn  Mn22  1  0.626382  0.626382  0.822021  1
  Mn  Mn23  1  0.822021  0.626382  0.626382  1
  Mn  Mn24  1  0.626382  0.822021  0.626382  1
  Re  Re25  1  0.629255  0.000000  0.000000  1
  Re  Re26  1  0.000000  0.629255  0.000000  1
  Re  Re27  1  0.000000  0.000000  0.629255  1
  Re  Re28  1  0.370745  0.370745  0.370745  1
