# generated using pymatgen
data_Tb3TaNb2(WN6)2
_symmetry_space_group_name_H-M   'P 1'
_cell_length_a   11.20657421
_cell_length_b   11.20241195
_cell_length_c   11.20151509
_cell_angle_alpha   109.53497001
_cell_angle_beta   109.55002333
_cell_angle_gamma   109.33953272
_symmetry_Int_Tables_number   1
_chemical_formula_structural   Tb3TaNb2(WN6)2
_chemical_formula_sum   'Tb12 Ta4 Nb8 W8 N48'
_cell_volume   1082.37979774
_cell_formula_units_Z   4
loop_
 _symmetry_equiv_pos_site_id
 _symmetry_equiv_pos_as_xyz
  1  'x, y, z'
loop_
 _atom_site_type_symbol
 _atom_site_label
 _atom_site_symmetry_multiplicity
 _atom_site_fract_x
 _atom_site_fract_y
 _atom_site_fract_z
 _atom_site_occupancy
  Tb  Tb0  1  0.247183  0.371595  0.122931  1
  Tb  Tb1  1  0.375748  0.751336  0.122929  1
  Tb  Tb2  1  0.372271  0.122271  0.244541  1
  Tb  Tb3  1  0.872941  0.622940  0.245882  1
  Tb  Tb4  1  0.751991  0.127280  0.377252  1
  Tb  Tb5  1  0.125262  0.249972  0.377253  1
  Tb  Tb6  1  0.879944  0.754039  0.628051  1
  Tb  Tb7  1  0.248108  0.874013  0.628051  1
  Tb  Tb8  1  0.127305  0.377307  0.754613  1
  Tb  Tb9  1  0.626275  0.876275  0.752550  1
  Tb  Tb10  1  0.620925  0.246896  0.872579  1
  Tb  Tb11  1  0.751653  0.625682  0.872579  1
  Ta  Ta12  1  0.874505  0.249337  0.124339  1
  Ta  Ta13  1  0.749832  0.875000  0.124338  1
  Ta  Ta14  1  0.624616  0.376217  0.251075  1
  Ta  Ta15  1  0.126458  0.874858  0.251075  1
  Nb  Nb16  1  0.999374  0.003467  0.008529  1
  Nb  Nb17  1  0.509152  0.005062  0.008526  1
  Nb  Nb18  1  0.995670  0.502025  0.005349  1
  Nb  Nb19  1  0.509678  0.503322  0.005345  1
  Nb  Nb20  1  0.998733  0.996805  0.492158  1
  Nb  Nb21  1  0.496259  0.998165  0.495136  1
  Nb  Nb22  1  0.993426  0.495354  0.492157  1
  Nb  Nb23  1  0.498882  0.496971  0.495139  1
  W  W24  1  0.251227  0.626034  0.375718  1
  W  W25  1  0.624491  0.749683  0.375718  1
  W  W26  1  0.374332  0.249234  0.624646  1
  W  W27  1  0.750314  0.375410  0.624645  1
  W  W28  1  0.874972  0.125337  0.750067  1
  W  W29  1  0.375094  0.624730  0.750065  1
  W  W30  1  0.249353  0.125606  0.874182  1
  W  W31  1  0.124829  0.748576  0.874182  1
  N  N32  1  0.205214  0.118095  0.019483  1
  N  N33  1  0.314268  0.901389  0.019482  1
  N  N34  1  0.876723  0.404654  0.082497  1
  N  N35  1  0.705772  0.677841  0.082495  1
  N  N36  1  0.973673  0.679154  0.093603  1
  N  N37  1  0.619929  0.414449  0.093604  1
  N  N38  1  0.594213  0.916020  0.122482  1
  N  N39  1  0.028268  0.206462  0.122483  1
  N  N40  1  0.204307  0.585597  0.183905  1
  N  N41  1  0.479597  0.598308  0.183905  1
  N  N42  1  0.584180  0.179765  0.206233  1
  N  N43  1  0.122054  0.026469  0.206234  1
  N  N44  1  0.324001  0.917401  0.294732  1
  N  N45  1  0.470730  0.377332  0.294732  1
  N  N46  1  0.905812  0.027518  0.322389  1
  N  N47  1  0.916578  0.294870  0.322391  1
  N  N48  1  0.295796  0.480763  0.382616  1
  N  N49  1  0.586822  0.901854  0.382616  1
  N  N50  1  0.082184  0.876839  0.405647  1
  N  N51  1  0.823464  0.528808  0.405647  1
  N  N52  1  0.099146  0.617501  0.413424  1
  N  N53  1  0.814276  0.795922  0.413422  1
  N  N54  1  0.599398  0.184305  0.480263  1
  N  N55  1  0.380866  0.295957  0.480263  1
  N  N56  1  0.619503  0.704127  0.521387  1
  N  N57  1  0.401885  0.817259  0.521387  1
  N  N58  1  0.184693  0.204403  0.586866  1
  N  N59  1  0.902173  0.382462  0.586866  1
  N  N60  1  0.915065  0.120483  0.599177  1
  N  N61  1  0.184110  0.478691  0.599175  1
  N  N62  1  0.413984  0.097393  0.618101  1
  N  N63  1  0.704117  0.520708  0.618100  1
  N  N64  1  0.086861  0.705573  0.683972  1
  N  N65  1  0.097110  0.978399  0.683973  1
  N  N66  1  0.683098  0.085207  0.704121  1
  N  N67  1  0.521022  0.618913  0.704120  1
  N  N68  1  0.412890  0.814695  0.794627  1
  N  N69  1  0.881738  0.979932  0.794627  1
  N  N70  1  0.519675  0.400652  0.814254  1
  N  N71  1  0.794579  0.413602  0.814252  1
  N  N72  1  0.400660  0.085796  0.879447  1
  N  N73  1  0.978787  0.793651  0.879447  1
  N  N74  1  0.020497  0.316008  0.902498  1
  N  N75  1  0.381998  0.586489  0.902495  1
  N  N76  1  0.294554  0.317408  0.915173  1
  N  N77  1  0.120617  0.597764  0.915173  1
  N  N78  1  0.677095  0.093638  0.972308  1
  N  N79  1  0.795213  0.878670  0.972308  1
