# generated using pymatgen
data_Nd3Dy2Y3(CdPt)2
_symmetry_space_group_name_H-M   'P 1'
_cell_length_a   9.81445358
_cell_length_b   9.81445394
_cell_length_c   9.81445400
_cell_angle_alpha   59.99999980
_cell_angle_beta   59.99999857
_cell_angle_gamma   59.99999832
_symmetry_Int_Tables_number   1
_chemical_formula_structural   Nd3Dy2Y3(CdPt)2
_chemical_formula_sum   'Nd6 Dy4 Y6 Cd4 Pt4'
_cell_volume   668.47227791
_cell_formula_units_Z   2
loop_
 _symmetry_equiv_pos_site_id
 _symmetry_equiv_pos_as_xyz
  1  'x, y, z'
loop_
 _atom_site_type_symbol
 _atom_site_label
 _atom_site_symmetry_multiplicity
 _atom_site_fract_x
 _atom_site_fract_y
 _atom_site_fract_z
 _atom_site_occupancy
  Nd  Nd0  1  0.937694  0.562306  0.562306  1
  Nd  Nd1  1  0.562306  0.937694  0.937694  1
  Nd  Nd2  1  0.562306  0.937694  0.562306  1
  Nd  Nd3  1  0.937694  0.562306  0.937694  1
  Nd  Nd4  1  0.562306  0.562306  0.937694  1
  Nd  Nd5  1  0.937694  0.937694  0.562306  1
  Dy  Dy6  1  0.350527  0.350527  0.350527  1
  Dy  Dy7  1  0.350527  0.350527  0.948418  1
  Dy  Dy8  1  0.350527  0.948418  0.350527  1
  Dy  Dy9  1  0.948418  0.350527  0.350527  1
  Y  Y10  1  0.811094  0.188906  0.188906  1
  Y  Y11  1  0.188906  0.811094  0.811094  1
  Y  Y12  1  0.188906  0.811094  0.188906  1
  Y  Y13  1  0.811094  0.188906  0.811094  1
  Y  Y14  1  0.188906  0.188906  0.811094  1
  Y  Y15  1  0.811094  0.811094  0.188906  1
  Cd  Cd16  1  0.579905  0.579905  0.579905  1
  Cd  Cd17  1  0.579905  0.579905  0.260286  1
  Cd  Cd18  1  0.579905  0.260286  0.579905  1
  Cd  Cd19  1  0.260286  0.579905  0.579905  1
  Pt  Pt20  1  0.143171  0.143171  0.143171  1
  Pt  Pt21  1  0.143171  0.143171  0.570487  1
  Pt  Pt22  1  0.143171  0.570487  0.143171  1
  Pt  Pt23  1  0.570487  0.143171  0.143171  1
