# generated using pymatgen
data_Hf4TaB4Ru10W
_symmetry_space_group_name_H-M   'P 1'
_cell_length_a   9.45444600
_cell_length_b   9.45444600
_cell_length_c   3.09360000
_cell_angle_alpha   90.00000000
_cell_angle_beta   90.00000000
_cell_angle_gamma   90.00000000
_symmetry_Int_Tables_number   1
_chemical_formula_structural   Hf4TaB4Ru10W
_chemical_formula_sum   'Hf4 Ta1 B4 Ru10 W1'
_cell_volume   276.52622850
_cell_formula_units_Z   1
loop_
 _symmetry_equiv_pos_site_id
 _symmetry_equiv_pos_as_xyz
  1  'x, y, z'
loop_
 _atom_site_type_symbol
 _atom_site_label
 _atom_site_symmetry_multiplicity
 _atom_site_fract_x
 _atom_site_fract_y
 _atom_site_fract_z
 _atom_site_occupancy
  Hf  Hf0  1  0.824660  0.676425  0.000000  1
  Hf  Hf1  1  0.175340  0.323575  0.000000  1
  Hf  Hf2  1  0.323575  0.824660  0.000000  1
  Hf  Hf3  1  0.676425  0.175340  0.000000  1
  Ta  Ta4  1  0.000000  0.000000  0.000000  1
  B  B5  1  0.621953  0.879954  0.000000  1
  B  B6  1  0.378047  0.120046  0.000000  1
  B  B7  1  0.120046  0.621953  0.000000  1
  B  B8  1  0.879954  0.378047  0.000000  1
  Ru  Ru9  1  0.569173  0.715655  0.500000  1
  Ru  Ru10  1  0.430827  0.284345  0.500000  1
  Ru  Ru11  1  0.071742  0.781534  0.500000  1
  Ru  Ru12  1  0.928258  0.218466  0.500000  1
  Ru  Ru13  1  0.284345  0.569173  0.500000  1
  Ru  Ru14  1  0.715655  0.430827  0.500000  1
  Ru  Ru15  1  0.218466  0.071742  0.500000  1
  Ru  Ru16  1  0.781534  0.928258  0.500000  1
  Ru  Ru17  1  0.500000  0.000000  0.500000  1
  Ru  Ru18  1  0.000000  0.500000  0.500000  1
  W  W19  1  0.500000  0.500000  0.000000  1
