# generated using pymatgen
data_Er2Lu2TcB12Rh
_symmetry_space_group_name_H-M   'P 1'
_cell_length_a   3.63299900
_cell_length_b   9.05467602
_cell_length_c   11.44400246
_cell_angle_alpha   89.71599985
_cell_angle_beta   90.00000000
_cell_angle_gamma   90.00000000
_symmetry_Int_Tables_number   1
_chemical_formula_structural   Er2Lu2TcB12Rh
_chemical_formula_sum   'Er4 Lu4 Tc2 B24 Rh2'
_cell_volume   376.45303357
_cell_formula_units_Z   2
loop_
 _symmetry_equiv_pos_site_id
 _symmetry_equiv_pos_as_xyz
  1  'x, y, z'
loop_
 _atom_site_type_symbol
 _atom_site_label
 _atom_site_symmetry_multiplicity
 _atom_site_fract_x
 _atom_site_fract_y
 _atom_site_fract_z
 _atom_site_occupancy
  Er  Er0  1  0.000000  0.324447  0.417279  1
  Er  Er1  1  0.000000  0.675553  0.582721  1
  Er  Er2  1  0.000000  0.817520  0.088210  1
  Er  Er3  1  0.000000  0.182480  0.911790  1
  Lu  Lu4  1  0.000000  0.941521  0.373018  1
  Lu  Lu5  1  0.000000  0.058479  0.626982  1
  Lu  Lu6  1  0.000000  0.445902  0.128580  1
  Lu  Lu7  1  0.000000  0.554098  0.871420  1
  Tc  Tc8  1  0.000000  0.639061  0.318995  1
  Tc  Tc9  1  0.000000  0.360939  0.681005  1
  B  B10  1  0.500000  0.553259  0.433161  1
  B  B11  1  0.500000  0.446741  0.566839  1
  B  B12  1  0.500000  0.054018  0.065877  1
  B  B13  1  0.500000  0.945982  0.934123  1
  B  B14  1  0.500000  0.749625  0.419420  1
  B  B15  1  0.500000  0.250375  0.580580  1
  B  B16  1  0.500000  0.250846  0.079246  1
  B  B17  1  0.500000  0.749154  0.920754  1
  B  B18  1  0.500000  0.792553  0.264756  1
  B  B19  1  0.500000  0.207447  0.735244  1
  B  B20  1  0.500000  0.291385  0.235214  1
  B  B21  1  0.500000  0.708615  0.764786  1
  B  B22  1  0.500000  0.630072  0.183892  1
  B  B23  1  0.500000  0.369928  0.816108  1
  B  B24  1  0.500000  0.130000  0.317297  1
  B  B25  1  0.500000  0.870000  0.682703  1
  B  B26  1  0.500000  0.981355  0.212254  1
  B  B27  1  0.500000  0.018645  0.787746  1
  B  B28  1  0.500000  0.481642  0.287139  1
  B  B29  1  0.500000  0.518358  0.712861  1
  B  B30  1  0.500000  0.603603  0.027792  1
  B  B31  1  0.500000  0.396397  0.972208  1
  B  B32  1  0.500000  0.103003  0.470975  1
  B  B33  1  0.500000  0.896997  0.529025  1
  Rh  Rh34  1  0.000000  0.137646  0.178951  1
  Rh  Rh35  1  0.000000  0.862354  0.821049  1
