# generated using pymatgen
data_Nd7Y(LuIn5)4
_symmetry_space_group_name_H-M   'P 1'
_cell_length_a   6.63578637
_cell_length_b   10.44781278
_cell_length_c   12.35871273
_cell_angle_alpha   90.05409769
_cell_angle_beta   90.05357975
_cell_angle_gamma   90.08079735
_symmetry_Int_Tables_number   1
_chemical_formula_structural   Nd7Y(LuIn5)4
_chemical_formula_sum   'Nd7 Y1 Lu4 In20'
_cell_volume   856.82119109
_cell_formula_units_Z   1
loop_
 _symmetry_equiv_pos_site_id
 _symmetry_equiv_pos_as_xyz
  1  'x, y, z'
loop_
 _atom_site_type_symbol
 _atom_site_label
 _atom_site_symmetry_multiplicity
 _atom_site_fract_x
 _atom_site_fract_y
 _atom_site_fract_z
 _atom_site_occupancy
  Nd  Nd0  1  0.886363  0.488380  0.142657  1
  Nd  Nd1  1  0.613336  0.011452  0.642736  1
  Nd  Nd2  1  0.113264  0.988471  0.856983  1
  Nd  Nd3  1  0.386852  0.511544  0.358026  1
  Nd  Nd4  1  0.113031  0.511624  0.857026  1
  Nd  Nd5  1  0.387154  0.988440  0.357714  1
  Nd  Nd6  1  0.886468  0.011463  0.142584  1
  Y  Y7  1  0.612987  0.488280  0.642423  1
  Lu  Lu8  1  0.353507  0.749848  0.053142  1
  Lu  Lu9  1  0.147436  0.750275  0.553458  1
  Lu  Lu10  1  0.646854  0.249893  0.946617  1
  Lu  Lu11  1  0.853078  0.250474  0.447121  1
  In  In12  1  0.612310  0.747979  0.505684  1
  In  In13  1  0.887703  0.749895  0.003564  1
  In  In14  1  0.388980  0.250858  0.496655  1
  In  In15  1  0.112118  0.249911  0.996225  1
  In  In16  1  0.650559  0.749843  0.241605  1
  In  In17  1  0.848460  0.748610  0.740597  1
  In  In18  1  0.350472  0.251200  0.757971  1
  In  In19  1  0.150175  0.250059  0.258733  1
  In  In20  1  0.112768  0.749980  0.277323  1
  In  In21  1  0.387629  0.749569  0.777033  1
  In  In22  1  0.884979  0.252009  0.721992  1
  In  In23  1  0.612777  0.250009  0.222657  1
  In  In24  1  0.872992  0.543437  0.403478  1
  In  In25  1  0.626452  0.956018  0.902806  1
  In  In26  1  0.126592  0.044246  0.597272  1
  In  In27  1  0.373551  0.456235  0.097092  1
  In  In28  1  0.128065  0.456648  0.597675  1
  In  In29  1  0.373558  0.043884  0.097296  1
  In  In30  1  0.873218  0.956083  0.402881  1
  In  In31  1  0.626312  0.543381  0.900976  1
