# generated using pymatgen
data_Ho2LuMgIr8
_symmetry_space_group_name_H-M   'P 1'
_cell_length_a   5.31272300
_cell_length_b   5.31272181
_cell_length_c   8.62925800
_cell_angle_alpha   90.00000000
_cell_angle_beta   90.00000000
_cell_angle_gamma   120.00000116
_symmetry_Int_Tables_number   1
_chemical_formula_structural   Ho2LuMgIr8
_chemical_formula_sum   'Ho2 Lu1 Mg1 Ir8'
_cell_volume   210.92998857
_cell_formula_units_Z   1
loop_
 _symmetry_equiv_pos_site_id
 _symmetry_equiv_pos_as_xyz
  1  'x, y, z'
loop_
 _atom_site_type_symbol
 _atom_site_label
 _atom_site_symmetry_multiplicity
 _atom_site_fract_x
 _atom_site_fract_y
 _atom_site_fract_z
 _atom_site_occupancy
  Ho  Ho0  1  0.333333  0.666667  0.077961  1
  Ho  Ho1  1  0.666667  0.333333  0.559348  1
  Lu  Lu2  1  0.666667  0.333333  0.930692  1
  Mg  Mg3  1  0.333333  0.666667  0.439684  1
  Ir  Ir4  1  0.000000  0.000000  0.997297  1
  Ir  Ir5  1  0.000000  0.000000  0.497638  1
  Ir  Ir6  1  0.830131  0.660263  0.249962  1
  Ir  Ir7  1  0.170800  0.829200  0.749165  1
  Ir  Ir8  1  0.658401  0.829200  0.749165  1
  Ir  Ir9  1  0.339737  0.169869  0.249962  1
  Ir  Ir10  1  0.830131  0.169869  0.249962  1
  Ir  Ir11  1  0.170800  0.341599  0.749165  1
