# generated using pymatgen
data_AcEu3(SiPd)4
_symmetry_space_group_name_H-M   'P 1'
_cell_length_a   6.52540111
_cell_length_b   6.52540111
_cell_length_c   6.52540111
_cell_angle_alpha   89.58934235
_cell_angle_beta   89.58934235
_cell_angle_gamma   90.41065765
_symmetry_Int_Tables_number   1
_chemical_formula_structural   AcEu3(SiPd)4
_chemical_formula_sum   'Ac1 Eu3 Si4 Pd4'
_cell_volume   277.83567504
_cell_formula_units_Z   1
loop_
 _symmetry_equiv_pos_site_id
 _symmetry_equiv_pos_as_xyz
  1  'x, y, z'
loop_
 _atom_site_type_symbol
 _atom_site_label
 _atom_site_symmetry_multiplicity
 _atom_site_fract_x
 _atom_site_fract_y
 _atom_site_fract_z
 _atom_site_occupancy
  Ac  Ac0  1  0.375835  0.875835  0.624165  1
  Eu  Eu1  1  0.880074  0.616981  0.378353  1
  Eu  Eu2  1  0.621647  0.380074  0.883019  1
  Eu  Eu3  1  0.116981  0.121647  0.119926  1
  Si  Si4  1  0.673248  0.173248  0.326752  1
  Si  Si5  1  0.169968  0.332836  0.671141  1
  Si  Si6  1  0.328859  0.669968  0.167164  1
  Si  Si7  1  0.832836  0.828859  0.830032  1
  Pd  Pd8  1  0.083589  0.583589  0.916411  1
  Pd  Pd9  1  0.588052  0.915122  0.086211  1
  Pd  Pd10  1  0.913789  0.088052  0.584878  1
  Pd  Pd11  1  0.415122  0.413789  0.411948  1
