# generated using pymatgen
data_Sr6Sc2CoIrO12
_symmetry_space_group_name_H-M   'P 1'
_cell_length_a   6.72095110
_cell_length_b   6.72095210
_cell_length_c   6.72095084
_cell_angle_alpha   92.88974516
_cell_angle_beta   92.88974951
_cell_angle_gamma   92.88976271
_symmetry_Int_Tables_number   1
_chemical_formula_structural   Sr6Sc2CoIrO12
_chemical_formula_sum   'Sr6 Sc2 Co1 Ir1 O12'
_cell_volume   302.39466260
_cell_formula_units_Z   1
loop_
 _symmetry_equiv_pos_site_id
 _symmetry_equiv_pos_as_xyz
  1  'x, y, z'
loop_
 _atom_site_type_symbol
 _atom_site_label
 _atom_site_symmetry_multiplicity
 _atom_site_fract_x
 _atom_site_fract_y
 _atom_site_fract_z
 _atom_site_occupancy
  Sr  Sr0  1  0.746829  0.119094  0.381335  1
  Sr  Sr1  1  0.381335  0.746829  0.119094  1
  Sr  Sr2  1  0.119094  0.381335  0.746829  1
  Sr  Sr3  1  0.253171  0.880906  0.618665  1
  Sr  Sr4  1  0.618665  0.253171  0.880906  1
  Sr  Sr5  1  0.880906  0.618665  0.253171  1
  Sc  Sc6  1  0.745320  0.745320  0.745320  1
  Sc  Sc7  1  0.254680  0.254680  0.254680  1
  Co  Co8  1  0.500000  0.500000  0.500000  1
  Ir  Ir9  1  0.000000  0.000000  0.000000  1
  O  O10  1  0.591879  0.780354  0.463217  1
  O  O11  1  0.463217  0.591879  0.780354  1
  O  O12  1  0.780354  0.463217  0.591879  1
  O  O13  1  0.898044  0.031915  0.704802  1
  O  O14  1  0.704802  0.898044  0.031915  1
  O  O15  1  0.031915  0.704802  0.898044  1
  O  O16  1  0.408121  0.219646  0.536783  1
  O  O17  1  0.536783  0.408121  0.219646  1
  O  O18  1  0.219646  0.536783  0.408121  1
  O  O19  1  0.101956  0.968085  0.295198  1
  O  O20  1  0.968085  0.295198  0.101956  1
  O  O21  1  0.295198  0.101956  0.968085  1
