# generated using pymatgen
data_Cs3V2Br9
_symmetry_space_group_name_H-M   'P 1'
_cell_length_a   7.84876308
_cell_length_b   7.84941896
_cell_length_c   19.43516200
_cell_angle_alpha   90.00000000
_cell_angle_beta   90.00000000
_cell_angle_gamma   120.01342706
_symmetry_Int_Tables_number   1
_chemical_formula_structural   Cs3V2Br9
_chemical_formula_sum   'Cs6 V4 Br18'
_cell_volume   1036.80898117
_cell_formula_units_Z   2
loop_
 _symmetry_equiv_pos_site_id
 _symmetry_equiv_pos_as_xyz
  1  'x, y, z'
loop_
 _atom_site_type_symbol
 _atom_site_label
 _atom_site_symmetry_multiplicity
 _atom_site_fract_x
 _atom_site_fract_y
 _atom_site_fract_z
 _atom_site_occupancy
  Cs  Cs0  1  0.000011  0.999986  0.250000  1
  Cs  Cs1  1  0.999989  0.000014  0.750000  1
  Cs  Cs2  1  0.333339  0.666661  0.429288  1
  Cs  Cs3  1  0.666661  0.333339  0.570712  1
  Cs  Cs4  1  0.666661  0.333339  0.929288  1
  Cs  Cs5  1  0.333339  0.666661  0.070712  1
  V  V6  1  0.333261  0.666754  0.665821  1
  V  V7  1  0.666739  0.333246  0.334179  1
  V  V8  1  0.666739  0.333246  0.165821  1
  V  V9  1  0.333261  0.666754  0.834179  1
  Br  Br10  1  0.516135  0.483875  0.250000  1
  Br  Br11  1  0.516035  0.032184  0.250000  1
  Br  Br12  1  0.967806  0.483964  0.250000  1
  Br  Br13  1  0.483865  0.516125  0.750000  1
  Br  Br14  1  0.483965  0.967816  0.750000  1
  Br  Br15  1  0.032194  0.516036  0.750000  1
  Br  Br16  1  0.820055  0.179945  0.405036  1
  Br  Br17  1  0.820071  0.640174  0.405061  1
  Br  Br18  1  0.359832  0.179933  0.405059  1
  Br  Br19  1  0.179945  0.820055  0.594964  1
  Br  Br20  1  0.179929  0.359826  0.594939  1
  Br  Br21  1  0.640168  0.820067  0.594941  1
  Br  Br22  1  0.179945  0.820055  0.905036  1
  Br  Br23  1  0.179929  0.359826  0.905061  1
  Br  Br24  1  0.640168  0.820067  0.905059  1
  Br  Br25  1  0.820055  0.179945  0.094964  1
  Br  Br26  1  0.820071  0.640174  0.094939  1
  Br  Br27  1  0.359832  0.179933  0.094941  1
