# generated using pymatgen
data_Sc16Cd4NiRh3
_symmetry_space_group_name_H-M   'P 1'
_cell_length_a   9.01166720
_cell_length_b   9.01387603
_cell_length_c   9.01387600
_cell_angle_alpha   60.00000012
_cell_angle_beta   59.99189169
_cell_angle_gamma   59.99188766
_symmetry_Int_Tables_number   1
_chemical_formula_structural   Sc16Cd4NiRh3
_chemical_formula_sum   'Sc16 Cd4 Ni1 Rh3'
_cell_volume   517.67841612
_cell_formula_units_Z   1
loop_
 _symmetry_equiv_pos_site_id
 _symmetry_equiv_pos_as_xyz
  1  'x, y, z'
loop_
 _atom_site_type_symbol
 _atom_site_label
 _atom_site_symmetry_multiplicity
 _atom_site_fract_x
 _atom_site_fract_y
 _atom_site_fract_z
 _atom_site_occupancy
  Sc  Sc0  1  0.356843  0.346963  0.346963  1
  Sc  Sc1  1  0.356843  0.346963  0.949229  1
  Sc  Sc2  1  0.356843  0.949229  0.346963  1
  Sc  Sc3  1  0.942796  0.352401  0.352401  1
  Sc  Sc4  1  0.807977  0.189049  0.189049  1
  Sc  Sc5  1  0.188700  0.811215  0.811215  1
  Sc  Sc6  1  0.188700  0.811215  0.188868  1
  Sc  Sc7  1  0.807977  0.189049  0.813925  1
  Sc  Sc8  1  0.188700  0.188868  0.811215  1
  Sc  Sc9  1  0.807977  0.813925  0.189049  1
  Sc  Sc10  1  0.936624  0.563365  0.563365  1
  Sc  Sc11  1  0.563318  0.935837  0.935837  1
  Sc  Sc12  1  0.563318  0.935837  0.565009  1
  Sc  Sc13  1  0.936624  0.563365  0.936647  1
  Sc  Sc14  1  0.563318  0.565009  0.935837  1
  Sc  Sc15  1  0.936624  0.936647  0.563365  1
  Cd  Cd16  1  0.582274  0.583893  0.583893  1
  Cd  Cd17  1  0.582274  0.583893  0.249939  1
  Cd  Cd18  1  0.582274  0.249939  0.583893  1
  Cd  Cd19  1  0.250060  0.583313  0.583313  1
  Ni  Ni20  1  0.574432  0.141856  0.141856  1
  Rh  Rh21  1  0.141833  0.143969  0.143969  1
  Rh  Rh22  1  0.141833  0.143969  0.570228  1
  Rh  Rh23  1  0.141833  0.570228  0.143969  1
