# generated using pymatgen
data_Hf3Sc(Tc2W)4
_symmetry_space_group_name_H-M   'P 1'
_cell_length_a   6.38959100
_cell_length_b   4.49529800
_cell_length_c   9.00359000
_cell_angle_alpha   90.00000000
_cell_angle_beta   90.00036273
_cell_angle_gamma   90.00000000
_symmetry_Int_Tables_number   1
_chemical_formula_structural   Hf3Sc(Tc2W)4
_chemical_formula_sum   'Hf3 Sc1 Tc8 W4'
_cell_volume   258.61115677
_cell_formula_units_Z   1
loop_
 _symmetry_equiv_pos_site_id
 _symmetry_equiv_pos_as_xyz
  1  'x, y, z'
loop_
 _atom_site_type_symbol
 _atom_site_label
 _atom_site_symmetry_multiplicity
 _atom_site_fract_x
 _atom_site_fract_y
 _atom_site_fract_z
 _atom_site_occupancy
  Hf  Hf0  1  0.250118  0.250001  0.123998  1
  Hf  Hf1  1  0.750110  0.749999  0.375009  1
  Hf  Hf2  1  0.249890  0.250001  0.625982  1
  Sc  Sc3  1  0.749846  0.749999  0.875007  1
  Tc  Tc4  1  0.000102  0.749999  0.125505  1
  Tc  Tc5  1  0.500068  0.749999  0.125554  1
  Tc  Tc6  1  0.000233  0.250001  0.374985  1
  Tc  Tc7  1  0.499941  0.250001  0.375033  1
  Tc  Tc8  1  0.499897  0.749999  0.624439  1
  Tc  Tc9  1  0.999931  0.749999  0.624487  1
  Tc  Tc10  1  0.500666  0.250001  0.874980  1
  Tc  Tc11  1  0.999182  0.250001  0.875029  1
  W  W12  1  0.750113  0.250001  0.122739  1
  W  W13  1  0.250123  0.749999  0.374982  1
  W  W14  1  0.749892  0.250001  0.627288  1
  W  W15  1  0.249889  0.749999  0.874983  1
