# generated using pymatgen
data_Sm3Dy(CCl)2
_symmetry_space_group_name_H-M   'P 1'
_cell_length_a   3.70417300
_cell_length_b   3.70417332
_cell_length_c   13.94150500
_cell_angle_alpha   90.00000000
_cell_angle_beta   90.00000000
_cell_angle_gamma   120.00000606
_symmetry_Int_Tables_number   1
_chemical_formula_structural   Sm3Dy(CCl)2
_chemical_formula_sum   'Sm3 Dy1 C2 Cl2'
_cell_volume   165.66197141
_cell_formula_units_Z   1
loop_
 _symmetry_equiv_pos_site_id
 _symmetry_equiv_pos_as_xyz
  1  'x, y, z'
loop_
 _atom_site_type_symbol
 _atom_site_label
 _atom_site_symmetry_multiplicity
 _atom_site_fract_x
 _atom_site_fract_y
 _atom_site_fract_z
 _atom_site_occupancy
  Sm  Sm0  1  0.333333  0.666667  0.596892  1
  Sm  Sm1  1  0.666667  0.333333  0.404560  1
  Sm  Sm2  1  0.666667  0.333333  0.093354  1
  Dy  Dy3  1  0.333333  0.666667  0.905850  1
  C  C4  1  0.000000  0.000000  0.994162  1
  C  C5  1  0.000000  0.000000  0.500893  1
  Cl  Cl6  1  0.333333  0.666667  0.248386  1
  Cl  Cl7  1  0.666667  0.333333  0.755904  1
