# generated using pymatgen
data_Pr12Co2PtRhBr12
_symmetry_space_group_name_H-M   'P 1'
_cell_length_a   10.41348154
_cell_length_b   10.50747872
_cell_length_c   10.56394414
_cell_angle_alpha   109.77973338
_cell_angle_beta   109.42189824
_cell_angle_gamma   108.81038390
_symmetry_Int_Tables_number   1
_chemical_formula_structural   Pr12Co2PtRhBr12
_chemical_formula_sum   'Pr12 Co2 Pt1 Rh1 Br12'
_cell_volume   894.14721504
_cell_formula_units_Z   1
loop_
 _symmetry_equiv_pos_site_id
 _symmetry_equiv_pos_as_xyz
  1  'x, y, z'
loop_
 _atom_site_type_symbol
 _atom_site_label
 _atom_site_symmetry_multiplicity
 _atom_site_fract_x
 _atom_site_fract_y
 _atom_site_fract_z
 _atom_site_occupancy
  Pr  Pr0  1  0.468494  0.477739  0.239520  1
  Pr  Pr1  1  0.742025  0.230265  0.262508  1
  Pr  Pr2  1  0.740082  0.013160  0.477383  1
  Pr  Pr3  1  0.237302  0.464223  0.477383  1
  Pr  Pr4  1  0.271026  0.761781  0.239520  1
  Pr  Pr5  1  0.035651  0.261169  0.024520  1
  Pr  Pr6  1  0.020484  0.032243  0.262508  1
  Pr  Pr7  1  0.488869  0.763351  0.024520  1
  Pr  Pr8  1  0.481209  0.231209  0.462419  1
  Pr  Pr9  1  0.011928  0.483312  0.745870  1
  Pr  Pr10  1  0.268772  0.018772  0.037545  1
  Pr  Pr11  1  0.233942  0.262558  0.745870  1
  Co  Co12  1  0.250754  0.248788  0.250549  1
  Co  Co13  1  0.499795  0.001761  0.250549  1
  Pt  Pt14  1  0.250454  0.500454  0.000909  1
  Rh  Rh15  1  0.999294  0.249294  0.498588  1
  Br  Br16  1  0.249724  0.754399  0.746832  1
  Br  Br17  1  0.507719  0.503168  0.753428  1
  Br  Br18  1  0.987618  0.744302  0.993916  1
  Br  Br19  1  0.745710  0.250260  0.753428  1
  Br  Br20  1  0.997108  0.992432  0.746832  1
  Br  Br21  1  0.250193  0.993391  0.505840  1
  Br  Br22  1  0.755648  0.512450  0.505840  1
  Br  Br23  1  0.506297  0.249614  0.993916  1
  Br  Br24  1  0.754024  0.745549  0.250041  1
  Br  Br25  1  0.744571  0.994571  0.989143  1
  Br  Br26  1  0.996017  0.504492  0.250041  1
  Br  Br27  1  0.505290  0.755290  0.510580  1
