# generated using pymatgen
data_Cs2NbTc11S14
_symmetry_space_group_name_H-M   'P 1'
_cell_length_a   9.61670796
_cell_length_b   9.57482295
_cell_length_c   9.55002574
_cell_angle_alpha   60.44976061
_cell_angle_beta   60.19056217
_cell_angle_gamma   60.63088519
_symmetry_Int_Tables_number   1
_chemical_formula_structural   Cs2NbTc11S14
_chemical_formula_sum   'Cs2 Nb1 Tc11 S14'
_cell_volume   627.73330292
_cell_formula_units_Z   1
loop_
 _symmetry_equiv_pos_site_id
 _symmetry_equiv_pos_as_xyz
  1  'x, y, z'
loop_
 _atom_site_type_symbol
 _atom_site_label
 _atom_site_symmetry_multiplicity
 _atom_site_fract_x
 _atom_site_fract_y
 _atom_site_fract_z
 _atom_site_occupancy
  Cs  Cs0  1  0.376308  0.377157  0.374120  1
  Cs  Cs1  1  0.624895  0.623044  0.624359  1
  Nb  Nb2  1  0.310144  0.126655  0.992478  1
  Tc  Tc3  1  0.200704  0.879068  0.062688  1
  Tc  Tc4  1  0.886555  0.061359  0.195699  1
  Tc  Tc5  1  0.936167  0.802683  0.116035  1
  Tc  Tc6  1  0.803714  0.116471  0.937455  1
  Tc  Tc7  1  0.115209  0.938168  0.803523  1
  Tc  Tc8  1  0.991106  0.310031  0.125244  1
  Tc  Tc9  1  0.874116  0.006810  0.689827  1
  Tc  Tc10  1  0.126544  0.990086  0.309776  1
  Tc  Tc11  1  0.005273  0.691108  0.872530  1
  Tc  Tc12  1  0.688618  0.872823  0.011631  1
  Tc  Tc13  1  0.062507  0.201792  0.877539  1
  S  S14  1  0.984637  0.229869  0.651882  1
  S  S15  1  0.227319  0.652592  0.983843  1
  S  S16  1  0.654418  0.984325  0.231256  1
  S  S17  1  0.019938  0.767574  0.344897  1
  S  S18  1  0.775018  0.348781  0.010873  1
  S  S19  1  0.346194  0.014477  0.765144  1
  S  S20  1  0.158618  0.417712  0.823696  1
  S  S21  1  0.410384  0.816900  0.174935  1
  S  S22  1  0.832779  0.163408  0.409774  1
  S  S23  1  0.830540  0.592145  0.175149  1
  S  S24  1  0.597363  0.175793  0.829555  1
  S  S25  1  0.174011  0.833552  0.590317  1
  S  S26  1  0.780335  0.783275  0.784177  1
  S  S27  1  0.206587  0.222343  0.231599  1
