# generated using pymatgen
data_CaNp3(NiAs2)2
_symmetry_space_group_name_H-M   'P 1'
_cell_length_a   4.10869900
_cell_length_b   4.10869863
_cell_length_c   14.67739100
_cell_angle_alpha   90.00000000
_cell_angle_beta   90.00000000
_cell_angle_gamma   120.00001099
_symmetry_Int_Tables_number   1
_chemical_formula_structural   CaNp3(NiAs2)2
_chemical_formula_sum   'Ca1 Np3 Ni2 As4'
_cell_volume   214.57941726
_cell_formula_units_Z   1
loop_
 _symmetry_equiv_pos_site_id
 _symmetry_equiv_pos_as_xyz
  1  'x, y, z'
loop_
 _atom_site_type_symbol
 _atom_site_label
 _atom_site_symmetry_multiplicity
 _atom_site_fract_x
 _atom_site_fract_y
 _atom_site_fract_z
 _atom_site_occupancy
  Ca  Ca0  1  0.333333  0.666667  0.115194  1
  Np  Np1  1  0.333333  0.666667  0.380090  1
  Np  Np2  1  0.666667  0.333333  0.620709  1
  Np  Np3  1  0.666667  0.333333  0.880306  1
  Ni  Ni4  1  0.000000  0.000000  0.259188  1
  Ni  Ni5  1  0.000000  0.000000  0.744753  1
  As  As6  1  0.000000  0.000000  0.501019  1
  As  As7  1  0.000000  0.000000  0.991209  1
  As  As8  1  0.333333  0.666667  0.752465  1
  As  As9  1  0.666667  0.333333  0.255066  1
