# generated using pymatgen
data_SrPrCd(Si3Pd10)2
_symmetry_space_group_name_H-M   'P 1'
_cell_length_a   8.74832415
_cell_length_b   8.74832441
_cell_length_c   8.74832500
_cell_angle_alpha   60.00000156
_cell_angle_beta   60.00000057
_cell_angle_gamma   59.99999918
_symmetry_Int_Tables_number   1
_chemical_formula_structural   SrPrCd(Si3Pd10)2
_chemical_formula_sum   'Sr1 Pr1 Cd1 Si6 Pd20'
_cell_volume   473.43423692
_cell_formula_units_Z   1
loop_
 _symmetry_equiv_pos_site_id
 _symmetry_equiv_pos_as_xyz
  1  'x, y, z'
loop_
 _atom_site_type_symbol
 _atom_site_label
 _atom_site_symmetry_multiplicity
 _atom_site_fract_x
 _atom_site_fract_y
 _atom_site_fract_z
 _atom_site_occupancy
  Sr  Sr0  1  0.250000  0.250000  0.250000  1
  Pr  Pr1  1  0.750000  0.750000  0.750000  1
  Cd  Cd2  1  0.000000  0.000000  0.000000  1
  Si  Si3  1  0.732436  0.267564  0.267564  1
  Si  Si4  1  0.267564  0.732436  0.732436  1
  Si  Si5  1  0.267564  0.732436  0.267564  1
  Si  Si6  1  0.732436  0.267564  0.732436  1
  Si  Si7  1  0.267564  0.267564  0.732436  1
  Si  Si8  1  0.732436  0.732436  0.267564  1
  Pd  Pd9  1  0.386990  0.386990  0.386990  1
  Pd  Pd10  1  0.614802  0.614802  0.614802  1
  Pd  Pd11  1  0.386990  0.386990  0.839030  1
  Pd  Pd12  1  0.386990  0.839030  0.386990  1
  Pd  Pd13  1  0.614802  0.614802  0.155594  1
  Pd  Pd14  1  0.614802  0.155594  0.614802  1
  Pd  Pd15  1  0.839030  0.386990  0.386990  1
  Pd  Pd16  1  0.155594  0.614802  0.614802  1
  Pd  Pd17  1  0.344939  0.998416  0.998416  1
  Pd  Pd18  1  0.658228  0.998416  0.998416  1
  Pd  Pd19  1  0.998416  0.344939  0.658228  1
  Pd  Pd20  1  0.998416  0.658228  0.344939  1
  Pd  Pd21  1  0.998416  0.344939  0.998416  1
  Pd  Pd22  1  0.658228  0.998416  0.344939  1
  Pd  Pd23  1  0.998416  0.658228  0.998416  1
  Pd  Pd24  1  0.344939  0.998416  0.658228  1
  Pd  Pd25  1  0.998416  0.998416  0.344939  1
  Pd  Pd26  1  0.998416  0.998416  0.658228  1
  Pd  Pd27  1  0.658228  0.344939  0.998416  1
  Pd  Pd28  1  0.344939  0.658228  0.998416  1
