# generated using pymatgen
data_Pr2Nd14MgAg3Ir4
_symmetry_space_group_name_H-M   'P 1'
_cell_length_a   9.90637473
_cell_length_b   9.96729797
_cell_length_c   9.93470800
_cell_angle_alpha   60.10809502
_cell_angle_beta   59.90533661
_cell_angle_gamma   59.95729862
_symmetry_Int_Tables_number   1
_chemical_formula_structural   Pr2Nd14MgAg3Ir4
_chemical_formula_sum   'Pr2 Nd14 Mg1 Ag3 Ir4'
_cell_volume   693.47894426
_cell_formula_units_Z   1
loop_
 _symmetry_equiv_pos_site_id
 _symmetry_equiv_pos_as_xyz
  1  'x, y, z'
loop_
 _atom_site_type_symbol
 _atom_site_label
 _atom_site_symmetry_multiplicity
 _atom_site_fract_x
 _atom_site_fract_y
 _atom_site_fract_z
 _atom_site_occupancy
  Pr  Pr0  1  0.561522  0.562775  0.937852  1
  Pr  Pr1  1  0.937566  0.938110  0.562163  1
  Nd  Nd2  1  0.347891  0.347704  0.348321  1
  Nd  Nd3  1  0.347891  0.347704  0.956084  1
  Nd  Nd4  1  0.348461  0.955408  0.348066  1
  Nd  Nd5  1  0.944626  0.351938  0.351719  1
  Nd  Nd6  1  0.807495  0.191572  0.191983  1
  Nd  Nd7  1  0.187843  0.811008  0.812064  1
  Nd  Nd8  1  0.187843  0.811008  0.189087  1
  Nd  Nd9  1  0.807495  0.191572  0.808950  1
  Nd  Nd10  1  0.188277  0.188533  0.811596  1
  Nd  Nd11  1  0.807194  0.808005  0.192400  1
  Nd  Nd12  1  0.937300  0.561999  0.561570  1
  Nd  Nd13  1  0.560904  0.939144  0.938595  1
  Nd  Nd14  1  0.560904  0.939144  0.561357  1
  Nd  Nd15  1  0.937300  0.561999  0.939131  1
  Mg  Mg16  1  0.292008  0.569067  0.569462  1
  Ag  Ag17  1  0.580672  0.584150  0.583034  1
  Ag  Ag18  1  0.580672  0.584150  0.252145  1
  Ag  Ag19  1  0.579479  0.252911  0.583806  1
  Ir  Ir20  1  0.140625  0.142928  0.141074  1
  Ir  Ir21  1  0.140625  0.142928  0.575372  1
  Ir  Ir22  1  0.140367  0.574245  0.142694  1
  Ir  Ir23  1  0.575042  0.142000  0.141479  1
