# generated using pymatgen
data_Ho6Er4(BiPb)3
_symmetry_space_group_name_H-M   'P 1'
_cell_length_a   9.08716200
_cell_length_b   9.08716324
_cell_length_c   6.43799700
_cell_angle_alpha   90.00000000
_cell_angle_beta   90.00000000
_cell_angle_gamma   120.00000275
_symmetry_Int_Tables_number   1
_chemical_formula_structural   Ho6Er4(BiPb)3
_chemical_formula_sum   'Ho6 Er4 Bi3 Pb3'
_cell_volume   460.40283584
_cell_formula_units_Z   1
loop_
 _symmetry_equiv_pos_site_id
 _symmetry_equiv_pos_as_xyz
  1  'x, y, z'
loop_
 _atom_site_type_symbol
 _atom_site_label
 _atom_site_symmetry_multiplicity
 _atom_site_fract_x
 _atom_site_fract_y
 _atom_site_fract_z
 _atom_site_occupancy
  Ho  Ho0  1  0.761838  0.761838  0.750000  1
  Ho  Ho1  1  0.238162  0.000000  0.750000  1
  Ho  Ho2  1  0.000000  0.238162  0.750000  1
  Ho  Ho3  1  0.238468  0.238468  0.250000  1
  Ho  Ho4  1  0.761532  0.000000  0.250000  1
  Ho  Ho5  1  0.000000  0.761532  0.250000  1
  Er  Er6  1  0.666667  0.333333  0.002882  1
  Er  Er7  1  0.333333  0.666667  0.002882  1
  Er  Er8  1  0.333333  0.666667  0.497118  1
  Er  Er9  1  0.666667  0.333333  0.497118  1
  Bi  Bi10  1  0.393032  0.393032  0.750000  1
  Bi  Bi11  1  0.606968  0.000000  0.750000  1
  Bi  Bi12  1  0.000000  0.606968  0.750000  1
  Pb  Pb13  1  0.607384  0.607384  0.250000  1
  Pb  Pb14  1  0.392616  0.000000  0.250000  1
  Pb  Pb15  1  0.000000  0.392616  0.250000  1
