# generated using pymatgen
data_Ca6Yb2SmPd6
_symmetry_space_group_name_H-M   'P 1'
_cell_length_a   7.67807567
_cell_length_b   7.67807618
_cell_length_c   7.67807578
_cell_angle_alpha   70.63171275
_cell_angle_beta   70.63170914
_cell_angle_gamma   70.63171091
_symmetry_Int_Tables_number   1
_chemical_formula_structural   Ca6Yb2SmPd6
_chemical_formula_sum   'Ca6 Yb2 Sm1 Pd6'
_cell_volume   390.16715190
_cell_formula_units_Z   1
loop_
 _symmetry_equiv_pos_site_id
 _symmetry_equiv_pos_as_xyz
  1  'x, y, z'
loop_
 _atom_site_type_symbol
 _atom_site_label
 _atom_site_symmetry_multiplicity
 _atom_site_fract_x
 _atom_site_fract_y
 _atom_site_fract_z
 _atom_site_occupancy
  Ca  Ca0  1  0.335636  0.600532  0.843219  1
  Ca  Ca1  1  0.843219  0.335636  0.600532  1
  Ca  Ca2  1  0.600531  0.843219  0.335636  1
  Ca  Ca3  1  0.664364  0.399468  0.156781  1
  Ca  Ca4  1  0.156781  0.664364  0.399468  1
  Ca  Ca5  1  0.399468  0.156781  0.664364  1
  Yb  Yb6  1  0.799132  0.799132  0.799132  1
  Yb  Yb7  1  0.200868  0.200868  0.200868  1
  Sm  Sm8  1  0.000000  0.000000  0.000000  1
  Pd  Pd9  1  0.149258  0.957441  0.594281  1
  Pd  Pd10  1  0.594281  0.149258  0.957441  1
  Pd  Pd11  1  0.957441  0.594281  0.149258  1
  Pd  Pd12  1  0.850742  0.042559  0.405719  1
  Pd  Pd13  1  0.405719  0.850742  0.042559  1
  Pd  Pd14  1  0.042559  0.405719  0.850742  1
