# generated using pymatgen
data_Tb16MgIn(Ni2Ag)2
_symmetry_space_group_name_H-M   'P 1'
_cell_length_a   9.57455750
_cell_length_b   9.55564895
_cell_length_c   9.55564889
_cell_angle_alpha   59.97876549
_cell_angle_beta   60.20463921
_cell_angle_gamma   60.20463623
_symmetry_Int_Tables_number   1
_chemical_formula_structural   Tb16MgIn(Ni2Ag)2
_chemical_formula_sum   'Tb16 Mg1 In1 Ni4 Ag2'
_cell_volume   619.99805320
_cell_formula_units_Z   1
loop_
 _symmetry_equiv_pos_site_id
 _symmetry_equiv_pos_as_xyz
  1  'x, y, z'
loop_
 _atom_site_type_symbol
 _atom_site_label
 _atom_site_symmetry_multiplicity
 _atom_site_fract_x
 _atom_site_fract_y
 _atom_site_fract_z
 _atom_site_occupancy
  Tb  Tb0  1  0.186467  0.815486  0.815486  1
  Tb  Tb1  1  0.810793  0.187432  0.187432  1
  Tb  Tb2  1  0.812817  0.192875  0.814765  1
  Tb  Tb3  1  0.184373  0.813112  0.188259  1
  Tb  Tb4  1  0.812817  0.814765  0.192875  1
  Tb  Tb5  1  0.184373  0.188259  0.813112  1
  Tb  Tb6  1  0.059516  0.440971  0.440971  1
  Tb  Tb7  1  0.439591  0.060551  0.060551  1
  Tb  Tb8  1  0.436637  0.063216  0.438874  1
  Tb  Tb9  1  0.058788  0.440696  0.060066  1
  Tb  Tb10  1  0.436637  0.438874  0.063216  1
  Tb  Tb11  1  0.058788  0.060066  0.440696  1
  Tb  Tb12  1  0.594248  0.595740  0.595740  1
  Tb  Tb13  1  0.600545  0.599434  0.203231  1
  Tb  Tb14  1  0.600545  0.203231  0.599434  1
  Tb  Tb15  1  0.196756  0.601851  0.601851  1
  Mg  Mg16  1  0.532045  0.818889  0.818889  1
  In  In17  1  0.833624  0.829752  0.829752  1
  Ni  Ni18  1  0.391965  0.394590  0.394590  1
  Ni  Ni19  1  0.389846  0.392582  0.823332  1
  Ni  Ni20  1  0.389846  0.823332  0.392582  1
  Ni  Ni21  1  0.822667  0.392256  0.392256  1
  Ag  Ag22  1  0.833159  0.833091  0.498952  1
  Ag  Ag23  1  0.833159  0.498952  0.833091  1
