# generated using pymatgen
data_YTm2Pa3(Co3P2)6
_symmetry_space_group_name_H-M   'P 1'
_cell_length_a   3.71073400
_cell_length_b   10.44269588
_cell_length_c   12.15820123
_cell_angle_alpha   90.04892445
_cell_angle_beta   90.00000000
_cell_angle_gamma   90.00000000
_symmetry_Int_Tables_number   1
_chemical_formula_structural   YTm2Pa3(Co3P2)6
_chemical_formula_sum   'Y1 Tm2 Pa3 Co18 P12'
_cell_volume   471.13093666
_cell_formula_units_Z   1
loop_
 _symmetry_equiv_pos_site_id
 _symmetry_equiv_pos_as_xyz
  1  'x, y, z'
loop_
 _atom_site_type_symbol
 _atom_site_label
 _atom_site_symmetry_multiplicity
 _atom_site_fract_x
 _atom_site_fract_y
 _atom_site_fract_z
 _atom_site_occupancy
  Y  Y0  1  0.500000  0.186655  0.205317  1
  Tm  Tm1  1  0.000000  0.684952  0.794382  1
  Tm  Tm2  1  0.000000  0.314973  0.792844  1
  Pa  Pa3  1  0.000000  0.499101  0.529040  1
  Pa  Pa4  1  0.500000  0.001032  0.474501  1
  Pa  Pa5  1  0.500000  0.817900  0.208168  1
  Co  Co6  1  0.500000  0.500077  0.159535  1
  Co  Co7  1  0.000000  0.999367  0.843268  1
  Co  Co8  1  0.500000  0.499191  0.696364  1
  Co  Co9  1  0.000000  0.993661  0.300138  1
  Co  Co10  1  0.000000  0.499863  0.980017  1
  Co  Co11  1  0.500000  0.000183  0.015038  1
  Co  Co12  1  0.500000  0.335612  0.991797  1
  Co  Co13  1  0.500000  0.665567  0.993584  1
  Co  Co14  1  0.000000  0.168310  0.005143  1
  Co  Co15  1  0.000000  0.834097  0.007207  1
  Co  Co16  1  0.500000  0.301154  0.431635  1
  Co  Co17  1  0.500000  0.696444  0.431152  1
  Co  Co18  1  0.000000  0.196163  0.568366  1
  Co  Co19  1  0.000000  0.802827  0.572044  1
  Co  Co20  1  0.500000  0.880196  0.713265  1
  Co  Co21  1  0.500000  0.120032  0.712310  1
  Co  Co22  1  0.000000  0.622671  0.286683  1
  Co  Co23  1  0.000000  0.381206  0.288572  1
  P  P24  1  0.500000  0.500121  0.875927  1
  P  P25  1  0.000000  0.003120  0.118184  1
  P  P26  1  0.500000  0.498659  0.343760  1
  P  P27  1  0.000000  0.999659  0.658964  1
  P  P28  1  0.500000  0.306059  0.617358  1
  P  P29  1  0.500000  0.692709  0.618873  1
  P  P30  1  0.000000  0.190800  0.382261  1
  P  P31  1  0.000000  0.806215  0.389334  1
  P  P32  1  0.500000  0.846596  0.894156  1
  P  P33  1  0.500000  0.154535  0.893733  1
  P  P34  1  0.000000  0.649853  0.102610  1
  P  P35  1  0.000000  0.350438  0.104471  1
