# generated using pymatgen
data_Mn4(CuPd3)3
_symmetry_space_group_name_H-M   'P 1'
_cell_length_a   6.72015035
_cell_length_b   6.72015026
_cell_length_c   6.72014930
_cell_angle_alpha   107.70221486
_cell_angle_beta   107.70221533
_cell_angle_gamma   113.07029912
_symmetry_Int_Tables_number   1
_chemical_formula_structural   Mn4(CuPd3)3
_chemical_formula_sum   'Mn4 Cu3 Pd9'
_cell_volume   232.92666850
_cell_formula_units_Z   1
loop_
 _symmetry_equiv_pos_site_id
 _symmetry_equiv_pos_as_xyz
  1  'x, y, z'
loop_
 _atom_site_type_symbol
 _atom_site_label
 _atom_site_symmetry_multiplicity
 _atom_site_fract_x
 _atom_site_fract_y
 _atom_site_fract_z
 _atom_site_occupancy
  Mn  Mn0  1  0.245672  0.245672  0.491346  1
  Mn  Mn1  1  0.754328  0.754328  0.508654  1
  Mn  Mn2  1  0.245672  0.754328  0.000000  1
  Mn  Mn3  1  0.754328  0.245672  0.000000  1
  Cu  Cu4  1  0.500000  0.000000  0.500000  1
  Cu  Cu5  1  0.000000  0.500000  0.500000  1
  Cu  Cu6  1  0.500000  0.500000  0.000000  1
  Pd  Pd7  1  0.510265  0.258631  0.251633  1
  Pd  Pd8  1  0.489735  0.741369  0.748367  1
  Pd  Pd9  1  0.006998  0.258631  0.748367  1
  Pd  Pd10  1  0.258631  0.006998  0.748367  1
  Pd  Pd11  1  0.993002  0.741369  0.251633  1
  Pd  Pd12  1  0.741369  0.993002  0.251633  1
  Pd  Pd13  1  0.258631  0.510265  0.251633  1
  Pd  Pd14  1  0.741369  0.489735  0.748367  1
  Pd  Pd15  1  0.000000  0.000000  0.000000  1
