# generated using pymatgen
data_ErLuHf2CN3
_symmetry_space_group_name_H-M   'P 1'
_cell_length_a   11.01622397
_cell_length_b   11.01622391
_cell_length_c   11.01622300
_cell_angle_alpha   17.27181463
_cell_angle_beta   17.27181574
_cell_angle_gamma   17.27180527
_symmetry_Int_Tables_number   1
_chemical_formula_structural   ErLuHf2CN3
_chemical_formula_sum   'Er1 Lu1 Hf2 C1 N3'
_cell_volume   102.83480184
_cell_formula_units_Z   1
loop_
 _symmetry_equiv_pos_site_id
 _symmetry_equiv_pos_as_xyz
  1  'x, y, z'
loop_
 _atom_site_type_symbol
 _atom_site_label
 _atom_site_symmetry_multiplicity
 _atom_site_fract_x
 _atom_site_fract_y
 _atom_site_fract_z
 _atom_site_occupancy
  Er  Er0  1  0.124334  0.124334  0.124334  1
  Lu  Lu1  1  0.876180  0.876180  0.876180  1
  Hf  Hf2  1  0.373030  0.373030  0.373030  1
  Hf  Hf3  1  0.626444  0.626444  0.626444  1
  C  C4  1  0.999663  0.999663  0.999663  1
  N  N5  1  0.252660  0.252660  0.252660  1
  N  N6  1  0.501175  0.501175  0.501175  1
  N  N7  1  0.746514  0.746514  0.746514  1
