# generated using pymatgen
data_Tb5Pr6Y5(CdIr)4
_symmetry_space_group_name_H-M   'P 1'
_cell_length_a   9.78062904
_cell_length_b   9.79520386
_cell_length_c   9.79518146
_cell_angle_alpha   59.98940157
_cell_angle_beta   60.04991910
_cell_angle_gamma   60.04807881
_symmetry_Int_Tables_number   1
_chemical_formula_structural   Tb5Pr6Y5(CdIr)4
_chemical_formula_sum   'Tb5 Pr6 Y5 Cd4 Ir4'
_cell_volume   663.99399989
_cell_formula_units_Z   1
loop_
 _symmetry_equiv_pos_site_id
 _symmetry_equiv_pos_as_xyz
  1  'x, y, z'
loop_
 _atom_site_type_symbol
 _atom_site_label
 _atom_site_symmetry_multiplicity
 _atom_site_fract_x
 _atom_site_fract_y
 _atom_site_fract_z
 _atom_site_occupancy
  Tb  Tb0  1  0.347226  0.348241  0.348239  1
  Tb  Tb1  1  0.348342  0.348149  0.955168  1
  Tb  Tb2  1  0.348348  0.955161  0.348148  1
  Tb  Tb3  1  0.956295  0.348246  0.348238  1
  Tb  Tb4  1  0.811796  0.188208  0.188201  1
  Pr  Pr5  1  0.941327  0.558667  0.558682  1
  Pr  Pr6  1  0.557866  0.942130  0.942138  1
  Pr  Pr7  1  0.558877  0.941947  0.557371  1
  Pr  Pr8  1  0.941798  0.557360  0.941958  1
  Pr  Pr9  1  0.558876  0.557376  0.941948  1
  Pr  Pr10  1  0.941793  0.941950  0.557369  1
  Y  Y11  1  0.188363  0.811641  0.811639  1
  Y  Y12  1  0.189222  0.810950  0.187971  1
  Y  Y13  1  0.811860  0.187974  0.810950  1
  Y  Y14  1  0.189214  0.187970  0.810954  1
  Y  Y15  1  0.811861  0.810951  0.187970  1
  Cd  Cd16  1  0.579193  0.579438  0.579445  1
  Cd  Cd17  1  0.579254  0.579979  0.261508  1
  Cd  Cd18  1  0.579255  0.261509  0.579980  1
  Cd  Cd19  1  0.261925  0.579439  0.579442  1
  Ir  Ir20  1  0.139639  0.142491  0.142473  1
  Ir  Ir21  1  0.141136  0.142494  0.575244  1
  Ir  Ir22  1  0.141137  0.575243  0.142487  1
  Ir  Ir23  1  0.575399  0.142487  0.142480  1
