# generated using pymatgen
data_Tb9Cd5NiIr3
_symmetry_space_group_name_H-M   'P 1'
_cell_length_a   10.76605415
_cell_length_b   10.76605415
_cell_length_c   3.77483300
_cell_angle_alpha   90.00000000
_cell_angle_beta   90.00000000
_cell_angle_gamma   89.72880676
_symmetry_Int_Tables_number   1
_chemical_formula_structural   Tb9Cd5NiIr3
_chemical_formula_sum   'Tb9 Cd5 Ni1 Ir3'
_cell_volume   437.52814764
_cell_formula_units_Z   1
loop_
 _symmetry_equiv_pos_site_id
 _symmetry_equiv_pos_as_xyz
  1  'x, y, z'
loop_
 _atom_site_type_symbol
 _atom_site_label
 _atom_site_symmetry_multiplicity
 _atom_site_fract_x
 _atom_site_fract_y
 _atom_site_fract_z
 _atom_site_occupancy
  Tb  Tb0  1  0.326886  0.326363  0.500000  1
  Tb  Tb1  1  0.673637  0.673114  0.500000  1
  Tb  Tb2  1  0.327120  0.672880  0.500000  1
  Tb  Tb3  1  0.675468  0.324532  0.500000  1
  Tb  Tb4  1  0.000041  0.283561  0.500000  1
  Tb  Tb5  1  0.000037  0.715113  0.500000  1
  Tb  Tb6  1  0.284887  0.999963  0.500000  1
  Tb  Tb7  1  0.716439  0.999959  0.500000  1
  Tb  Tb8  1  0.999384  0.000616  0.000000  1
  Cd  Cd9  1  0.502369  0.144805  0.000000  1
  Cd  Cd10  1  0.499976  0.856058  0.000000  1
  Cd  Cd11  1  0.143942  0.500024  0.000000  1
  Cd  Cd12  1  0.855195  0.497631  0.000000  1
  Cd  Cd13  1  0.500625  0.499375  0.000000  1
  Ni  Ni14  1  0.807209  0.192791  0.000000  1
  Ir  Ir15  1  0.188382  0.191602  0.000000  1
  Ir  Ir16  1  0.808398  0.811618  0.000000  1
  Ir  Ir17  1  0.190004  0.809996  0.000000  1
