# generated using pymatgen
data_Cs3VIrBr9
_symmetry_space_group_name_H-M   'P 1'
_cell_length_a   7.84572500
_cell_length_b   7.84572461
_cell_length_c   19.18376000
_cell_angle_alpha   90.00000000
_cell_angle_beta   90.00000000
_cell_angle_gamma   119.99999743
_symmetry_Int_Tables_number   1
_chemical_formula_structural   Cs3VIrBr9
_chemical_formula_sum   'Cs6 V2 Ir2 Br18'
_cell_volume   1022.65822864
_cell_formula_units_Z   2
loop_
 _symmetry_equiv_pos_site_id
 _symmetry_equiv_pos_as_xyz
  1  'x, y, z'
loop_
 _atom_site_type_symbol
 _atom_site_label
 _atom_site_symmetry_multiplicity
 _atom_site_fract_x
 _atom_site_fract_y
 _atom_site_fract_z
 _atom_site_occupancy
  Cs  Cs0  1  0.666667  0.333333  0.931584  1
  Cs  Cs1  1  0.333333  0.666667  0.431584  1
  Cs  Cs2  1  0.666667  0.333333  0.570090  1
  Cs  Cs3  1  0.333333  0.666667  0.070090  1
  Cs  Cs4  1  0.000000  0.000000  0.749607  1
  Cs  Cs5  1  0.000000  0.000000  0.249607  1
  V  V6  1  0.666667  0.333333  0.333197  1
  V  V7  1  0.333333  0.666667  0.833197  1
  Ir  Ir8  1  0.333333  0.666667  0.671106  1
  Ir  Ir9  1  0.666667  0.333333  0.171106  1
  Br  Br10  1  0.820982  0.641963  0.404973  1
  Br  Br11  1  0.179018  0.358037  0.904973  1
  Br  Br12  1  0.179018  0.820982  0.904973  1
  Br  Br13  1  0.183043  0.366087  0.595474  1
  Br  Br14  1  0.641963  0.820982  0.904973  1
  Br  Br15  1  0.358037  0.179018  0.404973  1
  Br  Br16  1  0.029233  0.514616  0.747692  1
  Br  Br17  1  0.820982  0.179018  0.404973  1
  Br  Br18  1  0.514616  0.029233  0.247692  1
  Br  Br19  1  0.485384  0.514616  0.747692  1
  Br  Br20  1  0.514616  0.485384  0.247692  1
  Br  Br21  1  0.970767  0.485384  0.247692  1
  Br  Br22  1  0.366087  0.183043  0.095474  1
  Br  Br23  1  0.485384  0.970767  0.747692  1
  Br  Br24  1  0.816957  0.633913  0.095474  1
  Br  Br25  1  0.183043  0.816957  0.595474  1
  Br  Br26  1  0.633913  0.816957  0.595474  1
  Br  Br27  1  0.816957  0.183043  0.095474  1
