# generated using pymatgen
data_La6Mg6Cd17P
_symmetry_space_group_name_H-M   'P 1'
_cell_length_a   10.11857388
_cell_length_b   10.17861988
_cell_length_c   10.17861941
_cell_angle_alpha   60.09607278
_cell_angle_beta   60.19495187
_cell_angle_gamma   60.19495342
_symmetry_Int_Tables_number   1
_chemical_formula_structural   La6Mg6Cd17P
_chemical_formula_sum   'La6 Mg6 Cd17 P1'
_cell_volume   743.99794957
_cell_formula_units_Z   1
loop_
 _symmetry_equiv_pos_site_id
 _symmetry_equiv_pos_as_xyz
  1  'x, y, z'
loop_
 _atom_site_type_symbol
 _atom_site_label
 _atom_site_symmetry_multiplicity
 _atom_site_fract_x
 _atom_site_fract_y
 _atom_site_fract_z
 _atom_site_occupancy
  La  La0  1  0.792725  0.794351  0.205649  1
  La  La1  1  0.207275  0.794351  0.205649  1
  La  La2  1  0.793781  0.206219  0.206219  1
  La  La3  1  0.207275  0.205649  0.794351  1
  La  La4  1  0.792725  0.205649  0.794351  1
  La  La5  1  0.206219  0.793781  0.793781  1
  Mg  Mg6  1  0.000000  0.000000  0.500000  1
  Mg  Mg7  1  0.500000  0.000000  0.500000  1
  Mg  Mg8  1  0.000000  0.500000  0.500000  1
  Mg  Mg9  1  0.500000  0.500000  0.000000  1
  Mg  Mg10  1  0.000000  0.500000  0.000000  1
  Mg  Mg11  1  0.500000  0.500000  0.500000  1
  Cd  Cd12  1  0.829861  0.829134  0.511144  1
  Cd  Cd13  1  0.829861  0.511144  0.829134  1
  Cd  Cd14  1  0.510907  0.828736  0.828736  1
  Cd  Cd15  1  0.831623  0.828736  0.828736  1
  Cd  Cd16  1  0.170139  0.170866  0.488856  1
  Cd  Cd17  1  0.170139  0.488856  0.170866  1
  Cd  Cd18  1  0.489093  0.171264  0.171264  1
  Cd  Cd19  1  0.168377  0.171264  0.171264  1
  Cd  Cd20  1  0.621157  0.618654  0.139033  1
  Cd  Cd21  1  0.621157  0.139033  0.618654  1
  Cd  Cd22  1  0.138300  0.620337  0.620337  1
  Cd  Cd23  1  0.621026  0.620337  0.620337  1
  Cd  Cd24  1  0.378843  0.381346  0.860967  1
  Cd  Cd25  1  0.378843  0.860967  0.381346  1
  Cd  Cd26  1  0.861700  0.379663  0.379663  1
  Cd  Cd27  1  0.378974  0.379663  0.379663  1
  Cd  Cd28  1  0.500000  0.000000  0.000000  1
  P  P29  1  0.000000  0.000000  0.000000  1
