# generated using pymatgen
data_Pr3Ho3(WO7)2
_symmetry_space_group_name_H-M   'P 1'
_cell_length_a   6.57446028
_cell_length_b   6.57786326
_cell_length_c   7.66578300
_cell_angle_alpha   90.00078394
_cell_angle_beta   89.98313666
_cell_angle_gamma   109.13802187
_symmetry_Int_Tables_number   1
_chemical_formula_structural   Pr3Ho3(WO7)2
_chemical_formula_sum   'Pr3 Ho3 W2 O14'
_cell_volume   313.19143182
_cell_formula_units_Z   1
loop_
 _symmetry_equiv_pos_site_id
 _symmetry_equiv_pos_as_xyz
  1  'x, y, z'
loop_
 _atom_site_type_symbol
 _atom_site_label
 _atom_site_symmetry_multiplicity
 _atom_site_fract_x
 _atom_site_fract_y
 _atom_site_fract_z
 _atom_site_occupancy
  Pr  Pr0  1  0.508061  0.508818  0.247455  1
  Pr  Pr1  1  0.502332  0.500994  0.752210  1
  Pr  Pr2  1  0.001770  0.466760  0.499086  1
  Ho  Ho3  1  0.531279  0.003415  0.501111  1
  Ho  Ho4  1  0.002411  0.531594  0.998943  1
  Ho  Ho5  1  0.466930  0.998819  0.001149  1
  W  W6  1  0.999740  0.999275  0.247284  1
  W  W7  1  0.999343  0.999340  0.752756  1
  O  O8  1  0.073874  0.316364  0.213182  1
  O  O9  1  0.682132  0.937355  0.782392  1
  O  O10  1  0.919915  0.678265  0.731218  1
  O  O11  1  0.315017  0.061025  0.281855  1
  O  O12  1  0.680139  0.933227  0.219351  1
  O  O13  1  0.075712  0.318190  0.785067  1
  O  O14  1  0.316901  0.065343  0.719836  1
  O  O15  1  0.919208  0.677226  0.267302  1
  O  O16  1  0.377747  0.647546  0.500676  1
  O  O17  1  0.638885  0.359490  0.000361  1
  O  O18  1  0.356583  0.646131  0.999625  1
  O  O19  1  0.630469  0.355772  0.499298  1
  O  O20  1  0.926684  0.063403  0.499958  1
  O  O21  1  0.074869  0.931648  0.999884  1
