# generated using pymatgen
data_Tb2Dy6Tl3Pt
_symmetry_space_group_name_H-M   'P 1'
_cell_length_a   10.50797000
_cell_length_b   10.50818274
_cell_length_c   7.02888800
_cell_angle_alpha   89.99342429
_cell_angle_beta   90.00000000
_cell_angle_gamma   119.99929251
_symmetry_Int_Tables_number   1
_chemical_formula_structural   Tb2Dy6Tl3Pt
_chemical_formula_sum   'Tb4 Dy12 Tl6 Pt2'
_cell_volume   672.15090577
_cell_formula_units_Z   2
loop_
 _symmetry_equiv_pos_site_id
 _symmetry_equiv_pos_as_xyz
  1  'x, y, z'
loop_
 _atom_site_type_symbol
 _atom_site_label
 _atom_site_symmetry_multiplicity
 _atom_site_fract_x
 _atom_site_fract_y
 _atom_site_fract_z
 _atom_site_occupancy
  Tb  Tb0  1  0.531366  0.062731  0.516212  1
  Tb  Tb1  1  0.937420  0.468754  0.516350  1
  Tb  Tb2  1  0.531336  0.468755  0.516350  1
  Tb  Tb3  1  0.468618  0.937236  0.016125  1
  Dy  Dy4  1  0.062986  0.531486  0.016165  1
  Dy  Dy5  1  0.468497  0.531485  0.016165  1
  Dy  Dy6  1  0.174872  0.349743  0.722913  1
  Dy  Dy7  1  0.650293  0.825077  0.722769  1
  Dy  Dy8  1  0.174784  0.825077  0.722769  1
  Dy  Dy9  1  0.825128  0.650255  0.222410  1
  Dy  Dy10  1  0.349666  0.175002  0.222488  1
  Dy  Dy11  1  0.825336  0.175002  0.222488  1
  Dy  Dy12  1  0.666764  0.333527  0.890754  1
  Dy  Dy13  1  0.333248  0.666497  0.390553  1
  Dy  Dy14  1  0.999999  0.999997  0.497462  1
  Dy  Dy15  1  0.999998  0.999996  0.997641  1
  Tl  Tl16  1  0.837008  0.674017  0.760181  1
  Tl  Tl17  1  0.326062  0.163011  0.760122  1
  Tl  Tl18  1  0.836948  0.163011  0.760122  1
  Tl  Tl19  1  0.163146  0.326292  0.259845  1
  Tl  Tl20  1  0.673836  0.836839  0.259994  1
  Tl  Tl21  1  0.163004  0.836839  0.259994  1
  Pt  Pt22  1  0.666661  0.333320  0.286823  1
  Pt  Pt23  1  0.333025  0.666049  0.787502  1
