# generated using pymatgen
data_Ho6Er2SnPd24
_symmetry_space_group_name_H-M   'P 1'
_cell_length_a   8.37798201
_cell_length_b   8.37798201
_cell_length_c   8.37798201
_cell_angle_alpha   89.99674466
_cell_angle_beta   90.00325534
_cell_angle_gamma   90.00325534
_symmetry_Int_Tables_number   1
_chemical_formula_structural   Ho6Er2SnPd24
_chemical_formula_sum   'Ho6 Er2 Sn1 Pd24'
_cell_volume   588.05543443
_cell_formula_units_Z   1
loop_
 _symmetry_equiv_pos_site_id
 _symmetry_equiv_pos_as_xyz
  1  'x, y, z'
loop_
 _atom_site_type_symbol
 _atom_site_label
 _atom_site_symmetry_multiplicity
 _atom_site_fract_x
 _atom_site_fract_y
 _atom_site_fract_z
 _atom_site_occupancy
  Ho  Ho0  1  0.252783  0.252782  0.252782  1
  Ho  Ho1  1  0.747217  0.747218  0.747218  1
  Ho  Ho2  1  0.747218  0.747217  0.252782  1
  Ho  Ho3  1  0.747218  0.252782  0.747217  1
  Ho  Ho4  1  0.252782  0.252783  0.747218  1
  Ho  Ho5  1  0.252782  0.747218  0.252783  1
  Er  Er6  1  0.252803  0.747197  0.747197  1
  Er  Er7  1  0.747197  0.252803  0.252803  1
  Sn  Sn8  1  0.000000  0.000000  0.000000  1
  Pd  Pd9  1  0.265090  0.500101  0.999884  1
  Pd  Pd10  1  0.734910  0.499899  0.000116  1
  Pd  Pd11  1  0.999884  0.265090  0.499899  1
  Pd  Pd12  1  0.500101  0.265090  0.000116  1
  Pd  Pd13  1  0.000116  0.734910  0.500101  1
  Pd  Pd14  1  0.499899  0.734910  0.999884  1
  Pd  Pd15  1  0.500101  0.000116  0.265090  1
  Pd  Pd16  1  0.265090  0.999884  0.500101  1
  Pd  Pd17  1  0.499899  0.999884  0.734910  1
  Pd  Pd18  1  0.734910  0.000116  0.499899  1
  Pd  Pd19  1  0.999884  0.499899  0.265090  1
  Pd  Pd20  1  0.000116  0.500101  0.734910  1
  Pd  Pd21  1  0.254957  0.500119  0.500119  1
  Pd  Pd22  1  0.745043  0.499881  0.499881  1
  Pd  Pd23  1  0.500119  0.254957  0.499881  1
  Pd  Pd24  1  0.499881  0.745043  0.500119  1
  Pd  Pd25  1  0.500119  0.499881  0.254957  1
  Pd  Pd26  1  0.499881  0.500119  0.745043  1
  Pd  Pd27  1  0.307732  0.999889  0.999889  1
  Pd  Pd28  1  0.692268  0.000111  0.000111  1
  Pd  Pd29  1  0.999889  0.307732  0.000111  1
  Pd  Pd30  1  0.000111  0.692268  0.999889  1
  Pd  Pd31  1  0.999889  0.000111  0.307732  1
  Pd  Pd32  1  0.000111  0.999889  0.692268  1
