# generated using pymatgen
data_NdTaN2
_symmetry_space_group_name_H-M   'P 1'
_cell_length_a   3.38185000
_cell_length_b   5.81519700
_cell_length_c   11.08191100
_cell_angle_alpha   90.00000000
_cell_angle_beta   90.00000000
_cell_angle_gamma   90.00000000
_symmetry_Int_Tables_number   1
_chemical_formula_structural   NdTaN2
_chemical_formula_sum   'Nd4 Ta4 N8'
_cell_volume   217.93823560
_cell_formula_units_Z   4
loop_
 _symmetry_equiv_pos_site_id
 _symmetry_equiv_pos_as_xyz
  1  'x, y, z'
loop_
 _atom_site_type_symbol
 _atom_site_label
 _atom_site_symmetry_multiplicity
 _atom_site_fract_x
 _atom_site_fract_y
 _atom_site_fract_z
 _atom_site_occupancy
  Nd  Nd0  1  0.250000  0.585418  0.863541  1
  Nd  Nd1  1  0.750000  0.414582  0.136459  1
  Nd  Nd2  1  0.750000  0.914582  0.363541  1
  Nd  Nd3  1  0.250000  0.085418  0.636459  1
  Ta  Ta4  1  0.250000  0.919195  0.111520  1
  Ta  Ta5  1  0.750000  0.080805  0.888480  1
  Ta  Ta6  1  0.750000  0.580805  0.611520  1
  Ta  Ta7  1  0.250000  0.419195  0.388480  1
  N  N8  1  0.250000  0.663438  0.246590  1
  N  N9  1  0.750000  0.336562  0.753410  1
  N  N10  1  0.750000  0.836562  0.746590  1
  N  N11  1  0.250000  0.163438  0.253410  1
  N  N12  1  0.250000  0.721320  0.513361  1
  N  N13  1  0.750000  0.278680  0.486639  1
  N  N14  1  0.750000  0.778680  0.013361  1
  N  N15  1  0.250000  0.221320  0.986639  1
