# generated using pymatgen
data_Er2InPt2Rh3
_symmetry_space_group_name_H-M   'P 1'
_cell_length_a   4.32435900
_cell_length_b   5.75352800
_cell_length_c   11.45907100
_cell_angle_alpha   90.00000000
_cell_angle_beta   90.00000000
_cell_angle_gamma   90.00000000
_symmetry_Int_Tables_number   1
_chemical_formula_structural   Er2InPt2Rh3
_chemical_formula_sum   'Er4 In2 Pt4 Rh6'
_cell_volume   285.10536013
_cell_formula_units_Z   2
loop_
 _symmetry_equiv_pos_site_id
 _symmetry_equiv_pos_as_xyz
  1  'x, y, z'
loop_
 _atom_site_type_symbol
 _atom_site_label
 _atom_site_symmetry_multiplicity
 _atom_site_fract_x
 _atom_site_fract_y
 _atom_site_fract_z
 _atom_site_occupancy
  Er  Er0  1  0.500000  0.190212  0.634877  1
  Er  Er1  1  0.500000  0.809788  0.365123  1
  Er  Er2  1  0.500000  0.690212  0.865123  1
  Er  Er3  1  0.500000  0.309788  0.134877  1
  In  In4  1  0.000000  0.500000  0.500000  1
  In  In5  1  0.000000  0.000000  0.000000  1
  Pt  Pt6  1  0.000000  0.443793  0.751295  1
  Pt  Pt7  1  0.000000  0.556207  0.248705  1
  Pt  Pt8  1  0.000000  0.056207  0.251295  1
  Pt  Pt9  1  0.000000  0.943793  0.748705  1
  Rh  Rh10  1  0.500000  0.203106  0.883802  1
  Rh  Rh11  1  0.500000  0.796894  0.116198  1
  Rh  Rh12  1  0.500000  0.703106  0.616198  1
  Rh  Rh13  1  0.500000  0.296894  0.383802  1
  Rh  Rh14  1  0.000000  0.000000  0.500000  1
  Rh  Rh15  1  0.000000  0.500000  0.000000  1
