# generated using pymatgen
data_CaLa9(GaSn)3
_symmetry_space_group_name_H-M   'P 1'
_cell_length_a   9.28312952
_cell_length_b   9.28312970
_cell_length_c   9.30163400
_cell_angle_alpha   126.35656839
_cell_angle_beta   126.50474537
_cell_angle_gamma   79.04340224
_symmetry_Int_Tables_number   1
_chemical_formula_structural   CaLa9(GaSn)3
_chemical_formula_sum   'Ca1 La9 Ga3 Sn3'
_cell_volume   502.26337104
_cell_formula_units_Z   1
loop_
 _symmetry_equiv_pos_site_id
 _symmetry_equiv_pos_as_xyz
  1  'x, y, z'
loop_
 _atom_site_type_symbol
 _atom_site_label
 _atom_site_symmetry_multiplicity
 _atom_site_fract_x
 _atom_site_fract_y
 _atom_site_fract_z
 _atom_site_occupancy
  Ca  Ca0  1  0.496653  0.500139  0.996792  1
  La  La1  1  0.001366  0.990239  0.991605  1
  La  La2  1  0.515763  0.018188  0.832214  1
  La  La3  1  0.186366  0.684335  0.160334  1
  La  La4  1  0.031179  0.178629  0.504135  1
  La  La5  1  0.676613  0.530466  0.502306  1
  La  La6  1  0.475998  0.973968  0.160334  1
  La  La7  1  0.814027  0.316452  0.832214  1
  La  La8  1  0.971840  0.825693  0.502306  1
  La  La9  1  0.325506  0.472956  0.504135  1
  Ga  Ga10  1  0.123018  0.625733  0.748750  1
  Ga  Ga11  1  0.380204  0.119880  0.500085  1
  Ga  Ga12  1  0.621405  0.882024  0.503428  1
  Sn  Sn13  1  0.250378  0.251202  0.002898  1
  Sn  Sn14  1  0.751696  0.752520  0.002898  1
  Sn  Sn15  1  0.877990  0.377576  0.255567  1
