# generated using pymatgen
data_MgSc3Al2Ge2Ir
_symmetry_space_group_name_H-M   'P 1'
_cell_length_a   6.85006900
_cell_length_b   6.77952110
_cell_length_c   4.09871300
_cell_angle_alpha   90.00000000
_cell_angle_beta   90.00000000
_cell_angle_gamma   120.34483480
_symmetry_Int_Tables_number   1
_chemical_formula_structural   MgSc3Al2Ge2Ir
_chemical_formula_sum   'Mg1 Sc3 Al2 Ge2 Ir1'
_cell_volume   164.26782696
_cell_formula_units_Z   1
loop_
 _symmetry_equiv_pos_site_id
 _symmetry_equiv_pos_as_xyz
  1  'x, y, z'
loop_
 _atom_site_type_symbol
 _atom_site_label
 _atom_site_symmetry_multiplicity
 _atom_site_fract_x
 _atom_site_fract_y
 _atom_site_fract_z
 _atom_site_occupancy
  Mg  Mg0  1  0.758825  0.000000  0.500000  1
  Sc  Sc1  1  0.412116  0.000000  0.000000  1
  Sc  Sc2  1  0.001168  0.415028  0.000000  1
  Sc  Sc3  1  0.586140  0.584971  0.000000  1
  Al  Al4  1  0.236342  0.236867  0.500000  1
  Al  Al5  1  0.999476  0.763133  0.500000  1
  Ge  Ge6  1  0.663843  0.338068  0.500000  1
  Ge  Ge7  1  0.325775  0.661933  0.500000  1
  Ir  Ir8  1  0.016316  0.000000  0.000000  1
