# generated using pymatgen
data_LaPr2(SnRh)3
_symmetry_space_group_name_H-M   'P 1'
_cell_length_a   7.58276000
_cell_length_b   7.53336769
_cell_length_c   4.20930900
_cell_angle_alpha   90.00000000
_cell_angle_beta   90.00000000
_cell_angle_gamma   120.21712439
_symmetry_Int_Tables_number   1
_chemical_formula_structural   LaPr2(SnRh)3
_chemical_formula_sum   'La1 Pr2 Sn3 Rh3'
_cell_volume   207.77991430
_cell_formula_units_Z   1
loop_
 _symmetry_equiv_pos_site_id
 _symmetry_equiv_pos_as_xyz
  1  'x, y, z'
loop_
 _atom_site_type_symbol
 _atom_site_label
 _atom_site_symmetry_multiplicity
 _atom_site_fract_x
 _atom_site_fract_y
 _atom_site_fract_z
 _atom_site_occupancy
  La  La0  1  0.584980  0.000000  0.000000  1
  Pr  Pr1  1  0.000470  0.587583  0.000000  1
  Pr  Pr2  1  0.412887  0.412417  0.000000  1
  Sn  Sn3  1  0.751609  0.748147  0.500000  1
  Sn  Sn4  1  0.003462  0.251853  0.500000  1
  Sn  Sn5  1  0.245515  0.000000  0.500000  1
  Rh  Rh6  1  0.338071  0.672461  0.500000  1
  Rh  Rh7  1  0.665610  0.327539  0.500000  1
  Rh  Rh8  1  0.997396  0.000000  0.000000  1
