# generated using pymatgen
data_CeDy5MnI10
_symmetry_space_group_name_H-M   'P 1'
_cell_length_a   7.80553782
_cell_length_b   9.40714400
_cell_length_c   9.88037200
_cell_angle_alpha   108.22392549
_cell_angle_beta   97.03787574
_cell_angle_gamma   104.17425826
_symmetry_Int_Tables_number   1
_chemical_formula_structural   CeDy5MnI10
_chemical_formula_sum   'Ce1 Dy5 Mn1 I10'
_cell_volume   652.32313606
_cell_formula_units_Z   1
loop_
 _symmetry_equiv_pos_site_id
 _symmetry_equiv_pos_as_xyz
  1  'x, y, z'
loop_
 _atom_site_type_symbol
 _atom_site_label
 _atom_site_symmetry_multiplicity
 _atom_site_fract_x
 _atom_site_fract_y
 _atom_site_fract_z
 _atom_site_occupancy
  Ce  Ce0  1  0.030216  0.745193  0.424753  1
  Dy  Dy1  1  0.967135  0.263038  0.577889  1
  Dy  Dy2  1  0.885182  0.957272  0.742060  1
  Dy  Dy3  1  0.119100  0.042369  0.259528  1
  Dy  Dy4  1  0.349286  0.125980  0.668454  1
  Dy  Dy5  1  0.651028  0.872482  0.329826  1
  Mn  Mn6  1  0.004751  0.971114  0.491600  1
  I  I7  1  0.458329  0.813519  0.588092  1
  I  I8  1  0.550265  0.191968  0.416649  1
  I  I9  1  0.906599  0.625148  0.681262  1
  I  I10  1  0.083880  0.376484  0.329289  1
  I  I11  1  0.255706  0.093832  0.962036  1
  I  I12  1  0.746993  0.919406  0.042692  1
  I  I13  1  0.339771  0.457229  0.772090  1
  I  I14  1  0.643685  0.538916  0.220664  1
  I  I15  1  0.783172  0.264785  0.843541  1
  I  I16  1  0.224900  0.741264  0.149575  1
