# generated using pymatgen
data_LiPr4(CdSb4)2
_symmetry_space_group_name_H-M   'P 1'
_cell_length_a   11.47956498
_cell_length_b   11.47956489
_cell_length_c   11.47956600
_cell_angle_alpha   148.35078285
_cell_angle_beta   148.35078216
_cell_angle_gamma   45.36780629
_symmetry_Int_Tables_number   1
_chemical_formula_structural   LiPr4(CdSb4)2
_chemical_formula_sum   'Li1 Pr4 Cd2 Sb8'
_cell_volume   415.16545495
_cell_formula_units_Z   1
loop_
 _symmetry_equiv_pos_site_id
 _symmetry_equiv_pos_as_xyz
  1  'x, y, z'
loop_
 _atom_site_type_symbol
 _atom_site_label
 _atom_site_symmetry_multiplicity
 _atom_site_fract_x
 _atom_site_fract_y
 _atom_site_fract_z
 _atom_site_occupancy
  Li  Li0  1  0.000000  0.000000  0.000000  1
  Pr  Pr1  1  0.619301  0.619301  0.502242  1
  Pr  Pr2  1  0.117058  0.117058  0.497758  1
  Pr  Pr3  1  0.380699  0.882942  0.000000  1
  Pr  Pr4  1  0.882942  0.380699  0.000000  1
  Cd  Cd5  1  0.000000  0.500000  0.500000  1
  Cd  Cd6  1  0.500000  0.000000  0.500000  1
  Sb  Sb7  1  0.337769  0.337769  0.502822  1
  Sb  Sb8  1  0.834948  0.834948  0.497178  1
  Sb  Sb9  1  0.662231  0.165052  0.000000  1
  Sb  Sb10  1  0.165052  0.662231  0.000000  1
  Sb  Sb11  1  0.250072  0.250072  0.000000  1
  Sb  Sb12  1  0.749928  0.749928  0.000000  1
  Sb  Sb13  1  0.750000  0.250000  0.500000  1
  Sb  Sb14  1  0.250000  0.750000  0.500000  1
