# generated using pymatgen
data_Zr4Ta4AlP3
_symmetry_space_group_name_H-M   'P 1'
_cell_length_a   3.57815000
_cell_length_b   7.01105743
_cell_length_c   8.47012574
_cell_angle_alpha   89.32069555
_cell_angle_beta   90.00000000
_cell_angle_gamma   90.00000000
_symmetry_Int_Tables_number   1
_chemical_formula_structural   Zr4Ta4AlP3
_chemical_formula_sum   'Zr4 Ta4 Al1 P3'
_cell_volume   212.47185051
_cell_formula_units_Z   1
loop_
 _symmetry_equiv_pos_site_id
 _symmetry_equiv_pos_as_xyz
  1  'x, y, z'
loop_
 _atom_site_type_symbol
 _atom_site_label
 _atom_site_symmetry_multiplicity
 _atom_site_fract_x
 _atom_site_fract_y
 _atom_site_fract_z
 _atom_site_occupancy
  Zr  Zr0  1  0.250000  0.037086  0.671123  1
  Zr  Zr1  1  0.250000  0.534743  0.828361  1
  Zr  Zr2  1  0.750000  0.470661  0.160322  1
  Zr  Zr3  1  0.750000  0.953127  0.329749  1
  Ta  Ta4  1  0.750000  0.856932  0.939511  1
  Ta  Ta5  1  0.250000  0.640934  0.442656  1
  Ta  Ta6  1  0.750000  0.372744  0.569442  1
  Ta  Ta7  1  0.250000  0.131666  0.053796  1
  Al  Al8  1  0.250000  0.257970  0.358573  1
  P  P9  1  0.250000  0.763014  0.144964  1
  P  P10  1  0.750000  0.744840  0.642616  1
  P  P11  1  0.750000  0.236284  0.858886  1
