# generated using pymatgen
data_DyTmSi2(Tc2C)2
_symmetry_space_group_name_H-M   'P 1'
_cell_length_a   5.82104522
_cell_length_b   5.82104590
_cell_length_c   7.24108500
_cell_angle_alpha   90.00000000
_cell_angle_beta   90.00000000
_cell_angle_gamma   140.93776580
_symmetry_Int_Tables_number   1
_chemical_formula_structural   DyTmSi2(Tc2C)2
_chemical_formula_sum   'Dy1 Tm1 Si2 Tc4 C2'
_cell_volume   154.61774460
_cell_formula_units_Z   1
loop_
 _symmetry_equiv_pos_site_id
 _symmetry_equiv_pos_as_xyz
  1  'x, y, z'
loop_
 _atom_site_type_symbol
 _atom_site_label
 _atom_site_symmetry_multiplicity
 _atom_site_fract_x
 _atom_site_fract_y
 _atom_site_fract_z
 _atom_site_occupancy
  Dy  Dy0  1  0.543971  0.456029  0.250000  1
  Tm  Tm1  1  0.456192  0.543808  0.750000  1
  Si  Si2  1  0.267561  0.732439  0.250000  1
  Si  Si3  1  0.732696  0.267304  0.750000  1
  Tc  Tc4  1  0.828994  0.171006  0.059004  1
  Tc  Tc5  1  0.171036  0.828964  0.938783  1
  Tc  Tc6  1  0.171036  0.828964  0.561217  1
  Tc  Tc7  1  0.828994  0.171006  0.440996  1
  C  C8  1  0.999758  0.000242  0.997492  1
  C  C9  1  0.999758  0.000242  0.502508  1
