# generated using pymatgen
data_Sm4Y2OsI10
_symmetry_space_group_name_H-M   'P 1'
_cell_length_a   7.84548504
_cell_length_b   9.87246250
_cell_length_c   9.88251663
_cell_angle_alpha   107.00826122
_cell_angle_beta   96.63747973
_cell_angle_gamma   104.58118329
_symmetry_Int_Tables_number   1
_chemical_formula_structural   Sm4Y2OsI10
_chemical_formula_sum   'Sm4 Y2 Os1 I10'
_cell_volume   693.42348803
_cell_formula_units_Z   1
loop_
 _symmetry_equiv_pos_site_id
 _symmetry_equiv_pos_as_xyz
  1  'x, y, z'
loop_
 _atom_site_type_symbol
 _atom_site_label
 _atom_site_symmetry_multiplicity
 _atom_site_fract_x
 _atom_site_fract_y
 _atom_site_fract_z
 _atom_site_occupancy
  Sm  Sm0  1  0.115652  0.042692  0.761181  1
  Sm  Sm1  1  0.884348  0.957308  0.238819  1
  Sm  Sm2  1  0.966807  0.281042  0.082692  1
  Sm  Sm3  1  0.033193  0.718958  0.917308  1
  Y  Y4  1  0.351795  0.126186  0.168516  1
  Y  Y5  1  0.648205  0.873814  0.831484  1
  Os  Os6  1  0.000000  0.000000  0.000000  1
  I  I7  1  0.350720  0.446817  0.271457  1
  I  I8  1  0.649280  0.553183  0.728543  1
  I  I9  1  0.259363  0.087311  0.456582  1
  I  I10  1  0.740637  0.912689  0.543418  1
  I  I11  1  0.087101  0.370516  0.818450  1
  I  I12  1  0.912899  0.629484  0.181550  1
  I  I13  1  0.455405  0.818220  0.090758  1
  I  I14  1  0.544595  0.181780  0.909242  1
  I  I15  1  0.777048  0.256653  0.345951  1
  I  I16  1  0.222952  0.743347  0.654049  1
