# generated using pymatgen
data_Rb4Hf6MnI18
_symmetry_space_group_name_H-M   'P 1'
_cell_length_a   11.39332219
_cell_length_b   11.62732728
_cell_length_c   11.74788846
_cell_angle_alpha   118.47456309
_cell_angle_beta   100.72613925
_cell_angle_gamma   103.57102683
_symmetry_Int_Tables_number   1
_chemical_formula_structural   Rb4Hf6MnI18
_chemical_formula_sum   'Rb4 Hf6 Mn1 I18'
_cell_volume   1246.34245605
_cell_formula_units_Z   1
loop_
 _symmetry_equiv_pos_site_id
 _symmetry_equiv_pos_as_xyz
  1  'x, y, z'
loop_
 _atom_site_type_symbol
 _atom_site_label
 _atom_site_symmetry_multiplicity
 _atom_site_fract_x
 _atom_site_fract_y
 _atom_site_fract_z
 _atom_site_occupancy
  Rb  Rb0  1  0.651938  0.537492  0.227232  1
  Rb  Rb1  1  0.348062  0.462508  0.772768  1
  Rb  Rb2  1  0.685795  0.225198  0.564328  1
  Rb  Rb3  1  0.314205  0.774802  0.435672  1
  Hf  Hf4  1  0.138851  0.051550  0.213766  1
  Hf  Hf5  1  0.861149  0.948450  0.786234  1
  Hf  Hf6  1  0.867784  0.122219  0.128842  1
  Hf  Hf7  1  0.132216  0.877781  0.871158  1
  Hf  Hf8  1  0.140000  0.229375  0.043048  1
  Hf  Hf9  1  0.860000  0.770625  0.956952  1
  Mn  Mn10  1  0.000000  0.000000  0.000000  1
  I  I11  1  0.007693  0.404186  0.193909  1
  I  I12  1  0.992307  0.595814  0.806091  1
  I  I13  1  0.325289  0.326875  0.306470  1
  I  I14  1  0.674711  0.673125  0.693530  1
  I  I15  1  0.315840  0.515791  0.097768  1
  I  I16  1  0.684160  0.484209  0.902232  1
  I  I17  1  0.004968  0.799032  0.206074  1
  I  I18  1  0.995032  0.200968  0.793926  1
  I  I19  1  0.705524  0.271192  0.283284  1
  I  I20  1  0.294476  0.728808  0.716716  1
  I  I21  1  0.313744  0.125203  0.904918  1
  I  I22  1  0.686256  0.874797  0.095082  1
  I  I23  1  0.016037  0.201477  0.402584  1
  I  I24  1  0.983963  0.798523  0.597416  1
  I  I25  1  0.316418  0.924757  0.108841  1
  I  I26  1  0.683582  0.075243  0.891159  1
  I  I27  1  0.327681  0.119254  0.495063  1
  I  I28  1  0.672319  0.880746  0.504937  1
