# generated using pymatgen
data_Sc8Cr(B8Rh)3
_symmetry_space_group_name_H-M   'P 1'
_cell_length_a   3.44903100
_cell_length_b   8.89387516
_cell_length_c   11.20607712
_cell_angle_alpha   89.89551317
_cell_angle_beta   90.00000000
_cell_angle_gamma   90.00000000
_symmetry_Int_Tables_number   1
_chemical_formula_structural   Sc8Cr(B8Rh)3
_chemical_formula_sum   'Sc8 Cr1 B24 Rh3'
_cell_volume   343.74865839
_cell_formula_units_Z   1
loop_
 _symmetry_equiv_pos_site_id
 _symmetry_equiv_pos_as_xyz
  1  'x, y, z'
loop_
 _atom_site_type_symbol
 _atom_site_label
 _atom_site_symmetry_multiplicity
 _atom_site_fract_x
 _atom_site_fract_y
 _atom_site_fract_z
 _atom_site_occupancy
  Sc  Sc0  1  0.000000  0.817738  0.085368  1
  Sc  Sc1  1  0.000000  0.186442  0.909386  1
  Sc  Sc2  1  0.000000  0.318798  0.419006  1
  Sc  Sc3  1  0.000000  0.676870  0.587291  1
  Sc  Sc4  1  0.000000  0.443760  0.126346  1
  Sc  Sc5  1  0.000000  0.553112  0.871996  1
  Sc  Sc6  1  0.000000  0.943637  0.374242  1
  Sc  Sc7  1  0.000000  0.059395  0.625893  1
  Cr  Cr8  1  0.000000  0.361101  0.680059  1
  B  B9  1  0.500000  0.053701  0.063425  1
  B  B10  1  0.500000  0.947085  0.935665  1
  B  B11  1  0.500000  0.552732  0.436362  1
  B  B12  1  0.500000  0.446677  0.565316  1
  B  B13  1  0.500000  0.252542  0.077323  1
  B  B14  1  0.500000  0.747088  0.921634  1
  B  B15  1  0.500000  0.751661  0.422871  1
  B  B16  1  0.500000  0.249162  0.579538  1
  B  B17  1  0.500000  0.294366  0.237551  1
  B  B18  1  0.500000  0.704957  0.763552  1
  B  B19  1  0.500000  0.794754  0.262550  1
  B  B20  1  0.500000  0.206369  0.735920  1
  B  B21  1  0.500000  0.130140  0.319411  1
  B  B22  1  0.500000  0.869913  0.681542  1
  B  B23  1  0.500000  0.630400  0.180973  1
  B  B24  1  0.500000  0.370159  0.816700  1
  B  B25  1  0.500000  0.478299  0.287401  1
  B  B26  1  0.500000  0.520225  0.712260  1
  B  B27  1  0.500000  0.978575  0.213124  1
  B  B28  1  0.500000  0.022061  0.787099  1
  B  B29  1  0.500000  0.102379  0.471882  1
  B  B30  1  0.500000  0.896891  0.528024  1
  B  B31  1  0.500000  0.602406  0.028014  1
  B  B32  1  0.500000  0.397698  0.972244  1
  Rh  Rh33  1  0.000000  0.138862  0.179595  1
  Rh  Rh34  1  0.000000  0.860884  0.820152  1
  Rh  Rh35  1  0.000000  0.639159  0.320286  1
