# generated using pymatgen
data_Lu4ScZn(B2Rh5)2
_symmetry_space_group_name_H-M   'P 1'
_cell_length_a   9.51419700
_cell_length_b   9.51419700
_cell_length_c   3.18028800
_cell_angle_alpha   90.00000000
_cell_angle_beta   90.00000000
_cell_angle_gamma   90.00000000
_symmetry_Int_Tables_number   1
_chemical_formula_structural   Lu4ScZn(B2Rh5)2
_chemical_formula_sum   'Lu4 Sc1 Zn1 B4 Rh10'
_cell_volume   287.87949343
_cell_formula_units_Z   1
loop_
 _symmetry_equiv_pos_site_id
 _symmetry_equiv_pos_as_xyz
  1  'x, y, z'
loop_
 _atom_site_type_symbol
 _atom_site_label
 _atom_site_symmetry_multiplicity
 _atom_site_fract_x
 _atom_site_fract_y
 _atom_site_fract_z
 _atom_site_occupancy
  Lu  Lu0  1  0.827957  0.323213  0.000000  1
  Lu  Lu1  1  0.323213  0.172043  0.000000  1
  Lu  Lu2  1  0.676787  0.827957  0.000000  1
  Lu  Lu3  1  0.172043  0.676787  0.000000  1
  Sc  Sc4  1  0.500000  0.500000  0.000000  1
  Zn  Zn5  1  0.000000  0.000000  0.000000  1
  B  B6  1  0.627105  0.118292  0.000000  1
  B  B7  1  0.118292  0.372895  0.000000  1
  B  B8  1  0.881708  0.627105  0.000000  1
  B  B9  1  0.372895  0.881708  0.000000  1
  Rh  Rh10  1  0.068832  0.217814  0.500000  1
  Rh  Rh11  1  0.217814  0.931168  0.500000  1
  Rh  Rh12  1  0.782186  0.068832  0.500000  1
  Rh  Rh13  1  0.931168  0.782186  0.500000  1
  Rh  Rh14  1  0.426328  0.724447  0.500000  1
  Rh  Rh15  1  0.573672  0.275553  0.500000  1
  Rh  Rh16  1  0.724447  0.573672  0.500000  1
  Rh  Rh17  1  0.275553  0.426328  0.500000  1
  Rh  Rh18  1  0.500000  0.000000  0.500000  1
  Rh  Rh19  1  0.000000  0.500000  0.500000  1
