# generated using pymatgen
data_SnWF6
_symmetry_space_group_name_H-M   'P 1'
_cell_length_a   6.22543583
_cell_length_b   6.22543581
_cell_length_c   6.22543600
_cell_angle_alpha   56.61688765
_cell_angle_beta   56.61688677
_cell_angle_gamma   56.61688556
_symmetry_Int_Tables_number   1
_chemical_formula_structural   SnWF6
_chemical_formula_sum   'Sn1 W1 F6'
_cell_volume   157.27273766
_cell_formula_units_Z   1
loop_
 _symmetry_equiv_pos_site_id
 _symmetry_equiv_pos_as_xyz
  1  'x, y, z'
loop_
 _atom_site_type_symbol
 _atom_site_label
 _atom_site_symmetry_multiplicity
 _atom_site_fract_x
 _atom_site_fract_y
 _atom_site_fract_z
 _atom_site_occupancy
  Sn  Sn0  1  0.500000  0.500000  0.500000  1
  W  W1  1  0.000000  0.000000  0.000000  1
  F  F2  1  0.679845  0.867645  0.221091  1
  F  F3  1  0.867645  0.221091  0.679845  1
  F  F4  1  0.778909  0.320155  0.132355  1
  F  F5  1  0.132355  0.778909  0.320155  1
  F  F6  1  0.320155  0.132355  0.778909  1
  F  F7  1  0.221091  0.679845  0.867645  1
