# generated using pymatgen
data_Y5MgNb2(Co4P3)4
_symmetry_space_group_name_H-M   'P 1'
_cell_length_a   12.16459000
_cell_length_b   12.22425171
_cell_length_c   3.72032500
_cell_angle_alpha   90.00000000
_cell_angle_beta   90.00000000
_cell_angle_gamma   119.83867648
_symmetry_Int_Tables_number   1
_chemical_formula_structural   Y5MgNb2(Co4P3)4
_chemical_formula_sum   'Y5 Mg1 Nb2 Co16 P12'
_cell_volume   479.88256281
_cell_formula_units_Z   1
loop_
 _symmetry_equiv_pos_site_id
 _symmetry_equiv_pos_as_xyz
  1  'x, y, z'
loop_
 _atom_site_type_symbol
 _atom_site_label
 _atom_site_symmetry_multiplicity
 _atom_site_fract_x
 _atom_site_fract_y
 _atom_site_fract_z
 _atom_site_occupancy
  Y  Y0  1  0.815525  0.000000  0.500000  1
  Y  Y1  1  0.999176  0.815140  0.500000  1
  Y  Y2  1  0.184036  0.184860  0.500000  1
  Y  Y3  1  0.331185  0.663637  0.000000  1
  Y  Y4  1  0.667550  0.336363  0.000000  1
  Mg  Mg5  1  0.441433  0.000000  0.000000  1
  Nb  Nb6  1  0.998783  0.441887  0.000000  1
  Nb  Nb7  1  0.556896  0.558113  0.000000  1
  Co  Co8  1  0.282297  0.000000  0.500000  1
  Co  Co9  1  0.000409  0.279266  0.500000  1
  Co  Co10  1  0.721142  0.720734  0.500000  1
  Co  Co11  1  0.626147  0.803786  0.000000  1
  Co  Co12  1  0.199174  0.822549  0.000000  1
  Co  Co13  1  0.177345  0.372748  0.000000  1
  Co  Co14  1  0.376625  0.177451  0.000000  1
  Co  Co15  1  0.804597  0.627252  0.000000  1
  Co  Co16  1  0.822361  0.196214  0.000000  1
  Co  Co17  1  0.517336  0.873261  0.500000  1
  Co  Co18  1  0.123483  0.644050  0.500000  1
  Co  Co19  1  0.355092  0.482531  0.500000  1
  Co  Co20  1  0.479433  0.355950  0.500000  1
  Co  Co21  1  0.872561  0.517469  0.500000  1
  Co  Co22  1  0.644075  0.126739  0.500000  1
  Co  Co23  1  0.002116  0.000000  0.000000  1
  P  P24  1  0.180789  0.000000  0.000000  1
  P  P25  1  0.999704  0.177952  0.000000  1
  P  P26  1  0.821752  0.822048  0.000000  1
  P  P27  1  0.521683  0.691252  0.500000  1
  P  P28  1  0.308788  0.828086  0.500000  1
  P  P29  1  0.167007  0.477905  0.500000  1
  P  P30  1  0.480701  0.171914  0.500000  1
  P  P31  1  0.689101  0.522095  0.500000  1
  P  P32  1  0.830430  0.308748  0.500000  1
  P  P33  1  0.641558  0.000000  0.000000  1
  P  P34  1  0.001315  0.642919  0.000000  1
  P  P35  1  0.358396  0.357081  0.000000  1
