# generated using pymatgen
data_Ho2Al2PdRh
_symmetry_space_group_name_H-M   'P 1'
_cell_length_a   4.32805200
_cell_length_b   6.85709100
_cell_length_c   7.86346500
_cell_angle_alpha   90.00000000
_cell_angle_beta   90.00000000
_cell_angle_gamma   90.00000000
_symmetry_Int_Tables_number   1
_chemical_formula_structural   Ho2Al2PdRh
_chemical_formula_sum   'Ho4 Al4 Pd2 Rh2'
_cell_volume   233.37070657
_cell_formula_units_Z   2
loop_
 _symmetry_equiv_pos_site_id
 _symmetry_equiv_pos_as_xyz
  1  'x, y, z'
loop_
 _atom_site_type_symbol
 _atom_site_label
 _atom_site_symmetry_multiplicity
 _atom_site_fract_x
 _atom_site_fract_y
 _atom_site_fract_z
 _atom_site_occupancy
  Ho  Ho0  1  0.250000  0.036452  0.677719  1
  Ho  Ho1  1  0.250000  0.536452  0.822281  1
  Ho  Ho2  1  0.750000  0.971068  0.317516  1
  Ho  Ho3  1  0.750000  0.471068  0.182484  1
  Al  Al4  1  0.250000  0.137944  0.064693  1
  Al  Al5  1  0.250000  0.637944  0.435307  1
  Al  Al6  1  0.750000  0.857901  0.940266  1
  Al  Al7  1  0.750000  0.357901  0.559734  1
  Pd  Pd8  1  0.750000  0.730761  0.619598  1
  Pd  Pd9  1  0.750000  0.230761  0.880402  1
  Rh  Rh10  1  0.250000  0.265872  0.382396  1
  Rh  Rh11  1  0.250000  0.765872  0.117604  1
