# generated using pymatgen
data_CePrP2
_symmetry_space_group_name_H-M   'P 1'
_cell_length_a   7.16925234
_cell_length_b   7.16925288
_cell_length_c   7.16925190
_cell_angle_alpha   33.51013738
_cell_angle_beta   33.51013148
_cell_angle_gamma   33.51013515
_symmetry_Int_Tables_number   1
_chemical_formula_structural   CePrP2
_chemical_formula_sum   'Ce1 Pr1 P2'
_cell_volume   100.03268827
_cell_formula_units_Z   1
loop_
 _symmetry_equiv_pos_site_id
 _symmetry_equiv_pos_as_xyz
  1  'x, y, z'
loop_
 _atom_site_type_symbol
 _atom_site_label
 _atom_site_symmetry_multiplicity
 _atom_site_fract_x
 _atom_site_fract_y
 _atom_site_fract_z
 _atom_site_occupancy
  Ce  Ce0  1  0.500000  0.500000  0.500000  1
  Pr  Pr1  1  0.000000  0.000000  0.000000  1
  P  P2  1  0.246873  0.246873  0.246873  1
  P  P3  1  0.753127  0.753127  0.753127  1
