# generated using pymatgen
data_Ho20MgIn5Ru2
_symmetry_space_group_name_H-M   'P 1'
_cell_length_a   9.67951642
_cell_length_b   9.73833813
_cell_length_c   9.65893900
_cell_angle_alpha   90.00000000
_cell_angle_beta   90.00000000
_cell_angle_gamma   120.20122832
_symmetry_Int_Tables_number   1
_chemical_formula_structural   Ho20MgIn5Ru2
_chemical_formula_sum   'Ho20 Mg1 In5 Ru2'
_cell_volume   786.89061650
_cell_formula_units_Z   1
loop_
 _symmetry_equiv_pos_site_id
 _symmetry_equiv_pos_as_xyz
  1  'x, y, z'
loop_
 _atom_site_type_symbol
 _atom_site_label
 _atom_site_symmetry_multiplicity
 _atom_site_fract_x
 _atom_site_fract_y
 _atom_site_fract_z
 _atom_site_occupancy
  Ho  Ho0  1  0.999076  0.999538  0.499860  1
  Ho  Ho1  1  0.999076  0.999538  0.000140  1
  Ho  Ho2  1  0.210872  0.790122  0.440168  1
  Ho  Ho3  1  0.210872  0.420750  0.440168  1
  Ho  Ho4  1  0.579263  0.789633  0.438461  1
  Ho  Ho5  1  0.789353  0.212004  0.559026  1
  Ho  Ho6  1  0.789353  0.577348  0.559026  1
  Ho  Ho7  1  0.420072  0.210036  0.560809  1
  Ho  Ho8  1  0.789353  0.212004  0.940974  1
  Ho  Ho9  1  0.789353  0.577348  0.940974  1
  Ho  Ho10  1  0.420072  0.210036  0.939191  1
  Ho  Ho11  1  0.210872  0.790122  0.059832  1
  Ho  Ho12  1  0.210872  0.420750  0.059832  1
  Ho  Ho13  1  0.579263  0.789633  0.061539  1
  Ho  Ho14  1  0.541749  0.459728  0.250000  1
  Ho  Ho15  1  0.541749  0.082022  0.250000  1
  Ho  Ho16  1  0.923435  0.461718  0.250000  1
  Ho  Ho17  1  0.458034  0.538977  0.750000  1
  Ho  Ho18  1  0.458034  0.919056  0.750000  1
  Ho  Ho19  1  0.082951  0.541475  0.750000  1
  Mg  Mg20  1  0.772663  0.886332  0.750000  1
  In  In21  1  0.884489  0.118814  0.250000  1
  In  In22  1  0.884489  0.765675  0.250000  1
  In  In23  1  0.232260  0.116130  0.250000  1
  In  In24  1  0.112825  0.881257  0.750000  1
  In  In25  1  0.112825  0.231567  0.750000  1
  Ru  Ru26  1  0.329975  0.664988  0.250000  1
  Ru  Ru27  1  0.666801  0.333400  0.750000  1
