# generated using pymatgen
data_Sr8In16IrAu11
_symmetry_space_group_name_H-M   'P 1'
_cell_length_a   15.16961900
_cell_length_b   15.25768382
_cell_length_c   4.63877200
_cell_angle_alpha   90.00000000
_cell_angle_beta   90.00000000
_cell_angle_gamma   119.80925438
_symmetry_Int_Tables_number   1
_chemical_formula_structural   Sr8In16IrAu11
_chemical_formula_sum   'Sr8 In16 Ir1 Au11'
_cell_volume   931.59786944
_cell_formula_units_Z   1
loop_
 _symmetry_equiv_pos_site_id
 _symmetry_equiv_pos_as_xyz
  1  'x, y, z'
loop_
 _atom_site_type_symbol
 _atom_site_label
 _atom_site_symmetry_multiplicity
 _atom_site_fract_x
 _atom_site_fract_y
 _atom_site_fract_z
 _atom_site_occupancy
  Sr  Sr0  1  0.451302  0.000000  0.000000  1
  Sr  Sr1  1  0.000043  0.453995  0.000000  1
  Sr  Sr2  1  0.546049  0.546005  0.000000  1
  Sr  Sr3  1  0.331095  0.666219  0.000000  1
  Sr  Sr4  1  0.664877  0.333781  0.000000  1
  Sr  Sr5  1  0.823361  0.000000  0.500000  1
  Sr  Sr6  1  0.004035  0.822507  0.500000  1
  Sr  Sr7  1  0.181528  0.177493  0.500000  1
  In  In8  1  0.181393  0.379784  0.000000  1
  In  In9  1  0.620445  0.802264  0.000000  1
  In  In10  1  0.371503  0.176576  0.000000  1
  In  In11  1  0.194927  0.823424  0.000000  1
  In  In12  1  0.801611  0.620216  0.000000  1
  In  In13  1  0.818182  0.197736  0.000000  1
  In  In14  1  0.273345  0.000000  0.500000  1
  In  In15  1  0.000967  0.279378  0.500000  1
  In  In16  1  0.721588  0.720622  0.500000  1
  In  In17  1  0.347461  0.472298  0.500000  1
  In  In18  1  0.527342  0.877023  0.500000  1
  In  In19  1  0.471429  0.347804  0.500000  1
  In  In20  1  0.123626  0.652196  0.500000  1
  In  In21  1  0.875164  0.527702  0.500000  1
  In  In22  1  0.650319  0.122977  0.500000  1
  In  In23  1  0.012105  0.000000  0.000000  1
  Ir  Ir24  1  0.185738  0.000000  0.000000  1
  Au  Au25  1  0.171891  0.493177  0.500000  1
  Au  Au26  1  0.507438  0.680620  0.500000  1
  Au  Au27  1  0.490436  0.172074  0.500000  1
  Au  Au28  1  0.318362  0.827926  0.500000  1
  Au  Au29  1  0.678713  0.506823  0.500000  1
  Au  Au30  1  0.826818  0.319380  0.500000  1
  Au  Au31  1  0.999465  0.173606  0.000000  1
  Au  Au32  1  0.825859  0.826394  0.000000  1
  Au  Au33  1  0.660646  0.000000  0.000000  1
  Au  Au34  1  0.999796  0.658655  0.000000  1
  Au  Au35  1  0.341142  0.341345  0.000000  1
