# generated using pymatgen
data_Pr18Ho2Si15P
_symmetry_space_group_name_H-M   'P 1'
_cell_length_a   7.85558229
_cell_length_b   7.86604158
_cell_length_c   15.37612679
_cell_angle_alpha   89.91133311
_cell_angle_beta   89.83627355
_cell_angle_gamma   90.16404458
_symmetry_Int_Tables_number   1
_chemical_formula_structural   Pr18Ho2Si15P
_chemical_formula_sum   'Pr18 Ho2 Si15 P1'
_cell_volume   950.11788504
_cell_formula_units_Z   1
loop_
 _symmetry_equiv_pos_site_id
 _symmetry_equiv_pos_as_xyz
  1  'x, y, z'
loop_
 _atom_site_type_symbol
 _atom_site_label
 _atom_site_symmetry_multiplicity
 _atom_site_fract_x
 _atom_site_fract_y
 _atom_site_fract_z
 _atom_site_occupancy
  Pr  Pr0  1  0.806041  0.192832  0.751758  1
  Pr  Pr1  1  0.691385  0.690662  0.498253  1
  Pr  Pr2  1  0.381308  0.008220  0.441852  1
  Pr  Pr3  1  0.486957  0.881385  0.697168  1
  Pr  Pr4  1  0.512753  0.121223  0.194383  1
  Pr  Pr5  1  0.879601  0.484921  0.302074  1
  Pr  Pr6  1  0.122845  0.509706  0.804799  1
  Pr  Pr7  1  0.620095  0.986383  0.946748  1
  Pr  Pr8  1  0.010015  0.378535  0.554593  1
  Pr  Pr9  1  0.987709  0.620141  0.054726  1
  Pr  Pr10  1  0.127189  0.980858  0.878140  1
  Pr  Pr11  1  0.522525  0.627092  0.126122  1
  Pr  Pr12  1  0.473892  0.369900  0.629063  1
  Pr  Pr13  1  0.627868  0.521778  0.873775  1
  Pr  Pr14  1  0.373049  0.476407  0.371653  1
  Pr  Pr15  1  0.874741  0.021446  0.376365  1
  Pr  Pr16  1  0.977782  0.126458  0.122871  1
  Pr  Pr17  1  0.025495  0.881065  0.623304  1
  Ho  Ho18  1  0.310884  0.312187  0.000175  1
  Ho  Ho19  1  0.189331  0.810355  0.249009  1
  Si  Si20  1  0.328038  0.690268  0.956681  1
  Si  Si21  1  0.668753  0.306425  0.455303  1
  Si  Si22  1  0.690429  0.328532  0.044022  1
  Si  Si23  1  0.305275  0.667746  0.544883  1
  Si  Si24  1  0.811172  0.827632  0.206295  1
  Si  Si25  1  0.171942  0.189257  0.291462  1
  Si  Si26  1  0.833382  0.806599  0.794834  1
  Si  Si27  1  0.286109  0.921247  0.062937  1
  Si  Si28  1  0.574779  0.787213  0.308078  1
  Si  Si29  1  0.420084  0.214241  0.816531  1
  Si  Si30  1  0.788061  0.581202  0.688502  1
  Si  Si31  1  0.213530  0.422398  0.186476  1
  Si  Si32  1  0.710002  0.078152  0.560832  1
  Si  Si33  1  0.927019  0.289345  0.941384  1
  Si  Si34  1  0.082436  0.713797  0.435999  1
  P  P35  1  0.187525  0.174391  0.708952  1
