# generated using pymatgen
data_HoErGa9NiRu2
_symmetry_space_group_name_H-M   'P 1'
_cell_length_a   7.50084804
_cell_length_b   7.50068591
_cell_length_c   9.57395400
_cell_angle_alpha   90.00000000
_cell_angle_beta   90.00000000
_cell_angle_gamma   120.54955457
_symmetry_Int_Tables_number   1
_chemical_formula_structural   HoErGa9NiRu2
_chemical_formula_sum   'Ho2 Er2 Ga18 Ni2 Ru4'
_cell_volume   463.87567360
_cell_formula_units_Z   2
loop_
 _symmetry_equiv_pos_site_id
 _symmetry_equiv_pos_as_xyz
  1  'x, y, z'
loop_
 _atom_site_type_symbol
 _atom_site_label
 _atom_site_symmetry_multiplicity
 _atom_site_fract_x
 _atom_site_fract_y
 _atom_site_fract_z
 _atom_site_occupancy
  Ho  Ho0  1  0.662181  0.995996  0.250000  1
  Ho  Ho1  1  0.337819  0.004004  0.750000  1
  Er  Er2  1  0.996062  0.662076  0.250000  1
  Er  Er3  1  0.003938  0.337924  0.750000  1
  Ga  Ga4  1  0.116264  0.116119  0.250000  1
  Ga  Ga5  1  0.883736  0.883881  0.750000  1
  Ga  Ga6  1  0.002150  0.327233  0.076787  1
  Ga  Ga7  1  0.997850  0.672767  0.923213  1
  Ga  Ga8  1  0.997850  0.672767  0.576787  1
  Ga  Ga9  1  0.326855  0.001995  0.423064  1
  Ga  Ga10  1  0.002150  0.327233  0.423213  1
  Ga  Ga11  1  0.673145  0.998005  0.576936  1
  Ga  Ga12  1  0.673145  0.998005  0.923064  1
  Ga  Ga13  1  0.326855  0.001995  0.076936  1
  Ga  Ga14  1  0.333977  0.334125  0.562254  1
  Ga  Ga15  1  0.666023  0.665875  0.437746  1
  Ga  Ga16  1  0.666023  0.665875  0.062254  1
  Ga  Ga17  1  0.333977  0.334125  0.937746  1
  Ga  Ga18  1  0.336033  0.546087  0.250000  1
  Ga  Ga19  1  0.663967  0.453913  0.750000  1
  Ga  Ga20  1  0.546271  0.336291  0.250000  1
  Ga  Ga21  1  0.453729  0.663709  0.750000  1
  Ni  Ni22  1  0.000000  0.000000  0.000000  1
  Ni  Ni23  1  0.000000  0.000000  0.500000  1
  Ru  Ru24  1  0.674592  0.325668  0.999988  1
  Ru  Ru25  1  0.325408  0.674332  0.000012  1
  Ru  Ru26  1  0.325408  0.674332  0.499988  1
  Ru  Ru27  1  0.674592  0.325668  0.500012  1
