# generated using pymatgen
data_YHo7Cd2IrPt
_symmetry_space_group_name_H-M   'P 1'
_cell_length_a   9.62492568
_cell_length_b   9.62492560
_cell_length_c   9.60307100
_cell_angle_alpha   60.07508673
_cell_angle_beta   60.07508700
_cell_angle_gamma   60.18062674
_symmetry_Int_Tables_number   1
_chemical_formula_structural   YHo7Cd2IrPt
_chemical_formula_sum   'Y2 Ho14 Cd4 Ir2 Pt2'
_cell_volume   630.62700526
_cell_formula_units_Z   2
loop_
 _symmetry_equiv_pos_site_id
 _symmetry_equiv_pos_as_xyz
  1  'x, y, z'
loop_
 _atom_site_type_symbol
 _atom_site_label
 _atom_site_symmetry_multiplicity
 _atom_site_fract_x
 _atom_site_fract_y
 _atom_site_fract_z
 _atom_site_occupancy
  Y  Y0  1  0.563788  0.563788  0.936212  1
  Y  Y1  1  0.936851  0.936851  0.563149  1
  Ho  Ho2  1  0.350583  0.350583  0.346359  1
  Ho  Ho3  1  0.350583  0.350583  0.952475  1
  Ho  Ho4  1  0.356039  0.944465  0.349747  1
  Ho  Ho5  1  0.944465  0.356039  0.349747  1
  Ho  Ho6  1  0.806673  0.190130  0.190734  1
  Ho  Ho7  1  0.190130  0.806673  0.812463  1
  Ho  Ho8  1  0.190130  0.806673  0.190734  1
  Ho  Ho9  1  0.806673  0.190130  0.812463  1
  Ho  Ho10  1  0.191533  0.191533  0.808467  1
  Ho  Ho11  1  0.811157  0.811157  0.188843  1
  Ho  Ho12  1  0.937620  0.564422  0.561677  1
  Ho  Ho13  1  0.564422  0.937620  0.936281  1
  Ho  Ho14  1  0.564422  0.937620  0.561677  1
  Ho  Ho15  1  0.937620  0.564422  0.936281  1
  Cd  Cd16  1  0.581127  0.581127  0.581633  1
  Cd  Cd17  1  0.581127  0.581127  0.256114  1
  Cd  Cd18  1  0.580743  0.255793  0.581733  1
  Cd  Cd19  1  0.255793  0.580743  0.581733  1
  Ir  Ir20  1  0.140499  0.574064  0.142719  1
  Ir  Ir21  1  0.574064  0.140499  0.142719  1
  Pt  Pt22  1  0.141980  0.141980  0.144484  1
  Pt  Pt23  1  0.141980  0.141980  0.571556  1
