# generated using pymatgen
data_TbDy(HoOs4)2
_symmetry_space_group_name_H-M   'P 1'
_cell_length_a   5.33035200
_cell_length_b   5.33035229
_cell_length_c   8.85704000
_cell_angle_alpha   90.00000000
_cell_angle_beta   90.00000000
_cell_angle_gamma   120.00001062
_symmetry_Int_Tables_number   1
_chemical_formula_structural   TbDy(HoOs4)2
_chemical_formula_sum   'Tb1 Dy1 Ho2 Os8'
_cell_volume   217.93701274
_cell_formula_units_Z   1
loop_
 _symmetry_equiv_pos_site_id
 _symmetry_equiv_pos_as_xyz
  1  'x, y, z'
loop_
 _atom_site_type_symbol
 _atom_site_label
 _atom_site_symmetry_multiplicity
 _atom_site_fract_x
 _atom_site_fract_y
 _atom_site_fract_z
 _atom_site_occupancy
  Tb  Tb0  1  0.666667  0.333333  0.565019  1
  Dy  Dy1  1  0.333333  0.666667  0.435138  1
  Ho  Ho2  1  0.666667  0.333333  0.935123  1
  Ho  Ho3  1  0.333333  0.666667  0.064681  1
  Os  Os4  1  0.000000  0.000000  0.499800  1
  Os  Os5  1  0.000000  0.000000  0.000024  1
  Os  Os6  1  0.827990  0.172010  0.249119  1
  Os  Os7  1  0.827990  0.655980  0.249119  1
  Os  Os8  1  0.344020  0.172010  0.249119  1
  Os  Os9  1  0.172116  0.827884  0.750952  1
  Os  Os10  1  0.172116  0.344233  0.750952  1
  Os  Os11  1  0.655767  0.827884  0.750952  1
