# generated using pymatgen
data_Pr18Tm2Si15P
_symmetry_space_group_name_H-M   'P 1'
_cell_length_a   7.84851928
_cell_length_b   7.86035637
_cell_length_c   15.32383588
_cell_angle_alpha   89.90251554
_cell_angle_beta   89.82748701
_cell_angle_gamma   90.15025361
_symmetry_Int_Tables_number   1
_chemical_formula_structural   Pr18Tm2Si15P
_chemical_formula_sum   'Pr18 Tm2 Si15 P1'
_cell_volume   945.35159635
_cell_formula_units_Z   1
loop_
 _symmetry_equiv_pos_site_id
 _symmetry_equiv_pos_as_xyz
  1  'x, y, z'
loop_
 _atom_site_type_symbol
 _atom_site_label
 _atom_site_symmetry_multiplicity
 _atom_site_fract_x
 _atom_site_fract_y
 _atom_site_fract_z
 _atom_site_occupancy
  Pr  Pr0  1  0.806859  0.192633  0.750718  1
  Pr  Pr1  1  0.690294  0.690942  0.499293  1
  Pr  Pr2  1  0.380273  0.007951  0.442994  1
  Pr  Pr3  1  0.486931  0.879678  0.697878  1
  Pr  Pr4  1  0.511568  0.122804  0.195281  1
  Pr  Pr5  1  0.877821  0.486291  0.302155  1
  Pr  Pr6  1  0.123914  0.509081  0.803673  1
  Pr  Pr7  1  0.622111  0.987124  0.947083  1
  Pr  Pr8  1  0.010564  0.377021  0.553914  1
  Pr  Pr9  1  0.988459  0.621595  0.053711  1
  Pr  Pr10  1  0.128346  0.981302  0.877301  1
  Pr  Pr11  1  0.521079  0.628090  0.125768  1
  Pr  Pr12  1  0.474586  0.369438  0.628952  1
  Pr  Pr13  1  0.627582  0.519939  0.873557  1
  Pr  Pr14  1  0.372157  0.477100  0.372456  1
  Pr  Pr15  1  0.874357  0.019892  0.376503  1
  Pr  Pr16  1  0.979599  0.127419  0.122905  1
  Pr  Pr17  1  0.024926  0.880033  0.623569  1
  Tm  Tm18  1  0.311586  0.312615  0.999906  1
  Tm  Tm19  1  0.188793  0.811103  0.249296  1
  Si  Si20  1  0.327993  0.690368  0.955392  1
  Si  Si21  1  0.669048  0.306021  0.454323  1
  Si  Si22  1  0.690303  0.328756  0.044941  1
  Si  Si23  1  0.304044  0.667601  0.546209  1
  Si  Si24  1  0.810833  0.828349  0.205232  1
  Si  Si25  1  0.171576  0.189808  0.292747  1
  Si  Si26  1  0.833365  0.805572  0.795966  1
  Si  Si27  1  0.286527  0.921937  0.062823  1
  Si  Si28  1  0.573650  0.787944  0.307885  1
  Si  Si29  1  0.420899  0.213488  0.816776  1
  Si  Si30  1  0.788420  0.580376  0.689065  1
  Si  Si31  1  0.212951  0.423263  0.186597  1
  Si  Si32  1  0.709927  0.077564  0.560481  1
  Si  Si33  1  0.927831  0.289497  0.941414  1
  Si  Si34  1  0.082156  0.713334  0.435873  1
  P  P35  1  0.188672  0.174069  0.707363  1
