# generated using pymatgen
data_CeDy15(NiHg)4
_symmetry_space_group_name_H-M   'P 1'
_cell_length_a   9.50207719
_cell_length_b   9.53448331
_cell_length_c   9.50207700
_cell_angle_alpha   60.11236616
_cell_angle_beta   59.99999718
_cell_angle_gamma   60.11236909
_symmetry_Int_Tables_number   1
_chemical_formula_structural   CeDy15(NiHg)4
_chemical_formula_sum   'Ce1 Dy15 Ni4 Hg4'
_cell_volume   609.75418876
_cell_formula_units_Z   1
loop_
 _symmetry_equiv_pos_site_id
 _symmetry_equiv_pos_as_xyz
  1  'x, y, z'
loop_
 _atom_site_type_symbol
 _atom_site_label
 _atom_site_symmetry_multiplicity
 _atom_site_fract_x
 _atom_site_fract_y
 _atom_site_fract_z
 _atom_site_occupancy
  Ce  Ce0  1  0.154166  0.537502  0.154166  1
  Dy  Dy1  1  0.688205  0.313412  0.688205  1
  Dy  Dy2  1  0.688205  0.313412  0.310179  1
  Dy  Dy3  1  0.937063  0.563748  0.562126  1
  Dy  Dy4  1  0.553048  0.147523  0.149714  1
  Dy  Dy5  1  0.149714  0.147523  0.553048  1
  Dy  Dy6  1  0.935166  0.935690  0.564573  1
  Dy  Dy7  1  0.311248  0.689784  0.311248  1
  Dy  Dy8  1  0.564573  0.935690  0.935166  1
  Dy  Dy9  1  0.564573  0.935690  0.564573  1
  Dy  Dy10  1  0.687719  0.689784  0.311248  1
  Dy  Dy11  1  0.562126  0.563748  0.937063  1
  Dy  Dy12  1  0.937063  0.563748  0.937063  1
  Dy  Dy13  1  0.311248  0.689784  0.687719  1
  Dy  Dy14  1  0.149714  0.147523  0.149714  1
  Dy  Dy15  1  0.310179  0.313412  0.688205  1
  Ni  Ni16  1  0.354797  0.361749  0.928657  1
  Ni  Ni17  1  0.356971  0.929088  0.356971  1
  Ni  Ni18  1  0.928657  0.361749  0.354797  1
  Ni  Ni19  1  0.354797  0.361749  0.354797  1
  Hg  Hg20  1  0.914511  0.256467  0.914511  1
  Hg  Hg21  1  0.915420  0.913741  0.915420  1
  Hg  Hg22  1  0.915420  0.913741  0.255420  1
  Hg  Hg23  1  0.255420  0.913741  0.915420  1
