# generated using pymatgen
data_Tm5Cr3(Co4P3)4
_symmetry_space_group_name_H-M   'P 1'
_cell_length_a   11.95435000
_cell_length_b   11.95435069
_cell_length_c   3.65245300
_cell_angle_alpha   90.00000000
_cell_angle_beta   90.00000000
_cell_angle_gamma   120.00000364
_symmetry_Int_Tables_number   1
_chemical_formula_structural   Tm5Cr3(Co4P3)4
_chemical_formula_sum   'Tm5 Cr3 Co16 P12'
_cell_volume   452.02995008
_cell_formula_units_Z   1
loop_
 _symmetry_equiv_pos_site_id
 _symmetry_equiv_pos_as_xyz
  1  'x, y, z'
loop_
 _atom_site_type_symbol
 _atom_site_label
 _atom_site_symmetry_multiplicity
 _atom_site_fract_x
 _atom_site_fract_y
 _atom_site_fract_z
 _atom_site_occupancy
  Tm  Tm0  1  0.666667  0.333333  0.000000  1
  Tm  Tm1  1  0.333333  0.666667  0.000000  1
  Tm  Tm2  1  0.812907  0.812907  0.500000  1
  Tm  Tm3  1  0.187093  0.000000  0.500000  1
  Tm  Tm4  1  0.000000  0.187093  0.500000  1
  Cr  Cr5  1  0.445775  0.445775  0.000000  1
  Cr  Cr6  1  0.554225  0.000000  0.000000  1
  Cr  Cr7  1  0.000000  0.554225  0.000000  1
  Co  Co8  1  0.873293  0.355526  0.500000  1
  Co  Co9  1  0.644474  0.517767  0.500000  1
  Co  Co10  1  0.482233  0.126707  0.500000  1
  Co  Co11  1  0.355526  0.873293  0.500000  1
  Co  Co12  1  0.517767  0.644474  0.500000  1
  Co  Co13  1  0.126707  0.482233  0.500000  1
  Co  Co14  1  0.800389  0.177133  0.000000  1
  Co  Co15  1  0.822867  0.623256  0.000000  1
  Co  Co16  1  0.376744  0.199611  0.000000  1
  Co  Co17  1  0.177133  0.800389  0.000000  1
  Co  Co18  1  0.623256  0.822867  0.000000  1
  Co  Co19  1  0.199611  0.376744  0.000000  1
  Co  Co20  1  0.282267  0.282267  0.500000  1
  Co  Co21  1  0.717733  0.000000  0.500000  1
  Co  Co22  1  0.000000  0.717733  0.500000  1
  Co  Co23  1  0.000000  0.000000  0.000000  1
  P  P24  1  0.682464  0.163083  0.500000  1
  P  P25  1  0.836917  0.519380  0.500000  1
  P  P26  1  0.480620  0.317536  0.500000  1
  P  P27  1  0.163083  0.682464  0.500000  1
  P  P28  1  0.519380  0.836917  0.500000  1
  P  P29  1  0.317536  0.480620  0.500000  1
  P  P30  1  0.178624  0.178624  0.000000  1
  P  P31  1  0.821376  0.000000  0.000000  1
  P  P32  1  0.000000  0.821376  0.000000  1
  P  P33  1  0.634152  0.634152  0.000000  1
  P  P34  1  0.365848  0.000000  0.000000  1
  P  P35  1  0.000000  0.365848  0.000000  1
