# generated using pymatgen
data_Ho3Tm(NiPt)2
_symmetry_space_group_name_H-M   'P 1'
_cell_length_a   4.33627800
_cell_length_b   5.46677277
_cell_length_c   7.03408595
_cell_angle_alpha   90.18453672
_cell_angle_beta   90.00000000
_cell_angle_gamma   90.00000000
_symmetry_Int_Tables_number   1
_chemical_formula_structural   Ho3Tm(NiPt)2
_chemical_formula_sum   'Ho3 Tm1 Ni2 Pt2'
_cell_volume   166.74528317
_cell_formula_units_Z   1
loop_
 _symmetry_equiv_pos_site_id
 _symmetry_equiv_pos_as_xyz
  1  'x, y, z'
loop_
 _atom_site_type_symbol
 _atom_site_label
 _atom_site_symmetry_multiplicity
 _atom_site_fract_x
 _atom_site_fract_y
 _atom_site_fract_z
 _atom_site_occupancy
  Ho  Ho0  1  0.750000  0.635840  0.319879  1
  Ho  Ho1  1  0.750000  0.864047  0.818143  1
  Ho  Ho2  1  0.250000  0.131810  0.179760  1
  Tm  Tm3  1  0.250000  0.367663  0.679351  1
  Ni  Ni4  1  0.250000  0.858021  0.543038  1
  Ni  Ni5  1  0.250000  0.639731  0.039781  1
  Pt  Pt6  1  0.750000  0.138847  0.462114  1
  Pt  Pt7  1  0.750000  0.364040  0.957934  1
