# generated using pymatgen
data_LaTmZn5Ge
_symmetry_space_group_name_H-M   'P 1'
_cell_length_a   8.32835929
_cell_length_b   8.32835996
_cell_length_c   8.86266500
_cell_angle_alpha   90.00000000
_cell_angle_beta   90.00000000
_cell_angle_gamma   149.57045988
_symmetry_Int_Tables_number   1
_chemical_formula_structural   LaTmZn5Ge
_chemical_formula_sum   'La2 Tm2 Zn10 Ge2'
_cell_volume   311.34664453
_cell_formula_units_Z   2
loop_
 _symmetry_equiv_pos_site_id
 _symmetry_equiv_pos_as_xyz
  1  'x, y, z'
loop_
 _atom_site_type_symbol
 _atom_site_label
 _atom_site_symmetry_multiplicity
 _atom_site_fract_x
 _atom_site_fract_y
 _atom_site_fract_z
 _atom_site_occupancy
  La  La0  1  0.000000  0.000000  0.500000  1
  La  La1  1  0.000000  0.000000  0.000000  1
  Tm  Tm2  1  0.201705  0.798295  0.250000  1
  Tm  Tm3  1  0.798295  0.201705  0.750000  1
  Zn  Zn4  1  0.812109  0.187891  0.390967  1
  Zn  Zn5  1  0.187891  0.812109  0.609033  1
  Zn  Zn6  1  0.812109  0.187891  0.109033  1
  Zn  Zn7  1  0.187891  0.812109  0.890967  1
  Zn  Zn8  1  0.655351  0.344649  0.476583  1
  Zn  Zn9  1  0.344649  0.655351  0.523417  1
  Zn  Zn10  1  0.655351  0.344649  0.023417  1
  Zn  Zn11  1  0.344649  0.655351  0.976583  1
  Zn  Zn12  1  0.399575  0.600425  0.250000  1
  Zn  Zn13  1  0.600425  0.399575  0.750000  1
  Ge  Ge14  1  0.559218  0.440782  0.250000  1
  Ge  Ge15  1  0.440782  0.559218  0.750000  1
