# generated using pymatgen
data_Ta(S4Cl3)2
_symmetry_space_group_name_H-M   'P 1'
_cell_length_a   8.60270715
_cell_length_b   8.58919026
_cell_length_c   13.08628616
_cell_angle_alpha   100.13644110
_cell_angle_beta   105.78828736
_cell_angle_gamma   90.76731885
_symmetry_Int_Tables_number   1
_chemical_formula_structural   Ta(S4Cl3)2
_chemical_formula_sum   'Ta2 S16 Cl12'
_cell_volume   914.02822278
_cell_formula_units_Z   2
loop_
 _symmetry_equiv_pos_site_id
 _symmetry_equiv_pos_as_xyz
  1  'x, y, z'
loop_
 _atom_site_type_symbol
 _atom_site_label
 _atom_site_symmetry_multiplicity
 _atom_site_fract_x
 _atom_site_fract_y
 _atom_site_fract_z
 _atom_site_occupancy
  Ta  Ta0  1  0.708410  0.218831  0.883051  1
  Ta  Ta1  1  0.291590  0.781169  0.116949  1
  S  S2  1  0.430934  0.755727  0.660735  1
  S  S3  1  0.569066  0.244273  0.339265  1
  S  S4  1  0.255971  0.890248  0.584993  1
  S  S5  1  0.744029  0.109752  0.415007  1
  S  S6  1  0.096971  0.956047  0.673824  1
  S  S7  1  0.903029  0.043953  0.326176  1
  S  S8  1  0.892284  0.803372  0.623260  1
  S  S9  1  0.107716  0.196628  0.376740  1
  S  S10  1  0.905311  0.621279  0.706487  1
  S  S11  1  0.094689  0.378721  0.293513  1
  S  S12  1  0.997413  0.424265  0.636193  1
  S  S13  1  0.002587  0.575735  0.363807  1
  S  S14  1  0.244610  0.422997  0.697362  1
  S  S15  1  0.755390  0.577003  0.302638  1
  S  S16  1  0.634944  0.481819  0.394552  1
  S  S17  1  0.365056  0.518181  0.605448  1
  Cl  Cl18  1  0.759099  0.258538  0.072639  1
  Cl  Cl19  1  0.240901  0.741462  0.927361  1
  Cl  Cl20  1  0.644173  0.174567  0.689074  1
  Cl  Cl21  1  0.355827  0.825433  0.310926  1
  Cl  Cl22  1  0.434224  0.142506  0.868763  1
  Cl  Cl23  1  0.565776  0.857494  0.131237  1
  Cl  Cl24  1  0.636806  0.484065  0.883858  1
  Cl  Cl25  1  0.363194  0.515935  0.116142  1
  Cl  Cl26  1  0.978578  0.293697  0.898574  1
  Cl  Cl27  1  0.021422  0.706303  0.101426  1
  Cl  Cl28  1  0.772350  0.950564  0.878687  1
  Cl  Cl29  1  0.227650  0.049436  0.121313  1
