# generated using pymatgen
data_ScTi4(Re7Tc)3
_symmetry_space_group_name_H-M   'P 1'
_cell_length_a   8.39330584
_cell_length_b   8.38713413
_cell_length_c   8.38673300
_cell_angle_alpha   109.45893677
_cell_angle_beta   109.48468399
_cell_angle_gamma   109.48696878
_symmetry_Int_Tables_number   1
_chemical_formula_structural   ScTi4(Re7Tc)3
_chemical_formula_sum   'Sc1 Ti4 Re21 Tc3'
_cell_volume   454.38792074
_cell_formula_units_Z   1
loop_
 _symmetry_equiv_pos_site_id
 _symmetry_equiv_pos_as_xyz
  1  'x, y, z'
loop_
 _atom_site_type_symbol
 _atom_site_label
 _atom_site_symmetry_multiplicity
 _atom_site_fract_x
 _atom_site_fract_y
 _atom_site_fract_z
 _atom_site_occupancy
  Sc  Sc0  1  0.999670  0.999984  0.999995  1
  Ti  Ti1  1  0.629149  0.999974  0.999990  1
  Ti  Ti2  1  0.999676  0.630514  0.999998  1
  Ti  Ti3  1  0.999668  0.000011  0.630536  1
  Ti  Ti4  1  0.369159  0.369485  0.369477  1
  Re  Re5  1  0.680820  0.399757  0.000002  1
  Re  Re6  1  0.001038  0.400933  0.681826  1
  Re  Re7  1  0.319211  0.719108  0.318170  1
  Re  Re8  1  0.319233  0.318304  0.719172  1
  Re  Re9  1  0.000970  0.681754  0.400846  1
  Re  Re10  1  0.680772  0.999982  0.399625  1
  Re  Re11  1  0.600062  0.599122  0.280828  1
  Re  Re12  1  0.281141  0.600338  0.600361  1
  Re  Re13  1  0.600131  0.280915  0.599145  1
  Re  Re14  1  0.375703  0.194250  0.000015  1
  Re  Re15  1  0.181380  0.805668  0.805730  1
  Re  Re16  1  0.375655  0.999948  0.194267  1
  Re  Re17  1  0.193929  0.377571  0.000003  1
  Re  Re18  1  0.000428  0.376712  0.193745  1
  Re  Re19  1  0.806675  0.182968  0.806242  1
  Re  Re20  1  0.806677  0.806269  0.182973  1
  Re  Re21  1  0.000395  0.193721  0.376696  1
  Re  Re22  1  0.193934  0.999975  0.377520  1
  Re  Re23  1  0.623703  0.623294  0.817019  1
  Re  Re24  1  0.816398  0.622442  0.622470  1
  Re  Re25  1  0.623684  0.817010  0.623290  1
  Tc  Tc26  1  0.401099  0.682443  0.999999  1
  Tc  Tc27  1  0.718601  0.317558  0.317564  1
  Tc  Tc28  1  0.401042  0.999991  0.682494  1
