# generated using pymatgen
data_NiRh3O8
_symmetry_space_group_name_H-M   'P 1'
_cell_length_a   5.51647053
_cell_length_b   5.51647002
_cell_length_c   4.57004185
_cell_angle_alpha   89.31331164
_cell_angle_beta   89.31331133
_cell_angle_gamma   68.83859622
_symmetry_Int_Tables_number   1
_chemical_formula_structural   NiRh3O8
_chemical_formula_sum   'Ni1 Rh3 O8'
_cell_volume   129.68120473
_cell_formula_units_Z   1
loop_
 _symmetry_equiv_pos_site_id
 _symmetry_equiv_pos_as_xyz
  1  'x, y, z'
loop_
 _atom_site_type_symbol
 _atom_site_label
 _atom_site_symmetry_multiplicity
 _atom_site_fract_x
 _atom_site_fract_y
 _atom_site_fract_z
 _atom_site_occupancy
  Ni  Ni0  1  0.250062  0.250062  0.499933  1
  Rh  Rh1  1  0.249947  0.750024  0.000036  1
  Rh  Rh2  1  0.750024  0.249947  0.000036  1
  Rh  Rh3  1  0.750003  0.750003  0.499948  1
  O  O4  1  0.402342  0.402342  0.818031  1
  O  O5  1  0.594161  0.594161  0.199027  1
  O  O6  1  0.894882  0.407150  0.696545  1
  O  O7  1  0.407150  0.894882  0.696545  1
  O  O8  1  0.092781  0.605188  0.303433  1
  O  O9  1  0.605188  0.092781  0.303433  1
  O  O10  1  0.097707  0.097707  0.181929  1
  O  O11  1  0.905751  0.905751  0.801104  1
