# generated using pymatgen
data_Y2Al2CuRu
_symmetry_space_group_name_H-M   'P 1'
_cell_length_a   4.27100800
_cell_length_b   6.86759200
_cell_length_c   7.89294500
_cell_angle_alpha   90.00000000
_cell_angle_beta   90.00000000
_cell_angle_gamma   90.00000000
_symmetry_Int_Tables_number   1
_chemical_formula_structural   Y2Al2CuRu
_chemical_formula_sum   'Y4 Al4 Cu2 Ru2'
_cell_volume   231.51223493
_cell_formula_units_Z   2
loop_
 _symmetry_equiv_pos_site_id
 _symmetry_equiv_pos_as_xyz
  1  'x, y, z'
loop_
 _atom_site_type_symbol
 _atom_site_label
 _atom_site_symmetry_multiplicity
 _atom_site_fract_x
 _atom_site_fract_y
 _atom_site_fract_z
 _atom_site_occupancy
  Y  Y0  1  0.250000  0.973969  0.318899  1
  Y  Y1  1  0.250000  0.473969  0.181101  1
  Y  Y2  1  0.750000  0.030885  0.678337  1
  Y  Y3  1  0.750000  0.530885  0.821663  1
  Al  Al4  1  0.250000  0.354780  0.558743  1
  Al  Al5  1  0.250000  0.854780  0.941257  1
  Al  Al6  1  0.750000  0.642801  0.441350  1
  Al  Al7  1  0.750000  0.142801  0.058650  1
  Cu  Cu8  1  0.250000  0.225467  0.873320  1
  Cu  Cu9  1  0.250000  0.725467  0.626680  1
  Ru  Ru10  1  0.750000  0.772098  0.118140  1
  Ru  Ru11  1  0.750000  0.272098  0.381860  1
