# generated using pymatgen
data_Zr2Co9NiMo2P7
_symmetry_space_group_name_H-M   'P 1'
_cell_length_a   8.94725923
_cell_length_b   8.96220978
_cell_length_c   3.65345300
_cell_angle_alpha   90.00000000
_cell_angle_beta   90.00000000
_cell_angle_gamma   119.78490507
_symmetry_Int_Tables_number   1
_chemical_formula_structural   Zr2Co9NiMo2P7
_chemical_formula_sum   'Zr2 Co9 Ni1 Mo2 P7'
_cell_volume   254.25910532
_cell_formula_units_Z   1
loop_
 _symmetry_equiv_pos_site_id
 _symmetry_equiv_pos_as_xyz
  1  'x, y, z'
loop_
 _atom_site_type_symbol
 _atom_site_label
 _atom_site_symmetry_multiplicity
 _atom_site_fract_x
 _atom_site_fract_y
 _atom_site_fract_z
 _atom_site_occupancy
  Zr  Zr0  1  0.995159  0.002552  0.000000  1
  Zr  Zr1  1  0.332482  0.665925  0.500000  1
  Co  Co2  1  0.296829  0.398628  0.000000  1
  Co  Co3  1  0.102148  0.703700  0.000000  1
  Co  Co4  1  0.381154  0.167680  0.000000  1
  Co  Co5  1  0.792199  0.622894  0.000000  1
  Co  Co6  1  0.833332  0.212186  0.000000  1
  Co  Co7  1  0.226972  0.943061  0.500000  1
  Co  Co8  1  0.056162  0.280674  0.500000  1
  Co  Co9  1  0.720518  0.778003  0.500000  1
  Co  Co10  1  0.597882  0.895362  0.000000  1
  Ni  Ni11  1  0.564983  0.103002  0.500000  1
  Mo  Mo12  1  0.887242  0.459854  0.500000  1
  Mo  Mo13  1  0.548284  0.431865  0.500000  1
  P  P14  1  0.663817  0.326247  0.000000  1
  P  P15  1  0.084052  0.448773  0.000000  1
  P  P16  1  0.256962  0.209542  0.500000  1
  P  P17  1  0.783082  0.047899  0.500000  1
  P  P18  1  0.956727  0.748410  0.500000  1
  P  P19  1  0.552548  0.635095  0.000000  1
  P  P20  1  0.367466  0.918648  0.000000  1
