# generated using pymatgen
data_Zr8ReSi16Ru11
_symmetry_space_group_name_H-M   'P 1'
_cell_length_a   9.93473106
_cell_length_b   9.93893187
_cell_length_c   13.41271246
_cell_angle_alpha   53.95891667
_cell_angle_beta   53.94504763
_cell_angle_gamma   31.49346941
_symmetry_Int_Tables_number   1
_chemical_formula_structural   Zr8ReSi16Ru11
_chemical_formula_sum   'Zr8 Re1 Si16 Ru11'
_cell_volume   547.47722714
_cell_formula_units_Z   1
loop_
 _symmetry_equiv_pos_site_id
 _symmetry_equiv_pos_as_xyz
  1  'x, y, z'
loop_
 _atom_site_type_symbol
 _atom_site_label
 _atom_site_symmetry_multiplicity
 _atom_site_fract_x
 _atom_site_fract_y
 _atom_site_fract_z
 _atom_site_occupancy
  Zr  Zr0  1  0.036273  0.294252  0.637063  1
  Zr  Zr1  1  0.705804  0.960299  0.863201  1
  Zr  Zr2  1  0.961770  0.706253  0.362718  1
  Zr  Zr3  1  0.294141  0.039221  0.136618  1
  Zr  Zr4  1  0.299086  0.552722  0.649200  1
  Zr  Zr5  1  0.447093  0.700848  0.851332  1
  Zr  Zr6  1  0.702649  0.444552  0.353387  1
  Zr  Zr7  1  0.553163  0.299873  0.148528  1
  Re  Re8  1  0.897684  0.144951  0.583911  1
  Si  Si9  1  0.971738  0.252668  0.895297  1
  Si  Si10  1  0.744969  0.025803  0.606641  1
  Si  Si11  1  0.028585  0.746848  0.105231  1
  Si  Si12  1  0.253349  0.975687  0.392144  1
  Si  Si13  1  0.142214  0.386961  0.895787  1
  Si  Si14  1  0.610445  0.858564  0.604102  1
  Si  Si15  1  0.857906  0.612450  0.103968  1
  Si  Si16  1  0.390318  0.139741  0.395821  1
  Si  Si17  1  0.087108  0.570390  0.565814  1
  Si  Si18  1  0.426959  0.913679  0.934597  1
  Si  Si19  1  0.915211  0.430507  0.432304  1
  Si  Si20  1  0.573625  0.085617  0.065176  1
  Si  Si21  1  0.619220  0.381791  0.752662  1
  Si  Si22  1  0.380479  0.618944  0.249427  1
  Si  Si23  1  0.127446  0.873646  0.749783  1
  Si  Si24  1  0.871774  0.128290  0.250866  1
  Ru  Ru25  1  0.867891  0.087280  0.917453  1
  Ru  Ru26  1  0.096362  0.860845  0.416079  1
  Ru  Ru27  1  0.132649  0.910978  0.085403  1
  Ru  Ru28  1  0.830516  0.644219  0.780599  1
  Ru  Ru29  1  0.353089  0.169269  0.720330  1
  Ru  Ru30  1  0.171686  0.354566  0.218210  1
  Ru  Ru31  1  0.647311  0.829288  0.278804  1
  Ru  Ru32  1  0.239468  0.514532  0.931956  1
  Ru  Ru33  1  0.483831  0.763247  0.564615  1
  Ru  Ru34  1  0.760473  0.485062  0.067436  1
  Ru  Ru35  1  0.517717  0.236155  0.433535  1
