# generated using pymatgen
data_Dy18Er2Si15Pd
_symmetry_space_group_name_H-M   'P 1'
_cell_length_a   7.42807758
_cell_length_b   7.67074252
_cell_length_c   14.57921600
_cell_angle_alpha   89.77458812
_cell_angle_beta   89.69888266
_cell_angle_gamma   90.19972468
_symmetry_Int_Tables_number   1
_chemical_formula_structural   Dy18Er2Si15Pd
_chemical_formula_sum   'Dy18 Er2 Si15 Pd1'
_cell_volume   830.68425361
_cell_formula_units_Z   1
loop_
 _symmetry_equiv_pos_site_id
 _symmetry_equiv_pos_as_xyz
  1  'x, y, z'
loop_
 _atom_site_type_symbol
 _atom_site_label
 _atom_site_symmetry_multiplicity
 _atom_site_fract_x
 _atom_site_fract_y
 _atom_site_fract_z
 _atom_site_occupancy
  Dy  Dy0  1  0.847657  0.487685  0.754897  1
  Dy  Dy1  1  0.352953  0.010824  0.751837  1
  Dy  Dy2  1  0.974752  0.818133  0.098858  1
  Dy  Dy3  1  0.470904  0.682793  0.400979  1
  Dy  Dy4  1  0.525959  0.319467  0.900581  1
  Dy  Dy5  1  0.030042  0.184215  0.599280  1
  Dy  Dy6  1  0.030552  0.180883  0.901207  1
  Dy  Dy7  1  0.529960  0.317480  0.598573  1
  Dy  Dy8  1  0.472809  0.682463  0.100584  1
  Dy  Dy9  1  0.969297  0.817149  0.400192  1
  Dy  Dy10  1  0.681324  0.817232  0.880616  1
  Dy  Dy11  1  0.179016  0.681814  0.621687  1
  Dy  Dy12  1  0.817615  0.330592  0.120288  1
  Dy  Dy13  1  0.315809  0.177744  0.376069  1
  Dy  Dy14  1  0.320453  0.178564  0.123743  1
  Dy  Dy15  1  0.819050  0.319674  0.377009  1
  Dy  Dy16  1  0.179499  0.676296  0.878085  1
  Dy  Dy17  1  0.682674  0.819888  0.622375  1
  Er  Er18  1  0.647612  0.992240  0.248999  1
  Er  Er19  1  0.148104  0.511036  0.247800  1
  Si  Si20  1  0.765482  0.630177  0.251692  1
  Si  Si21  1  0.265779  0.871278  0.250649  1
  Si  Si22  1  0.734277  0.124127  0.749152  1
  Si  Si23  1  0.234059  0.373802  0.746847  1
  Si  Si24  1  0.018546  0.105179  0.248756  1
  Si  Si25  1  0.521893  0.396926  0.251688  1
  Si  Si26  1  0.473611  0.606011  0.747380  1
  Si  Si27  1  0.977660  0.896346  0.748655  1
  Si  Si28  1  0.354565  0.972290  0.540063  1
  Si  Si29  1  0.647342  0.027175  0.042736  1
  Si  Si30  1  0.147274  0.470636  0.459471  1
  Si  Si31  1  0.157480  0.472049  0.042148  1
  Si  Si32  1  0.643827  0.028234  0.458676  1
  Si  Si33  1  0.353559  0.969384  0.961601  1
  Si  Si34  1  0.854457  0.528924  0.538737  1
  Pd  Pd35  1  0.854153  0.521292  0.958087  1
