# generated using pymatgen
data_TbMn2PC
_symmetry_space_group_name_H-M   'P 1'
_cell_length_a   5.53340336
_cell_length_b   5.53340408
_cell_length_c   6.90013800
_cell_angle_alpha   90.00000000
_cell_angle_beta   90.00000000
_cell_angle_gamma   141.28413580
_symmetry_Int_Tables_number   1
_chemical_formula_structural   TbMn2PC
_chemical_formula_sum   'Tb2 Mn4 P2 C2'
_cell_volume   132.14208149
_cell_formula_units_Z   2
loop_
 _symmetry_equiv_pos_site_id
 _symmetry_equiv_pos_as_xyz
  1  'x, y, z'
loop_
 _atom_site_type_symbol
 _atom_site_label
 _atom_site_symmetry_multiplicity
 _atom_site_fract_x
 _atom_site_fract_y
 _atom_site_fract_z
 _atom_site_occupancy
  Tb  Tb0  1  0.543707  0.456293  0.250000  1
  Tb  Tb1  1  0.456293  0.543707  0.750000  1
  Mn  Mn2  1  0.829030  0.170970  0.058186  1
  Mn  Mn3  1  0.170970  0.829030  0.941814  1
  Mn  Mn4  1  0.170970  0.829030  0.558186  1
  Mn  Mn5  1  0.829030  0.170970  0.441814  1
  P  P6  1  0.266553  0.733447  0.250000  1
  P  P7  1  0.733447  0.266553  0.750000  1
  C  C8  1  0.000000  0.000000  0.000000  1
  C  C9  1  0.000000  0.000000  0.500000  1
