# generated using pymatgen
data_Th2Ni2Ir5
_symmetry_space_group_name_H-M   'P 1'
_cell_length_a   5.34725923
_cell_length_b   5.34725944
_cell_length_c   12.99576771
_cell_angle_alpha   78.12771841
_cell_angle_beta   78.12771872
_cell_angle_gamma   60.00000291
_symmetry_Int_Tables_number   1
_chemical_formula_structural   Th2Ni2Ir5
_chemical_formula_sum   'Th4 Ni4 Ir10'
_cell_volume   312.59449583
_cell_formula_units_Z   2
loop_
 _symmetry_equiv_pos_site_id
 _symmetry_equiv_pos_as_xyz
  1  'x, y, z'
loop_
 _atom_site_type_symbol
 _atom_site_label
 _atom_site_symmetry_multiplicity
 _atom_site_fract_x
 _atom_site_fract_y
 _atom_site_fract_z
 _atom_site_occupancy
  Th  Th0  1  0.949973  0.949973  0.150082  1
  Th  Th1  1  0.050027  0.050027  0.849918  1
  Th  Th2  1  0.853109  0.853109  0.440675  1
  Th  Th3  1  0.146891  0.146891  0.559325  1
  Ni  Ni4  1  0.720267  0.720267  0.839199  1
  Ni  Ni5  1  0.279733  0.279733  0.160801  1
  Ni  Ni6  1  0.612894  0.612894  0.161318  1
  Ni  Ni7  1  0.387106  0.387106  0.838682  1
  Ir  Ir8  1  0.391240  0.391240  0.322207  1
  Ir  Ir9  1  0.895314  0.391240  0.322207  1
  Ir  Ir10  1  0.391240  0.895314  0.322207  1
  Ir  Ir11  1  0.608760  0.608760  0.677793  1
  Ir  Ir12  1  0.104686  0.608760  0.677793  1
  Ir  Ir13  1  0.608760  0.104686  0.677793  1
  Ir  Ir14  1  0.000000  0.500000  0.000000  1
  Ir  Ir15  1  0.500000  0.000000  0.000000  1
  Ir  Ir16  1  0.500000  0.500000  0.000000  1
  Ir  Ir17  1  0.500000  0.500000  0.500000  1
