# generated using pymatgen
data_Dy3Er9InCo4Au
_symmetry_space_group_name_H-M   'P 1'
_cell_length_a   8.28562003
_cell_length_b   8.28562145
_cell_length_c   8.27984621
_cell_angle_alpha   110.96774346
_cell_angle_beta   110.64561838
_cell_angle_gamma   106.86190375
_symmetry_Int_Tables_number   1
_chemical_formula_structural   Dy3Er9InCo4Au
_chemical_formula_sum   'Dy3 Er9 In1 Co4 Au1'
_cell_volume   436.72484551
_cell_formula_units_Z   1
loop_
 _symmetry_equiv_pos_site_id
 _symmetry_equiv_pos_as_xyz
  1  'x, y, z'
loop_
 _atom_site_type_symbol
 _atom_site_label
 _atom_site_symmetry_multiplicity
 _atom_site_fract_x
 _atom_site_fract_y
 _atom_site_fract_z
 _atom_site_occupancy
  Dy  Dy0  1  0.186725  0.290318  0.477043  1
  Dy  Dy1  1  0.812907  0.709457  0.522363  1
  Dy  Dy2  1  0.187268  0.709885  0.897153  1
  Er  Er3  1  0.813072  0.290281  0.103353  1
  Er  Er4  1  0.315668  0.620159  0.304223  1
  Er  Er5  1  0.684048  0.379597  0.696086  1
  Er  Er6  1  0.316490  0.012038  0.696086  1
  Er  Er7  1  0.684063  0.988555  0.304223  1
  Er  Er8  1  0.426576  0.221932  0.203995  1
  Er  Er9  1  0.574166  0.778656  0.796195  1
  Er  Er10  1  0.017539  0.222029  0.796195  1
  Er  Er11  1  0.982063  0.777419  0.203995  1
  In  In12  1  0.500053  0.499943  0.999997  1
  Co  Co13  1  0.112592  0.612423  0.499275  1
  Co  Co14  1  0.886852  0.386683  0.499275  1
  Co  Co15  1  0.377684  0.000180  0.377864  1
  Co  Co16  1  0.622436  0.000118  0.622554  1
  Au  Au17  1  0.999799  0.000327  0.000126  1
