# generated using pymatgen
data_Ta3CoOs2C
_symmetry_space_group_name_H-M   'P 1'
_cell_length_a   8.23608800
_cell_length_b   8.23608823
_cell_length_c   8.23608800
_cell_angle_alpha   119.99999908
_cell_angle_beta   90.00000000
_cell_angle_gamma   119.99999908
_symmetry_Int_Tables_number   1
_chemical_formula_structural   Ta3CoOs2C
_chemical_formula_sum   'Ta12 Co4 Os8 C4'
_cell_volume   395.04626602
_cell_formula_units_Z   4
loop_
 _symmetry_equiv_pos_site_id
 _symmetry_equiv_pos_as_xyz
  1  'x, y, z'
loop_
 _atom_site_type_symbol
 _atom_site_label
 _atom_site_symmetry_multiplicity
 _atom_site_fract_x
 _atom_site_fract_y
 _atom_site_fract_z
 _atom_site_occupancy
  Ta  Ta0  1  0.431401  0.750001  0.068599  1
  Ta  Ta1  1  0.818599  0.750001  0.068599  1
  Ta  Ta2  1  0.818599  0.137197  0.068599  1
  Ta  Ta3  1  0.568599  0.250001  0.318599  1
  Ta  Ta4  1  0.568599  0.637196  0.318599  1
  Ta  Ta5  1  0.181402  0.250001  0.318600  1
  Ta  Ta6  1  0.431401  0.750001  0.681402  1
  Ta  Ta7  1  0.818599  0.750001  0.681402  1
  Ta  Ta8  1  0.431401  0.362803  0.681402  1
  Ta  Ta9  1  0.568599  0.250001  0.931402  1
  Ta  Ta10  1  0.181402  0.250001  0.931403  1
  Ta  Ta11  1  0.181402  0.862805  0.931403  1
  Co  Co12  1  0.000000  0.500000  0.000000  1
  Co  Co13  1  0.000000  0.000000  0.500000  1
  Co  Co14  1  0.500000  0.000000  0.500000  1
  Co  Co15  1  0.000000  0.500000  0.500000  1
  Os  Os16  1  0.206773  0.586453  0.293227  1
  Os  Os17  1  0.879680  0.586453  0.293227  1
  Os  Os18  1  0.206773  0.913546  0.293227  1
  Os  Os19  1  0.793227  0.086454  0.379681  1
  Os  Os20  1  0.206773  0.913546  0.620319  1
  Os  Os21  1  0.120319  0.413546  0.706773  1
  Os  Os22  1  0.793227  0.086454  0.706773  1
  Os  Os23  1  0.793227  0.413546  0.706774  1
  C  C24  1  0.000000  0.000000  0.000000  1
  C  C25  1  0.500000  0.000000  0.000000  1
  C  C26  1  0.500000  0.500000  0.000000  1
  C  C27  1  0.500000  0.500000  0.500000  1
