# generated using pymatgen
data_Sc4Ta3InRu8
_symmetry_space_group_name_H-M   'P 1'
_cell_length_a   6.38814300
_cell_length_b   4.52644800
_cell_length_c   9.04080300
_cell_angle_alpha   90.00000000
_cell_angle_beta   89.99981154
_cell_angle_gamma   90.00000000
_symmetry_Int_Tables_number   1
_chemical_formula_structural   Sc4Ta3InRu8
_chemical_formula_sum   'Sc4 Ta3 In1 Ru8'
_cell_volume   261.42021706
_cell_formula_units_Z   1
loop_
 _symmetry_equiv_pos_site_id
 _symmetry_equiv_pos_as_xyz
  1  'x, y, z'
loop_
 _atom_site_type_symbol
 _atom_site_label
 _atom_site_symmetry_multiplicity
 _atom_site_fract_x
 _atom_site_fract_y
 _atom_site_fract_z
 _atom_site_occupancy
  Sc  Sc0  1  0.749962  0.250000  0.125017  1
  Sc  Sc1  1  0.250052  0.750000  0.367592  1
  Sc  Sc2  1  0.750031  0.250000  0.625048  1
  Sc  Sc3  1  0.249970  0.750000  0.882417  1
  Ta  Ta4  1  0.750039  0.750000  0.374126  1
  Ta  Ta5  1  0.249972  0.250000  0.625021  1
  Ta  Ta6  1  0.749965  0.750000  0.875903  1
  In  In7  1  0.250033  0.250000  0.124912  1
  Ru  Ru8  1  0.514083  0.750000  0.124940  1
  Ru  Ru9  1  0.985921  0.750000  0.124948  1
  Ru  Ru10  1  0.505001  0.250000  0.382510  1
  Ru  Ru11  1  0.995066  0.250000  0.382517  1
  Ru  Ru12  1  0.001991  0.750000  0.625041  1
  Ru  Ru13  1  0.497968  0.750000  0.625043  1
  Ru  Ru14  1  0.994992  0.250000  0.867477  1
  Ru  Ru15  1  0.504954  0.250000  0.867486  1
