# generated using pymatgen
data_Nb4Si4Ru3Rh
_symmetry_space_group_name_H-M   'P 1'
_cell_length_a   3.84104600
_cell_length_b   6.40355000
_cell_length_c   7.32453617
_cell_angle_alpha   90.25569907
_cell_angle_beta   90.00000000
_cell_angle_gamma   90.00000000
_symmetry_Int_Tables_number   1
_chemical_formula_structural   Nb4Si4Ru3Rh
_chemical_formula_sum   'Nb4 Si4 Ru3 Rh1'
_cell_volume   180.15491549
_cell_formula_units_Z   1
loop_
 _symmetry_equiv_pos_site_id
 _symmetry_equiv_pos_as_xyz
  1  'x, y, z'
loop_
 _atom_site_type_symbol
 _atom_site_label
 _atom_site_symmetry_multiplicity
 _atom_site_fract_x
 _atom_site_fract_y
 _atom_site_fract_z
 _atom_site_occupancy
  Nb  Nb0  1  0.750000  0.479653  0.321073  1
  Nb  Nb1  1  0.250000  0.018998  0.819700  1
  Nb  Nb2  1  0.750000  0.977783  0.180291  1
  Nb  Nb3  1  0.250000  0.526194  0.677645  1
  Si  Si4  1  0.250000  0.271695  0.123323  1
  Si  Si5  1  0.250000  0.776102  0.376018  1
  Si  Si6  1  0.750000  0.726807  0.879365  1
  Si  Si7  1  0.750000  0.227801  0.621634  1
  Ru  Ru8  1  0.250000  0.646325  0.062639  1
  Ru  Ru9  1  0.250000  0.150460  0.438800  1
  Ru  Ru10  1  0.750000  0.848967  0.563397  1
  Rh  Rh11  1  0.750000  0.349215  0.936114  1
