# generated using pymatgen
data_Hf4TiGaSn2
_symmetry_space_group_name_H-M   'P 1'
_cell_length_a   8.23254294
_cell_length_b   8.23254381
_cell_length_c   8.23254350
_cell_angle_alpha   96.23835781
_cell_angle_beta   96.23836980
_cell_angle_gamma   141.50569333
_symmetry_Int_Tables_number   1
_chemical_formula_structural   Hf4TiGaSn2
_chemical_formula_sum   'Hf8 Ti2 Ga2 Sn4'
_cell_volume   327.88223121
_cell_formula_units_Z   2
loop_
 _symmetry_equiv_pos_site_id
 _symmetry_equiv_pos_as_xyz
  1  'x, y, z'
loop_
 _atom_site_type_symbol
 _atom_site_label
 _atom_site_symmetry_multiplicity
 _atom_site_fract_x
 _atom_site_fract_y
 _atom_site_fract_z
 _atom_site_occupancy
  Hf  Hf0  1  0.785655  0.922130  0.707787  1
  Hf  Hf1  1  0.922130  0.214345  0.136475  1
  Hf  Hf2  1  0.077870  0.785655  0.863525  1
  Hf  Hf3  1  0.214345  0.077870  0.292213  1
  Hf  Hf4  1  0.577870  0.714345  0.292213  1
  Hf  Hf5  1  0.422130  0.285655  0.707787  1
  Hf  Hf6  1  0.285655  0.577870  0.863525  1
  Hf  Hf7  1  0.714345  0.422130  0.136475  1
  Ti  Ti8  1  0.250000  0.750000  0.500000  1
  Ti  Ti9  1  0.750000  0.250000  0.500000  1
  Ga  Ga10  1  0.750000  0.750000  0.000000  1
  Ga  Ga11  1  0.250000  0.250000  0.000000  1
  Sn  Sn12  1  0.340645  0.840645  0.181292  1
  Sn  Sn13  1  0.840645  0.659355  0.500000  1
  Sn  Sn14  1  0.159355  0.340645  0.500000  1
  Sn  Sn15  1  0.659355  0.159355  0.818708  1
