# generated using pymatgen
data_Dy9HoSn5Bi
_symmetry_space_group_name_H-M   'P 1'
_cell_length_a   8.99773313
_cell_length_b   8.99461657
_cell_length_c   6.51082000
_cell_angle_alpha   89.97639275
_cell_angle_beta   90.00992103
_cell_angle_gamma   120.00857160
_symmetry_Int_Tables_number   1
_chemical_formula_structural   Dy9HoSn5Bi
_chemical_formula_sum   'Dy9 Ho1 Sn5 Bi1'
_cell_volume   456.29375861
_cell_formula_units_Z   1
loop_
 _symmetry_equiv_pos_site_id
 _symmetry_equiv_pos_as_xyz
  1  'x, y, z'
loop_
 _atom_site_type_symbol
 _atom_site_label
 _atom_site_symmetry_multiplicity
 _atom_site_fract_x
 _atom_site_fract_y
 _atom_site_fract_z
 _atom_site_occupancy
  Dy  Dy0  1  0.994415  0.757141  0.749860  1
  Dy  Dy1  1  0.000418  0.239488  0.250143  1
  Dy  Dy2  1  0.760881  0.760578  0.250205  1
  Dy  Dy3  1  0.764491  0.000006  0.749868  1
  Dy  Dy4  1  0.237296  0.242922  0.749886  1
  Dy  Dy5  1  0.238144  0.000000  0.250142  1
  Dy  Dy6  1  0.670028  0.337511  0.001787  1
  Dy  Dy7  1  0.669994  0.337444  0.498262  1
  Dy  Dy8  1  0.332569  0.662544  0.001780  1
  Ho  Ho9  1  0.332492  0.662232  0.497918  1
  Sn  Sn10  1  0.395304  0.394246  0.250629  1
  Sn  Sn11  1  0.002239  0.606404  0.250607  1
  Sn  Sn12  1  0.000110  0.396191  0.749460  1
  Sn  Sn13  1  0.603407  0.604497  0.749399  1
  Sn  Sn14  1  0.604833  0.999438  0.250594  1
  Bi  Bi15  1  0.393380  0.999358  0.749461  1
