# generated using pymatgen
data_Lu5ZrMnSb2
_symmetry_space_group_name_H-M   'P 1'
_cell_length_a   7.92942100
_cell_length_b   7.94831313
_cell_length_c   4.10060400
_cell_angle_alpha   90.00000000
_cell_angle_beta   90.00000000
_cell_angle_gamma   119.92139232
_symmetry_Int_Tables_number   1
_chemical_formula_structural   Lu5ZrMnSb2
_chemical_formula_sum   'Lu5 Zr1 Mn1 Sb2'
_cell_volume   223.99502293
_cell_formula_units_Z   1
loop_
 _symmetry_equiv_pos_site_id
 _symmetry_equiv_pos_as_xyz
  1  'x, y, z'
loop_
 _atom_site_type_symbol
 _atom_site_label
 _atom_site_symmetry_multiplicity
 _atom_site_fract_x
 _atom_site_fract_y
 _atom_site_fract_z
 _atom_site_occupancy
  Lu  Lu0  1  0.002124  0.235617  0.500000  1
  Lu  Lu1  1  0.766506  0.764383  0.500000  1
  Lu  Lu2  1  0.600543  0.000000  0.000000  1
  Lu  Lu3  1  0.003623  0.612812  0.000000  1
  Lu  Lu4  1  0.390810  0.387188  0.000000  1
  Zr  Zr5  1  0.228682  0.000000  0.500000  1
  Mn  Mn6  1  0.011332  0.000000  0.000000  1
  Sb  Sb7  1  0.332759  0.669139  0.500000  1
  Sb  Sb8  1  0.663621  0.330861  0.500000  1
