# generated using pymatgen
data_LiYb2YCd2Sn3
_symmetry_space_group_name_H-M   'P 1'
_cell_length_a   7.54100300
_cell_length_b   7.52524741
_cell_length_c   4.66776600
_cell_angle_alpha   90.00000000
_cell_angle_beta   90.00000000
_cell_angle_gamma   119.93089762
_symmetry_Int_Tables_number   1
_chemical_formula_structural   LiYb2YCd2Sn3
_chemical_formula_sum   'Li1 Yb2 Y1 Cd2 Sn3'
_cell_volume   229.55755576
_cell_formula_units_Z   1
loop_
 _symmetry_equiv_pos_site_id
 _symmetry_equiv_pos_as_xyz
  1  'x, y, z'
loop_
 _atom_site_type_symbol
 _atom_site_label
 _atom_site_symmetry_multiplicity
 _atom_site_fract_x
 _atom_site_fract_y
 _atom_site_fract_z
 _atom_site_occupancy
  Li  Li0  1  0.000000  0.764000  0.000000  1
  Yb  Yb1  1  0.564536  0.566404  0.500000  1
  Yb  Yb2  1  0.435464  0.001868  0.500000  1
  Y  Y3  1  0.000000  0.427605  0.500000  1
  Cd  Cd4  1  0.248635  0.244928  0.000000  1
  Cd  Cd5  1  0.751365  0.996293  0.000000  1
  Sn  Sn6  1  0.317660  0.664176  0.000000  1
  Sn  Sn7  1  0.682340  0.346516  0.000000  1
  Sn  Sn8  1  0.000000  0.988209  0.500000  1
