# generated using pymatgen
data_Ho2PaCoNi
_symmetry_space_group_name_H-M   'P 1'
_cell_length_a   3.65528219
_cell_length_b   5.91150047
_cell_length_c   5.91149972
_cell_angle_alpha   61.63446886
_cell_angle_beta   71.99095026
_cell_angle_gamma   71.99095234
_symmetry_Int_Tables_number   1
_chemical_formula_structural   Ho2PaCoNi
_chemical_formula_sum   'Ho2 Pa1 Co1 Ni1'
_cell_volume   104.86407509
_cell_formula_units_Z   1
loop_
 _symmetry_equiv_pos_site_id
 _symmetry_equiv_pos_as_xyz
  1  'x, y, z'
loop_
 _atom_site_type_symbol
 _atom_site_label
 _atom_site_symmetry_multiplicity
 _atom_site_fract_x
 _atom_site_fract_y
 _atom_site_fract_z
 _atom_site_occupancy
  Ho  Ho0  1  0.194902  0.300375  0.309822  1
  Ho  Ho1  1  0.805098  0.690178  0.699625  1
  Pa  Pa2  1  0.000000  0.988670  0.011330  1
  Co  Co3  1  0.500000  0.726858  0.273142  1
  Ni  Ni4  1  0.500000  0.293919  0.706081  1
