# generated using pymatgen
data_Yb3TmAs3
_symmetry_space_group_name_H-M   'P 1'
_cell_length_a   7.60078563
_cell_length_b   7.66870274
_cell_length_c   7.60078547
_cell_angle_alpha   109.56940993
_cell_angle_beta   109.12201427
_cell_angle_gamma   109.56940151
_symmetry_Int_Tables_number   1
_chemical_formula_structural   Yb3TmAs3
_chemical_formula_sum   'Yb6 Tm2 As6'
_cell_volume   341.68571903
_cell_formula_units_Z   2
loop_
 _symmetry_equiv_pos_site_id
 _symmetry_equiv_pos_as_xyz
  1  'x, y, z'
loop_
 _atom_site_type_symbol
 _atom_site_label
 _atom_site_symmetry_multiplicity
 _atom_site_fract_x
 _atom_site_fract_y
 _atom_site_fract_z
 _atom_site_occupancy
  Yb  Yb0  1  0.363309  0.358596  0.363939  1
  Yb  Yb1  1  0.998986  0.135608  0.494498  1
  Yb  Yb2  1  0.863939  0.858596  0.863309  1
  Yb  Yb3  1  0.994498  0.635608  0.498986  1
  Yb  Yb4  1  0.637564  0.505951  0.004654  1
  Yb  Yb5  1  0.504654  0.005951  0.137564  1
  Tm  Tm6  1  0.136568  0.500280  0.000566  1
  Tm  Tm7  1  0.500566  0.000280  0.636568  1
  As  As8  1  0.876134  0.250114  0.112854  1
  As  As9  1  0.133826  0.869054  0.253196  1
  As  As10  1  0.371536  0.630398  0.752370  1
  As  As11  1  0.252370  0.130398  0.871536  1
  As  As12  1  0.753196  0.369054  0.633826  1
  As  As13  1  0.612854  0.750114  0.376134  1
