# generated using pymatgen
data_Tb2LuGa5
_symmetry_space_group_name_H-M   'P 1'
_cell_length_a   6.10344800
_cell_length_b   9.60565600
_cell_length_c   11.48432200
_cell_angle_alpha   90.00000000
_cell_angle_beta   90.00000000
_cell_angle_gamma   90.00000000
_symmetry_Int_Tables_number   1
_chemical_formula_structural   Tb2LuGa5
_chemical_formula_sum   'Tb8 Lu4 Ga20'
_cell_volume   673.29848802
_cell_formula_units_Z   4
loop_
 _symmetry_equiv_pos_site_id
 _symmetry_equiv_pos_as_xyz
  1  'x, y, z'
loop_
 _atom_site_type_symbol
 _atom_site_label
 _atom_site_symmetry_multiplicity
 _atom_site_fract_x
 _atom_site_fract_y
 _atom_site_fract_z
 _atom_site_occupancy
  Tb  Tb0  1  0.890522  0.511410  0.351998  1
  Tb  Tb1  1  0.609478  0.988590  0.851998  1
  Tb  Tb2  1  0.109478  0.011410  0.648002  1
  Tb  Tb3  1  0.390522  0.488590  0.148002  1
  Tb  Tb4  1  0.109478  0.488590  0.648002  1
  Tb  Tb5  1  0.390522  0.011410  0.148002  1
  Tb  Tb6  1  0.890522  0.988590  0.351998  1
  Tb  Tb7  1  0.609478  0.511410  0.851998  1
  Lu  Lu8  1  0.849435  0.750000  0.073819  1
  Lu  Lu9  1  0.650565  0.750000  0.573819  1
  Lu  Lu10  1  0.150565  0.250000  0.926181  1
  Lu  Lu11  1  0.349435  0.250000  0.426181  1
  Ga  Ga12  1  0.874481  0.052065  0.090168  1
  Ga  Ga13  1  0.625519  0.447935  0.590168  1
  Ga  Ga14  1  0.125519  0.552065  0.909832  1
  Ga  Ga15  1  0.374481  0.947935  0.409832  1
  Ga  Ga16  1  0.125519  0.947935  0.909832  1
  Ga  Ga17  1  0.374481  0.552065  0.409832  1
  Ga  Ga18  1  0.874481  0.447935  0.090168  1
  Ga  Ga19  1  0.625519  0.052065  0.590168  1
  Ga  Ga20  1  0.173976  0.750000  0.250368  1
  Ga  Ga21  1  0.326024  0.750000  0.750368  1
  Ga  Ga22  1  0.826024  0.250000  0.749632  1
  Ga  Ga23  1  0.673976  0.250000  0.249632  1
  Ga  Ga24  1  0.372291  0.750000  0.005789  1
  Ga  Ga25  1  0.127709  0.750000  0.505789  1
  Ga  Ga26  1  0.627709  0.250000  0.994211  1
  Ga  Ga27  1  0.872291  0.250000  0.494211  1
  Ga  Ga28  1  0.602394  0.750000  0.298841  1
  Ga  Ga29  1  0.897606  0.750000  0.798841  1
  Ga  Ga30  1  0.397606  0.250000  0.701159  1
  Ga  Ga31  1  0.102394  0.250000  0.201159  1
