# generated using pymatgen
data_TcCl30
_symmetry_space_group_name_H-M   'P 1'
_cell_length_a   13.50775588
_cell_length_b   13.50775669
_cell_length_c   15.62152483
_cell_angle_alpha   83.77341681
_cell_angle_beta   83.77341942
_cell_angle_gamma   125.31698322
_symmetry_Int_Tables_number   1
_chemical_formula_structural   TcCl30
_chemical_formula_sum   'Tc1 Cl30'
_cell_volume   2259.96674769
_cell_formula_units_Z   1
loop_
 _symmetry_equiv_pos_site_id
 _symmetry_equiv_pos_as_xyz
  1  'x, y, z'
loop_
 _atom_site_type_symbol
 _atom_site_label
 _atom_site_symmetry_multiplicity
 _atom_site_fract_x
 _atom_site_fract_y
 _atom_site_fract_z
 _atom_site_occupancy
  Tc  Tc0  1  0.000000  0.000000  0.000000  1
  Cl  Cl1  1  0.944121  0.944121  0.155209  1
  Cl  Cl2  1  0.055879  0.055879  0.844791  1
  Cl  Cl3  1  0.060427  0.195851  0.005376  1
  Cl  Cl4  1  0.939573  0.804149  0.994624  1
  Cl  Cl5  1  0.195851  0.060427  0.005376  1
  Cl  Cl6  1  0.804149  0.939573  0.994624  1
  Cl  Cl7  1  0.202755  0.741600  0.065743  1
  Cl  Cl8  1  0.797245  0.258400  0.934257  1
  Cl  Cl9  1  0.700146  0.076967  0.262879  1
  Cl  Cl10  1  0.258400  0.797245  0.934257  1
  Cl  Cl11  1  0.299854  0.923033  0.737121  1
  Cl  Cl12  1  0.741600  0.202755  0.065743  1
  Cl  Cl13  1  0.978331  0.197063  0.781597  1
  Cl  Cl14  1  0.923033  0.299854  0.737121  1
  Cl  Cl15  1  0.021669  0.802937  0.218403  1
  Cl  Cl16  1  0.076967  0.700146  0.262879  1
  Cl  Cl17  1  0.802937  0.021669  0.218403  1
  Cl  Cl18  1  0.197063  0.978331  0.781597  1
  Cl  Cl19  1  0.464894  0.547983  0.260072  1
  Cl  Cl20  1  0.535106  0.452017  0.739928  1
  Cl  Cl21  1  0.508044  0.204691  0.450540  1
  Cl  Cl22  1  0.452017  0.535106  0.739928  1
  Cl  Cl23  1  0.491956  0.795309  0.549460  1
  Cl  Cl24  1  0.547983  0.464894  0.260072  1
  Cl  Cl25  1  0.240291  0.428353  0.545079  1
  Cl  Cl26  1  0.795309  0.491956  0.549460  1
  Cl  Cl27  1  0.759709  0.571647  0.454921  1
  Cl  Cl28  1  0.204691  0.508044  0.450540  1
  Cl  Cl29  1  0.571647  0.759709  0.454921  1
  Cl  Cl30  1  0.428353  0.240291  0.545079  1
