# generated using pymatgen
data_V2(IrRh)3
_symmetry_space_group_name_H-M   'P 1'
_cell_length_a   5.44796100
_cell_length_b   5.45024458
_cell_length_c   4.35077000
_cell_angle_alpha   90.00000000
_cell_angle_beta   90.00000000
_cell_angle_gamma   119.98614708
_symmetry_Int_Tables_number   1
_chemical_formula_structural   V2(IrRh)3
_chemical_formula_sum   'V2 Ir3 Rh3'
_cell_volume   111.89414062
_cell_formula_units_Z   1
loop_
 _symmetry_equiv_pos_site_id
 _symmetry_equiv_pos_as_xyz
  1  'x, y, z'
loop_
 _atom_site_type_symbol
 _atom_site_label
 _atom_site_symmetry_multiplicity
 _atom_site_fract_x
 _atom_site_fract_y
 _atom_site_fract_z
 _atom_site_occupancy
  V  V0  1  0.333073  0.666146  0.250000  1
  V  V1  1  0.666406  0.332810  0.750000  1
  Ir  Ir2  1  0.832149  0.664297  0.250000  1
  Ir  Ir3  1  0.168120  0.832907  0.750000  1
  Ir  Ir4  1  0.664785  0.832907  0.750000  1
  Rh  Rh5  1  0.335348  0.168341  0.250000  1
  Rh  Rh6  1  0.832994  0.168341  0.250000  1
  Rh  Rh7  1  0.167125  0.334251  0.750000  1
