# generated using pymatgen
data_ScNb3Ga2(B2Ru5)2
_symmetry_space_group_name_H-M   'P 1'
_cell_length_a   9.36429933
_cell_length_b   9.36429933
_cell_length_c   3.00691000
_cell_angle_alpha   90.00000000
_cell_angle_beta   90.00000000
_cell_angle_gamma   90.22674076
_symmetry_Int_Tables_number   1
_chemical_formula_structural   ScNb3Ga2(B2Ru5)2
_chemical_formula_sum   'Sc1 Nb3 Ga2 B4 Ru10'
_cell_volume   263.67417983
_cell_formula_units_Z   1
loop_
 _symmetry_equiv_pos_site_id
 _symmetry_equiv_pos_as_xyz
  1  'x, y, z'
loop_
 _atom_site_type_symbol
 _atom_site_label
 _atom_site_symmetry_multiplicity
 _atom_site_fract_x
 _atom_site_fract_y
 _atom_site_fract_z
 _atom_site_occupancy
  Sc  Sc0  1  0.824329  0.675671  0.000000  1
  Nb  Nb1  1  0.174712  0.325288  0.000000  1
  Nb  Nb2  1  0.324623  0.824985  0.000000  1
  Nb  Nb3  1  0.675015  0.175377  0.000000  1
  Ga  Ga4  1  0.502643  0.500584  0.000000  1
  Ga  Ga5  1  0.999416  0.997357  0.000000  1
  B  B6  1  0.624968  0.875032  0.000000  1
  B  B7  1  0.374557  0.125443  0.000000  1
  B  B8  1  0.125475  0.624394  0.000000  1
  B  B9  1  0.875606  0.374525  0.000000  1
  Ru  Ru10  1  0.562441  0.717947  0.500000  1
  Ru  Ru11  1  0.428948  0.286028  0.500000  1
  Ru  Ru12  1  0.077633  0.785684  0.500000  1
  Ru  Ru13  1  0.932807  0.214114  0.500000  1
  Ru  Ru14  1  0.285886  0.567193  0.500000  1
  Ru  Ru15  1  0.714316  0.422367  0.500000  1
  Ru  Ru16  1  0.213972  0.071052  0.500000  1
  Ru  Ru17  1  0.782053  0.937559  0.500000  1
  Ru  Ru18  1  0.498643  0.001357  0.500000  1
  Ru  Ru19  1  0.001955  0.498045  0.500000  1
