# generated using pymatgen
data_LiDy4Tc2B16Ru
_symmetry_space_group_name_H-M   'P 1'
_cell_length_a   3.59064400
_cell_length_b   5.95208827
_cell_length_c   11.50358173
_cell_angle_alpha   89.91797120
_cell_angle_beta   90.00000000
_cell_angle_gamma   90.00000000
_symmetry_Int_Tables_number   1
_chemical_formula_structural   LiDy4Tc2B16Ru
_chemical_formula_sum   'Li1 Dy4 Tc2 B16 Ru1'
_cell_volume   245.85234149
_cell_formula_units_Z   1
loop_
 _symmetry_equiv_pos_site_id
 _symmetry_equiv_pos_as_xyz
  1  'x, y, z'
loop_
 _atom_site_type_symbol
 _atom_site_label
 _atom_site_symmetry_multiplicity
 _atom_site_fract_x
 _atom_site_fract_y
 _atom_site_fract_z
 _atom_site_occupancy
  Li  Li0  1  0.000000  0.634516  0.587461  1
  Dy  Dy1  1  0.000000  0.129615  0.645990  1
  Dy  Dy2  1  0.000000  0.872851  0.353568  1
  Dy  Dy3  1  0.000000  0.627548  0.848102  1
  Dy  Dy4  1  0.000000  0.369872  0.153787  1
  Tc  Tc5  1  0.000000  0.133254  0.913638  1
  Tc  Tc6  1  0.000000  0.866772  0.086931  1
  B  B7  1  0.500000  0.481042  0.691858  1
  B  B8  1  0.500000  0.521460  0.308850  1
  B  B9  1  0.500000  0.975105  0.805598  1
  B  B10  1  0.500000  0.023279  0.192980  1
  B  B11  1  0.500000  0.288921  0.812963  1
  B  B12  1  0.500000  0.712422  0.186283  1
  B  B13  1  0.500000  0.785004  0.682451  1
  B  B14  1  0.500000  0.212870  0.316714  1
  B  B15  1  0.500000  0.364231  0.968294  1
  B  B16  1  0.500000  0.634882  0.030983  1
  B  B17  1  0.500000  0.863279  0.533252  1
  B  B18  1  0.500000  0.135687  0.468936  1
  B  B19  1  0.500000  0.384886  0.545786  1
  B  B20  1  0.500000  0.611688  0.452564  1
  B  B21  1  0.500000  0.886614  0.952171  1
  B  B22  1  0.500000  0.112294  0.047046  1
  Ru  Ru23  1  0.000000  0.371908  0.413794  1
