# generated using pymatgen
data_Pr7ThS12
_symmetry_space_group_name_H-M   'P 1'
_cell_length_a   4.06443800
_cell_length_b   10.81165637
_cell_length_c   11.07456931
_cell_angle_alpha   89.77633454
_cell_angle_beta   90.00000000
_cell_angle_gamma   90.00000000
_symmetry_Int_Tables_number   1
_chemical_formula_structural   Pr7ThS12
_chemical_formula_sum   'Pr7 Th1 S12'
_cell_volume   486.64949125
_cell_formula_units_Z   1
loop_
 _symmetry_equiv_pos_site_id
 _symmetry_equiv_pos_as_xyz
  1  'x, y, z'
loop_
 _atom_site_type_symbol
 _atom_site_label
 _atom_site_symmetry_multiplicity
 _atom_site_fract_x
 _atom_site_fract_y
 _atom_site_fract_z
 _atom_site_occupancy
  Pr  Pr0  1  0.250000  0.007851  0.310645  1
  Pr  Pr1  1  0.750000  0.995689  0.692046  1
  Pr  Pr2  1  0.750000  0.503354  0.191659  1
  Pr  Pr3  1  0.250000  0.492575  0.807430  1
  Pr  Pr4  1  0.250000  0.686640  0.489597  1
  Pr  Pr5  1  0.750000  0.313748  0.510994  1
  Pr  Pr6  1  0.750000  0.187649  0.010652  1
  Th  Th7  1  0.250000  0.813256  0.989373  1
  S  S8  1  0.250000  0.051888  0.880806  1
  S  S9  1  0.750000  0.942305  0.119491  1
  S  S10  1  0.750000  0.554669  0.622197  1
  S  S11  1  0.250000  0.447511  0.377818  1
  S  S12  1  0.250000  0.126985  0.548048  1
  S  S13  1  0.750000  0.872272  0.452522  1
  S  S14  1  0.750000  0.631709  0.951488  1
  S  S15  1  0.250000  0.374573  0.046695  1
  S  S16  1  0.250000  0.701894  0.222227  1
  S  S17  1  0.750000  0.297590  0.772272  1
  S  S18  1  0.750000  0.200368  0.270939  1
  S  S19  1  0.250000  0.797473  0.733101  1
