# generated using pymatgen
data_YbTi5(InPd2)6
_symmetry_space_group_name_H-M   'P 1'
_cell_length_a   4.63500500
_cell_length_b   6.38061700
_cell_length_c   13.96792901
_cell_angle_alpha   90.00000000
_cell_angle_beta   90.00021196
_cell_angle_gamma   90.00000000
_symmetry_Int_Tables_number   1
_chemical_formula_structural   YbTi5(InPd2)6
_chemical_formula_sum   'Yb1 Ti5 In6 Pd12'
_cell_volume   413.09021055
_cell_formula_units_Z   1
loop_
 _symmetry_equiv_pos_site_id
 _symmetry_equiv_pos_as_xyz
  1  'x, y, z'
loop_
 _atom_site_type_symbol
 _atom_site_label
 _atom_site_symmetry_multiplicity
 _atom_site_fract_x
 _atom_site_fract_y
 _atom_site_fract_z
 _atom_site_occupancy
  Yb  Yb0  1  0.000000  0.500000  0.000000  1
  Ti  Ti1  1  0.500007  0.000000  0.166904  1
  Ti  Ti2  1  0.999998  0.500000  0.332938  1
  Ti  Ti3  1  0.500000  0.000000  0.500000  1
  Ti  Ti4  1  0.000002  0.500000  0.667062  1
  Ti  Ti5  1  0.499993  0.000000  0.833096  1
  In  In6  1  0.000000  0.000000  0.000000  1
  In  In7  1  0.500002  0.500000  0.167087  1
  In  In8  1  0.999995  0.000000  0.339984  1
  In  In9  1  0.500000  0.500000  0.500000  1
  In  In10  1  0.000005  0.000000  0.660016  1
  In  In11  1  0.499998  0.500000  0.832912  1
  Pd  Pd12  1  0.500000  0.228576  0.000000  1
  Pd  Pd13  1  0.500000  0.771425  0.000000  1
  Pd  Pd14  1  0.999996  0.234096  0.175994  1
  Pd  Pd15  1  0.999996  0.765904  0.175994  1
  Pd  Pd16  1  0.499984  0.251855  0.333253  1
  Pd  Pd17  1  0.499984  0.748145  0.333253  1
  Pd  Pd18  1  0.000000  0.256036  0.500000  1
  Pd  Pd19  1  0.000000  0.743964  0.500000  1
  Pd  Pd20  1  0.500016  0.251855  0.666747  1
  Pd  Pd21  1  0.500016  0.748145  0.666747  1
  Pd  Pd22  1  0.000004  0.234096  0.824006  1
  Pd  Pd23  1  0.000004  0.765904  0.824006  1
