# generated using pymatgen
data_Yb2Mg3Si7Pt9
_symmetry_space_group_name_H-M   'P 1'
_cell_length_a   10.04943100
_cell_length_b   10.04943078
_cell_length_c   3.94037900
_cell_angle_alpha   90.00000000
_cell_angle_beta   90.00000000
_cell_angle_gamma   120.00000401
_symmetry_Int_Tables_number   1
_chemical_formula_structural   Yb2Mg3Si7Pt9
_chemical_formula_sum   'Yb2 Mg3 Si7 Pt9'
_cell_volume   344.62878262
_cell_formula_units_Z   1
loop_
 _symmetry_equiv_pos_site_id
 _symmetry_equiv_pos_as_xyz
  1  'x, y, z'
loop_
 _atom_site_type_symbol
 _atom_site_label
 _atom_site_symmetry_multiplicity
 _atom_site_fract_x
 _atom_site_fract_y
 _atom_site_fract_z
 _atom_site_occupancy
  Yb  Yb0  1  0.000000  0.000000  0.000000  1
  Yb  Yb1  1  0.333333  0.666667  0.500000  1
  Mg  Mg2  1  0.897579  0.455159  0.500000  1
  Mg  Mg3  1  0.557579  0.102421  0.500000  1
  Mg  Mg4  1  0.544841  0.442421  0.500000  1
  Si  Si5  1  0.253153  0.207610  0.500000  1
  Si  Si6  1  0.792390  0.045543  0.500000  1
  Si  Si7  1  0.954457  0.746847  0.500000  1
  Si  Si8  1  0.554645  0.646960  0.000000  1
  Si  Si9  1  0.353040  0.907684  0.000000  1
  Si  Si10  1  0.092316  0.445355  0.000000  1
  Si  Si11  1  0.666667  0.333333  0.000000  1
  Pt  Pt12  1  0.220063  0.943579  0.500000  1
  Pt  Pt13  1  0.056421  0.276485  0.500000  1
  Pt  Pt14  1  0.723515  0.779937  0.500000  1
  Pt  Pt15  1  0.312592  0.409077  0.000000  1
  Pt  Pt16  1  0.590923  0.903514  0.000000  1
  Pt  Pt17  1  0.096486  0.687408  0.000000  1
  Pt  Pt18  1  0.392834  0.174945  0.000000  1
  Pt  Pt19  1  0.825055  0.217890  0.000000  1
  Pt  Pt20  1  0.782110  0.607166  0.000000  1
