# generated using pymatgen
data_Ce4BPt5Rh7
_symmetry_space_group_name_H-M   'P 1'
_cell_length_a   7.17846968
_cell_length_b   7.17847036
_cell_length_c   7.17847090
_cell_angle_alpha   108.71880696
_cell_angle_beta   109.84874734
_cell_angle_gamma   109.84872636
_symmetry_Int_Tables_number   1
_chemical_formula_structural   Ce4BPt5Rh7
_chemical_formula_sum   'Ce4 B1 Pt5 Rh7'
_cell_volume   284.71982069
_cell_formula_units_Z   1
loop_
 _symmetry_equiv_pos_site_id
 _symmetry_equiv_pos_as_xyz
  1  'x, y, z'
loop_
 _atom_site_type_symbol
 _atom_site_label
 _atom_site_symmetry_multiplicity
 _atom_site_fract_x
 _atom_site_fract_y
 _atom_site_fract_z
 _atom_site_occupancy
  Ce  Ce0  1  0.994030  0.997015  0.497015  1
  Ce  Ce1  1  0.005970  0.502985  0.002985  1
  Ce  Ce2  1  0.500000  0.997015  0.002985  1
  Ce  Ce3  1  0.500000  0.502985  0.497015  1
  B  B4  1  0.000000  0.000000  0.000000  1
  Pt  Pt5  1  0.749992  0.250438  0.500447  1
  Pt  Pt6  1  0.749992  0.499553  0.249545  1
  Pt  Pt7  1  0.500000  0.250000  0.750000  1
  Pt  Pt8  1  0.250008  0.499553  0.749562  1
  Pt  Pt9  1  0.250008  0.750455  0.500447  1
  Rh  Rh10  1  0.500000  0.750000  0.250000  1
  Rh  Rh11  1  0.742717  0.742233  0.999516  1
  Rh  Rh12  1  0.257283  0.000484  0.257767  1
  Rh  Rh13  1  0.000000  0.256547  0.256547  1
  Rh  Rh14  1  0.257283  0.256798  0.999516  1
  Rh  Rh15  1  0.742717  0.000484  0.743202  1
  Rh  Rh16  1  0.000000  0.743453  0.743453  1
