# generated using pymatgen
data_Tm7Lu3(InBi2)2
_symmetry_space_group_name_H-M   'P 1'
_cell_length_a   6.41912010
_cell_length_b   8.98715189
_cell_length_c   8.94275242
_cell_angle_alpha   120.06627574
_cell_angle_beta   89.97400499
_cell_angle_gamma   89.99489460
_symmetry_Int_Tables_number   1
_chemical_formula_structural   Tm7Lu3(InBi2)2
_chemical_formula_sum   'Tm7 Lu3 In2 Bi4'
_cell_volume   446.48710627
_cell_formula_units_Z   1
loop_
 _symmetry_equiv_pos_site_id
 _symmetry_equiv_pos_as_xyz
  1  'x, y, z'
loop_
 _atom_site_type_symbol
 _atom_site_label
 _atom_site_symmetry_multiplicity
 _atom_site_fract_x
 _atom_site_fract_y
 _atom_site_fract_z
 _atom_site_occupancy
  Tm  Tm0  1  0.496496  0.332213  0.660064  1
  Tm  Tm1  1  0.750192  0.235121  0.000229  1
  Tm  Tm2  1  0.750239  0.765565  0.763412  1
  Tm  Tm3  1  0.750260  0.002403  0.236212  1
  Tm  Tm4  1  0.250378  0.766841  0.999738  1
  Tm  Tm5  1  0.250074  0.231927  0.242013  1
  Tm  Tm6  1  0.250154  0.989804  0.758148  1
  Lu  Lu7  1  0.496049  0.672874  0.340524  1
  Lu  Lu8  1  0.003825  0.672587  0.340192  1
  Lu  Lu9  1  0.003791  0.332130  0.659968  1
  In  In10  1  0.248885  0.603460  0.604520  1
  In  In11  1  0.249072  0.997937  0.395184  1
  Bi  Bi12  1  0.750184  0.605980  0.000516  1
  Bi  Bi13  1  0.750198  0.397434  0.392832  1
  Bi  Bi14  1  0.750201  0.004308  0.606355  1
  Bi  Bi15  1  0.250005  0.389419  0.000093  1
