# generated using pymatgen
data_Na2ErNpTe4
_symmetry_space_group_name_H-M   'P 1'
_cell_length_a   8.98864829
_cell_length_b   8.98135600
_cell_length_c   8.98216400
_cell_angle_alpha   59.64664760
_cell_angle_beta   59.95332555
_cell_angle_gamma   59.97737153
_symmetry_Int_Tables_number   1
_chemical_formula_structural   Na2ErNpTe4
_chemical_formula_sum   'Na4 Er2 Np2 Te8'
_cell_volume   511.09612190
_cell_formula_units_Z   2
loop_
 _symmetry_equiv_pos_site_id
 _symmetry_equiv_pos_as_xyz
  1  'x, y, z'
loop_
 _atom_site_type_symbol
 _atom_site_label
 _atom_site_symmetry_multiplicity
 _atom_site_fract_x
 _atom_site_fract_y
 _atom_site_fract_z
 _atom_site_occupancy
  Na  Na0  1  0.125000  0.625000  0.125000  1
  Na  Na1  1  0.125000  0.125000  0.625000  1
  Na  Na2  1  0.625000  0.125000  0.125000  1
  Na  Na3  1  0.125000  0.125000  0.125000  1
  Er  Er4  1  0.625000  0.625000  0.625000  1
  Er  Er5  1  0.125000  0.625000  0.625000  1
  Np  Np6  1  0.625000  0.125000  0.625000  1
  Np  Np7  1  0.625000  0.625000  0.125000  1
  Te  Te8  1  0.377418  0.859717  0.385279  1
  Te  Te9  1  0.872582  0.390283  0.864721  1
  Te  Te10  1  0.872364  0.864633  0.390941  1
  Te  Te11  1  0.877971  0.867501  0.866979  1
  Te  Te12  1  0.862792  0.382564  0.383024  1
  Te  Te13  1  0.377636  0.385367  0.859059  1
  Te  Te14  1  0.372029  0.382499  0.383021  1
  Te  Te15  1  0.387208  0.867436  0.866976  1
