# generated using pymatgen
data_La3Th(HgPt2)2
_symmetry_space_group_name_H-M   'P 1'
_cell_length_a   8.00910022
_cell_length_b   8.00910022
_cell_length_c   3.87243000
_cell_angle_alpha   90.00000000
_cell_angle_beta   90.00000000
_cell_angle_gamma   88.84728317
_symmetry_Int_Tables_number   1
_chemical_formula_structural   La3Th(HgPt2)2
_chemical_formula_sum   'La3 Th1 Hg2 Pt4'
_cell_volume   248.34941037
_cell_formula_units_Z   1
loop_
 _symmetry_equiv_pos_site_id
 _symmetry_equiv_pos_as_xyz
  1  'x, y, z'
loop_
 _atom_site_type_symbol
 _atom_site_label
 _atom_site_symmetry_multiplicity
 _atom_site_fract_x
 _atom_site_fract_y
 _atom_site_fract_z
 _atom_site_occupancy
  La  La0  1  0.328891  0.827888  0.500000  1
  La  La1  1  0.827651  0.672349  0.500000  1
  La  La2  1  0.672112  0.171109  0.500000  1
  Th  Th3  1  0.169239  0.330761  0.500000  1
  Hg  Hg4  1  0.500744  0.499529  0.000000  1
  Hg  Hg5  1  0.000471  0.999256  0.000000  1
  Pt  Pt6  1  0.626620  0.873380  0.000000  1
  Pt  Pt7  1  0.132160  0.621232  0.000000  1
  Pt  Pt8  1  0.878768  0.367840  0.000000  1
  Pt  Pt9  1  0.363344  0.136656  0.000000  1
