# generated using pymatgen
data_CePr2Sn7
_symmetry_space_group_name_H-M   'P 1'
_cell_length_a   12.94980928
_cell_length_b   12.94980911
_cell_length_c   4.61972400
_cell_angle_alpha   90.00000000
_cell_angle_beta   90.00000000
_cell_angle_gamma   159.01874251
_symmetry_Int_Tables_number   1
_chemical_formula_structural   CePr2Sn7
_chemical_formula_sum   'Ce1 Pr2 Sn7'
_cell_volume   277.39693343
_cell_formula_units_Z   1
loop_
 _symmetry_equiv_pos_site_id
 _symmetry_equiv_pos_as_xyz
  1  'x, y, z'
loop_
 _atom_site_type_symbol
 _atom_site_label
 _atom_site_symmetry_multiplicity
 _atom_site_fract_x
 _atom_site_fract_y
 _atom_site_fract_z
 _atom_site_occupancy
  Ce  Ce0  1  0.000000  0.000000  0.000000  1
  Pr  Pr1  1  0.815883  0.184117  0.000000  1
  Pr  Pr2  1  0.184117  0.815883  0.000000  1
  Sn  Sn3  1  0.710298  0.289702  0.500000  1
  Sn  Sn4  1  0.289702  0.710298  0.500000  1
  Sn  Sn5  1  0.906398  0.093602  0.500000  1
  Sn  Sn6  1  0.500000  0.500000  0.500000  1
  Sn  Sn7  1  0.405677  0.594323  0.000000  1
  Sn  Sn8  1  0.594323  0.405677  0.000000  1
  Sn  Sn9  1  0.093602  0.906398  0.500000  1
