# generated using pymatgen
data_Y2Mg2RuRh
_symmetry_space_group_name_H-M   'P 1'
_cell_length_a   4.12086900
_cell_length_b   7.09580543
_cell_length_c   8.53001101
_cell_angle_alpha   89.33287012
_cell_angle_beta   90.00000000
_cell_angle_gamma   90.00000000
_symmetry_Int_Tables_number   1
_chemical_formula_structural   Y2Mg2RuRh
_chemical_formula_sum   'Y4 Mg4 Ru2 Rh2'
_cell_volume   249.40816054
_cell_formula_units_Z   2
loop_
 _symmetry_equiv_pos_site_id
 _symmetry_equiv_pos_as_xyz
  1  'x, y, z'
loop_
 _atom_site_type_symbol
 _atom_site_label
 _atom_site_symmetry_multiplicity
 _atom_site_fract_x
 _atom_site_fract_y
 _atom_site_fract_z
 _atom_site_occupancy
  Y  Y0  1  0.250000  0.530681  0.171929  1
  Y  Y1  1  0.750000  0.469319  0.828071  1
  Y  Y2  1  0.750000  0.962053  0.678214  1
  Y  Y3  1  0.250000  0.037947  0.321786  1
  Mg  Mg4  1  0.250000  0.637388  0.558807  1
  Mg  Mg5  1  0.750000  0.362612  0.441193  1
  Mg  Mg6  1  0.750000  0.861589  0.057723  1
  Mg  Mg7  1  0.250000  0.138411  0.942277  1
  Ru  Ru8  1  0.250000  0.754852  0.864908  1
  Ru  Ru9  1  0.750000  0.245148  0.135092  1
  Rh  Rh10  1  0.750000  0.747102  0.369781  1
  Rh  Rh11  1  0.250000  0.252898  0.630219  1
