# generated using pymatgen
data_PrSmGePd14
_symmetry_space_group_name_H-M   'P 1'
_cell_length_a   8.99322300
_cell_length_b   8.99322300
_cell_length_c   7.20509100
_cell_angle_alpha   90.00000000
_cell_angle_beta   90.00000000
_cell_angle_gamma   90.00000000
_symmetry_Int_Tables_number   1
_chemical_formula_structural   PrSmGePd14
_chemical_formula_sum   'Pr2 Sm2 Ge2 Pd28'
_cell_volume   582.73378168
_cell_formula_units_Z   2
loop_
 _symmetry_equiv_pos_site_id
 _symmetry_equiv_pos_as_xyz
  1  'x, y, z'
loop_
 _atom_site_type_symbol
 _atom_site_label
 _atom_site_symmetry_multiplicity
 _atom_site_fract_x
 _atom_site_fract_y
 _atom_site_fract_z
 _atom_site_occupancy
  Pr  Pr0  1  0.500000  0.000000  0.936263  1
  Pr  Pr1  1  0.000000  0.500000  0.063737  1
  Sm  Sm2  1  0.000000  0.000000  0.500000  1
  Sm  Sm3  1  0.500000  0.500000  0.500000  1
  Ge  Ge4  1  0.500000  0.000000  0.448988  1
  Ge  Ge5  1  0.000000  0.500000  0.551012  1
  Pd  Pd6  1  0.330472  0.830472  0.620978  1
  Pd  Pd7  1  0.330472  0.169528  0.620978  1
  Pd  Pd8  1  0.669528  0.830472  0.620978  1
  Pd  Pd9  1  0.669528  0.169528  0.620978  1
  Pd  Pd10  1  0.169528  0.669528  0.379022  1
  Pd  Pd11  1  0.169528  0.330472  0.379022  1
  Pd  Pd12  1  0.830472  0.669528  0.379022  1
  Pd  Pd13  1  0.830472  0.330472  0.379022  1
  Pd  Pd14  1  0.500000  0.765688  0.253749  1
  Pd  Pd15  1  0.500000  0.234312  0.253749  1
  Pd  Pd16  1  0.265688  0.000000  0.253749  1
  Pd  Pd17  1  0.734312  0.000000  0.253749  1
  Pd  Pd18  1  0.000000  0.734312  0.746251  1
  Pd  Pd19  1  0.000000  0.265688  0.746251  1
  Pd  Pd20  1  0.234312  0.500000  0.746251  1
  Pd  Pd21  1  0.765688  0.500000  0.746251  1
  Pd  Pd22  1  0.500000  0.349431  0.855863  1
  Pd  Pd23  1  0.500000  0.650569  0.855863  1
  Pd  Pd24  1  0.849431  0.000000  0.855863  1
  Pd  Pd25  1  0.150569  0.000000  0.855863  1
  Pd  Pd26  1  0.000000  0.150569  0.144137  1
  Pd  Pd27  1  0.000000  0.849431  0.144137  1
  Pd  Pd28  1  0.650569  0.500000  0.144137  1
  Pd  Pd29  1  0.349431  0.500000  0.144137  1
  Pd  Pd30  1  0.250000  0.750000  0.000000  1
  Pd  Pd31  1  0.250000  0.250000  0.000000  1
  Pd  Pd32  1  0.750000  0.750000  0.000000  1
  Pd  Pd33  1  0.750000  0.250000  0.000000  1
