# generated using pymatgen
data_Ba4Pu2U2N11
_symmetry_space_group_name_H-M   'P 1'
_cell_length_a   6.15438467
_cell_length_b   6.14899356
_cell_length_c   8.64049216
_cell_angle_alpha   90.00342681
_cell_angle_beta   89.99361814
_cell_angle_gamma   90.38300449
_symmetry_Int_Tables_number   1
_chemical_formula_structural   Ba4Pu2U2N11
_chemical_formula_sum   'Ba4 Pu2 U2 N11'
_cell_volume   326.97718403
_cell_formula_units_Z   1
loop_
 _symmetry_equiv_pos_site_id
 _symmetry_equiv_pos_as_xyz
  1  'x, y, z'
loop_
 _atom_site_type_symbol
 _atom_site_label
 _atom_site_symmetry_multiplicity
 _atom_site_fract_x
 _atom_site_fract_y
 _atom_site_fract_z
 _atom_site_occupancy
  Ba  Ba0  1  0.008952  0.989036  0.252510  1
  Ba  Ba1  1  0.492406  0.505194  0.252823  1
  Ba  Ba2  1  0.492470  0.505003  0.742887  1
  Ba  Ba3  1  0.008852  0.989064  0.743275  1
  Pu  Pu4  1  0.496402  0.992079  0.997815  1
  Pu  Pu5  1  0.004713  0.501069  0.997800  1
  U  U6  1  0.504105  0.000295  0.497839  1
  U  U7  1  0.998481  0.494788  0.497809  1
  N  N8  1  0.782058  0.723155  0.998169  1
  N  N9  1  0.997295  0.493352  0.242034  1
  N  N10  1  0.508382  0.005257  0.217976  1
  N  N11  1  0.724746  0.770935  0.497598  1
  N  N12  1  0.765263  0.259581  0.496832  1
  N  N13  1  0.234876  0.732141  0.498546  1
  N  N14  1  0.276712  0.222980  0.498128  1
  N  N15  1  0.511030  0.006876  0.777819  1
  N  N16  1  0.994852  0.491998  0.753742  1
  N  N17  1  0.265988  0.754835  0.996832  1
  N  N18  1  0.218987  0.271181  0.997638  1
