# generated using pymatgen
data_Dy6Tm2Sc12Si15Rh
_symmetry_space_group_name_H-M   'P 1'
_cell_length_a   7.07815810
_cell_length_b   7.43633091
_cell_length_c   13.95715567
_cell_angle_alpha   89.94572083
_cell_angle_beta   89.98636255
_cell_angle_gamma   90.17195584
_symmetry_Int_Tables_number   1
_chemical_formula_structural   Dy6Tm2Sc12Si15Rh
_chemical_formula_sum   'Dy6 Tm2 Sc12 Si15 Rh1'
_cell_volume   734.63856839
_cell_formula_units_Z   1
loop_
 _symmetry_equiv_pos_site_id
 _symmetry_equiv_pos_as_xyz
  1  'x, y, z'
loop_
 _atom_site_type_symbol
 _atom_site_label
 _atom_site_symmetry_multiplicity
 _atom_site_fract_x
 _atom_site_fract_y
 _atom_site_fract_z
 _atom_site_occupancy
  Dy  Dy0  1  0.489082  0.676900  0.904618  1
  Dy  Dy1  1  0.991039  0.824809  0.595110  1
  Dy  Dy2  1  0.511466  0.322890  0.096205  1
  Dy  Dy3  1  0.011187  0.178080  0.404132  1
  Dy  Dy4  1  0.511088  0.323001  0.403536  1
  Dy  Dy5  1  0.489386  0.676760  0.595729  1
  Tm  Tm6  1  0.011284  0.178604  0.096142  1
  Tm  Tm7  1  0.991125  0.824540  0.904480  1
  Sc  Sc8  1  0.158966  0.504377  0.750180  1
  Sc  Sc9  1  0.838059  0.495848  0.249797  1
  Sc  Sc10  1  0.338644  0.005011  0.249813  1
  Sc  Sc11  1  0.668736  0.998670  0.750188  1
  Sc  Sc12  1  0.320226  0.172654  0.626961  1
  Sc  Sc13  1  0.671398  0.825343  0.373953  1
  Sc  Sc14  1  0.170704  0.677447  0.374188  1
  Sc  Sc15  1  0.671509  0.825653  0.125811  1
  Sc  Sc16  1  0.834112  0.322256  0.626629  1
  Sc  Sc17  1  0.319222  0.172143  0.873256  1
  Sc  Sc18  1  0.834539  0.321756  0.873520  1
  Sc  Sc19  1  0.170421  0.677837  0.125496  1
  Si  Si20  1  0.968591  0.885419  0.249656  1
  Si  Si21  1  0.468041  0.615091  0.249916  1
  Si  Si22  1  0.530714  0.387224  0.750137  1
  Si  Si23  1  0.287155  0.868052  0.750421  1
  Si  Si24  1  0.714189  0.129365  0.249508  1
  Si  Si25  1  0.212709  0.371198  0.249478  1
  Si  Si26  1  0.781267  0.627038  0.750442  1
  Si  Si27  1  0.159435  0.467135  0.537948  1
  Si  Si28  1  0.842786  0.535815  0.461286  1
  Si  Si29  1  0.344544  0.965694  0.460553  1
  Si  Si30  1  0.843331  0.535738  0.038727  1
  Si  Si31  1  0.657619  0.034858  0.538655  1
  Si  Si32  1  0.158961  0.467278  0.962097  1
  Si  Si33  1  0.659108  0.034099  0.961205  1
  Si  Si34  1  0.342905  0.966325  0.039553  1
  Rh  Rh35  1  0.026451  0.105092  0.750673  1
