# generated using pymatgen
data_Dy2Y2HgIr
_symmetry_space_group_name_H-M   'P 1'
_cell_length_a   9.62012174
_cell_length_b   9.62012095
_cell_length_c   9.63240600
_cell_angle_alpha   59.95774075
_cell_angle_beta   59.95774347
_cell_angle_gamma   60.08450765
_symmetry_Int_Tables_number   1
_chemical_formula_structural   Dy2Y2HgIr
_chemical_formula_sum   'Dy8 Y8 Hg4 Ir4'
_cell_volume   630.34663154
_cell_formula_units_Z   4
loop_
 _symmetry_equiv_pos_site_id
 _symmetry_equiv_pos_as_xyz
  1  'x, y, z'
loop_
 _atom_site_type_symbol
 _atom_site_label
 _atom_site_symmetry_multiplicity
 _atom_site_fract_x
 _atom_site_fract_y
 _atom_site_fract_z
 _atom_site_occupancy
  Dy  Dy0  1  0.350285  0.350285  0.350958  1
  Dy  Dy1  1  0.350285  0.350285  0.948471  1
  Dy  Dy2  1  0.350958  0.948471  0.350285  1
  Dy  Dy3  1  0.948471  0.350958  0.350285  1
  Dy  Dy4  1  0.809450  0.190550  0.190550  1
  Dy  Dy5  1  0.190550  0.809450  0.809450  1
  Dy  Dy6  1  0.190550  0.809450  0.190550  1
  Dy  Dy7  1  0.809450  0.190550  0.809450  1
  Y  Y8  1  0.190611  0.190611  0.809389  1
  Y  Y9  1  0.809389  0.809389  0.190611  1
  Y  Y10  1  0.938709  0.561291  0.561291  1
  Y  Y11  1  0.561291  0.938709  0.938709  1
  Y  Y12  1  0.561291  0.938709  0.561291  1
  Y  Y13  1  0.938709  0.561291  0.938709  1
  Y  Y14  1  0.560681  0.560681  0.939319  1
  Y  Y15  1  0.939319  0.939319  0.560681  1
  Hg  Hg16  1  0.584845  0.584845  0.584618  1
  Hg  Hg17  1  0.584845  0.584845  0.245695  1
  Hg  Hg18  1  0.584618  0.245695  0.584845  1
  Hg  Hg19  1  0.245695  0.584618  0.584845  1
  Ir  Ir20  1  0.141051  0.141051  0.143729  1
  Ir  Ir21  1  0.141051  0.141051  0.574170  1
  Ir  Ir22  1  0.143729  0.574170  0.141051  1
  Ir  Ir23  1  0.574170  0.143729  0.141051  1
