# generated using pymatgen
data_Ho3ZnIn3CuNi
_symmetry_space_group_name_H-M   'P 1'
_cell_length_a   7.55153500
_cell_length_b   7.55153512
_cell_length_c   3.83254000
_cell_angle_alpha   90.00000000
_cell_angle_beta   90.00000000
_cell_angle_gamma   120.00000385
_symmetry_Int_Tables_number   1
_chemical_formula_structural   Ho3ZnIn3CuNi
_chemical_formula_sum   'Ho3 Zn1 In3 Cu1 Ni1'
_cell_volume   189.27262153
_cell_formula_units_Z   1
loop_
 _symmetry_equiv_pos_site_id
 _symmetry_equiv_pos_as_xyz
  1  'x, y, z'
loop_
 _atom_site_type_symbol
 _atom_site_label
 _atom_site_symmetry_multiplicity
 _atom_site_fract_x
 _atom_site_fract_y
 _atom_site_fract_z
 _atom_site_occupancy
  Ho  Ho0  1  0.980289  0.581187  0.500000  1
  Ho  Ho1  1  0.418813  0.399102  0.500000  1
  Ho  Ho2  1  0.600898  0.019711  0.500000  1
  Zn  Zn3  1  0.333333  0.666667  0.000000  1
  In  In4  1  0.255356  0.000717  0.000000  1
  In  In5  1  0.745362  0.744644  0.000000  1
  In  In6  1  0.999283  0.254638  0.000000  1
  Cu  Cu7  1  0.000000  0.000000  0.500000  1
  Ni  Ni8  1  0.666667  0.333333  0.000000  1
