# generated using pymatgen
data_Ho4Er3Sn23Ru6
_symmetry_space_group_name_H-M   'P 1'
_cell_length_a   9.83806938
_cell_length_b   9.83277591
_cell_length_c   10.06907480
_cell_angle_alpha   89.97061665
_cell_angle_beta   90.04478018
_cell_angle_gamma   119.91936218
_symmetry_Int_Tables_number   1
_chemical_formula_structural   Ho4Er3Sn23Ru6
_chemical_formula_sum   'Ho4 Er3 Sn23 Ru6'
_cell_volume   844.22537439
_cell_formula_units_Z   1
loop_
 _symmetry_equiv_pos_site_id
 _symmetry_equiv_pos_as_xyz
  1  'x, y, z'
loop_
 _atom_site_type_symbol
 _atom_site_label
 _atom_site_symmetry_multiplicity
 _atom_site_fract_x
 _atom_site_fract_y
 _atom_site_fract_z
 _atom_site_occupancy
  Ho  Ho0  1  0.484761  0.515230  0.302891  1
  Ho  Ho1  1  0.515237  0.484809  0.697100  1
  Ho  Ho2  1  0.484771  0.969616  0.302846  1
  Ho  Ho3  1  0.000009  0.000022  0.999996  1
  Er  Er4  1  0.514978  0.029902  0.697357  1
  Er  Er5  1  0.029919  0.515010  0.302654  1
  Er  Er6  1  0.970127  0.485052  0.697347  1
  Sn  Sn7  1  0.118657  0.881191  0.273929  1
  Sn  Sn8  1  0.881197  0.118806  0.726041  1
  Sn  Sn9  1  0.118695  0.237462  0.274020  1
  Sn  Sn10  1  0.881313  0.762562  0.725998  1
  Sn  Sn11  1  0.762745  0.881338  0.274031  1
  Sn  Sn12  1  0.237396  0.118670  0.725931  1
  Sn  Sn13  1  0.779908  0.220318  0.462861  1
  Sn  Sn14  1  0.220195  0.779768  0.537314  1
  Sn  Sn15  1  0.779913  0.559746  0.462803  1
  Sn  Sn16  1  0.220091  0.440272  0.537193  1
  Sn  Sn17  1  0.440186  0.220151  0.462909  1
  Sn  Sn18  1  0.559814  0.779925  0.537270  1
  Sn  Sn19  1  0.348946  0.999965  0.999908  1
  Sn  Sn20  1  0.651059  0.000058  0.000035  1
  Sn  Sn21  1  0.999997  0.349030  0.000030  1
  Sn  Sn22  1  0.000031  0.651002  0.999944  1
  Sn  Sn23  1  0.651152  0.651154  0.000007  1
  Sn  Sn24  1  0.348844  0.348886  0.999970  1
  Sn  Sn25  1  0.333066  0.666508  0.128994  1
  Sn  Sn26  1  0.666806  0.333198  0.870829  1
  Sn  Sn27  1  0.333329  0.666696  0.822317  1
  Sn  Sn28  1  0.666720  0.333383  0.177629  1
  Sn  Sn29  1  0.000023  0.000023  0.500008  1
  Ru  Ru30  1  0.830126  0.170353  0.202517  1
  Ru  Ru31  1  0.170120  0.829789  0.797413  1
  Ru  Ru32  1  0.830142  0.659652  0.202460  1
  Ru  Ru33  1  0.169845  0.340317  0.797517  1
  Ru  Ru34  1  0.340216  0.170029  0.202386  1
  Ru  Ru35  1  0.659667  0.830109  0.797548  1
