# generated using pymatgen
data_La3Sn3Hg2
_symmetry_space_group_name_H-M   'P 1'
_cell_length_a   6.72429209
_cell_length_b   6.72429300
_cell_length_c   10.57906300
_cell_angle_alpha   90.00000000
_cell_angle_beta   90.00000000
_cell_angle_gamma   103.18048957
_symmetry_Int_Tables_number   1
_chemical_formula_structural   La3Sn3Hg2
_chemical_formula_sum   'La6 Sn6 Hg4'
_cell_volume   465.74287188
_cell_formula_units_Z   2
loop_
 _symmetry_equiv_pos_site_id
 _symmetry_equiv_pos_as_xyz
  1  'x, y, z'
loop_
 _atom_site_type_symbol
 _atom_site_label
 _atom_site_symmetry_multiplicity
 _atom_site_fract_x
 _atom_site_fract_y
 _atom_site_fract_z
 _atom_site_occupancy
  La  La0  1  0.630931  0.630931  0.250000  1
  La  La1  1  0.369069  0.369069  0.750000  1
  La  La2  1  0.203407  0.796593  0.500000  1
  La  La3  1  0.203407  0.796593  0.000000  1
  La  La4  1  0.796593  0.203407  0.500000  1
  La  La5  1  0.796593  0.203407  0.000000  1
  Sn  Sn6  1  0.022773  0.022773  0.250000  1
  Sn  Sn7  1  0.977227  0.977227  0.750000  1
  Sn  Sn8  1  0.490704  0.069641  0.250000  1
  Sn  Sn9  1  0.930359  0.509296  0.750000  1
  Sn  Sn10  1  0.509296  0.930359  0.750000  1
  Sn  Sn11  1  0.069641  0.490704  0.250000  1
  Hg  Hg12  1  0.313805  0.313805  0.046083  1
  Hg  Hg13  1  0.686195  0.686195  0.953917  1
  Hg  Hg14  1  0.313805  0.313805  0.453917  1
  Hg  Hg15  1  0.686195  0.686195  0.546083  1
