# generated using pymatgen
data_Zr8Ta12Be3Si13
_symmetry_space_group_name_H-M   'P 1'
_cell_length_a   6.84968082
_cell_length_b   6.84967669
_cell_length_c   12.61422957
_cell_angle_alpha   89.91466776
_cell_angle_beta   90.01112690
_cell_angle_gamma   89.76186817
_symmetry_Int_Tables_number   1
_chemical_formula_structural   Zr8Ta12Be3Si13
_chemical_formula_sum   'Zr8 Ta12 Be3 Si13'
_cell_volume   591.82989227
_cell_formula_units_Z   1
loop_
 _symmetry_equiv_pos_site_id
 _symmetry_equiv_pos_as_xyz
  1  'x, y, z'
loop_
 _atom_site_type_symbol
 _atom_site_label
 _atom_site_symmetry_multiplicity
 _atom_site_fract_x
 _atom_site_fract_y
 _atom_site_fract_z
 _atom_site_occupancy
  Zr  Zr0  1  0.000001  0.657515  0.029423  1
  Zr  Zr1  1  0.999912  0.341998  0.530095  1
  Zr  Zr2  1  0.660956  0.000025  0.969240  1
  Zr  Zr3  1  0.154925  0.496160  0.782434  1
  Zr  Zr4  1  0.842840  0.501534  0.284329  1
  Zr  Zr5  1  0.501697  0.160426  0.218821  1
  Zr  Zr6  1  0.500843  0.842990  0.716634  1
  Zr  Zr7  1  0.342181  0.999441  0.469792  1
  Ta  Ta8  1  0.348603  0.503998  0.376281  1
  Ta  Ta9  1  0.850382  0.987124  0.378374  1
  Ta  Ta10  1  0.005896  0.153142  0.125790  1
  Ta  Ta11  1  0.987312  0.850223  0.622046  1
  Ta  Ta12  1  0.653246  0.494823  0.875147  1
  Ta  Ta13  1  0.503471  0.348112  0.624012  1
  Ta  Ta14  1  0.497488  0.650519  0.124120  1
  Ta  Ta15  1  0.148113  0.010970  0.875175  1
  Ta  Ta16  1  0.673492  0.673632  0.500018  1
  Ta  Ta17  1  0.828359  0.171759  0.749762  1
  Ta  Ta18  1  0.171126  0.827766  0.251822  1
  Ta  Ta19  1  0.327243  0.329314  0.999719  1
  Be  Be20  1  0.050600  0.701454  0.438885  1
  Be  Be21  1  0.950218  0.298306  0.938431  1
  Be  Be22  1  0.700703  0.050433  0.561734  1
  Si  Si23  1  0.200193  0.455060  0.186908  1
  Si  Si24  1  0.799225  0.544880  0.684975  1
  Si  Si25  1  0.455111  0.200822  0.813000  1
  Si  Si26  1  0.545208  0.799421  0.315068  1
  Si  Si27  1  0.299161  0.954274  0.063713  1
  Si  Si28  1  0.864870  0.793657  0.821865  1
  Si  Si29  1  0.134435  0.206070  0.324716  1
  Si  Si30  1  0.795015  0.863781  0.178281  1
  Si  Si31  1  0.286512  0.639014  0.568126  1
  Si  Si32  1  0.713804  0.362991  0.067321  1
  Si  Si33  1  0.638908  0.286133  0.432502  1
  Si  Si34  1  0.362913  0.707349  0.925971  1
  Si  Si35  1  0.205040  0.134885  0.675472  1
