# generated using pymatgen
data_Pr2Nd10Os3Rh
_symmetry_space_group_name_H-M   'P 1'
_cell_length_a   6.51740333
_cell_length_b   7.49970441
_cell_length_c   9.76247000
_cell_angle_alpha   90.00000000
_cell_angle_beta   90.00000000
_cell_angle_gamma   89.97996188
_symmetry_Int_Tables_number   1
_chemical_formula_structural   Pr2Nd10Os3Rh
_chemical_formula_sum   'Pr2 Nd10 Os3 Rh1'
_cell_volume   477.17582291
_cell_formula_units_Z   1
loop_
 _symmetry_equiv_pos_site_id
 _symmetry_equiv_pos_as_xyz
  1  'x, y, z'
loop_
 _atom_site_type_symbol
 _atom_site_label
 _atom_site_symmetry_multiplicity
 _atom_site_fract_x
 _atom_site_fract_y
 _atom_site_fract_z
 _atom_site_occupancy
  Pr  Pr0  1  0.859477  0.537322  0.250000  1
  Pr  Pr1  1  0.639420  0.041582  0.250000  1
  Nd  Nd2  1  0.333240  0.674566  0.065000  1
  Nd  Nd3  1  0.169940  0.178821  0.435350  1
  Nd  Nd4  1  0.670489  0.322069  0.567806  1
  Nd  Nd5  1  0.827428  0.823270  0.930226  1
  Nd  Nd6  1  0.670489  0.322069  0.932194  1
  Nd  Nd7  1  0.827428  0.823270  0.569774  1
  Nd  Nd8  1  0.333240  0.674566  0.435000  1
  Nd  Nd9  1  0.169940  0.178821  0.064650  1
  Nd  Nd10  1  0.141725  0.463173  0.750000  1
  Nd  Nd11  1  0.355192  0.960964  0.750000  1
  Os  Os12  1  0.440353  0.383861  0.250000  1
  Os  Os13  1  0.948588  0.115416  0.750000  1
  Os  Os14  1  0.553008  0.616100  0.750000  1
  Rh  Rh15  1  0.060043  0.884132  0.250000  1
