# generated using pymatgen
data_Ho8Lu8Tl5GaCo2
_symmetry_space_group_name_H-M   'P 1'
_cell_length_a   10.06866300
_cell_length_b   10.05282692
_cell_length_c   7.06968200
_cell_angle_alpha   90.03106419
_cell_angle_beta   90.00000000
_cell_angle_gamma   120.05211388
_symmetry_Int_Tables_number   1
_chemical_formula_structural   Ho8Lu8Tl5GaCo2
_chemical_formula_sum   'Ho8 Lu8 Tl5 Ga1 Co2'
_cell_volume   619.38706847
_cell_formula_units_Z   1
loop_
 _symmetry_equiv_pos_site_id
 _symmetry_equiv_pos_as_xyz
  1  'x, y, z'
loop_
 _atom_site_type_symbol
 _atom_site_label
 _atom_site_symmetry_multiplicity
 _atom_site_fract_x
 _atom_site_fract_y
 _atom_site_fract_z
 _atom_site_occupancy
  Ho  Ho0  1  0.461604  0.535272  0.212187  1
  Ho  Ho1  1  0.073668  0.535272  0.212187  1
  Ho  Ho2  1  0.463351  0.926701  0.214734  1
  Ho  Ho3  1  0.544782  0.468274  0.710765  1
  Ho  Ho4  1  0.923492  0.468274  0.710765  1
  Ho  Ho5  1  0.536416  0.072833  0.710894  1
  Ho  Ho6  1  0.998415  0.996830  0.230332  1
  Ho  Ho7  1  0.995844  0.991687  0.726236  1
  Lu  Lu8  1  0.171226  0.817053  0.506952  1
  Lu  Lu9  1  0.645826  0.817053  0.506952  1
  Lu  Lu10  1  0.178797  0.357596  0.515051  1
  Lu  Lu11  1  0.820751  0.180462  0.010967  1
  Lu  Lu12  1  0.359712  0.180462  0.010967  1
  Lu  Lu13  1  0.821431  0.642860  0.025576  1
  Lu  Lu14  1  0.333691  0.667383  0.815480  1
  Lu  Lu15  1  0.669684  0.339367  0.321882  1
  Tl  Tl16  1  0.163383  0.836132  0.956972  1
  Tl  Tl17  1  0.672747  0.836132  0.956972  1
  Tl  Tl18  1  0.162869  0.325740  0.956464  1
  Tl  Tl19  1  0.835596  0.162702  0.458301  1
  Tl  Tl20  1  0.327108  0.162702  0.458301  1
  Ga  Ga21  1  0.837901  0.675801  0.456694  1
  Co  Co22  1  0.333753  0.667505  0.443138  1
  Co  Co23  1  0.667955  0.335908  0.945271  1
