# generated using pymatgen
data_Hf9VCuMo3
_symmetry_space_group_name_H-M   'P 1'
_cell_length_a   8.37427100
_cell_length_b   8.76487827
_cell_length_c   8.76487700
_cell_angle_alpha   120.00222572
_cell_angle_beta   90.00000000
_cell_angle_gamma   90.00000000
_symmetry_Int_Tables_number   1
_chemical_formula_structural   Hf9VCuMo3
_chemical_formula_sum   'Hf18 V2 Cu2 Mo6'
_cell_volume   557.13394113
_cell_formula_units_Z   2
loop_
 _symmetry_equiv_pos_site_id
 _symmetry_equiv_pos_as_xyz
  1  'x, y, z'
loop_
 _atom_site_type_symbol
 _atom_site_label
 _atom_site_symmetry_multiplicity
 _atom_site_fract_x
 _atom_site_fract_y
 _atom_site_fract_z
 _atom_site_occupancy
  Hf  Hf0  1  0.554306  0.803252  0.606514  1
  Hf  Hf1  1  0.554323  0.803266  0.196734  1
  Hf  Hf2  1  0.554306  0.393486  0.196748  1
  Hf  Hf3  1  0.445694  0.196748  0.393486  1
  Hf  Hf4  1  0.445677  0.196734  0.803266  1
  Hf  Hf5  1  0.445694  0.606514  0.803252  1
  Hf  Hf6  1  0.054306  0.196748  0.393486  1
  Hf  Hf7  1  0.054323  0.196734  0.803266  1
  Hf  Hf8  1  0.054306  0.606514  0.803252  1
  Hf  Hf9  1  0.945694  0.803252  0.606514  1
  Hf  Hf10  1  0.945677  0.803266  0.196734  1
  Hf  Hf11  1  0.945694  0.393486  0.196748  1
  Hf  Hf12  1  0.750000  0.457742  0.915474  1
  Hf  Hf13  1  0.750000  0.457743  0.542257  1
  Hf  Hf14  1  0.750000  0.084526  0.542258  1
  Hf  Hf15  1  0.250000  0.542258  0.084526  1
  Hf  Hf16  1  0.250000  0.542257  0.457743  1
  Hf  Hf17  1  0.250000  0.915474  0.457742  1
  V  V18  1  0.500000  0.000000  0.000000  1
  V  V19  1  0.000000  0.000000  0.000000  1
  Cu  Cu20  1  0.750000  0.666655  0.333345  1
  Cu  Cu21  1  0.250000  0.333345  0.666655  1
  Mo  Mo22  1  0.750000  0.110983  0.221977  1
  Mo  Mo23  1  0.750000  0.110971  0.889029  1
  Mo  Mo24  1  0.750000  0.778023  0.889017  1
  Mo  Mo25  1  0.250000  0.889017  0.778023  1
  Mo  Mo26  1  0.250000  0.889029  0.110971  1
  Mo  Mo27  1  0.250000  0.221977  0.110983  1
