# generated using pymatgen
data_Y2Cr2Ni10P7
_symmetry_space_group_name_H-M   'P 1'
_cell_length_a   9.12360960
_cell_length_b   9.11795236
_cell_length_c   3.67399100
_cell_angle_alpha   90.00000000
_cell_angle_beta   90.00000000
_cell_angle_gamma   119.81618856
_symmetry_Int_Tables_number   1
_chemical_formula_structural   Y2Cr2Ni10P7
_chemical_formula_sum   'Y2 Cr2 Ni10 P7'
_cell_volume   265.17596554
_cell_formula_units_Z   1
loop_
 _symmetry_equiv_pos_site_id
 _symmetry_equiv_pos_as_xyz
  1  'x, y, z'
loop_
 _atom_site_type_symbol
 _atom_site_label
 _atom_site_symmetry_multiplicity
 _atom_site_fract_x
 _atom_site_fract_y
 _atom_site_fract_z
 _atom_site_occupancy
  Y  Y0  1  0.666724  0.332055  0.500000  1
  Y  Y1  1  0.336110  0.668940  0.000000  1
  Cr  Cr2  1  0.215561  0.097540  0.500000  1
  Cr  Cr3  1  0.903946  0.118705  0.500000  1
  Ni  Ni4  1  0.725697  0.875382  0.000000  1
  Ni  Ni5  1  0.938664  0.373970  0.000000  1
  Ni  Ni6  1  0.156506  0.283719  0.000000  1
  Ni  Ni7  1  0.383795  0.437291  0.500000  1
  Ni  Ni8  1  0.120687  0.844415  0.000000  1
  Ni  Ni9  1  0.432347  0.061001  0.000000  1
  Ni  Ni10  1  0.051610  0.617822  0.500000  1
  Ni  Ni11  1  0.565048  0.949587  0.500000  1
  Ni  Ni12  1  0.626214  0.563145  0.000000  1
  Ni  Ni13  1  0.871428  0.767803  0.500000  1
  P  P14  1  0.405646  0.294009  0.000000  1
  P  P15  1  0.292337  0.889301  0.500000  1
  P  P16  1  0.707332  0.112040  0.000000  1
  P  P17  1  0.598291  0.709909  0.500000  1
  P  P18  1  0.886208  0.593618  0.000000  1
  P  P19  1  0.112783  0.405193  0.500000  1
  P  P20  1  0.003071  0.004551  0.000000  1
