# generated using pymatgen
data_YErGa9Ru5
_symmetry_space_group_name_H-M   'P 1'
_cell_length_a   8.05086909
_cell_length_b   8.05086872
_cell_length_c   8.05086822
_cell_angle_alpha   134.98742696
_cell_angle_beta   134.85289318
_cell_angle_gamma   65.65434256
_symmetry_Int_Tables_number   1
_chemical_formula_structural   YErGa9Ru5
_chemical_formula_sum   'Y1 Er1 Ga9 Ru5'
_cell_volume   257.73027756
_cell_formula_units_Z   1
loop_
 _symmetry_equiv_pos_site_id
 _symmetry_equiv_pos_as_xyz
  1  'x, y, z'
loop_
 _atom_site_type_symbol
 _atom_site_label
 _atom_site_symmetry_multiplicity
 _atom_site_fract_x
 _atom_site_fract_y
 _atom_site_fract_z
 _atom_site_occupancy
  Y  Y0  1  0.000000  0.500000  0.500000  1
  Er  Er1  1  0.500000  0.000000  0.500000  1
  Ga  Ga2  1  0.437723  0.858554  0.000421  1
  Ga  Ga3  1  0.141867  0.141446  0.579169  1
  Ga  Ga4  1  0.858133  0.437302  0.999579  1
  Ga  Ga5  1  0.858133  0.858554  0.420831  1
  Ga  Ga6  1  0.562277  0.141446  0.999579  1
  Ga  Ga7  1  0.141867  0.562698  0.000421  1
  Ga  Ga8  1  0.562277  0.562698  0.420831  1
  Ga  Ga9  1  0.000000  0.000000  0.000000  1
  Ga  Ga10  1  0.437723  0.437302  0.579169  1
  Ru  Ru11  1  0.181113  0.181113  0.000000  1
  Ru  Ru12  1  0.818887  0.818887  0.000000  1
  Ru  Ru13  1  0.250096  0.750096  0.500000  1
  Ru  Ru14  1  0.749904  0.249904  0.500000  1
  Ru  Ru15  1  0.500000  0.500000  0.000000  1
