# generated using pymatgen
data_Ac(MgGa)2
_symmetry_space_group_name_H-M   'P 1'
_cell_length_a   6.75982940
_cell_length_b   6.75982916
_cell_length_c   6.75982904
_cell_angle_alpha   140.71247478
_cell_angle_beta   140.71246596
_cell_angle_gamma   56.77309571
_symmetry_Int_Tables_number   1
_chemical_formula_structural   Ac(MgGa)2
_chemical_formula_sum   'Ac1 Mg2 Ga2'
_cell_volume   122.84347935
_cell_formula_units_Z   1
loop_
 _symmetry_equiv_pos_site_id
 _symmetry_equiv_pos_as_xyz
  1  'x, y, z'
loop_
 _atom_site_type_symbol
 _atom_site_label
 _atom_site_symmetry_multiplicity
 _atom_site_fract_x
 _atom_site_fract_y
 _atom_site_fract_z
 _atom_site_occupancy
  Ac  Ac0  1  0.000000  0.000000  0.000000  1
  Mg  Mg1  1  0.750000  0.250000  0.500000  1
  Mg  Mg2  1  0.250000  0.750000  0.500000  1
  Ga  Ga3  1  0.391290  0.391290  0.000000  1
  Ga  Ga4  1  0.608710  0.608710  0.000000  1
