# generated using pymatgen
data_ErZn2InNi2
_symmetry_space_group_name_H-M   'P 1'
_cell_length_a   5.11013705
_cell_length_b   5.11013676
_cell_length_c   5.12110800
_cell_angle_alpha   59.92896674
_cell_angle_beta   59.92896863
_cell_angle_gamma   61.73920448
_symmetry_Int_Tables_number   1
_chemical_formula_structural   ErZn2InNi2
_chemical_formula_sum   'Er1 Zn2 In1 Ni2'
_cell_volume   95.63547905
_cell_formula_units_Z   1
loop_
 _symmetry_equiv_pos_site_id
 _symmetry_equiv_pos_as_xyz
  1  'x, y, z'
loop_
 _atom_site_type_symbol
 _atom_site_label
 _atom_site_symmetry_multiplicity
 _atom_site_fract_x
 _atom_site_fract_y
 _atom_site_fract_z
 _atom_site_occupancy
  Er  Er0  1  0.244155  0.244155  0.255845  1
  Zn  Zn1  1  0.626823  0.626823  0.622185  1
  Zn  Zn2  1  0.626823  0.626823  0.124168  1
  In  In3  1  0.001602  0.001602  0.998398  1
  Ni  Ni4  1  0.626309  0.124288  0.624702  1
  Ni  Ni5  1  0.124288  0.626309  0.624702  1
