# generated using pymatgen
data_Ho20Cd6OsPd
_symmetry_space_group_name_H-M   'P 1'
_cell_length_a   9.58727100
_cell_length_b   9.58727054
_cell_length_c   9.79980100
_cell_angle_alpha   90.00000000
_cell_angle_beta   90.00000000
_cell_angle_gamma   119.99999813
_symmetry_Int_Tables_number   1
_chemical_formula_structural   Ho20Cd6OsPd
_chemical_formula_sum   'Ho20 Cd6 Os1 Pd1'
_cell_volume   780.07773629
_cell_formula_units_Z   1
loop_
 _symmetry_equiv_pos_site_id
 _symmetry_equiv_pos_as_xyz
  1  'x, y, z'
loop_
 _atom_site_type_symbol
 _atom_site_label
 _atom_site_symmetry_multiplicity
 _atom_site_fract_x
 _atom_site_fract_y
 _atom_site_fract_z
 _atom_site_occupancy
  Ho  Ho0  1  0.209431  0.790569  0.939965  1
  Ho  Ho1  1  0.209431  0.418863  0.939965  1
  Ho  Ho2  1  0.581137  0.790569  0.939965  1
  Ho  Ho3  1  0.792180  0.207820  0.057419  1
  Ho  Ho4  1  0.792180  0.584358  0.057419  1
  Ho  Ho5  1  0.415642  0.207820  0.057419  1
  Ho  Ho6  1  0.792180  0.207820  0.442581  1
  Ho  Ho7  1  0.792180  0.584358  0.442581  1
  Ho  Ho8  1  0.415642  0.207820  0.442581  1
  Ho  Ho9  1  0.209431  0.790569  0.560035  1
  Ho  Ho10  1  0.209431  0.418863  0.560035  1
  Ho  Ho11  1  0.581137  0.790569  0.560035  1
  Ho  Ho12  1  0.540209  0.459791  0.750000  1
  Ho  Ho13  1  0.540209  0.080418  0.750000  1
  Ho  Ho14  1  0.919582  0.459791  0.750000  1
  Ho  Ho15  1  0.456903  0.543097  0.250000  1
  Ho  Ho16  1  0.456903  0.913806  0.250000  1
  Ho  Ho17  1  0.086194  0.543097  0.250000  1
  Ho  Ho18  1  0.000000  0.000000  0.000705  1
  Ho  Ho19  1  0.000000  0.000000  0.499295  1
  Cd  Cd20  1  0.884921  0.115079  0.750000  1
  Cd  Cd21  1  0.884921  0.769844  0.750000  1
  Cd  Cd22  1  0.230156  0.115079  0.750000  1
  Cd  Cd23  1  0.115063  0.884937  0.250000  1
  Cd  Cd24  1  0.115063  0.230126  0.250000  1
  Cd  Cd25  1  0.769874  0.884937  0.250000  1
  Os  Os26  1  0.333333  0.666667  0.750000  1
  Pd  Pd27  1  0.666667  0.333333  0.250000  1
