# generated using pymatgen
data_Ac13Si14O
_symmetry_space_group_name_H-M   'P 1'
_cell_length_a   11.49747348
_cell_length_b   11.49747350
_cell_length_c   17.18397497
_cell_angle_alpha   55.77082990
_cell_angle_beta   55.77082916
_cell_angle_gamma   24.22772716
_symmetry_Int_Tables_number   1
_chemical_formula_structural   Ac13Si14O
_chemical_formula_sum   'Ac13 Si14 O1'
_cell_volume   762.45674517
_cell_formula_units_Z   1
loop_
 _symmetry_equiv_pos_site_id
 _symmetry_equiv_pos_as_xyz
  1  'x, y, z'
loop_
 _atom_site_type_symbol
 _atom_site_label
 _atom_site_symmetry_multiplicity
 _atom_site_fract_x
 _atom_site_fract_y
 _atom_site_fract_z
 _atom_site_occupancy
  Ac  Ac0  1  0.188334  0.188334  0.858398  1
  Ac  Ac1  1  0.997488  0.997488  0.343085  1
  Ac  Ac2  1  0.999054  0.999054  0.116107  1
  Ac  Ac3  1  0.188352  0.188352  0.616826  1
  Ac  Ac4  1  0.181530  0.181530  0.107582  1
  Ac  Ac5  1  0.165898  0.165898  0.373309  1
  Ac  Ac6  1  0.500000  0.500000  0.500000  1
  Ac  Ac7  1  0.834102  0.834102  0.626691  1
  Ac  Ac8  1  0.811648  0.811648  0.383174  1
  Ac  Ac9  1  0.818470  0.818470  0.892418  1
  Ac  Ac10  1  0.811666  0.811666  0.141602  1
  Ac  Ac11  1  0.000946  0.000946  0.883893  1
  Ac  Ac12  1  0.002512  0.002512  0.656915  1
  Si  Si13  1  0.436019  0.436019  0.811263  1
  Si  Si14  1  0.567333  0.567333  0.948335  1
  Si  Si15  1  0.429964  0.429964  0.288868  1
  Si  Si16  1  0.563981  0.563981  0.188737  1
  Si  Si17  1  0.570036  0.570036  0.711132  1
  Si  Si18  1  0.432667  0.432667  0.051665  1
  Si  Si19  1  0.639167  0.639167  0.014398  1
  Si  Si20  1  0.647321  0.647321  0.770486  1
  Si  Si21  1  0.352679  0.352679  0.229514  1
  Si  Si22  1  0.372293  0.372293  0.730576  1
  Si  Si23  1  0.369252  0.369252  0.464160  1
  Si  Si24  1  0.630748  0.630748  0.535840  1
  Si  Si25  1  0.627707  0.627707  0.269424  1
  Si  Si26  1  0.360833  0.360833  0.985602  1
  O  O27  1  0.000000  0.000000  0.500000  1
