# generated using pymatgen
data_Y12FeCoBr17
_symmetry_space_group_name_H-M   'P 1'
_cell_length_a   9.24391805
_cell_length_b   11.10588786
_cell_length_c   11.14402987
_cell_angle_alpha   93.28694598
_cell_angle_beta   104.86010712
_cell_angle_gamma   114.14491913
_symmetry_Int_Tables_number   1
_chemical_formula_structural   Y12FeCoBr17
_chemical_formula_sum   'Y12 Fe1 Co1 Br17'
_cell_volume   991.84287547
_cell_formula_units_Z   1
loop_
 _symmetry_equiv_pos_site_id
 _symmetry_equiv_pos_as_xyz
  1  'x, y, z'
loop_
 _atom_site_type_symbol
 _atom_site_label
 _atom_site_symmetry_multiplicity
 _atom_site_fract_x
 _atom_site_fract_y
 _atom_site_fract_z
 _atom_site_occupancy
  Y  Y0  1  0.056441  0.510946  0.320790  1
  Y  Y1  1  0.984142  0.809536  0.577924  1
  Y  Y2  1  0.644068  0.239631  0.287115  1
  Y  Y3  1  0.015622  0.191092  0.419989  1
  Y  Y4  1  0.226766  0.671255  0.991584  1
  Y  Y5  1  0.256584  0.987754  0.890272  1
  Y  Y6  1  0.357179  0.760326  0.712584  1
  Y  Y7  1  0.941852  0.486760  0.677899  1
  Y  Y8  1  0.745097  0.013830  0.111417  1
  Y  Y9  1  0.153811  0.287555  0.150457  1
  Y  Y10  1  0.773766  0.327797  0.010112  1
  Y  Y11  1  0.845316  0.712284  0.850823  1
  Fe  Fe12  1  0.896094  0.261577  0.214927  1
  Co  Co13  1  0.103564  0.738161  0.784950  1
  Br  Br14  1  0.789857  0.528235  0.422709  1
  Br  Br15  1  0.648579  0.423759  0.762543  1
  Br  Br16  1  0.848710  0.899606  0.331713  1
  Br  Br17  1  0.328344  0.214588  0.364855  1
  Br  Br18  1  0.151928  0.097753  0.671085  1
  Br  Br19  1  0.581650  0.050495  0.847291  1
  Br  Br20  1  0.763710  0.191742  0.540508  1
  Br  Br21  1  0.550484  0.711351  0.951085  1
  Br  Br22  1  0.352889  0.579071  0.235495  1
  Br  Br23  1  0.211743  0.474750  0.580973  1
  Br  Br24  1  0.056364  0.373898  0.899572  1
  Br  Br25  1  0.446555  0.286066  0.045839  1
  Br  Br26  1  0.000081  0.998643  0.998472  1
  Br  Br27  1  0.237945  0.810589  0.462819  1
  Br  Br28  1  0.413187  0.946168  0.149579  1
  Br  Br29  1  0.672285  0.785569  0.636087  1
  Br  Br30  1  0.945387  0.629212  0.098532  1
