# generated using pymatgen
data_Sr5NdMn(CoO4)3
_symmetry_space_group_name_H-M   'P 1'
_cell_length_a   6.63597974
_cell_length_b   6.61801231
_cell_length_c   6.62586478
_cell_angle_alpha   92.64826567
_cell_angle_beta   92.26667467
_cell_angle_gamma   92.29865561
_symmetry_Int_Tables_number   1
_chemical_formula_structural   Sr5NdMn(CoO4)3
_chemical_formula_sum   'Sr5 Nd1 Mn1 Co3 O12'
_cell_volume   290.19340987
_cell_formula_units_Z   1
loop_
 _symmetry_equiv_pos_site_id
 _symmetry_equiv_pos_as_xyz
  1  'x, y, z'
loop_
 _atom_site_type_symbol
 _atom_site_label
 _atom_site_symmetry_multiplicity
 _atom_site_fract_x
 _atom_site_fract_y
 _atom_site_fract_z
 _atom_site_occupancy
  Sr  Sr0  1  0.886845  0.256620  0.611706  1
  Sr  Sr1  1  0.255179  0.612287  0.881941  1
  Sr  Sr2  1  0.609968  0.882740  0.255908  1
  Sr  Sr3  1  0.386753  0.117069  0.742392  1
  Sr  Sr4  1  0.118838  0.741699  0.390192  1
  Nd  Nd5  1  0.745378  0.390348  0.116164  1
  Mn  Mn6  1  0.994919  0.001177  0.002598  1
  Co  Co7  1  0.745223  0.752338  0.746186  1
  Co  Co8  1  0.504655  0.497253  0.498374  1
  Co  Co9  1  0.255799  0.247581  0.251158  1
  O  O10  1  0.225388  0.408912  0.540226  1
  O  O11  1  0.418792  0.534236  0.215331  1
  O  O12  1  0.544702  0.220861  0.399800  1
  O  O13  1  0.907281  0.717002  0.045760  1
  O  O14  1  0.716168  0.051327  0.924269  1
  O  O15  1  0.033872  0.909153  0.723085  1
  O  O16  1  0.784320  0.580029  0.446091  1
  O  O17  1  0.599649  0.458314  0.787477  1
  O  O18  1  0.468929  0.779887  0.594537  1
  O  O19  1  0.073984  0.282921  0.961803  1
  O  O20  1  0.272520  0.960924  0.088240  1
  O  O21  1  0.950840  0.097323  0.276761  1
