# generated using pymatgen
data_Tb19YIr5Rh7
_symmetry_space_group_name_H-M   'P 1'
_cell_length_a   10.93820203
_cell_length_b   10.93809895
_cell_length_c   6.42027707
_cell_angle_alpha   89.99342647
_cell_angle_beta   89.99534078
_cell_angle_gamma   90.08924085
_symmetry_Int_Tables_number   1
_chemical_formula_structural   Tb19YIr5Rh7
_chemical_formula_sum   'Tb19 Y1 Ir5 Rh7'
_cell_volume   768.14114495
_cell_formula_units_Z   1
loop_
 _symmetry_equiv_pos_site_id
 _symmetry_equiv_pos_as_xyz
  1  'x, y, z'
loop_
 _atom_site_type_symbol
 _atom_site_label
 _atom_site_symmetry_multiplicity
 _atom_site_fract_x
 _atom_site_fract_y
 _atom_site_fract_z
 _atom_site_occupancy
  Tb  Tb0  1  0.290801  0.088529  0.381901  1
  Tb  Tb1  1  0.291175  0.908878  0.883454  1
  Tb  Tb2  1  0.708183  0.090533  0.882905  1
  Tb  Tb3  1  0.707649  0.908978  0.381722  1
  Tb  Tb4  1  0.588079  0.789837  0.882949  1
  Tb  Tb5  1  0.587661  0.209678  0.382592  1
  Tb  Tb6  1  0.409672  0.790431  0.383268  1
  Tb  Tb7  1  0.411528  0.209377  0.882122  1
  Tb  Tb8  1  0.210188  0.411717  0.616927  1
  Tb  Tb9  1  0.209519  0.590132  0.116876  1
  Tb  Tb10  1  0.790362  0.412549  0.117534  1
  Tb  Tb11  1  0.790571  0.588681  0.617757  1
  Tb  Tb12  1  0.911677  0.709179  0.118025  1
  Tb  Tb13  1  0.909240  0.291799  0.617195  1
  Tb  Tb14  1  0.091348  0.708866  0.616625  1
  Tb  Tb15  1  0.090779  0.292401  0.118168  1
  Tb  Tb16  1  0.999255  0.999797  0.500521  1
  Tb  Tb17  1  0.000206  0.000762  0.999454  1
  Tb  Tb18  1  0.499814  0.499268  0.000430  1
  Y  Y19  1  0.500702  0.500194  0.499585  1
  Ir  Ir20  1  0.152965  0.847004  0.249911  1
  Ir  Ir21  1  0.654622  0.345314  0.750424  1
  Ir  Ir22  1  0.655503  0.654103  0.248809  1
  Ir  Ir23  1  0.345831  0.344576  0.250328  1
  Ir  Ir24  1  0.346260  0.653821  0.750427  1
  Rh  Rh25  1  0.846811  0.153219  0.249907  1
  Rh  Rh26  1  0.845458  0.846800  0.750330  1
  Rh  Rh27  1  0.153205  0.154500  0.749888  1
  Rh  Rh28  1  0.500627  0.000114  0.129004  1
  Rh  Rh29  1  0.500450  0.000034  0.630312  1
  Rh  Rh30  1  0.999970  0.499559  0.869781  1
  Rh  Rh31  1  0.999890  0.499370  0.370868  1
