# generated using pymatgen
data_Er3TaOs2O
_symmetry_space_group_name_H-M   'P 1'
_cell_length_a   8.96159221
_cell_length_b   8.96159209
_cell_length_c   8.96159100
_cell_angle_alpha   59.99999295
_cell_angle_beta   59.99999341
_cell_angle_gamma   59.99999941
_symmetry_Int_Tables_number   1
_chemical_formula_structural   Er3TaOs2O
_chemical_formula_sum   'Er12 Ta4 Os8 O4'
_cell_volume   508.90934358
_cell_formula_units_Z   4
loop_
 _symmetry_equiv_pos_site_id
 _symmetry_equiv_pos_as_xyz
  1  'x, y, z'
loop_
 _atom_site_type_symbol
 _atom_site_label
 _atom_site_symmetry_multiplicity
 _atom_site_fract_x
 _atom_site_fract_y
 _atom_site_fract_z
 _atom_site_occupancy
  Er  Er0  1  0.810251  0.810251  0.189749  1
  Er  Er1  1  0.189749  0.189749  0.810251  1
  Er  Er2  1  0.810251  0.189749  0.810251  1
  Er  Er3  1  0.189749  0.810251  0.189749  1
  Er  Er4  1  0.189749  0.810251  0.810251  1
  Er  Er5  1  0.810251  0.189749  0.189749  1
  Er  Er6  1  0.439749  0.439749  0.060251  1
  Er  Er7  1  0.060251  0.060251  0.439749  1
  Er  Er8  1  0.439749  0.060251  0.439749  1
  Er  Er9  1  0.060251  0.439749  0.060251  1
  Er  Er10  1  0.060251  0.439749  0.439749  1
  Er  Er11  1  0.439749  0.060251  0.060251  1
  Ta  Ta12  1  0.125000  0.625000  0.625000  1
  Ta  Ta13  1  0.625000  0.125000  0.625000  1
  Ta  Ta14  1  0.625000  0.625000  0.125000  1
  Ta  Ta15  1  0.625000  0.625000  0.625000  1
  Os  Os16  1  0.741506  0.419498  0.419498  1
  Os  Os17  1  0.419498  0.741506  0.419498  1
  Os  Os18  1  0.419498  0.419498  0.741506  1
  Os  Os19  1  0.419498  0.419498  0.419498  1
  Os  Os20  1  0.508494  0.830502  0.830502  1
  Os  Os21  1  0.830502  0.508494  0.830502  1
  Os  Os22  1  0.830502  0.830502  0.508494  1
  Os  Os23  1  0.830502  0.830502  0.830502  1
  O  O24  1  0.625000  0.125000  0.125000  1
  O  O25  1  0.125000  0.625000  0.125000  1
  O  O26  1  0.125000  0.125000  0.625000  1
  O  O27  1  0.125000  0.125000  0.125000  1
