# generated using pymatgen
data_Li4Pr2NdPb4
_symmetry_space_group_name_H-M   'P 1'
_cell_length_a   4.80164464
_cell_length_b   7.32014170
_cell_length_c   9.00900156
_cell_angle_alpha   113.97062085
_cell_angle_beta   105.45559264
_cell_angle_gamma   89.99999959
_symmetry_Int_Tables_number   1
_chemical_formula_structural   Li4Pr2NdPb4
_chemical_formula_sum   'Li4 Pr2 Nd1 Pb4'
_cell_volume   276.76586381
_cell_formula_units_Z   1
loop_
 _symmetry_equiv_pos_site_id
 _symmetry_equiv_pos_as_xyz
  1  'x, y, z'
loop_
 _atom_site_type_symbol
 _atom_site_label
 _atom_site_symmetry_multiplicity
 _atom_site_fract_x
 _atom_site_fract_y
 _atom_site_fract_z
 _atom_site_occupancy
  Li  Li0  1  0.672437  0.981791  0.344876  1
  Li  Li1  1  0.327563  0.018209  0.655124  1
  Li  Li2  1  0.327563  0.636915  0.655124  1
  Li  Li3  1  0.672437  0.363085  0.344876  1
  Pr  Pr4  1  0.129934  0.629934  0.259868  1
  Pr  Pr5  1  0.870066  0.370066  0.740132  1
  Nd  Nd6  1  0.000000  0.000000  0.000000  1
  Pb  Pb7  1  0.500000  0.705411  0.000000  1
  Pb  Pb8  1  0.500000  0.294589  0.000000  1
  Pb  Pb9  1  0.787245  0.787245  0.574490  1
  Pb  Pb10  1  0.212755  0.212755  0.425510  1
