# generated using pymatgen
data_Mn2FeP6IN12
_symmetry_space_group_name_H-M   'P 1'
_cell_length_a   7.30279798
_cell_length_b   7.29486471
_cell_length_c   7.30279673
_cell_angle_alpha   109.55178562
_cell_angle_beta   109.62432357
_cell_angle_gamma   109.55175928
_symmetry_Int_Tables_number   1
_chemical_formula_structural   Mn2FeP6IN12
_chemical_formula_sum   'Mn2 Fe1 P6 I1 N12'
_cell_volume   298.31706641
_cell_formula_units_Z   1
loop_
 _symmetry_equiv_pos_site_id
 _symmetry_equiv_pos_as_xyz
  1  'x, y, z'
loop_
 _atom_site_type_symbol
 _atom_site_label
 _atom_site_symmetry_multiplicity
 _atom_site_fract_x
 _atom_site_fract_y
 _atom_site_fract_z
 _atom_site_occupancy
  Mn  Mn0  1  0.003871  0.999703  0.371289  1
  Mn  Mn1  1  0.371289  0.999703  0.003871  1
  Fe  Fe2  1  0.005153  0.393886  0.005153  1
  P  P3  1  0.500848  0.254715  0.751576  1
  P  P4  1  0.258164  0.747633  0.500393  1
  P  P5  1  0.746419  0.497198  0.253758  1
  P  P6  1  0.751576  0.254715  0.500848  1
  P  P7  1  0.500393  0.747633  0.258164  1
  P  P8  1  0.253758  0.497198  0.746419  1
  I  I9  1  0.976658  0.000245  0.976658  1
  N  N10  1  0.424438  0.697054  0.424438  1
  N  N11  1  0.716539  0.430754  0.432197  1
  N  N12  1  0.432197  0.430754  0.716539  1
  N  N13  1  0.730581  0.293280  0.730581  1
  N  N14  1  0.998884  0.566243  0.274944  1
  N  N15  1  0.274944  0.566243  0.998884  1
  N  N16  1  0.286127  0.998222  0.563120  1
  N  N17  1  0.999453  0.275519  0.567213  1
  N  N18  1  0.718589  0.717779  0.279779  1
  N  N19  1  0.563120  0.998222  0.286127  1
  N  N20  1  0.279779  0.717779  0.718589  1
  N  N21  1  0.567213  0.275519  0.999453  1
