# generated using pymatgen
data_NaTa8RhS16
_symmetry_space_group_name_H-M   'P 1'
_cell_length_a   6.68622226
_cell_length_b   6.68522172
_cell_length_c   13.60098747
_cell_angle_alpha   89.94944001
_cell_angle_beta   90.00322101
_cell_angle_gamma   120.00199386
_symmetry_Int_Tables_number   1
_chemical_formula_structural   NaTa8RhS16
_chemical_formula_sum   'Na1 Ta8 Rh1 S16'
_cell_volume   526.48834132
_cell_formula_units_Z   1
loop_
 _symmetry_equiv_pos_site_id
 _symmetry_equiv_pos_as_xyz
  1  'x, y, z'
loop_
 _atom_site_type_symbol
 _atom_site_label
 _atom_site_symmetry_multiplicity
 _atom_site_fract_x
 _atom_site_fract_y
 _atom_site_fract_z
 _atom_site_occupancy
  Na  Na0  1  0.000000  0.000000  0.500000  1
  Ta  Ta1  1  0.504140  0.496008  0.779130  1
  Ta  Ta2  1  0.008356  0.503978  0.220865  1
  Ta  Ta3  1  0.496022  0.991789  0.220846  1
  Ta  Ta4  1  0.503978  0.008211  0.779154  1
  Ta  Ta5  1  0.991644  0.496022  0.779135  1
  Ta  Ta6  1  0.495860  0.503992  0.220870  1
  Ta  Ta7  1  0.999920  0.999980  0.775207  1
  Ta  Ta8  1  0.000080  0.000020  0.224793  1
  Rh  Rh9  1  0.000000  0.000000  0.000000  1
  S  S10  1  0.832267  0.167471  0.336810  1
  S  S11  1  0.832292  0.664231  0.336793  1
  S  S12  1  0.335548  0.167466  0.336782  1
  S  S13  1  0.666626  0.833230  0.891561  1
  S  S14  1  0.167708  0.335769  0.663207  1
  S  S15  1  0.166505  0.833151  0.891582  1
  S  S16  1  0.166482  0.333145  0.891459  1
  S  S17  1  0.833495  0.166849  0.108418  1
  S  S18  1  0.333374  0.166770  0.108439  1
  S  S19  1  0.664452  0.832534  0.663218  1
  S  S20  1  0.333550  0.666939  0.104519  1
  S  S21  1  0.666652  0.333619  0.660653  1
  S  S22  1  0.666450  0.333061  0.895481  1
  S  S23  1  0.333348  0.666381  0.339347  1
  S  S24  1  0.833518  0.666855  0.108541  1
  S  S25  1  0.167733  0.832529  0.663190  1
