# generated using pymatgen
data_CoHgAsO5
_symmetry_space_group_name_H-M   'P 1'
_cell_length_a   6.18839600
_cell_length_b   8.15570300
_cell_length_c   8.49390100
_cell_angle_alpha   90.00000000
_cell_angle_beta   90.00000000
_cell_angle_gamma   90.00000000
_symmetry_Int_Tables_number   1
_chemical_formula_structural   CoHgAsO5
_chemical_formula_sum   'Co4 Hg4 As4 O20'
_cell_volume   428.69329757
_cell_formula_units_Z   4
loop_
 _symmetry_equiv_pos_site_id
 _symmetry_equiv_pos_as_xyz
  1  'x, y, z'
loop_
 _atom_site_type_symbol
 _atom_site_label
 _atom_site_symmetry_multiplicity
 _atom_site_fract_x
 _atom_site_fract_y
 _atom_site_fract_z
 _atom_site_occupancy
  Co  Co0  1  0.250091  0.750441  0.999622  1
  Co  Co1  1  0.249909  0.249559  0.499622  1
  Co  Co2  1  0.749909  0.250441  0.500378  1
  Co  Co3  1  0.750091  0.749559  0.000378  1
  Hg  Hg4  1  0.000154  0.821031  0.662594  1
  Hg  Hg5  1  0.499846  0.178969  0.162594  1
  Hg  Hg6  1  0.999846  0.321031  0.837406  1
  Hg  Hg7  1  0.500154  0.678969  0.337406  1
  As  As8  1  0.498657  0.078909  0.786258  1
  As  As9  1  0.001343  0.921091  0.286258  1
  As  As10  1  0.501343  0.578909  0.713742  1
  As  As11  1  0.998657  0.421091  0.213742  1
  O  O12  1  0.500587  0.895245  0.884157  1
  O  O13  1  0.999413  0.104755  0.384157  1
  O  O14  1  0.499413  0.395245  0.615843  1
  O  O15  1  0.000587  0.604755  0.115843  1
  O  O16  1  0.492195  0.236989  0.924281  1
  O  O17  1  0.007805  0.763011  0.424281  1
  O  O18  1  0.507805  0.736989  0.575719  1
  O  O19  1  0.992195  0.263011  0.075719  1
  O  O20  1  0.733934  0.097797  0.676090  1
  O  O21  1  0.766066  0.902203  0.176090  1
  O  O22  1  0.266066  0.597797  0.823910  1
  O  O23  1  0.233934  0.402203  0.323910  1
  O  O24  1  0.265667  0.094839  0.673221  1
  O  O25  1  0.234333  0.905161  0.173221  1
  O  O26  1  0.734333  0.594839  0.826779  1
  O  O27  1  0.765667  0.405161  0.326779  1
  O  O28  1  0.999391  0.843941  0.908173  1
  O  O29  1  0.500609  0.156059  0.408173  1
  O  O30  1  0.000609  0.343941  0.591827  1
  O  O31  1  0.499391  0.656059  0.091827  1
