# generated using pymatgen
data_Ce3Pr2CdPb3
_symmetry_space_group_name_H-M   'P 1'
_cell_length_a   9.76961693
_cell_length_b   9.76961620
_cell_length_c   6.65776600
_cell_angle_alpha   90.00000000
_cell_angle_beta   90.00000000
_cell_angle_gamma   120.29297872
_symmetry_Int_Tables_number   1
_chemical_formula_structural   Ce3Pr2CdPb3
_chemical_formula_sum   'Ce6 Pr4 Cd2 Pb6'
_cell_volume   548.68674206
_cell_formula_units_Z   2
loop_
 _symmetry_equiv_pos_site_id
 _symmetry_equiv_pos_as_xyz
  1  'x, y, z'
loop_
 _atom_site_type_symbol
 _atom_site_label
 _atom_site_symmetry_multiplicity
 _atom_site_fract_x
 _atom_site_fract_y
 _atom_site_fract_z
 _atom_site_occupancy
  Ce  Ce0  1  0.667992  0.333524  0.502174  1
  Ce  Ce1  1  0.333524  0.667992  0.502174  1
  Ce  Ce2  1  0.333524  0.667992  0.997826  1
  Ce  Ce3  1  0.667992  0.333524  0.997826  1
  Ce  Ce4  1  0.703545  0.000143  0.750000  1
  Ce  Ce5  1  0.000143  0.703545  0.750000  1
  Pr  Pr6  1  0.707845  0.707845  0.250000  1
  Pr  Pr7  1  0.293162  0.000229  0.250000  1
  Pr  Pr8  1  0.000229  0.293162  0.250000  1
  Pr  Pr9  1  0.293595  0.293595  0.750000  1
  Cd  Cd10  1  0.998894  0.998894  0.502914  1
  Cd  Cd11  1  0.998894  0.998894  0.997086  1
  Pb  Pb12  1  0.366276  0.366276  0.250000  1
  Pb  Pb13  1  0.634383  0.000146  0.250000  1
  Pb  Pb14  1  0.000146  0.634383  0.250000  1
  Pb  Pb15  1  0.637384  0.637384  0.750000  1
  Pb  Pb16  1  0.363300  0.999172  0.750000  1
  Pb  Pb17  1  0.999172  0.363300  0.750000  1
