# generated using pymatgen
data_Ca4TaV2MoO12
_symmetry_space_group_name_H-M   'P 1'
_cell_length_a   5.46330973
_cell_length_b   5.62024725
_cell_length_c   7.84757908
_cell_angle_alpha   90.03498805
_cell_angle_beta   89.39972203
_cell_angle_gamma   90.03638133
_symmetry_Int_Tables_number   1
_chemical_formula_structural   Ca4TaV2MoO12
_chemical_formula_sum   'Ca4 Ta1 V2 Mo1 O12'
_cell_volume   240.94778789
_cell_formula_units_Z   1
loop_
 _symmetry_equiv_pos_site_id
 _symmetry_equiv_pos_as_xyz
  1  'x, y, z'
loop_
 _atom_site_type_symbol
 _atom_site_label
 _atom_site_symmetry_multiplicity
 _atom_site_fract_x
 _atom_site_fract_y
 _atom_site_fract_z
 _atom_site_occupancy
  Ca  Ca0  1  0.014515  0.052411  0.755325  1
  Ca  Ca1  1  0.513682  0.449492  0.248692  1
  Ca  Ca2  1  0.486318  0.550508  0.751308  1
  Ca  Ca3  1  0.985485  0.947589  0.244675  1
  Ta  Ta4  1  0.000000  0.500000  0.500000  1
  V  V5  1  0.000000  0.500000  0.000000  1
  V  V6  1  0.500000  0.000000  0.500000  1
  Mo  Mo7  1  0.500000  0.000000  0.000000  1
  O  O8  1  0.294513  0.294849  0.545173  1
  O  O9  1  0.798212  0.209297  0.449964  1
  O  O10  1  0.203055  0.794897  0.953111  1
  O  O11  1  0.703428  0.706052  0.049133  1
  O  O12  1  0.705487  0.705151  0.454827  1
  O  O13  1  0.201788  0.790703  0.550036  1
  O  O14  1  0.796945  0.205103  0.046889  1
  O  O15  1  0.296572  0.293948  0.950867  1
  O  O16  1  0.906207  0.470284  0.744307  1
  O  O17  1  0.411582  0.027657  0.242101  1
  O  O18  1  0.588418  0.972343  0.757899  1
  O  O19  1  0.093793  0.529716  0.255693  1
