# generated using pymatgen
data_Ba3Pa6(Si2O13)2
_symmetry_space_group_name_H-M   'P 1'
_cell_length_a   9.68734200
_cell_length_b   9.68734127
_cell_length_c   8.45513100
_cell_angle_alpha   90.00000000
_cell_angle_beta   90.00000000
_cell_angle_gamma   119.99999567
_symmetry_Int_Tables_number   1
_chemical_formula_structural   Ba3Pa6(Si2O13)2
_chemical_formula_sum   'Ba3 Pa6 Si4 O26'
_cell_volume   687.16372162
_cell_formula_units_Z   1
loop_
 _symmetry_equiv_pos_site_id
 _symmetry_equiv_pos_as_xyz
  1  'x, y, z'
loop_
 _atom_site_type_symbol
 _atom_site_label
 _atom_site_symmetry_multiplicity
 _atom_site_fract_x
 _atom_site_fract_y
 _atom_site_fract_z
 _atom_site_occupancy
  Ba  Ba0  1  0.000000  0.579912  0.500000  1
  Ba  Ba1  1  0.420088  0.420088  0.500000  1
  Ba  Ba2  1  0.579912  0.000000  0.500000  1
  Pa  Pa3  1  0.244240  0.000000  0.751059  1
  Pa  Pa4  1  0.755760  0.755760  0.248941  1
  Pa  Pa5  1  0.000000  0.244240  0.248941  1
  Pa  Pa6  1  0.000000  0.244240  0.751059  1
  Pa  Pa7  1  0.755760  0.755760  0.751059  1
  Pa  Pa8  1  0.244240  0.000000  0.248941  1
  Si  Si9  1  0.666667  0.333333  0.193565  1
  Si  Si10  1  0.666667  0.333333  0.806435  1
  Si  Si11  1  0.333333  0.666667  0.806435  1
  Si  Si12  1  0.333333  0.666667  0.193565  1
  O  O13  1  0.000000  0.276069  0.500000  1
  O  O14  1  0.723931  0.723931  0.500000  1
  O  O15  1  0.276069  0.000000  0.500000  1
  O  O16  1  0.494485  0.674080  0.265345  1
  O  O17  1  0.325920  0.820405  0.265345  1
  O  O18  1  0.179595  0.505515  0.265345  1
  O  O19  1  0.505515  0.179595  0.734655  1
  O  O20  1  0.179595  0.505515  0.734655  1
  O  O21  1  0.494485  0.674080  0.734655  1
  O  O22  1  0.325920  0.820405  0.734655  1
  O  O23  1  0.674080  0.494485  0.265345  1
  O  O24  1  0.820405  0.325920  0.265345  1
  O  O25  1  0.820405  0.325920  0.734655  1
  O  O26  1  0.333333  0.666667  0.000000  1
  O  O27  1  0.666667  0.333333  0.000000  1
  O  O28  1  0.232111  0.000000  0.000000  1
  O  O29  1  0.767889  0.767889  0.000000  1
  O  O30  1  0.000000  0.232111  0.000000  1
  O  O31  1  0.807167  0.000000  0.279699  1
  O  O32  1  0.192833  0.192833  0.720301  1
  O  O33  1  0.000000  0.807167  0.720301  1
  O  O34  1  0.000000  0.807167  0.279699  1
  O  O35  1  0.192833  0.192833  0.279699  1
  O  O36  1  0.807167  0.000000  0.720301  1
  O  O37  1  0.505515  0.179595  0.265345  1
  O  O38  1  0.674080  0.494485  0.734655  1
