# generated using pymatgen
data_Ce6MgScSb10
_symmetry_space_group_name_H-M   'P 1'
_cell_length_a   9.45235500
_cell_length_b   9.45235600
_cell_length_c   6.34494300
_cell_angle_alpha   90.00000000
_cell_angle_beta   90.00000000
_cell_angle_gamma   119.99999300
_symmetry_Int_Tables_number   1
_chemical_formula_structural   Ce6MgScSb10
_chemical_formula_sum   'Ce6 Mg1 Sc1 Sb10'
_cell_volume   490.95137559
_cell_formula_units_Z   1
loop_
 _symmetry_equiv_pos_site_id
 _symmetry_equiv_pos_as_xyz
  1  'x, y, z'
loop_
 _atom_site_type_symbol
 _atom_site_label
 _atom_site_symmetry_multiplicity
 _atom_site_fract_x
 _atom_site_fract_y
 _atom_site_fract_z
 _atom_site_occupancy
  Ce  Ce0  1  0.616620  0.000000  0.246537  1
  Ce  Ce1  1  0.383380  0.000000  0.753463  1
  Ce  Ce2  1  0.000000  0.616620  0.246537  1
  Ce  Ce3  1  0.000000  0.383380  0.753463  1
  Ce  Ce4  1  0.383380  0.383380  0.246537  1
  Ce  Ce5  1  0.616620  0.616620  0.753463  1
  Mg  Mg6  1  0.000000  0.000000  0.000000  1
  Sc  Sc7  1  0.000000  0.000000  0.500000  1
  Sb  Sb8  1  0.265481  0.000000  0.252129  1
  Sb  Sb9  1  0.734519  0.000000  0.747871  1
  Sb  Sb10  1  0.000000  0.265481  0.252129  1
  Sb  Sb11  1  0.000000  0.734519  0.747871  1
  Sb  Sb12  1  0.734519  0.734519  0.252129  1
  Sb  Sb13  1  0.265481  0.265481  0.747871  1
  Sb  Sb14  1  0.333333  0.666667  0.000000  1
  Sb  Sb15  1  0.666667  0.333333  0.000000  1
  Sb  Sb16  1  0.666667  0.333333  0.500000  1
  Sb  Sb17  1  0.333333  0.666667  0.500000  1
