# generated using pymatgen
data_Zr6Zn17Au6C
_symmetry_space_group_name_H-M   'P 1'
_cell_length_a   8.80484497
_cell_length_b   8.81911815
_cell_length_c   8.81969506
_cell_angle_alpha   59.99022361
_cell_angle_beta   59.95139932
_cell_angle_gamma   59.95692619
_symmetry_Int_Tables_number   1
_chemical_formula_structural   Zr6Zn17Au6C
_chemical_formula_sum   'Zr6 Zn17 Au6 C1'
_cell_volume   483.89613225
_cell_formula_units_Z   1
loop_
 _symmetry_equiv_pos_site_id
 _symmetry_equiv_pos_as_xyz
  1  'x, y, z'
loop_
 _atom_site_type_symbol
 _atom_site_label
 _atom_site_symmetry_multiplicity
 _atom_site_fract_x
 _atom_site_fract_y
 _atom_site_fract_z
 _atom_site_occupancy
  Zr  Zr0  1  0.690691  0.311247  0.311243  1
  Zr  Zr1  1  0.309301  0.688757  0.688756  1
  Zr  Zr2  1  0.309328  0.688737  0.313189  1
  Zr  Zr3  1  0.690680  0.311252  0.686817  1
  Zr  Zr4  1  0.309331  0.313196  0.688732  1
  Zr  Zr5  1  0.690669  0.686812  0.311257  1
  Zn  Zn6  1  0.638201  0.120605  0.120602  1
  Zn  Zn7  1  0.361801  0.879395  0.879397  1
  Zn  Zn8  1  0.500001  0.000000  0.000000  1
  Zn  Zn9  1  0.000000  0.499999  0.500001  1
  Zn  Zn10  1  0.000000  0.500000  0.000002  1
  Zn  Zn11  1  0.500002  0.999999  0.500000  1
  Zn  Zn12  1  0.000000  0.000001  0.500001  1
  Zn  Zn13  1  0.500002  0.499999  0.000000  1
  Zn  Zn14  1  0.334350  0.332723  0.332737  1
  Zn  Zn15  1  0.665651  0.667276  0.667265  1
  Zn  Zn16  1  0.334374  0.332703  0.000186  1
  Zn  Zn17  1  0.334386  0.000183  0.332706  1
  Zn  Zn18  1  0.665628  0.667296  0.999815  1
  Zn  Zn19  1  0.665615  0.999817  0.667297  1
  Zn  Zn20  1  0.002890  0.332381  0.332373  1
  Zn  Zn21  1  0.997110  0.667619  0.667629  1
  Zn  Zn22  1  0.999999  0.000000  0.999999  1
  Au  Au23  1  0.124966  0.117816  0.117827  1
  Au  Au24  1  0.875034  0.882187  0.882174  1
  Au  Au25  1  0.124980  0.117796  0.639393  1
  Au  Au26  1  0.124987  0.639394  0.117798  1
  Au  Au27  1  0.875017  0.882204  0.360610  1
  Au  Au28  1  0.875012  0.360605  0.882202  1
  C  C29  1  0.499993  0.500002  0.499992  1
