# generated using pymatgen
data_Nd3Th(CdPd2)2
_symmetry_space_group_name_H-M   'P 1'
_cell_length_a   7.86532550
_cell_length_b   7.86532550
_cell_length_c   3.90080400
_cell_angle_alpha   90.00000000
_cell_angle_beta   90.00000000
_cell_angle_gamma   90.89611738
_symmetry_Int_Tables_number   1
_chemical_formula_structural   Nd3Th(CdPd2)2
_chemical_formula_sum   'Nd3 Th1 Cd2 Pd4'
_cell_volume   241.28726994
_cell_formula_units_Z   1
loop_
 _symmetry_equiv_pos_site_id
 _symmetry_equiv_pos_as_xyz
  1  'x, y, z'
loop_
 _atom_site_type_symbol
 _atom_site_label
 _atom_site_symmetry_multiplicity
 _atom_site_fract_x
 _atom_site_fract_y
 _atom_site_fract_z
 _atom_site_occupancy
  Nd  Nd0  1  0.325643  0.825643  0.500000  1
  Nd  Nd1  1  0.174111  0.327691  0.500000  1
  Nd  Nd2  1  0.827691  0.674111  0.500000  1
  Th  Th3  1  0.671145  0.171145  0.500000  1
  Cd  Cd4  1  0.002297  0.999261  0.000000  1
  Cd  Cd5  1  0.499261  0.502297  0.000000  1
  Pd  Pd6  1  0.124396  0.624396  0.000000  1
  Pd  Pd7  1  0.864952  0.364952  0.000000  1
  Pd  Pd8  1  0.631358  0.879146  0.000000  1
  Pd  Pd9  1  0.379146  0.131358  0.000000  1
