# generated using pymatgen
data_DyInCuPt3
_symmetry_space_group_name_H-M   'P 1'
_cell_length_a   5.19998870
_cell_length_b   5.19998902
_cell_length_c   5.19998849
_cell_angle_alpha   63.46040722
_cell_angle_beta   63.46040198
_cell_angle_gamma   63.46040788
_symmetry_Int_Tables_number   1
_chemical_formula_structural   DyInCuPt3
_chemical_formula_sum   'Dy1 In1 Cu1 Pt3'
_cell_volume   107.03468271
_cell_formula_units_Z   1
loop_
 _symmetry_equiv_pos_site_id
 _symmetry_equiv_pos_as_xyz
  1  'x, y, z'
loop_
 _atom_site_type_symbol
 _atom_site_label
 _atom_site_symmetry_multiplicity
 _atom_site_fract_x
 _atom_site_fract_y
 _atom_site_fract_z
 _atom_site_occupancy
  Dy  Dy0  1  0.248516  0.248516  0.248516  1
  In  In1  1  0.998712  0.998712  0.998712  1
  Cu  Cu2  1  0.625280  0.625280  0.625280  1
  Pt  Pt3  1  0.626424  0.626424  0.124644  1
  Pt  Pt4  1  0.626424  0.124644  0.626424  1
  Pt  Pt5  1  0.124644  0.626424  0.626424  1
