# generated using pymatgen
data_DyTm5TcRu
_symmetry_space_group_name_H-M   'P 1'
_cell_length_a   6.24616800
_cell_length_b   7.30180600
_cell_length_c   9.01855500
_cell_angle_alpha   90.00000000
_cell_angle_beta   90.00000000
_cell_angle_gamma   90.00000000
_symmetry_Int_Tables_number   1
_chemical_formula_structural   DyTm5TcRu
_chemical_formula_sum   'Dy2 Tm10 Tc2 Ru2'
_cell_volume   411.32102495
_cell_formula_units_Z   2
loop_
 _symmetry_equiv_pos_site_id
 _symmetry_equiv_pos_as_xyz
  1  'x, y, z'
loop_
 _atom_site_type_symbol
 _atom_site_label
 _atom_site_symmetry_multiplicity
 _atom_site_fract_x
 _atom_site_fract_y
 _atom_site_fract_z
 _atom_site_occupancy
  Dy  Dy0  1  0.876069  0.539831  0.250000  1
  Dy  Dy1  1  0.623931  0.039831  0.250000  1
  Tm  Tm2  1  0.335467  0.676582  0.062428  1
  Tm  Tm3  1  0.164533  0.176582  0.437572  1
  Tm  Tm4  1  0.663718  0.324255  0.563552  1
  Tm  Tm5  1  0.836282  0.824255  0.936448  1
  Tm  Tm6  1  0.663718  0.324255  0.936448  1
  Tm  Tm7  1  0.836282  0.824255  0.563552  1
  Tm  Tm8  1  0.335467  0.676582  0.437572  1
  Tm  Tm9  1  0.164533  0.176582  0.062428  1
  Tm  Tm10  1  0.132097  0.456088  0.750000  1
  Tm  Tm11  1  0.367903  0.956088  0.750000  1
  Tc  Tc12  1  0.039110  0.886095  0.250000  1
  Tc  Tc13  1  0.460890  0.386095  0.250000  1
  Ru  Ru14  1  0.960739  0.116311  0.750000  1
  Ru  Ru15  1  0.539261  0.616311  0.750000  1
