# generated using pymatgen
data_Ce3Th4Tc3
_symmetry_space_group_name_H-M   'P 1'
_cell_length_a   9.90621470
_cell_length_b   9.74820938
_cell_length_c   6.22726741
_cell_angle_alpha   90.54712638
_cell_angle_beta   89.73080696
_cell_angle_gamma   119.47376215
_symmetry_Int_Tables_number   1
_chemical_formula_structural   Ce3Th4Tc3
_chemical_formula_sum   'Ce6 Th8 Tc6'
_cell_volume   523.50343523
_cell_formula_units_Z   2
loop_
 _symmetry_equiv_pos_site_id
 _symmetry_equiv_pos_as_xyz
  1  'x, y, z'
loop_
 _atom_site_type_symbol
 _atom_site_label
 _atom_site_symmetry_multiplicity
 _atom_site_fract_x
 _atom_site_fract_y
 _atom_site_fract_z
 _atom_site_occupancy
  Ce  Ce0  1  0.464949  0.543959  0.299511  1
  Ce  Ce1  1  0.077162  0.540564  0.309657  1
  Ce  Ce2  1  0.922838  0.463402  0.809657  1
  Ce  Ce3  1  0.247499  0.124896  0.505759  1
  Ce  Ce4  1  0.535051  0.079010  0.799511  1
  Ce  Ce5  1  0.752501  0.877396  0.005759  1
  Th  Th6  1  0.669687  0.336934  0.285452  1
  Th  Th7  1  0.125241  0.875420  0.008241  1
  Th  Th8  1  0.464208  0.924446  0.295217  1
  Th  Th9  1  0.535792  0.460238  0.795217  1
  Th  Th10  1  0.872762  0.126916  0.510859  1
  Th  Th11  1  0.127238  0.254153  0.010859  1
  Th  Th12  1  0.874759  0.750179  0.508241  1
  Th  Th13  1  0.330313  0.667249  0.785452  1
  Tc  Tc14  1  0.818195  0.633544  0.040630  1
  Tc  Tc15  1  0.809632  0.174999  0.039354  1
  Tc  Tc16  1  0.624505  0.805243  0.547318  1
  Tc  Tc17  1  0.375495  0.180738  0.047318  1
  Tc  Tc18  1  0.190368  0.365367  0.539354  1
  Tc  Tc19  1  0.181805  0.815348  0.540630  1
