# generated using pymatgen
data_Pa4Al23Ni6
_symmetry_space_group_name_H-M   'P 1'
_cell_length_a   8.22057605
_cell_length_b   8.22057626
_cell_length_c   18.16741807
_cell_angle_alpha   67.60950001
_cell_angle_beta   67.60949942
_cell_angle_gamma   28.91991249
_symmetry_Int_Tables_number   1
_chemical_formula_structural   Pa4Al23Ni6
_chemical_formula_sum   'Pa4 Al23 Ni6'
_cell_volume   545.84014281
_cell_formula_units_Z   1
loop_
 _symmetry_equiv_pos_site_id
 _symmetry_equiv_pos_as_xyz
  1  'x, y, z'
loop_
 _atom_site_type_symbol
 _atom_site_label
 _atom_site_symmetry_multiplicity
 _atom_site_fract_x
 _atom_site_fract_y
 _atom_site_fract_z
 _atom_site_occupancy
  Pa  Pa0  1  0.733358  0.733358  0.718354  1
  Pa  Pa1  1  0.569650  0.569650  0.092273  1
  Pa  Pa2  1  0.430350  0.430350  0.907727  1
  Pa  Pa3  1  0.266642  0.266642  0.281646  1
  Al  Al4  1  0.858073  0.858073  0.356634  1
  Al  Al5  1  0.431854  0.431854  0.439600  1
  Al  Al6  1  0.917949  0.917949  0.186178  1
  Al  Al7  1  0.467480  0.467480  0.278646  1
  Al  Al8  1  0.742545  0.742545  0.547104  1
  Al  Al9  1  0.201448  0.201448  0.978869  1
  Al  Al10  1  0.911950  0.911950  0.778803  1
  Al  Al11  1  0.082051  0.082051  0.813822  1
  Al  Al12  1  0.377416  0.377416  0.095479  1
  Al  Al13  1  0.391449  0.391449  0.662071  1
  Al  Al14  1  0.568146  0.568146  0.560400  1
  Al  Al15  1  0.723678  0.723678  0.178046  1
  Al  Al16  1  0.257455  0.257455  0.452896  1
  Al  Al17  1  0.532520  0.532520  0.721354  1
  Al  Al18  1  0.000000  0.000000  0.000000  1
  Al  Al19  1  0.088050  0.088050  0.221197  1
  Al  Al20  1  0.622584  0.622584  0.904521  1
  Al  Al21  1  0.276322  0.276322  0.821954  1
  Al  Al22  1  0.798552  0.798552  0.021131  1
  Al  Al23  1  0.090247  0.090247  0.452303  1
  Al  Al24  1  0.909753  0.909753  0.547697  1
  Al  Al25  1  0.141927  0.141927  0.643366  1
  Al  Al26  1  0.608551  0.608551  0.337929  1
  Ni  Ni27  1  0.991888  0.991888  0.633848  1
  Ni  Ni28  1  0.224830  0.224830  0.102939  1
  Ni  Ni29  1  0.691565  0.691565  0.429785  1
  Ni  Ni30  1  0.775170  0.775170  0.897061  1
  Ni  Ni31  1  0.308435  0.308435  0.570215  1
  Ni  Ni32  1  0.008112  0.008112  0.366152  1
