# generated using pymatgen
data_CeTh(Be11Cu2)2
_symmetry_space_group_name_H-M   'P 1'
_cell_length_a   7.42554505
_cell_length_b   7.44461238
_cell_length_c   7.40377911
_cell_angle_alpha   60.01127125
_cell_angle_beta   60.26721152
_cell_angle_gamma   59.72151355
_symmetry_Int_Tables_number   1
_chemical_formula_structural   CeTh(Be11Cu2)2
_chemical_formula_sum   'Ce1 Th1 Be22 Cu4'
_cell_volume   289.39375417
_cell_formula_units_Z   1
loop_
 _symmetry_equiv_pos_site_id
 _symmetry_equiv_pos_as_xyz
  1  'x, y, z'
loop_
 _atom_site_type_symbol
 _atom_site_label
 _atom_site_symmetry_multiplicity
 _atom_site_fract_x
 _atom_site_fract_y
 _atom_site_fract_z
 _atom_site_occupancy
  Ce  Ce0  1  0.000000  0.000000  0.000000  1
  Th  Th1  1  0.500000  0.500000  0.500000  1
  Be  Be2  1  0.028550  0.683051  0.470613  1
  Be  Be3  1  0.470613  0.817787  0.028550  1
  Be  Be4  1  0.683051  0.028550  0.817787  1
  Be  Be5  1  0.817787  0.470613  0.683051  1
  Be  Be6  1  0.952210  0.548463  0.308595  1
  Be  Be7  1  0.548463  0.952210  0.190732  1
  Be  Be8  1  0.190732  0.308595  0.548463  1
  Be  Be9  1  0.308595  0.190732  0.952210  1
  Be  Be10  1  0.464424  0.035394  0.686266  1
  Be  Be11  1  0.035394  0.464424  0.813916  1
  Be  Be12  1  0.813916  0.686266  0.035394  1
  Be  Be13  1  0.686266  0.813916  0.464424  1
  Be  Be14  1  0.316397  0.957416  0.543713  1
  Be  Be15  1  0.182474  0.543713  0.957416  1
  Be  Be16  1  0.543713  0.182474  0.316397  1
  Be  Be17  1  0.957416  0.316397  0.182474  1
  Be  Be18  1  0.691069  0.463630  0.035299  1
  Be  Be19  1  0.810002  0.035299  0.463630  1
  Be  Be20  1  0.035299  0.810002  0.691069  1
  Be  Be21  1  0.463630  0.691069  0.810002  1
  Be  Be22  1  0.250000  0.250000  0.250000  1
  Be  Be23  1  0.750000  0.750000  0.750000  1
  Cu  Cu24  1  0.553663  0.306066  0.947433  1
  Cu  Cu25  1  0.947433  0.192838  0.553663  1
  Cu  Cu26  1  0.306066  0.553663  0.192838  1
  Cu  Cu27  1  0.192838  0.947433  0.306066  1
