# generated using pymatgen
data_Dy4Mn11(Fe3P4)3
_symmetry_space_group_name_H-M   'P 1'
_cell_length_a   3.64337100
_cell_length_b   10.40239847
_cell_length_c   12.13188103
_cell_angle_alpha   89.79926150
_cell_angle_beta   90.00000000
_cell_angle_gamma   90.00000000
_symmetry_Int_Tables_number   1
_chemical_formula_structural   Dy4Mn11(Fe3P4)3
_chemical_formula_sum   'Dy4 Mn11 Fe9 P12'
_cell_volume   459.79300530
_cell_formula_units_Z   1
loop_
 _symmetry_equiv_pos_site_id
 _symmetry_equiv_pos_as_xyz
  1  'x, y, z'
loop_
 _atom_site_type_symbol
 _atom_site_label
 _atom_site_symmetry_multiplicity
 _atom_site_fract_x
 _atom_site_fract_y
 _atom_site_fract_z
 _atom_site_occupancy
  Dy  Dy0  1  0.250000  0.580656  0.708854  1
  Dy  Dy1  1  0.250000  0.915159  0.211724  1
  Dy  Dy2  1  0.750000  0.422761  0.290990  1
  Dy  Dy3  1  0.750000  0.080831  0.789658  1
  Mn  Mn4  1  0.250000  0.707187  0.988927  1
  Mn  Mn5  1  0.250000  0.792964  0.492558  1
  Mn  Mn6  1  0.750000  0.291795  0.011182  1
  Mn  Mn7  1  0.750000  0.207730  0.511328  1
  Mn  Mn8  1  0.250000  0.411179  0.490615  1
  Mn  Mn9  1  0.250000  0.092470  0.993114  1
  Mn  Mn10  1  0.750000  0.593826  0.507547  1
  Mn  Mn11  1  0.750000  0.905279  0.008987  1
  Mn  Mn12  1  0.250000  0.218937  0.173424  1
  Mn  Mn13  1  0.250000  0.280003  0.672528  1
  Mn  Mn14  1  0.750000  0.780492  0.827418  1
  Fe  Fe15  1  0.750000  0.723287  0.327295  1
  Fe  Fe16  1  0.250000  0.873156  0.700339  1
  Fe  Fe17  1  0.250000  0.622160  0.194586  1
  Fe  Fe18  1  0.750000  0.126580  0.300331  1
  Fe  Fe19  1  0.750000  0.373863  0.801860  1
  Fe  Fe20  1  0.250000  0.461886  0.934826  1
  Fe  Fe21  1  0.250000  0.038233  0.433468  1
  Fe  Fe22  1  0.750000  0.537247  0.063618  1
  Fe  Fe23  1  0.750000  0.961670  0.565139  1
  P  P24  1  0.250000  0.426281  0.112435  1
  P  P25  1  0.250000  0.071158  0.611281  1
  P  P26  1  0.750000  0.572724  0.886380  1
  P  P27  1  0.750000  0.925160  0.388146  1
  P  P28  1  0.250000  0.267082  0.867135  1
  P  P29  1  0.250000  0.233778  0.367457  1
  P  P30  1  0.750000  0.729416  0.138059  1
  P  P31  1  0.750000  0.767455  0.633050  1
  P  P32  1  0.250000  0.605194  0.380436  1
  P  P33  1  0.250000  0.904490  0.886488  1
  P  P34  1  0.750000  0.403872  0.614292  1
  P  P35  1  0.750000  0.094038  0.114527  1
