# generated using pymatgen
data_Nb2FeCl12
_symmetry_space_group_name_H-M   'P 1'
_cell_length_a   8.49351520
_cell_length_b   8.49351462
_cell_length_c   6.57209000
_cell_angle_alpha   70.52670827
_cell_angle_beta   70.52671679
_cell_angle_gamma   82.45389569
_symmetry_Int_Tables_number   1
_chemical_formula_structural   Nb2FeCl12
_chemical_formula_sum   'Nb2 Fe1 Cl12'
_cell_volume   421.31094607
_cell_formula_units_Z   1
loop_
 _symmetry_equiv_pos_site_id
 _symmetry_equiv_pos_as_xyz
  1  'x, y, z'
loop_
 _atom_site_type_symbol
 _atom_site_label
 _atom_site_symmetry_multiplicity
 _atom_site_fract_x
 _atom_site_fract_y
 _atom_site_fract_z
 _atom_site_occupancy
  Nb  Nb0  1  0.261652  0.261652  0.744905  1
  Nb  Nb1  1  0.738348  0.738348  0.255095  1
  Fe  Fe2  1  0.000000  0.000000  0.000000  1
  Cl  Cl3  1  0.968983  0.269305  0.734879  1
  Cl  Cl4  1  0.269305  0.968983  0.734879  1
  Cl  Cl5  1  0.031017  0.730695  0.265121  1
  Cl  Cl6  1  0.730695  0.031017  0.265121  1
  Cl  Cl7  1  0.215902  0.522107  0.791080  1
  Cl  Cl8  1  0.522107  0.215902  0.791080  1
  Cl  Cl9  1  0.784098  0.477893  0.208920  1
  Cl  Cl10  1  0.477893  0.784098  0.208920  1
  Cl  Cl11  1  0.134644  0.134644  0.163913  1
  Cl  Cl12  1  0.865356  0.865356  0.836087  1
  Cl  Cl13  1  0.646689  0.646689  0.645441  1
  Cl  Cl14  1  0.353311  0.353311  0.354559  1
