# generated using pymatgen
data_Li2Hf5Mg(Si4Ru3)4
_symmetry_space_group_name_H-M   'P 1'
_cell_length_a   9.86222172
_cell_length_b   9.84583085
_cell_length_c   13.40263959
_cell_angle_alpha   53.83371787
_cell_angle_beta   53.70889833
_cell_angle_gamma   31.15650534
_symmetry_Int_Tables_number   1
_chemical_formula_structural   Li2Hf5Mg(Si4Ru3)4
_chemical_formula_sum   'Li2 Hf5 Mg1 Si16 Ru12'
_cell_volume   531.69172658
_cell_formula_units_Z   1
loop_
 _symmetry_equiv_pos_site_id
 _symmetry_equiv_pos_as_xyz
  1  'x, y, z'
loop_
 _atom_site_type_symbol
 _atom_site_label
 _atom_site_symmetry_multiplicity
 _atom_site_fract_x
 _atom_site_fract_y
 _atom_site_fract_z
 _atom_site_occupancy
  Li  Li0  1  0.437644  0.704175  0.853590  1
  Li  Li1  1  0.703121  0.440318  0.353621  1
  Hf  Hf2  1  0.556912  0.301159  0.143282  1
  Hf  Hf3  1  0.039510  0.292037  0.635489  1
  Hf  Hf4  1  0.709930  0.957795  0.863645  1
  Hf  Hf5  1  0.959908  0.704650  0.365104  1
  Hf  Hf6  1  0.295591  0.037195  0.135220  1
  Mg  Mg7  1  0.314045  0.557342  0.635803  1
  Si  Si8  1  0.873198  0.129168  0.251193  1
  Si  Si9  1  0.131841  0.869958  0.752165  1
  Si  Si10  1  0.386112  0.615812  0.253111  1
  Si  Si11  1  0.619661  0.381029  0.752466  1
  Si  Si12  1  0.961526  0.262309  0.896046  1
  Si  Si13  1  0.750507  0.022579  0.606339  1
  Si  Si14  1  0.022133  0.752386  0.107467  1
  Si  Si15  1  0.249361  0.979066  0.389406  1
  Si  Si16  1  0.576247  0.080215  0.066313  1
  Si  Si17  1  0.909031  0.424333  0.432704  1
  Si  Si18  1  0.423677  0.915505  0.928538  1
  Si  Si19  1  0.083216  0.577358  0.565577  1
  Si  Si20  1  0.381190  0.148418  0.395994  1
  Si  Si21  1  0.854825  0.606553  0.108750  1
  Si  Si22  1  0.612610  0.852461  0.606941  1
  Si  Si23  1  0.145269  0.386897  0.895848  1
  Ru  Ru24  1  0.650504  0.831167  0.282082  1
  Ru  Ru25  1  0.171900  0.354225  0.216684  1
  Ru  Ru26  1  0.756894  0.485438  0.067191  1
  Ru  Ru27  1  0.829073  0.653431  0.781150  1
  Ru  Ru28  1  0.907710  0.128087  0.590141  1
  Ru  Ru29  1  0.857503  0.101467  0.917032  1
  Ru  Ru30  1  0.093094  0.867398  0.412738  1
  Ru  Ru31  1  0.143099  0.896673  0.089048  1
  Ru  Ru32  1  0.239173  0.513446  0.934471  1
  Ru  Ru33  1  0.491109  0.755755  0.569303  1
  Ru  Ru34  1  0.513862  0.238547  0.430552  1
  Ru  Ru35  1  0.349014  0.175648  0.714999  1
