# generated using pymatgen
data_NdDyS2
_symmetry_space_group_name_H-M   'P 1'
_cell_length_a   6.94265454
_cell_length_b   6.94265385
_cell_length_c   6.94265380
_cell_angle_alpha   33.25519819
_cell_angle_beta   33.25520750
_cell_angle_gamma   33.25520347
_symmetry_Int_Tables_number   1
_chemical_formula_structural   NdDyS2
_chemical_formula_sum   'Nd1 Dy1 S2'
_cell_volume   89.58817637
_cell_formula_units_Z   1
loop_
 _symmetry_equiv_pos_site_id
 _symmetry_equiv_pos_as_xyz
  1  'x, y, z'
loop_
 _atom_site_type_symbol
 _atom_site_label
 _atom_site_symmetry_multiplicity
 _atom_site_fract_x
 _atom_site_fract_y
 _atom_site_fract_z
 _atom_site_occupancy
  Nd  Nd0  1  0.000000  0.000000  0.000000  1
  Dy  Dy1  1  0.500000  0.500000  0.500000  1
  S  S2  1  0.244844  0.244844  0.244844  1
  S  S3  1  0.755156  0.755156  0.755156  1
