# generated using pymatgen
data_Sc3Sn3IrPt2
_symmetry_space_group_name_H-M   'P 1'
_cell_length_a   7.47849000
_cell_length_b   7.47848972
_cell_length_c   7.32092200
_cell_angle_alpha   90.00000000
_cell_angle_beta   90.00000000
_cell_angle_gamma   120.00000123
_symmetry_Int_Tables_number   1
_chemical_formula_structural   Sc3Sn3IrPt2
_chemical_formula_sum   'Sc6 Sn6 Ir2 Pt4'
_cell_volume   354.58815537
_cell_formula_units_Z   2
loop_
 _symmetry_equiv_pos_site_id
 _symmetry_equiv_pos_as_xyz
  1  'x, y, z'
loop_
 _atom_site_type_symbol
 _atom_site_label
 _atom_site_symmetry_multiplicity
 _atom_site_fract_x
 _atom_site_fract_y
 _atom_site_fract_z
 _atom_site_occupancy
  Sc  Sc0  1  0.395499  0.008629  0.250000  1
  Sc  Sc1  1  0.613131  0.604501  0.250000  1
  Sc  Sc2  1  0.991371  0.386869  0.250000  1
  Sc  Sc3  1  0.386869  0.991371  0.750000  1
  Sc  Sc4  1  0.604501  0.613131  0.750000  1
  Sc  Sc5  1  0.008629  0.395499  0.750000  1
  Sn  Sn6  1  0.270477  0.270477  0.000000  1
  Sn  Sn7  1  0.000000  0.729523  0.000000  1
  Sn  Sn8  1  0.000000  0.729523  0.500000  1
  Sn  Sn9  1  0.729523  0.000000  0.500000  1
  Sn  Sn10  1  0.270477  0.270477  0.500000  1
  Sn  Sn11  1  0.729523  0.000000  0.000000  1
  Ir  Ir12  1  0.000000  0.000000  0.750000  1
  Ir  Ir13  1  0.000000  0.000000  0.250000  1
  Pt  Pt14  1  0.666667  0.333333  0.983745  1
  Pt  Pt15  1  0.333333  0.666667  0.483745  1
  Pt  Pt16  1  0.333333  0.666667  0.016255  1
  Pt  Pt17  1  0.666667  0.333333  0.516255  1
