# generated using pymatgen
data_YbEr(Al5Os)4
_symmetry_space_group_name_H-M   'P 1'
_cell_length_a   6.86490793
_cell_length_b   6.86490791
_cell_length_c   9.14317500
_cell_angle_alpha   90.00000000
_cell_angle_beta   90.00000000
_cell_angle_gamma   96.60676272
_symmetry_Int_Tables_number   1
_chemical_formula_structural   YbEr(Al5Os)4
_chemical_formula_sum   'Yb1 Er1 Al20 Os4'
_cell_volume   428.02859201
_cell_formula_units_Z   1
loop_
 _symmetry_equiv_pos_site_id
 _symmetry_equiv_pos_as_xyz
  1  'x, y, z'
loop_
 _atom_site_type_symbol
 _atom_site_label
 _atom_site_symmetry_multiplicity
 _atom_site_fract_x
 _atom_site_fract_y
 _atom_site_fract_z
 _atom_site_occupancy
  Yb  Yb0  1  0.372901  0.627099  0.250000  1
  Er  Er1  1  0.627593  0.372407  0.750000  1
  Al  Al2  1  0.281584  0.021727  0.750000  1
  Al  Al3  1  0.023509  0.282323  0.250000  1
  Al  Al4  1  0.717677  0.976491  0.250000  1
  Al  Al5  1  0.978273  0.718416  0.750000  1
  Al  Al6  1  0.876633  0.123367  0.954066  1
  Al  Al7  1  0.123683  0.876317  0.044077  1
  Al  Al8  1  0.876633  0.123367  0.545934  1
  Al  Al9  1  0.123683  0.876317  0.455923  1
  Al  Al10  1  0.645054  0.916017  0.750000  1
  Al  Al11  1  0.914839  0.644729  0.250000  1
  Al  Al12  1  0.355271  0.085161  0.250000  1
  Al  Al13  1  0.083983  0.354946  0.750000  1
  Al  Al14  1  0.345559  0.654441  0.900257  1
  Al  Al15  1  0.656646  0.343354  0.100486  1
  Al  Al16  1  0.345559  0.654441  0.599743  1
  Al  Al17  1  0.656646  0.343354  0.399514  1
  Al  Al18  1  0.723107  0.724192  0.999716  1
  Al  Al19  1  0.723107  0.724192  0.500284  1
  Al  Al20  1  0.275808  0.276893  0.999716  1
  Al  Al21  1  0.275808  0.276893  0.500284  1
  Os  Os22  1  0.499894  0.001672  0.998947  1
  Os  Os23  1  0.998328  0.500106  0.998947  1
  Os  Os24  1  0.499894  0.001672  0.501053  1
  Os  Os25  1  0.998328  0.500106  0.501053  1
