# generated using pymatgen
data_Yb11Lu8Si16Ag
_symmetry_space_group_name_H-M   'P 1'
_cell_length_a   7.22530715
_cell_length_b   7.70995220
_cell_length_c   14.91303300
_cell_angle_alpha   90.00000000
_cell_angle_beta   90.00000000
_cell_angle_gamma   90.06428614
_symmetry_Int_Tables_number   1
_chemical_formula_structural   Yb11Lu8Si16Ag
_chemical_formula_sum   'Yb11 Lu8 Si16 Ag1'
_cell_volume   830.75641747
_cell_formula_units_Z   1
loop_
 _symmetry_equiv_pos_site_id
 _symmetry_equiv_pos_as_xyz
  1  'x, y, z'
loop_
 _atom_site_type_symbol
 _atom_site_label
 _atom_site_symmetry_multiplicity
 _atom_site_fract_x
 _atom_site_fract_y
 _atom_site_fract_z
 _atom_site_occupancy
  Yb  Yb0  1  0.977537  0.817860  0.405917  1
  Yb  Yb1  1  0.479334  0.678445  0.093626  1
  Yb  Yb2  1  0.518956  0.311805  0.599072  1
  Yb  Yb3  1  0.028838  0.179213  0.900008  1
  Yb  Yb4  1  0.028838  0.179213  0.599992  1
  Yb  Yb5  1  0.518956  0.311805  0.900928  1
  Yb  Yb6  1  0.479334  0.678445  0.406374  1
  Yb  Yb7  1  0.977537  0.817860  0.094083  1
  Yb  Yb8  1  0.851664  0.481088  0.750000  1
  Yb  Yb9  1  0.151354  0.521612  0.250000  1
  Yb  Yb10  1  0.650851  0.979511  0.250000  1
  Lu  Lu11  1  0.315553  0.177515  0.120542  1
  Lu  Lu12  1  0.816259  0.324518  0.379512  1
  Lu  Lu13  1  0.185974  0.680418  0.877363  1
  Lu  Lu14  1  0.681295  0.828735  0.622905  1
  Lu  Lu15  1  0.315553  0.177515  0.379458  1
  Lu  Lu16  1  0.816259  0.324518  0.120488  1
  Lu  Lu17  1  0.185974  0.680418  0.622637  1
  Lu  Lu18  1  0.681295  0.828735  0.877095  1
  Si  Si19  1  0.852862  0.534625  0.539323  1
  Si  Si20  1  0.354743  0.962357  0.963424  1
  Si  Si21  1  0.644428  0.035176  0.462478  1
  Si  Si22  1  0.144715  0.464983  0.035599  1
  Si  Si23  1  0.144715  0.464983  0.464401  1
  Si  Si24  1  0.644428  0.035176  0.037522  1
  Si  Si25  1  0.354743  0.962357  0.536576  1
  Si  Si26  1  0.852862  0.534625  0.960677  1
  Si  Si27  1  0.983338  0.893470  0.750000  1
  Si  Si28  1  0.474210  0.617038  0.750000  1
  Si  Si29  1  0.524938  0.375809  0.250000  1
  Si  Si30  1  0.025062  0.125033  0.250000  1
  Si  Si31  1  0.247576  0.388752  0.750000  1
  Si  Si32  1  0.733232  0.106025  0.750000  1
  Si  Si33  1  0.251901  0.897096  0.250000  1
  Si  Si34  1  0.753194  0.603316  0.250000  1
  Ag  Ag35  1  0.351692  0.019951  0.750000  1
