# generated using pymatgen
data_Nd8Si12IrPd2Pt
_symmetry_space_group_name_H-M   'P 1'
_cell_length_a   8.25491400
_cell_length_b   8.25491553
_cell_length_c   8.53582300
_cell_angle_alpha   90.00000000
_cell_angle_beta   90.00000000
_cell_angle_gamma   119.99999386
_symmetry_Int_Tables_number   1
_chemical_formula_structural   Nd8Si12IrPd2Pt
_chemical_formula_sum   'Nd8 Si12 Ir1 Pd2 Pt1'
_cell_volume   503.73397846
_cell_formula_units_Z   1
loop_
 _symmetry_equiv_pos_site_id
 _symmetry_equiv_pos_as_xyz
  1  'x, y, z'
loop_
 _atom_site_type_symbol
 _atom_site_label
 _atom_site_symmetry_multiplicity
 _atom_site_fract_x
 _atom_site_fract_y
 _atom_site_fract_z
 _atom_site_occupancy
  Nd  Nd0  1  0.501180  0.498820  0.752236  1
  Nd  Nd1  1  0.501195  0.498805  0.247782  1
  Nd  Nd2  1  0.997640  0.498820  0.752236  1
  Nd  Nd3  1  0.997609  0.498805  0.247782  1
  Nd  Nd4  1  0.501180  0.002360  0.752236  1
  Nd  Nd5  1  0.501195  0.002391  0.247782  1
  Nd  Nd6  1  0.000000  0.000000  0.748280  1
  Nd  Nd7  1  0.000000  0.000000  0.251630  1
  Si  Si8  1  0.832252  0.167748  0.000183  1
  Si  Si9  1  0.165685  0.834315  0.999884  1
  Si  Si10  1  0.335497  0.167748  0.000183  1
  Si  Si11  1  0.165484  0.834516  0.500220  1
  Si  Si12  1  0.668630  0.834315  0.999884  1
  Si  Si13  1  0.835148  0.164852  0.499681  1
  Si  Si14  1  0.832252  0.664503  0.000183  1
  Si  Si15  1  0.669033  0.834516  0.500220  1
  Si  Si16  1  0.165685  0.331370  0.999884  1
  Si  Si17  1  0.329704  0.164852  0.499681  1
  Si  Si18  1  0.165484  0.330967  0.500220  1
  Si  Si19  1  0.835148  0.670296  0.499681  1
  Ir  Ir20  1  0.666667  0.333333  0.999306  1
  Pd  Pd21  1  0.333333  0.666667  0.500378  1
  Pd  Pd22  1  0.666667  0.333333  0.499923  1
  Pt  Pt23  1  0.333333  0.666667  0.000527  1
