# generated using pymatgen
data_Yb3Ce(TcB4)4
_symmetry_space_group_name_H-M   'P 1'
_cell_length_a   3.59750600
_cell_length_b   5.97587152
_cell_length_c   11.56533422
_cell_angle_alpha   90.12850405
_cell_angle_beta   90.00000000
_cell_angle_gamma   90.00000000
_symmetry_Int_Tables_number   1
_chemical_formula_structural   Yb3Ce(TcB4)4
_chemical_formula_sum   'Yb3 Ce1 Tc4 B16'
_cell_volume   248.63363209
_cell_formula_units_Z   1
loop_
 _symmetry_equiv_pos_site_id
 _symmetry_equiv_pos_as_xyz
  1  'x, y, z'
loop_
 _atom_site_type_symbol
 _atom_site_label
 _atom_site_symmetry_multiplicity
 _atom_site_fract_x
 _atom_site_fract_y
 _atom_site_fract_z
 _atom_site_occupancy
  Yb  Yb0  1  0.500000  0.370471  0.847381  1
  Yb  Yb1  1  0.500000  0.127457  0.352266  1
  Yb  Yb2  1  0.500000  0.871834  0.650148  1
  Ce  Ce3  1  0.500000  0.628127  0.150925  1
  Tc  Tc4  1  0.500000  0.629406  0.415881  1
  Tc  Tc5  1  0.500000  0.368405  0.583346  1
  Tc  Tc6  1  0.500000  0.130910  0.085634  1
  Tc  Tc7  1  0.500000  0.867994  0.915130  1
  B  B8  1  0.000000  0.977721  0.192069  1
  B  B9  1  0.000000  0.022104  0.806967  1
  B  B10  1  0.000000  0.477936  0.309612  1
  B  B11  1  0.000000  0.521672  0.692124  1
  B  B12  1  0.000000  0.785519  0.316939  1
  B  B13  1  0.000000  0.214444  0.684343  1
  B  B14  1  0.000000  0.284832  0.184556  1
  B  B15  1  0.000000  0.716021  0.813778  1
  B  B16  1  0.000000  0.865306  0.468421  1
  B  B17  1  0.000000  0.135219  0.532592  1
  B  B18  1  0.000000  0.362782  0.031914  1
  B  B19  1  0.000000  0.637631  0.966759  1
  B  B20  1  0.000000  0.889265  0.046477  1
  B  B21  1  0.000000  0.114597  0.951670  1
  B  B22  1  0.000000  0.386239  0.453501  1
  B  B23  1  0.000000  0.614106  0.547568  1
