# generated using pymatgen
data_HoTm5Sc4(In2Rh)4
_symmetry_space_group_name_H-M   'P 1'
_cell_length_a   3.51401000
_cell_length_b   7.85301608
_cell_length_c   17.90538017
_cell_angle_alpha   89.98408824
_cell_angle_beta   90.00000000
_cell_angle_gamma   90.00000000
_symmetry_Int_Tables_number   1
_chemical_formula_structural   HoTm5Sc4(In2Rh)4
_chemical_formula_sum   'Ho1 Tm5 Sc4 In8 Rh4'
_cell_volume   494.10927858
_cell_formula_units_Z   1
loop_
 _symmetry_equiv_pos_site_id
 _symmetry_equiv_pos_as_xyz
  1  'x, y, z'
loop_
 _atom_site_type_symbol
 _atom_site_label
 _atom_site_symmetry_multiplicity
 _atom_site_fract_x
 _atom_site_fract_y
 _atom_site_fract_z
 _atom_site_occupancy
  Ho  Ho0  1  0.000000  0.000000  0.000000  1
  Tm  Tm1  1  0.000000  0.500000  0.500000  1
  Tm  Tm2  1  0.000000  0.747933  0.781046  1
  Tm  Tm3  1  0.000000  0.252067  0.218954  1
  Tm  Tm4  1  0.000000  0.247915  0.718949  1
  Tm  Tm5  1  0.000000  0.752085  0.281051  1
  Sc  Sc6  1  0.000000  0.877958  0.588213  1
  Sc  Sc7  1  0.000000  0.122042  0.411787  1
  Sc  Sc8  1  0.000000  0.378048  0.911742  1
  Sc  Sc9  1  0.000000  0.621952  0.088258  1
  In  In10  1  0.500000  0.806924  0.437282  1
  In  In11  1  0.500000  0.193076  0.562718  1
  In  In12  1  0.500000  0.307357  0.062835  1
  In  In13  1  0.500000  0.692643  0.937165  1
  In  In14  1  0.500000  0.926397  0.149531  1
  In  In15  1  0.500000  0.073603  0.850469  1
  In  In16  1  0.500000  0.426466  0.350683  1
  In  In17  1  0.500000  0.573534  0.649317  1
  Rh  Rh18  1  0.500000  0.963345  0.693017  1
  Rh  Rh19  1  0.500000  0.036655  0.306983  1
  Rh  Rh20  1  0.500000  0.463410  0.806957  1
  Rh  Rh21  1  0.500000  0.536590  0.193043  1
