# generated using pymatgen
data_CaPr11(Si2Rh3)4
_symmetry_space_group_name_H-M   'P 1'
_cell_length_a   5.77320783
_cell_length_b   7.77005949
_cell_length_c   15.07769300
_cell_angle_alpha   90.00000000
_cell_angle_beta   90.00000000
_cell_angle_gamma   90.09141180
_symmetry_Int_Tables_number   1
_chemical_formula_structural   CaPr11(Si2Rh3)4
_chemical_formula_sum   'Ca1 Pr11 Si8 Rh12'
_cell_volume   676.35682844
_cell_formula_units_Z   1
loop_
 _symmetry_equiv_pos_site_id
 _symmetry_equiv_pos_as_xyz
  1  'x, y, z'
loop_
 _atom_site_type_symbol
 _atom_site_label
 _atom_site_symmetry_multiplicity
 _atom_site_fract_x
 _atom_site_fract_y
 _atom_site_fract_z
 _atom_site_occupancy
  Ca  Ca0  1  0.614829  0.332632  0.750000  1
  Pr  Pr1  1  0.142122  0.473116  0.889347  1
  Pr  Pr2  1  0.360522  0.976611  0.889972  1
  Pr  Pr3  1  0.386388  0.665825  0.250000  1
  Pr  Pr4  1  0.639301  0.024953  0.391787  1
  Pr  Pr5  1  0.861510  0.525275  0.107749  1
  Pr  Pr6  1  0.861510  0.525275  0.392251  1
  Pr  Pr7  1  0.360522  0.976611  0.610028  1
  Pr  Pr8  1  0.887105  0.833903  0.750000  1
  Pr  Pr9  1  0.142122  0.473116  0.610653  1
  Pr  Pr10  1  0.639301  0.024953  0.108213  1
  Pr  Pr11  1  0.117202  0.165102  0.250000  1
  Si  Si12  1  0.367567  0.373374  0.096520  1
  Si  Si13  1  0.631481  0.626923  0.901419  1
  Si  Si14  1  0.866568  0.129090  0.901441  1
  Si  Si15  1  0.367567  0.373374  0.403480  1
  Si  Si16  1  0.866568  0.129090  0.598559  1
  Si  Si17  1  0.631481  0.626923  0.598581  1
  Si  Si18  1  0.131953  0.872586  0.403573  1
  Si  Si19  1  0.131953  0.872586  0.096427  1
  Rh  Rh20  1  0.601415  0.338300  0.961729  1
  Rh  Rh21  1  0.397646  0.663004  0.036714  1
  Rh  Rh22  1  0.575242  0.319109  0.250000  1
  Rh  Rh23  1  0.397646  0.663004  0.463286  1
  Rh  Rh24  1  0.061411  0.175744  0.750000  1
  Rh  Rh25  1  0.102117  0.162456  0.463063  1
  Rh  Rh26  1  0.433024  0.680916  0.750000  1
  Rh  Rh27  1  0.927436  0.818781  0.250000  1
  Rh  Rh28  1  0.102117  0.162456  0.036937  1
  Rh  Rh29  1  0.601415  0.338300  0.538271  1
  Rh  Rh30  1  0.896479  0.838306  0.538809  1
  Rh  Rh31  1  0.896479  0.838306  0.961191  1
