# generated using pymatgen
data_CaSm(AsPd)2
_symmetry_space_group_name_H-M   'P 1'
_cell_length_a   4.30642500
_cell_length_b   4.30642436
_cell_length_c   8.04899500
_cell_angle_alpha   90.00000000
_cell_angle_beta   90.00000000
_cell_angle_gamma   119.99999723
_symmetry_Int_Tables_number   1
_chemical_formula_structural   CaSm(AsPd)2
_chemical_formula_sum   'Ca1 Sm1 As2 Pd2'
_cell_volume   129.27245990
_cell_formula_units_Z   1
loop_
 _symmetry_equiv_pos_site_id
 _symmetry_equiv_pos_as_xyz
  1  'x, y, z'
loop_
 _atom_site_type_symbol
 _atom_site_label
 _atom_site_symmetry_multiplicity
 _atom_site_fract_x
 _atom_site_fract_y
 _atom_site_fract_z
 _atom_site_occupancy
  Ca  Ca0  1  0.000000  0.000000  0.499376  1
  Sm  Sm1  1  0.000000  0.000000  0.999673  1
  As  As2  1  0.666667  0.333333  0.242355  1
  As  As3  1  0.333333  0.666667  0.761645  1
  Pd  Pd4  1  0.333333  0.666667  0.246950  1
  Pd  Pd5  1  0.666667  0.333333  0.748798  1
