# generated using pymatgen
data_Dy5Te9
_symmetry_space_group_name_H-M   'P 1'
_cell_length_a   13.16608469
_cell_length_b   13.16608461
_cell_length_c   10.83857992
_cell_angle_alpha   80.20880465
_cell_angle_beta   80.20880373
_cell_angle_gamma   26.94242982
_symmetry_Int_Tables_number   1
_chemical_formula_structural   Dy5Te9
_chemical_formula_sum   'Dy10 Te18'
_cell_volume   838.16803125
_cell_formula_units_Z   2
loop_
 _symmetry_equiv_pos_site_id
 _symmetry_equiv_pos_as_xyz
  1  'x, y, z'
loop_
 _atom_site_type_symbol
 _atom_site_label
 _atom_site_symmetry_multiplicity
 _atom_site_fract_x
 _atom_site_fract_y
 _atom_site_fract_z
 _atom_site_occupancy
  Dy  Dy0  1  0.947059  0.043650  0.241778  1
  Dy  Dy1  1  0.147066  0.247669  0.842779  1
  Dy  Dy2  1  0.345097  0.450820  0.437132  1
  Dy  Dy3  1  0.536818  0.655839  0.036256  1
  Dy  Dy4  1  0.756955  0.832393  0.638539  1
  Dy  Dy5  1  0.344161  0.463182  0.963744  1
  Dy  Dy6  1  0.549180  0.654903  0.562868  1
  Dy  Dy7  1  0.752331  0.852934  0.157221  1
  Dy  Dy8  1  0.956350  0.052941  0.758222  1
  Dy  Dy9  1  0.167607  0.243045  0.361461  1
  Te  Te10  1  0.474815  0.570599  0.822021  1
  Te  Te11  1  0.070809  0.179246  0.620861  1
  Te  Te12  1  0.870447  0.978906  0.020495  1
  Te  Te13  1  0.681272  0.763188  0.423331  1
  Te  Te14  1  0.272864  0.376736  0.221989  1
  Te  Te15  1  0.021094  0.129553  0.979505  1
  Te  Te16  1  0.623264  0.727136  0.778011  1
  Te  Te17  1  0.429401  0.525185  0.177979  1
  Te  Te18  1  0.236812  0.318728  0.576669  1
  Te  Te19  1  0.820754  0.929191  0.379139  1
  Te  Te20  1  0.699662  0.300338  0.500000  1
  Te  Te21  1  0.298940  0.900707  0.300548  1
  Te  Te22  1  0.099293  0.701060  0.699452  1
  Te  Te23  1  0.891601  0.492102  0.116608  1
  Te  Te24  1  0.507898  0.108399  0.883392  1
  Te  Te25  1  0.000695  0.601371  0.897491  1
  Te  Te26  1  0.199123  0.800877  0.500000  1
  Te  Te27  1  0.398629  0.999305  0.102509  1
