# generated using pymatgen
data_Cs2RbIn(AsS2)6
_symmetry_space_group_name_H-M   'P 1'
_cell_length_a   9.62077400
_cell_length_b   9.62077464
_cell_length_c   8.27008900
_cell_angle_alpha   90.00000000
_cell_angle_beta   90.00000000
_cell_angle_gamma   119.99999689
_symmetry_Int_Tables_number   1
_chemical_formula_structural   Cs2RbIn(AsS2)6
_chemical_formula_sum   'Cs2 Rb1 In1 As6 S12'
_cell_volume   662.91963564
_cell_formula_units_Z   1
loop_
 _symmetry_equiv_pos_site_id
 _symmetry_equiv_pos_as_xyz
  1  'x, y, z'
loop_
 _atom_site_type_symbol
 _atom_site_label
 _atom_site_symmetry_multiplicity
 _atom_site_fract_x
 _atom_site_fract_y
 _atom_site_fract_z
 _atom_site_occupancy
  Cs  Cs0  1  0.333333  0.666667  0.865849  1
  Cs  Cs1  1  0.666667  0.333333  0.134151  1
  Rb  Rb2  1  0.000000  0.000000  0.000000  1
  In  In3  1  0.000000  0.000000  0.500000  1
  As  As4  1  0.278581  0.830743  0.400105  1
  As  As5  1  0.169257  0.447839  0.400105  1
  As  As6  1  0.552161  0.721419  0.400105  1
  As  As7  1  0.721419  0.169257  0.599895  1
  As  As8  1  0.830743  0.552161  0.599895  1
  As  As9  1  0.447839  0.278581  0.599895  1
  S  S10  1  0.235983  0.023352  0.306611  1
  S  S11  1  0.976648  0.212632  0.306611  1
  S  S12  1  0.787368  0.764017  0.306611  1
  S  S13  1  0.764017  0.976648  0.693389  1
  S  S14  1  0.023352  0.787368  0.693389  1
  S  S15  1  0.212632  0.235983  0.693389  1
  S  S16  1  0.511891  0.904997  0.251283  1
  S  S17  1  0.095003  0.606893  0.251283  1
  S  S18  1  0.393107  0.488109  0.251283  1
  S  S19  1  0.488109  0.095003  0.748717  1
  S  S20  1  0.904997  0.393107  0.748717  1
  S  S21  1  0.606893  0.511891  0.748717  1
