# generated using pymatgen
data_SrEu3(TaN3)2
_symmetry_space_group_name_H-M   'P 1'
_cell_length_a   6.31047082
_cell_length_b   6.33648794
_cell_length_c   12.44542849
_cell_angle_alpha   88.73758142
_cell_angle_beta   88.66072822
_cell_angle_gamma   123.32862797
_symmetry_Int_Tables_number   1
_chemical_formula_structural   SrEu3(TaN3)2
_chemical_formula_sum   'Sr2 Eu6 Ta4 N12'
_cell_volume   415.32333198
_cell_formula_units_Z   2
loop_
 _symmetry_equiv_pos_site_id
 _symmetry_equiv_pos_as_xyz
  1  'x, y, z'
loop_
 _atom_site_type_symbol
 _atom_site_label
 _atom_site_symmetry_multiplicity
 _atom_site_fract_x
 _atom_site_fract_y
 _atom_site_fract_z
 _atom_site_occupancy
  Sr  Sr0  1  0.471853  0.066677  0.360644  1
  Sr  Sr1  1  0.618092  0.852743  0.077588  1
  Eu  Eu2  1  0.948303  0.551566  0.134256  1
  Eu  Eu3  1  0.164917  0.397508  0.422544  1
  Eu  Eu4  1  0.391375  0.159509  0.919403  1
  Eu  Eu5  1  0.836019  0.601856  0.580640  1
  Eu  Eu6  1  0.054419  0.457411  0.860156  1
  Eu  Eu7  1  0.541208  0.943147  0.638182  1
  Ta  Ta8  1  0.775421  0.765480  0.338747  1
  Ta  Ta9  1  0.234238  0.235152  0.163411  1
  Ta  Ta10  1  0.223425  0.228274  0.664469  1
  Ta  Ta11  1  0.765551  0.770168  0.834844  1
  N  N12  1  0.485696  0.504116  0.751341  1
  N  N13  1  0.512123  0.496834  0.249691  1
  N  N14  1  0.093035  0.900165  0.749473  1
  N  N15  1  0.917201  0.097618  0.256060  1
  N  N16  1  0.988813  0.318481  0.616968  1
  N  N17  1  0.678959  0.010816  0.874670  1
  N  N18  1  0.001752  0.666416  0.384080  1
  N  N19  1  0.312338  0.993255  0.118185  1
  N  N20  1  0.792386  0.600918  0.959455  1
  N  N21  1  0.605213  0.786596  0.463512  1
  N  N22  1  0.188526  0.389189  0.039140  1
  N  N23  1  0.399138  0.206104  0.542543  1
