# generated using pymatgen
data_Ba5SrSn8BiAs
_symmetry_space_group_name_H-M   'P 1'
_cell_length_a   9.21298035
_cell_length_b   9.21298001
_cell_length_c   9.28662595
_cell_angle_alpha   119.73801853
_cell_angle_beta   119.73801349
_cell_angle_gamma   89.99999926
_symmetry_Int_Tables_number   1
_chemical_formula_structural   Ba5SrSn8BiAs
_chemical_formula_sum   'Ba5 Sr1 Sn8 Bi1 As1'
_cell_volume   561.75481575
_cell_formula_units_Z   1
loop_
 _symmetry_equiv_pos_site_id
 _symmetry_equiv_pos_as_xyz
  1  'x, y, z'
loop_
 _atom_site_type_symbol
 _atom_site_label
 _atom_site_symmetry_multiplicity
 _atom_site_fract_x
 _atom_site_fract_y
 _atom_site_fract_z
 _atom_site_occupancy
  Ba  Ba0  1  0.761061  0.761061  0.522122  1
  Ba  Ba1  1  0.676170  0.155201  0.000834  1
  Ba  Ba2  1  0.324664  0.845633  0.000834  1
  Ba  Ba3  1  0.845633  0.676170  0.000834  1
  Ba  Ba4  1  0.155201  0.324664  0.000834  1
  Sr  Sr5  1  0.237779  0.237779  0.475558  1
  Sn  Sn6  1  0.339219  0.837343  0.391025  1
  Sn  Sn7  1  0.656908  0.166279  0.609369  1
  Sn  Sn8  1  0.051806  0.553683  0.391025  1
  Sn  Sn9  1  0.553683  0.339219  0.391025  1
  Sn  Sn10  1  0.166279  0.952461  0.609369  1
  Sn  Sn11  1  0.952461  0.443089  0.609369  1
  Sn  Sn12  1  0.443089  0.656908  0.609369  1
  Sn  Sn13  1  0.837343  0.051806  0.391025  1
  Bi  Bi14  1  0.492782  0.492782  0.985565  1
  As  As15  1  0.005922  0.005922  0.011844  1
