# generated using pymatgen
data_PrScP7Ru11Pt
_symmetry_space_group_name_H-M   'P 1'
_cell_length_a   9.37129284
_cell_length_b   9.48091788
_cell_length_c   3.94815000
_cell_angle_alpha   90.00000000
_cell_angle_beta   90.00000000
_cell_angle_gamma   119.35734329
_symmetry_Int_Tables_number   1
_chemical_formula_structural   PrScP7Ru11Pt
_chemical_formula_sum   'Pr1 Sc1 P7 Ru11 Pt1'
_cell_volume   305.73863334
_cell_formula_units_Z   1
loop_
 _symmetry_equiv_pos_site_id
 _symmetry_equiv_pos_as_xyz
  1  'x, y, z'
loop_
 _atom_site_type_symbol
 _atom_site_label
 _atom_site_symmetry_multiplicity
 _atom_site_fract_x
 _atom_site_fract_y
 _atom_site_fract_z
 _atom_site_occupancy
  Pr  Pr0  1  0.330321  0.660596  0.000000  1
  Sc  Sc1  1  0.670520  0.337963  0.500000  1
  P  P2  1  0.603269  0.706136  0.500000  1
  P  P3  1  0.997801  0.000606  0.000000  1
  P  P4  1  0.269457  0.878943  0.500000  1
  P  P5  1  0.114776  0.396057  0.500000  1
  P  P6  1  0.886665  0.573742  0.000000  1
  P  P7  1  0.432786  0.313893  0.000000  1
  P  P8  1  0.698093  0.127068  0.000000  1
  Ru  Ru9  1  0.395127  0.434848  0.500000  1
  Ru  Ru10  1  0.911349  0.124950  0.500000  1
  Ru  Ru11  1  0.207547  0.085337  0.500000  1
  Ru  Ru12  1  0.878977  0.797532  0.500000  1
  Ru  Ru13  1  0.723935  0.894727  0.000000  1
  Ru  Ru14  1  0.110251  0.838081  0.000000  1
  Ru  Ru15  1  0.164270  0.269125  0.000000  1
  Ru  Ru16  1  0.432050  0.074291  0.000000  1
  Ru  Ru17  1  0.933112  0.359187  0.000000  1
  Ru  Ru18  1  0.646853  0.575758  0.000000  1
  Ru  Ru19  1  0.043114  0.604122  0.500000  1
  Pt  Pt20  1  0.549727  0.947041  0.500000  1
