# generated using pymatgen
data_Li12Tb9Ho3(WO6)8
_symmetry_space_group_name_H-M   'P 1'
_cell_length_a   10.69904493
_cell_length_b   10.70636550
_cell_length_c   10.69892233
_cell_angle_alpha   109.48538339
_cell_angle_beta   109.45764148
_cell_angle_gamma   109.48495985
_symmetry_Int_Tables_number   1
_chemical_formula_structural   Li12Tb9Ho3(WO6)8
_chemical_formula_sum   'Li12 Tb9 Ho3 W8 O48'
_cell_volume   943.25345521
_cell_formula_units_Z   1
loop_
 _symmetry_equiv_pos_site_id
 _symmetry_equiv_pos_as_xyz
  1  'x, y, z'
loop_
 _atom_site_type_symbol
 _atom_site_label
 _atom_site_symmetry_multiplicity
 _atom_site_fract_x
 _atom_site_fract_y
 _atom_site_fract_z
 _atom_site_occupancy
  Li  Li0  1  0.874785  0.749788  0.125030  1
  Li  Li1  1  0.250246  0.875243  0.125031  1
  Li  Li2  1  0.874694  0.124920  0.249987  1
  Li  Li3  1  0.375292  0.625066  0.249988  1
  Li  Li4  1  0.624724  0.249782  0.374479  1
  Li  Li5  1  0.749756  0.624698  0.374480  1
  Li  Li6  1  0.250012  0.374990  0.624999  1
  Li  Li7  1  0.374988  0.750011  0.625001  1
  Li  Li8  1  0.125199  0.875205  0.750234  1
  Li  Li9  1  0.625036  0.375029  0.750235  1
  Li  Li10  1  0.125297  0.250013  0.875285  1
  Li  Li11  1  0.749987  0.125273  0.875285  1
  Tb  Tb12  1  0.124848  0.374848  0.249695  1
  Tb  Tb13  1  0.124636  0.749680  0.374793  1
  Tb  Tb14  1  0.250158  0.125113  0.374794  1
  Tb  Tb15  1  0.749846  0.874963  0.624618  1
  Tb  Tb16  1  0.874774  0.249658  0.624620  1
  Tb  Tb17  1  0.375295  0.125295  0.750592  1
  Tb  Tb18  1  0.874992  0.624993  0.749985  1
  Tb  Tb19  1  0.250247  0.625167  0.875346  1
  Tb  Tb20  1  0.625099  0.750179  0.875346  1
  Ho  Ho21  1  0.749765  0.374927  0.125097  1
  Ho  Ho22  1  0.375333  0.250171  0.125098  1
  Ho  Ho23  1  0.625025  0.875025  0.250050  1
  W  W24  1  0.000531  0.000204  0.999989  1
  W  W25  1  0.500392  0.000727  0.001081  1
  W  W26  1  0.500688  0.500352  0.001081  1
  W  W27  1  0.999458  0.499786  0.999989  1
  W  W28  1  0.999451  0.999629  0.499430  1
  W  W29  1  0.999413  0.499605  0.499427  1
  W  W30  1  0.499980  0.999802  0.499431  1
  W  W31  1  0.500015  0.499823  0.499428  1
  O  O32  1  0.120015  0.201206  0.027816  1
  O  O33  1  0.907801  0.326609  0.027816  1
  O  O34  1  0.409614  0.881769  0.083444  1
  O  O35  1  0.673831  0.701675  0.083445  1
  O  O36  1  0.673360  0.972462  0.092448  1
  O  O37  1  0.419087  0.619985  0.092448  1
  O  O38  1  0.201822  0.027989  0.118468  1
  O  O39  1  0.916647  0.590480  0.118469  1
  O  O40  1  0.582074  0.202258  0.173587  1
  O  O41  1  0.591514  0.471331  0.173588  1
  O  O42  1  0.027161  0.118442  0.200793  1
  O  O43  1  0.173631  0.582352  0.200794  1
  O  O44  1  0.916544  0.326106  0.298135  1
  O  O45  1  0.381592  0.472030  0.298135  1
  O  O46  1  0.298949  0.917513  0.326175  1
  O  O47  1  0.027225  0.908662  0.326175  1
  O  O48  1  0.472212  0.298796  0.379873  1
  O  O49  1  0.907662  0.581078  0.379874  1
  O  O50  1  0.527788  0.826632  0.407708  1
  O  O51  1  0.879920  0.081077  0.407710  1
  O  O52  1  0.618465  0.090526  0.416652  1
  O  O53  1  0.798190  0.826127  0.416654  1
  O  O54  1  0.299254  0.381616  0.472789  1
  O  O55  1  0.173535  0.591172  0.472789  1
  O  O56  1  0.701041  0.618563  0.527172  1
  O  O57  1  0.826131  0.408609  0.527172  1
  O  O58  1  0.200503  0.173622  0.582300  1
  O  O59  1  0.381798  0.908678  0.582301  1
  O  O60  1  0.118102  0.917443  0.591127  1
  O  O61  1  0.473026  0.173683  0.591128  1
  O  O62  1  0.526981  0.700614  0.618054  1
  O  O63  1  0.091075  0.417442  0.618056  1
  O  O64  1  0.700745  0.082356  0.673586  1
  O  O65  1  0.972842  0.091231  0.673587  1
  O  O66  1  0.082199  0.673606  0.700460  1
  O  O67  1  0.618264  0.526856  0.700461  1
  O  O68  1  0.972776  0.881488  0.799000  1
  O  O69  1  0.826225  0.417514  0.799002  1
  O  O70  1  0.408788  0.526684  0.826637  1
  O  O71  1  0.417849  0.799952  0.826638  1
  O  O72  1  0.082290  0.408626  0.881798  1
  O  O73  1  0.799510  0.973174  0.881798  1
  O  O74  1  0.583328  0.381899  0.909728  1
  O  O75  1  0.326401  0.027830  0.909728  1
  O  O76  1  0.326873  0.299347  0.919222  1
  O  O77  1  0.592349  0.119875  0.919222  1
  O  O78  1  0.091212  0.673667  0.973055  1
  O  O79  1  0.881844  0.799388  0.973056  1
