# generated using pymatgen
data_TbSc4Bi2Pb
_symmetry_space_group_name_H-M   'P 1'
_cell_length_a   7.88389900
_cell_length_b   9.09457300
_cell_length_c   11.55004100
_cell_angle_alpha   90.00000000
_cell_angle_beta   90.00000000
_cell_angle_gamma   90.00000000
_symmetry_Int_Tables_number   1
_chemical_formula_structural   TbSc4Bi2Pb
_chemical_formula_sum   'Tb4 Sc16 Bi8 Pb4'
_cell_volume   828.14596675
_cell_formula_units_Z   4
loop_
 _symmetry_equiv_pos_site_id
 _symmetry_equiv_pos_as_xyz
  1  'x, y, z'
loop_
 _atom_site_type_symbol
 _atom_site_label
 _atom_site_symmetry_multiplicity
 _atom_site_fract_x
 _atom_site_fract_y
 _atom_site_fract_z
 _atom_site_occupancy
  Tb  Tb0  1  0.313783  0.251052  0.219439  1
  Tb  Tb1  1  0.813783  0.248948  0.280561  1
  Tb  Tb2  1  0.686217  0.751052  0.780561  1
  Tb  Tb3  1  0.186217  0.748948  0.719439  1
  Sc  Sc4  1  0.347206  0.750502  0.222581  1
  Sc  Sc5  1  0.847206  0.749498  0.277419  1
  Sc  Sc6  1  0.652794  0.250502  0.777419  1
  Sc  Sc7  1  0.152794  0.249498  0.722581  1
  Sc  Sc8  1  0.695505  0.565881  0.062748  1
  Sc  Sc9  1  0.195505  0.934119  0.437252  1
  Sc  Sc10  1  0.304495  0.065881  0.937252  1
  Sc  Sc11  1  0.804495  0.434119  0.562748  1
  Sc  Sc12  1  0.305620  0.433653  0.936385  1
  Sc  Sc13  1  0.805620  0.066347  0.563615  1
  Sc  Sc14  1  0.694380  0.933653  0.063615  1
  Sc  Sc15  1  0.194380  0.566347  0.436385  1
  Sc  Sc16  1  0.483764  0.249134  0.490272  1
  Sc  Sc17  1  0.983764  0.250866  0.009728  1
  Sc  Sc18  1  0.516236  0.749134  0.509728  1
  Sc  Sc19  1  0.016236  0.750866  0.990272  1
  Bi  Bi20  1  0.401718  0.749784  0.967540  1
  Bi  Bi21  1  0.901718  0.750216  0.532460  1
  Bi  Bi22  1  0.598282  0.249784  0.032460  1
  Bi  Bi23  1  0.098282  0.250216  0.467540  1
  Bi  Bi24  1  0.438386  0.009647  0.671793  1
  Bi  Bi25  1  0.938386  0.490353  0.828207  1
  Bi  Bi26  1  0.561614  0.509647  0.328207  1
  Bi  Bi27  1  0.061614  0.990353  0.171793  1
  Pb  Pb28  1  0.561085  0.990758  0.328097  1
  Pb  Pb29  1  0.061085  0.509242  0.171903  1
  Pb  Pb30  1  0.438915  0.490758  0.671903  1
  Pb  Pb31  1  0.938915  0.009242  0.828097  1
