# generated using pymatgen
data_Y4Th2CoOs
_symmetry_space_group_name_H-M   'P 1'
_cell_length_a   6.39102600
_cell_length_b   7.27380900
_cell_length_c   9.59395400
_cell_angle_alpha   90.00000000
_cell_angle_beta   90.00000000
_cell_angle_gamma   89.96992562
_symmetry_Int_Tables_number   1
_chemical_formula_structural   Y4Th2CoOs
_chemical_formula_sum   'Y8 Th4 Co2 Os2'
_cell_volume   445.99506107
_cell_formula_units_Z   2
loop_
 _symmetry_equiv_pos_site_id
 _symmetry_equiv_pos_as_xyz
  1  'x, y, z'
loop_
 _atom_site_type_symbol
 _atom_site_label
 _atom_site_symmetry_multiplicity
 _atom_site_fract_x
 _atom_site_fract_y
 _atom_site_fract_z
 _atom_site_occupancy
  Y  Y0  1  0.173528  0.166785  0.070072  1
  Y  Y1  1  0.826472  0.833215  0.929928  1
  Y  Y2  1  0.668488  0.326638  0.934781  1
  Y  Y3  1  0.826472  0.833215  0.570072  1
  Y  Y4  1  0.331512  0.673362  0.065219  1
  Y  Y5  1  0.173528  0.166785  0.429928  1
  Y  Y6  1  0.331512  0.673362  0.434781  1
  Y  Y7  1  0.668488  0.326638  0.565219  1
  Th  Th8  1  0.667242  0.046580  0.250000  1
  Th  Th9  1  0.332758  0.953420  0.750000  1
  Th  Th10  1  0.151017  0.440920  0.750000  1
  Th  Th11  1  0.848983  0.559080  0.250000  1
  Co  Co12  1  0.976608  0.135555  0.750000  1
  Co  Co13  1  0.023392  0.864445  0.250000  1
  Os  Os14  1  0.470999  0.372383  0.250000  1
  Os  Os15  1  0.529001  0.627617  0.750000  1
