# generated using pymatgen
data_Dy6Mn15Co2NiP12
_symmetry_space_group_name_H-M   'P 1'
_cell_length_a   3.65047800
_cell_length_b   10.85201300
_cell_length_c   12.56833100
_cell_angle_alpha   90.00000000
_cell_angle_beta   90.00000000
_cell_angle_gamma   90.00000000
_symmetry_Int_Tables_number   1
_chemical_formula_structural   Dy6Mn15Co2NiP12
_chemical_formula_sum   'Dy6 Mn15 Co2 Ni1 P12'
_cell_volume   497.89486884
_cell_formula_units_Z   1
loop_
 _symmetry_equiv_pos_site_id
 _symmetry_equiv_pos_as_xyz
  1  'x, y, z'
loop_
 _atom_site_type_symbol
 _atom_site_label
 _atom_site_symmetry_multiplicity
 _atom_site_fract_x
 _atom_site_fract_y
 _atom_site_fract_z
 _atom_site_occupancy
  Dy  Dy0  1  0.000000  0.500000  0.531984  1
  Dy  Dy1  1  0.500000  0.000000  0.469788  1
  Dy  Dy2  1  0.500000  0.822262  0.203970  1
  Dy  Dy3  1  0.500000  0.177738  0.203970  1
  Dy  Dy4  1  0.000000  0.677976  0.793633  1
  Dy  Dy5  1  0.000000  0.322024  0.793633  1
  Mn  Mn6  1  0.500000  0.500000  0.165618  1
  Mn  Mn7  1  0.000000  0.000000  0.838390  1
  Mn  Mn8  1  0.000000  0.500000  0.992227  1
  Mn  Mn9  1  0.500000  0.332893  0.996691  1
  Mn  Mn10  1  0.500000  0.667107  0.996691  1
  Mn  Mn11  1  0.000000  0.170661  0.003075  1
  Mn  Mn12  1  0.000000  0.829339  0.003075  1
  Mn  Mn13  1  0.500000  0.297766  0.431895  1
  Mn  Mn14  1  0.500000  0.702234  0.431895  1
  Mn  Mn15  1  0.000000  0.200754  0.567762  1
  Mn  Mn16  1  0.000000  0.799246  0.567762  1
  Mn  Mn17  1  0.500000  0.881981  0.703999  1
  Mn  Mn18  1  0.500000  0.118019  0.703999  1
  Mn  Mn19  1  0.000000  0.618847  0.297452  1
  Mn  Mn20  1  0.000000  0.381153  0.297452  1
  Co  Co21  1  0.500000  0.500000  0.705074  1
  Co  Co22  1  0.500000  0.000000  0.007977  1
  Ni  Ni23  1  0.000000  0.000000  0.291551  1
  P  P24  1  0.500000  0.500000  0.880432  1
  P  P25  1  0.000000  0.000000  0.112171  1
  P  P26  1  0.500000  0.500000  0.358803  1
  P  P27  1  0.000000  0.000000  0.643051  1
  P  P28  1  0.500000  0.317287  0.618548  1
  P  P29  1  0.500000  0.682713  0.618548  1
  P  P30  1  0.000000  0.182806  0.381051  1
  P  P31  1  0.000000  0.817194  0.381051  1
  P  P32  1  0.500000  0.846923  0.888484  1
  P  P33  1  0.500000  0.153077  0.888484  1
  P  P34  1  0.000000  0.653928  0.114908  1
  P  P35  1  0.000000  0.346072  0.114908  1
