# generated using pymatgen
data_Pr7Sm(Y3Sn4)4
_symmetry_space_group_name_H-M   'P 1'
_cell_length_a   8.11733270
_cell_length_b   8.33924023
_cell_length_c   15.70258094
_cell_angle_alpha   90.02481353
_cell_angle_beta   90.22680673
_cell_angle_gamma   89.66154708
_symmetry_Int_Tables_number   1
_chemical_formula_structural   Pr7Sm(Y3Sn4)4
_chemical_formula_sum   'Pr7 Sm1 Y12 Sn16'
_cell_volume   1062.91823041
_cell_formula_units_Z   1
loop_
 _symmetry_equiv_pos_site_id
 _symmetry_equiv_pos_as_xyz
  1  'x, y, z'
loop_
 _atom_site_type_symbol
 _atom_site_label
 _atom_site_symmetry_multiplicity
 _atom_site_fract_x
 _atom_site_fract_y
 _atom_site_fract_z
 _atom_site_occupancy
  Pr  Pr0  1  0.009184  0.178636  0.597394  1
  Pr  Pr1  1  0.491622  0.677459  0.403748  1
  Pr  Pr2  1  0.991427  0.820833  0.095426  1
  Pr  Pr3  1  0.489387  0.676779  0.096082  1
  Pr  Pr4  1  0.991400  0.822249  0.403907  1
  Pr  Pr5  1  0.507613  0.322809  0.596153  1
  Pr  Pr6  1  0.009063  0.179316  0.903501  1
  Sm  Sm7  1  0.512883  0.322458  0.902799  1
  Y  Y8  1  0.353080  0.833607  0.875658  1
  Y  Y9  1  0.850968  0.665640  0.623958  1
  Y  Y10  1  0.648404  0.165796  0.375492  1
  Y  Y11  1  0.145658  0.335880  0.122327  1
  Y  Y12  1  0.646014  0.165519  0.124243  1
  Y  Y13  1  0.148126  0.334188  0.376523  1
  Y  Y14  1  0.352205  0.834405  0.625373  1
  Y  Y15  1  0.854451  0.664451  0.877436  1
  Y  Y16  1  0.186299  0.500128  0.750654  1
  Y  Y17  1  0.685428  0.998889  0.750350  1
  Y  Y18  1  0.813110  0.499416  0.249213  1
  Y  Y19  1  0.314268  0.001208  0.249691  1
  Sn  Sn20  1  0.311542  0.040679  0.040827  1
  Sn  Sn21  1  0.810907  0.458975  0.458646  1
  Sn  Sn22  1  0.688128  0.960989  0.541532  1
  Sn  Sn23  1  0.196492  0.537947  0.957160  1
  Sn  Sn24  1  0.687995  0.962100  0.958417  1
  Sn  Sn25  1  0.188512  0.541981  0.541433  1
  Sn  Sn26  1  0.312130  0.039467  0.458883  1
  Sn  Sn27  1  0.804472  0.457714  0.040707  1
  Sn  Sn28  1  0.551921  0.620101  0.750622  1
  Sn  Sn29  1  0.050711  0.877007  0.750421  1
  Sn  Sn30  1  0.447233  0.378169  0.250075  1
  Sn  Sn31  1  0.949202  0.123428  0.249389  1
  Sn  Sn32  1  0.318857  0.144567  0.751297  1
  Sn  Sn33  1  0.815039  0.357642  0.750511  1
  Sn  Sn34  1  0.683572  0.857129  0.250067  1
  Sn  Sn35  1  0.182695  0.642436  0.250085  1
