# generated using pymatgen
data_La3Dy7(TlSb)4
_symmetry_space_group_name_H-M   'P 1'
_cell_length_a   9.18666069
_cell_length_b   8.45746453
_cell_length_c   8.27959500
_cell_angle_alpha   89.68954653
_cell_angle_beta   90.03478912
_cell_angle_gamma   124.48850288
_symmetry_Int_Tables_number   1
_chemical_formula_structural   La3Dy7(TlSb)4
_chemical_formula_sum   'La3 Dy7 Tl4 Sb4'
_cell_volume   530.21528134
_cell_formula_units_Z   1
loop_
 _symmetry_equiv_pos_site_id
 _symmetry_equiv_pos_as_xyz
  1  'x, y, z'
loop_
 _atom_site_type_symbol
 _atom_site_label
 _atom_site_symmetry_multiplicity
 _atom_site_fract_x
 _atom_site_fract_y
 _atom_site_fract_z
 _atom_site_occupancy
  La  La0  1  0.053359  0.362267  0.319129  1
  La  La1  1  0.948088  0.643267  0.681147  1
  La  La2  1  0.445558  0.140827  0.820687  1
  Dy  Dy3  1  0.775418  0.514018  0.159158  1
  Dy  Dy4  1  0.552129  0.845285  0.176124  1
  Dy  Dy5  1  0.223651  0.485830  0.839214  1
  Dy  Dy6  1  0.726238  0.989763  0.658115  1
  Dy  Dy7  1  0.275793  0.014106  0.340545  1
  Dy  Dy8  1  0.000294  0.999382  0.001240  1
  Dy  Dy9  1  0.500861  0.502261  0.498831  1
  Tl  Tl10  1  0.368725  0.372946  0.131381  1
  Tl  Tl11  1  0.630615  0.631227  0.869237  1
  Tl  Tl12  1  0.129967  0.128916  0.630049  1
  Tl  Tl13  1  0.866078  0.874362  0.364640  1
  Sb  Sb14  1  0.818714  0.226190  0.970469  1
  Sb  Sb15  1  0.180430  0.762935  0.042003  1
  Sb  Sb16  1  0.672974  0.267341  0.465007  1
  Sb  Sb17  1  0.331104  0.739077  0.533023  1
