# generated using pymatgen
data_Tm3NiAs2Ir3
_symmetry_space_group_name_H-M   'P 1'
_cell_length_a   6.69780400
_cell_length_b   6.69780414
_cell_length_c   4.05591900
_cell_angle_alpha   90.00000000
_cell_angle_beta   90.00000000
_cell_angle_gamma   120.00000918
_symmetry_Int_Tables_number   1
_chemical_formula_structural   Tm3NiAs2Ir3
_chemical_formula_sum   'Tm3 Ni1 As2 Ir3'
_cell_volume   157.57406648
_cell_formula_units_Z   1
loop_
 _symmetry_equiv_pos_site_id
 _symmetry_equiv_pos_as_xyz
  1  'x, y, z'
loop_
 _atom_site_type_symbol
 _atom_site_label
 _atom_site_symmetry_multiplicity
 _atom_site_fract_x
 _atom_site_fract_y
 _atom_site_fract_z
 _atom_site_occupancy
  Tm  Tm0  1  0.000000  0.391807  0.500000  1
  Tm  Tm1  1  0.608193  0.608193  0.500000  1
  Tm  Tm2  1  0.391807  0.000000  0.500000  1
  Ni  Ni3  1  0.000000  0.000000  0.500000  1
  As  As4  1  0.666667  0.333333  0.000000  1
  As  As5  1  0.333333  0.666667  0.000000  1
  Ir  Ir6  1  0.000000  0.766560  0.000000  1
  Ir  Ir7  1  0.233440  0.233440  0.000000  1
  Ir  Ir8  1  0.766560  0.000000  0.000000  1
