# generated using pymatgen
data_Sr2GaNiF10
_symmetry_space_group_name_H-M   'P 1'
_cell_length_a   5.77972568
_cell_length_b   5.77759459
_cell_length_c   7.92101678
_cell_angle_alpha   69.91238749
_cell_angle_beta   69.89471421
_cell_angle_gamma   71.43630797
_symmetry_Int_Tables_number   1
_chemical_formula_structural   Sr2GaNiF10
_chemical_formula_sum   'Sr2 Ga1 Ni1 F10'
_cell_volume   227.18198774
_cell_formula_units_Z   1
loop_
 _symmetry_equiv_pos_site_id
 _symmetry_equiv_pos_as_xyz
  1  'x, y, z'
loop_
 _atom_site_type_symbol
 _atom_site_label
 _atom_site_symmetry_multiplicity
 _atom_site_fract_x
 _atom_site_fract_y
 _atom_site_fract_z
 _atom_site_occupancy
  Sr  Sr0  1  0.547213  0.455109  0.249395  1
  Sr  Sr1  1  0.452787  0.544891  0.750605  1
  Ga  Ga2  1  0.000000  0.000000  0.000000  1
  Ni  Ni3  1  0.000000  0.000000  0.500000  1
  F  F4  1  0.766083  0.800069  0.611470  1
  F  F5  1  0.201286  0.234320  0.889227  1
  F  F6  1  0.233917  0.199931  0.388530  1
  F  F7  1  0.798714  0.765680  0.110773  1
  F  F8  1  0.065682  0.934591  0.750115  1
  F  F9  1  0.934318  0.065409  0.249885  1
  F  F10  1  0.294151  0.727212  0.026768  1
  F  F11  1  0.271011  0.706626  0.473700  1
  F  F12  1  0.705849  0.272788  0.973232  1
  F  F13  1  0.728989  0.293374  0.526300  1
