# generated using pymatgen
data_LaErPa2(NiP)4
_symmetry_space_group_name_H-M   'P 1'
_cell_length_a   3.91337400
_cell_length_b   3.91337288
_cell_length_c   15.75388700
_cell_angle_alpha   90.00000000
_cell_angle_beta   90.00000000
_cell_angle_gamma   120.00000951
_symmetry_Int_Tables_number   1
_chemical_formula_structural   LaErPa2(NiP)4
_chemical_formula_sum   'La1 Er1 Pa2 Ni4 P4'
_cell_volume   208.93966877
_cell_formula_units_Z   1
loop_
 _symmetry_equiv_pos_site_id
 _symmetry_equiv_pos_as_xyz
  1  'x, y, z'
loop_
 _atom_site_type_symbol
 _atom_site_label
 _atom_site_symmetry_multiplicity
 _atom_site_fract_x
 _atom_site_fract_y
 _atom_site_fract_z
 _atom_site_occupancy
  La  La0  1  0.000000  0.000000  0.750000  1
  Er  Er1  1  0.000000  0.000000  0.250000  1
  Pa  Pa2  1  0.000000  0.000000  0.497435  1
  Pa  Pa3  1  0.000000  0.000000  0.002565  1
  Ni  Ni4  1  0.333333  0.666667  0.385300  1
  Ni  Ni5  1  0.666667  0.333333  0.605800  1
  Ni  Ni6  1  0.666667  0.333333  0.894200  1
  Ni  Ni7  1  0.333333  0.666667  0.114700  1
  P  P8  1  0.333333  0.666667  0.878249  1
  P  P9  1  0.666667  0.333333  0.127691  1
  P  P10  1  0.666667  0.333333  0.372309  1
  P  P11  1  0.333333  0.666667  0.621751  1
