# generated using pymatgen
data_MnNiSb12RuPt
_symmetry_space_group_name_H-M   'P 1'
_cell_length_a   8.06612305
_cell_length_b   8.08484510
_cell_length_c   9.34189571
_cell_angle_alpha   54.64238732
_cell_angle_beta   54.99734980
_cell_angle_gamma   70.65491752
_symmetry_Int_Tables_number   1
_chemical_formula_structural   MnNiSb12RuPt
_chemical_formula_sum   'Mn1 Ni1 Sb12 Ru1 Pt1'
_cell_volume   406.98241176
_cell_formula_units_Z   1
loop_
 _symmetry_equiv_pos_site_id
 _symmetry_equiv_pos_as_xyz
  1  'x, y, z'
loop_
 _atom_site_type_symbol
 _atom_site_label
 _atom_site_symmetry_multiplicity
 _atom_site_fract_x
 _atom_site_fract_y
 _atom_site_fract_z
 _atom_site_occupancy
  Mn  Mn0  1  0.500000  0.000000  0.000000  1
  Ni  Ni1  1  0.500000  0.000000  0.500000  1
  Sb  Sb2  1  0.160610  0.155649  0.176079  1
  Sb  Sb3  1  0.839390  0.844351  0.823921  1
  Sb  Sb4  1  0.837822  0.851323  0.498088  1
  Sb  Sb5  1  0.162178  0.148677  0.501912  1
  Sb  Sb6  1  0.812454  0.505871  0.335676  1
  Sb  Sb7  1  0.187546  0.494129  0.664324  1
  Sb  Sb8  1  0.504933  0.822134  0.335103  1
  Sb  Sb9  1  0.495067  0.177866  0.664897  1
  Sb  Sb10  1  0.652239  0.333824  0.851707  1
  Sb  Sb11  1  0.347761  0.666176  0.148293  1
  Sb  Sb12  1  0.661131  0.334613  0.158822  1
  Sb  Sb13  1  0.338869  0.665387  0.841178  1
  Ru  Ru14  1  0.000000  0.500000  0.000000  1
  Pt  Pt15  1  0.000000  0.500000  0.500000  1
