# generated using pymatgen
data_LuTcH5
_symmetry_space_group_name_H-M   'P 1'
_cell_length_a   4.51691600
_cell_length_b   4.39193600
_cell_length_c   11.38731800
_cell_angle_alpha   90.00000000
_cell_angle_beta   90.00000000
_cell_angle_gamma   90.00000000
_symmetry_Int_Tables_number   1
_chemical_formula_structural   LuTcH5
_chemical_formula_sum   'Lu4 Tc4 H20'
_cell_volume   225.90168269
_cell_formula_units_Z   4
loop_
 _symmetry_equiv_pos_site_id
 _symmetry_equiv_pos_as_xyz
  1  'x, y, z'
loop_
 _atom_site_type_symbol
 _atom_site_label
 _atom_site_symmetry_multiplicity
 _atom_site_fract_x
 _atom_site_fract_y
 _atom_site_fract_z
 _atom_site_occupancy
  Lu  Lu0  1  0.263485  0.247077  0.645503  1
  Lu  Lu1  1  0.763485  0.252923  0.354497  1
  Lu  Lu2  1  0.236515  0.752923  0.145503  1
  Lu  Lu3  1  0.736515  0.747077  0.854497  1
  Tc  Tc4  1  0.273358  0.229179  0.913959  1
  Tc  Tc5  1  0.773358  0.270821  0.086041  1
  Tc  Tc6  1  0.226642  0.770821  0.413959  1
  Tc  Tc7  1  0.726642  0.729179  0.586041  1
  H  H8  1  0.481697  0.495283  0.496986  1
  H  H9  1  0.981697  0.004717  0.503014  1
  H  H10  1  0.018303  0.504717  0.996986  1
  H  H11  1  0.518303  0.995283  0.003014  1
  H  H12  1  0.219907  0.934894  0.820248  1
  H  H13  1  0.719907  0.565106  0.179752  1
  H  H14  1  0.280093  0.065106  0.320248  1
  H  H15  1  0.780093  0.434894  0.679752  1
  H  H16  1  0.090661  0.431489  0.807774  1
  H  H17  1  0.590661  0.068511  0.192226  1
  H  H18  1  0.409339  0.568511  0.307774  1
  H  H19  1  0.909339  0.931489  0.692226  1
  H  H20  1  0.561424  0.263221  0.817181  1
  H  H21  1  0.061424  0.236779  0.182819  1
  H  H22  1  0.938576  0.736779  0.317181  1
  H  H23  1  0.438576  0.763221  0.682819  1
  H  H24  1  0.001180  0.001409  0.996524  1
  H  H25  1  0.501180  0.498591  0.003476  1
  H  H26  1  0.498820  0.998591  0.496524  1
  H  H27  1  0.998820  0.501409  0.503476  1
