# generated using pymatgen
data_Zr10In2Sn3BiPb2
_symmetry_space_group_name_H-M   'P 1'
_cell_length_a   8.87452827
_cell_length_b   8.89318427
_cell_length_c   6.02526600
_cell_angle_alpha   90.00000000
_cell_angle_beta   90.00000000
_cell_angle_gamma   119.97934853
_symmetry_Int_Tables_number   1
_chemical_formula_structural   Zr10In2Sn3BiPb2
_chemical_formula_sum   'Zr10 In2 Sn3 Bi1 Pb2'
_cell_volume   411.90756025
_cell_formula_units_Z   1
loop_
 _symmetry_equiv_pos_site_id
 _symmetry_equiv_pos_as_xyz
  1  'x, y, z'
loop_
 _atom_site_type_symbol
 _atom_site_label
 _atom_site_symmetry_multiplicity
 _atom_site_fract_x
 _atom_site_fract_y
 _atom_site_fract_z
 _atom_site_occupancy
  Zr  Zr0  1  0.663140  0.333180  0.999824  1
  Zr  Zr1  1  0.338776  0.666557  0.999858  1
  Zr  Zr2  1  0.338776  0.666557  0.500142  1
  Zr  Zr3  1  0.663140  0.333180  0.500176  1
  Zr  Zr4  1  0.715079  0.719825  0.750000  1
  Zr  Zr5  1  0.284328  0.005688  0.750000  1
  Zr  Zr6  1  0.000650  0.278024  0.750000  1
  Zr  Zr7  1  0.283586  0.283625  0.250000  1
  Zr  Zr8  1  0.717236  0.995593  0.250000  1
  Zr  Zr9  1  0.995517  0.718590  0.250000  1
  In  In10  1  0.000307  0.000615  0.000509  1
  In  In11  1  0.000307  0.000615  0.499491  1
  Sn  Sn12  1  0.382554  0.383025  0.750000  1
  Sn  Sn13  1  0.617892  0.001532  0.750000  1
  Sn  Sn14  1  0.617199  0.616562  0.250000  1
  Bi  Bi15  1  0.001035  0.617093  0.750000  1
  Pb  Pb16  1  0.380979  0.998805  0.250000  1
  Pb  Pb17  1  0.999499  0.380933  0.250000  1
