# generated using pymatgen
data_Ta6Ti4Ge6C
_symmetry_space_group_name_H-M   'P 1'
_cell_length_a   7.63704100
_cell_length_b   7.63704204
_cell_length_c   5.19364500
_cell_angle_alpha   90.00000000
_cell_angle_beta   90.00000000
_cell_angle_gamma   119.99999118
_symmetry_Int_Tables_number   1
_chemical_formula_structural   Ta6Ti4Ge6C
_chemical_formula_sum   'Ta6 Ti4 Ge6 C1'
_cell_volume   262.33318649
_cell_formula_units_Z   1
loop_
 _symmetry_equiv_pos_site_id
 _symmetry_equiv_pos_as_xyz
  1  'x, y, z'
loop_
 _atom_site_type_symbol
 _atom_site_label
 _atom_site_symmetry_multiplicity
 _atom_site_fract_x
 _atom_site_fract_y
 _atom_site_fract_z
 _atom_site_occupancy
  Ta  Ta0  1  0.000000  0.763981  0.249448  1
  Ta  Ta1  1  0.236019  0.236019  0.249448  1
  Ta  Ta2  1  0.763981  0.000000  0.249448  1
  Ta  Ta3  1  0.000000  0.236019  0.750552  1
  Ta  Ta4  1  0.763981  0.763981  0.750552  1
  Ta  Ta5  1  0.236019  0.000000  0.750552  1
  Ti  Ti6  1  0.333333  0.666667  0.000000  1
  Ti  Ti7  1  0.666667  0.333333  0.000000  1
  Ti  Ti8  1  0.666667  0.333333  0.500000  1
  Ti  Ti9  1  0.333333  0.666667  0.500000  1
  Ge  Ge10  1  0.000000  0.404214  0.245847  1
  Ge  Ge11  1  0.595786  0.595786  0.245847  1
  Ge  Ge12  1  0.404214  0.000000  0.245847  1
  Ge  Ge13  1  0.000000  0.595786  0.754153  1
  Ge  Ge14  1  0.404214  0.404214  0.754153  1
  Ge  Ge15  1  0.595786  0.000000  0.754153  1
  C  C16  1  0.000000  0.000000  0.500000  1
