# generated using pymatgen
data_Ta3CrRe2Si3
_symmetry_space_group_name_H-M   'P 1'
_cell_length_a   6.80366552
_cell_length_b   6.80366480
_cell_length_c   3.31574000
_cell_angle_alpha   90.00000000
_cell_angle_beta   90.00000000
_cell_angle_gamma   120.37026548
_symmetry_Int_Tables_number   1
_chemical_formula_structural   Ta3CrRe2Si3
_chemical_formula_sum   'Ta3 Cr1 Re2 Si3'
_cell_volume   132.42332002
_cell_formula_units_Z   1
loop_
 _symmetry_equiv_pos_site_id
 _symmetry_equiv_pos_as_xyz
  1  'x, y, z'
loop_
 _atom_site_type_symbol
 _atom_site_label
 _atom_site_symmetry_multiplicity
 _atom_site_fract_x
 _atom_site_fract_y
 _atom_site_fract_z
 _atom_site_occupancy
  Ta  Ta0  1  0.411006  0.411006  0.500000  1
  Ta  Ta1  1  0.599384  0.994425  0.500000  1
  Ta  Ta2  1  0.994425  0.599384  0.500000  1
  Cr  Cr3  1  0.744466  0.744466  0.000000  1
  Re  Re4  1  0.255880  0.001629  0.000000  1
  Re  Re5  1  0.001629  0.255880  0.000000  1
  Si  Si6  1  0.667756  0.336191  0.000000  1
  Si  Si7  1  0.336191  0.667756  0.000000  1
  Si  Si8  1  0.989264  0.989264  0.500000  1
