# generated using pymatgen
data_Ho3Mg3BiAu2
_symmetry_space_group_name_H-M   'P 1'
_cell_length_a   7.72039205
_cell_length_b   7.72074332
_cell_length_c   4.19810400
_cell_angle_alpha   90.00000000
_cell_angle_beta   90.00000000
_cell_angle_gamma   120.01119607
_symmetry_Int_Tables_number   1
_chemical_formula_structural   Ho3Mg3BiAu2
_chemical_formula_sum   'Ho3 Mg3 Bi1 Au2'
_cell_volume   216.68721427
_cell_formula_units_Z   1
loop_
 _symmetry_equiv_pos_site_id
 _symmetry_equiv_pos_as_xyz
  1  'x, y, z'
loop_
 _atom_site_type_symbol
 _atom_site_label
 _atom_site_symmetry_multiplicity
 _atom_site_fract_x
 _atom_site_fract_y
 _atom_site_fract_z
 _atom_site_occupancy
  Ho  Ho0  1  0.580665  0.975190  0.500000  1
  Ho  Ho1  1  0.394599  0.419367  0.500000  1
  Ho  Ho2  1  0.024845  0.605461  0.500000  1
  Mg  Mg3  1  0.237504  0.988932  0.000000  1
  Mg  Mg4  1  0.010927  0.248536  0.000000  1
  Mg  Mg5  1  0.751472  0.762502  0.000000  1
  Bi  Bi6  1  0.666702  0.333373  0.000000  1
  Au  Au7  1  0.333398  0.666703  0.000000  1
  Au  Au8  1  0.999988  0.000029  0.500000  1
