# generated using pymatgen
data_Sc12Ga(RhI8)2
_symmetry_space_group_name_H-M   'P 1'
_cell_length_a   9.19216608
_cell_length_b   12.22938205
_cell_length_c   12.88421145
_cell_angle_alpha   116.93167274
_cell_angle_beta   101.04028890
_cell_angle_gamma   100.46294887
_symmetry_Int_Tables_number   1
_chemical_formula_structural   Sc12Ga(RhI8)2
_chemical_formula_sum   'Sc12 Ga1 Rh2 I16'
_cell_volume   1206.33330365
_cell_formula_units_Z   1
loop_
 _symmetry_equiv_pos_site_id
 _symmetry_equiv_pos_as_xyz
  1  'x, y, z'
loop_
 _atom_site_type_symbol
 _atom_site_label
 _atom_site_symmetry_multiplicity
 _atom_site_fract_x
 _atom_site_fract_y
 _atom_site_fract_z
 _atom_site_occupancy
  Sc  Sc0  1  0.098126  0.274941  0.362183  1
  Sc  Sc1  1  0.901874  0.725059  0.637817  1
  Sc  Sc2  1  0.774245  0.535493  0.332581  1
  Sc  Sc3  1  0.225755  0.464507  0.667419  1
  Sc  Sc4  1  0.281027  0.725416  0.637604  1
  Sc  Sc5  1  0.718973  0.274584  0.362396  1
  Sc  Sc6  1  0.153245  0.535778  0.332373  1
  Sc  Sc7  1  0.846755  0.464222  0.667627  1
  Sc  Sc8  1  0.410858  0.367632  0.286584  1
  Sc  Sc9  1  0.589142  0.632368  0.713416  1
  Sc  Sc10  1  0.461358  0.318127  0.520952  1
  Sc  Sc11  1  0.538642  0.681873  0.479048  1
  Ga  Ga12  1  0.000000  0.500000  0.500000  1
  Rh  Rh13  1  0.339568  0.500146  0.499891  1
  Rh  Rh14  1  0.660433  0.499854  0.500109  1
  I  I15  1  0.390449  0.732337  0.874137  1
  I  I16  1  0.609551  0.267663  0.125863  1
  I  I17  1  0.181523  0.948257  0.773791  1
  I  I18  1  0.818477  0.051743  0.226209  1
  I  I19  1  0.340770  0.106470  0.259882  1
  I  I20  1  0.659230  0.893530  0.740118  1
  I  I21  1  0.562695  0.436920  0.792474  1
  I  I22  1  0.437305  0.563080  0.207526  1
  I  I23  1  0.301452  0.819733  0.462988  1
  I  I24  1  0.698548  0.180267  0.537012  1
  I  I25  1  0.166102  0.180759  0.536624  1
  I  I26  1  0.833898  0.819241  0.463376  1
  I  I27  1  0.927600  0.571761  0.167529  1
  I  I28  1  0.072400  0.428239  0.832471  1
  I  I29  1  0.922106  0.731908  0.874228  1
  I  I30  1  0.077894  0.268092  0.125772  1
