# generated using pymatgen
data_YbHo3(Si5Os3)2
_symmetry_space_group_name_H-M   'P 1'
_cell_length_a   8.15738979
_cell_length_b   8.14427710
_cell_length_c   5.77252021
_cell_angle_alpha   70.57123528
_cell_angle_beta   70.36938312
_cell_angle_gamma   94.08090315
_symmetry_Int_Tables_number   1
_chemical_formula_structural   YbHo3(Si5Os3)2
_chemical_formula_sum   'Yb1 Ho3 Si10 Os6'
_cell_volume   333.34335885
_cell_formula_units_Z   1
loop_
 _symmetry_equiv_pos_site_id
 _symmetry_equiv_pos_as_xyz
  1  'x, y, z'
loop_
 _atom_site_type_symbol
 _atom_site_label
 _atom_site_symmetry_multiplicity
 _atom_site_fract_x
 _atom_site_fract_y
 _atom_site_fract_z
 _atom_site_occupancy
  Yb  Yb0  1  0.868031  0.602060  0.756131  1
  Ho  Ho1  1  0.398624  0.130460  0.746517  1
  Ho  Ho2  1  0.131341  0.399729  0.246453  1
  Ho  Ho3  1  0.602212  0.866981  0.254635  1
  Si  Si4  1  0.068780  0.261531  0.834919  1
  Si  Si5  1  0.737565  0.932156  0.666558  1
  Si  Si6  1  0.932596  0.738426  0.168115  1
  Si  Si7  1  0.262753  0.067619  0.333503  1
  Si  Si8  1  0.205678  0.792655  0.749110  1
  Si  Si9  1  0.791592  0.205268  0.253894  1
  Si  Si10  1  0.513390  0.489953  0.748283  1
  Si  Si11  1  0.488535  0.511734  0.246555  1
  Si  Si12  1  0.774655  0.224220  0.746551  1
  Si  Si13  1  0.223504  0.775138  0.252747  1
  Os  Os14  1  0.256629  0.542360  0.630224  1
  Os  Os15  1  0.454445  0.744751  0.870885  1
  Os  Os16  1  0.742889  0.456990  0.368937  1
  Os  Os17  1  0.544889  0.254701  0.127522  1
  Os  Os18  1  0.002751  0.000081  0.748842  1
  Os  Os19  1  0.999141  0.003187  0.249622  1
