# generated using pymatgen
data_Ho4ThTl15
_symmetry_space_group_name_H-M   'P 1'
_cell_length_a   4.78799100
_cell_length_b   4.78799100
_cell_length_c   23.86793100
_cell_angle_alpha   90.00000000
_cell_angle_beta   90.00000000
_cell_angle_gamma   90.00000000
_symmetry_Int_Tables_number   1
_chemical_formula_structural   Ho4ThTl15
_chemical_formula_sum   'Ho4 Th1 Tl15'
_cell_volume   547.16892454
_cell_formula_units_Z   1
loop_
 _symmetry_equiv_pos_site_id
 _symmetry_equiv_pos_as_xyz
  1  'x, y, z'
loop_
 _atom_site_type_symbol
 _atom_site_label
 _atom_site_symmetry_multiplicity
 _atom_site_fract_x
 _atom_site_fract_y
 _atom_site_fract_z
 _atom_site_occupancy
  Ho  Ho0  1  0.000000  0.000000  0.201714  1
  Ho  Ho1  1  0.000000  0.000000  0.400063  1
  Ho  Ho2  1  0.000000  0.000000  0.599937  1
  Ho  Ho3  1  0.000000  0.000000  0.798286  1
  Th  Th4  1  0.000000  0.000000  0.000000  1
  Tl  Tl5  1  0.500000  0.500000  0.000000  1
  Tl  Tl6  1  0.500000  0.500000  0.200837  1
  Tl  Tl7  1  0.500000  0.500000  0.400230  1
  Tl  Tl8  1  0.500000  0.500000  0.599770  1
  Tl  Tl9  1  0.500000  0.500000  0.799163  1
  Tl  Tl10  1  0.500000  0.000000  0.102282  1
  Tl  Tl11  1  0.500000  0.000000  0.300435  1
  Tl  Tl12  1  0.500000  0.000000  0.500000  1
  Tl  Tl13  1  0.500000  0.000000  0.699565  1
  Tl  Tl14  1  0.500000  0.000000  0.897718  1
  Tl  Tl15  1  0.000000  0.500000  0.102282  1
  Tl  Tl16  1  0.000000  0.500000  0.300435  1
  Tl  Tl17  1  0.000000  0.500000  0.500000  1
  Tl  Tl18  1  0.000000  0.500000  0.699565  1
  Tl  Tl19  1  0.000000  0.500000  0.897718  1
