# generated using pymatgen
data_NdP12IrRu3
_symmetry_space_group_name_H-M   'P 1'
_cell_length_a   7.02423290
_cell_length_b   7.02423258
_cell_length_c   7.02423262
_cell_angle_alpha   109.43232377
_cell_angle_beta   109.43231948
_cell_angle_gamma   109.43231885
_symmetry_Int_Tables_number   1
_chemical_formula_structural   NdP12IrRu3
_chemical_formula_sum   'Nd1 P12 Ir1 Ru3'
_cell_volume   267.17676862
_cell_formula_units_Z   1
loop_
 _symmetry_equiv_pos_site_id
 _symmetry_equiv_pos_as_xyz
  1  'x, y, z'
loop_
 _atom_site_type_symbol
 _atom_site_label
 _atom_site_symmetry_multiplicity
 _atom_site_fract_x
 _atom_site_fract_y
 _atom_site_fract_z
 _atom_site_occupancy
  Nd  Nd0  1  0.000000  0.000000  0.000000  1
  P  P1  1  0.355409  0.212176  0.856379  1
  P  P2  1  0.644591  0.787824  0.143621  1
  P  P3  1  0.645909  0.501179  0.860050  1
  P  P4  1  0.354091  0.498821  0.139950  1
  P  P5  1  0.212176  0.856379  0.355409  1
  P  P6  1  0.787824  0.143621  0.644591  1
  P  P7  1  0.501179  0.860050  0.645909  1
  P  P8  1  0.498821  0.139950  0.354091  1
  P  P9  1  0.856379  0.355409  0.212176  1
  P  P10  1  0.143621  0.644591  0.787824  1
  P  P11  1  0.860050  0.645909  0.501179  1
  P  P12  1  0.139950  0.354091  0.498821  1
  Ir  Ir13  1  0.500000  0.500000  0.500000  1
  Ru  Ru14  1  0.000000  0.000000  0.500000  1
  Ru  Ru15  1  0.500000  0.000000  0.000000  1
  Ru  Ru16  1  0.000000  0.500000  0.000000  1
