# generated using pymatgen
data_FeBiSb5(SO8)2
_symmetry_space_group_name_H-M   'P 1'
_cell_length_a   5.72853690
_cell_length_b   7.86011426
_cell_length_c   9.50659919
_cell_angle_alpha   97.06942019
_cell_angle_beta   94.10966799
_cell_angle_gamma   108.70050855
_symmetry_Int_Tables_number   1
_chemical_formula_structural   FeBiSb5(SO8)2
_chemical_formula_sum   'Fe1 Bi1 Sb5 S2 O16'
_cell_volume   399.55126742
_cell_formula_units_Z   1
loop_
 _symmetry_equiv_pos_site_id
 _symmetry_equiv_pos_as_xyz
  1  'x, y, z'
loop_
 _atom_site_type_symbol
 _atom_site_label
 _atom_site_symmetry_multiplicity
 _atom_site_fract_x
 _atom_site_fract_y
 _atom_site_fract_z
 _atom_site_occupancy
  Fe  Fe0  1  0.002079  0.496171  0.505407  1
  Bi  Bi1  1  0.700029  0.515235  0.797813  1
  Sb  Sb2  1  0.301174  0.478042  0.223041  1
  Sb  Sb3  1  0.642911  0.828562  0.522298  1
  Sb  Sb4  1  0.363500  0.168302  0.482836  1
  Sb  Sb5  1  0.335749  0.858578  0.799547  1
  Sb  Sb6  1  0.669055  0.144940  0.200637  1
  S  S7  1  0.136606  0.226022  0.853559  1
  S  S8  1  0.856816  0.775417  0.139991  1
  O  O9  1  0.036922  0.662295  0.695038  1
  O  O10  1  0.972044  0.338472  0.309672  1
  O  O11  1  0.548423  0.708842  0.706627  1
  O  O12  1  0.455124  0.300824  0.296711  1
  O  O13  1  0.053307  0.031465  0.780814  1
  O  O14  1  0.934719  0.972132  0.208925  1
  O  O15  1  0.675076  0.362766  0.580089  1
  O  O16  1  0.332539  0.625718  0.423056  1
  O  O17  1  0.330776  0.254248  0.974731  1
  O  O18  1  0.662623  0.742302  0.016447  1
  O  O19  1  0.440722  0.971291  0.620693  1
  O  O20  1  0.557489  0.027687  0.374205  1
  O  O21  1  0.253410  0.345705  0.745511  1
  O  O22  1  0.744595  0.659498  0.249936  1
  O  O23  1  0.920781  0.273370  0.899105  1
  O  O24  1  0.073530  0.732116  0.093312  1
