# generated using pymatgen
data_YLu5Al18(Si3Os4)2
_symmetry_space_group_name_H-M   'P 1'
_cell_length_a   8.67472909
_cell_length_b   8.64952437
_cell_length_c   9.49051400
_cell_angle_alpha   90.00000000
_cell_angle_beta   90.00000000
_cell_angle_gamma   120.11316002
_symmetry_Int_Tables_number   1
_chemical_formula_structural   YLu5Al18(Si3Os4)2
_chemical_formula_sum   'Y1 Lu5 Al18 Si6 Os8'
_cell_volume   615.98788088
_cell_formula_units_Z   1
loop_
 _symmetry_equiv_pos_site_id
 _symmetry_equiv_pos_as_xyz
  1  'x, y, z'
loop_
 _atom_site_type_symbol
 _atom_site_label
 _atom_site_symmetry_multiplicity
 _atom_site_fract_x
 _atom_site_fract_y
 _atom_site_fract_z
 _atom_site_occupancy
  Y  Y0  1  0.802692  0.191961  0.750000  1
  Lu  Lu1  1  0.194975  0.390131  0.250000  1
  Lu  Lu2  1  0.804922  0.610362  0.750000  1
  Lu  Lu3  1  0.606360  0.806055  0.250000  1
  Lu  Lu4  1  0.393223  0.194086  0.750000  1
  Lu  Lu5  1  0.199398  0.806217  0.250000  1
  Al  Al6  1  0.165296  0.330167  0.578325  1
  Al  Al7  1  0.835361  0.670450  0.420963  1
  Al  Al8  1  0.670348  0.834307  0.576836  1
  Al  Al9  1  0.835361  0.670450  0.079037  1
  Al  Al10  1  0.329038  0.164952  0.422354  1
  Al  Al11  1  0.165296  0.330167  0.921675  1
  Al  Al12  1  0.163945  0.834963  0.577147  1
  Al  Al13  1  0.329038  0.164952  0.077646  1
  Al  Al14  1  0.836000  0.165183  0.421635  1
  Al  Al15  1  0.670348  0.834307  0.923164  1
  Al  Al16  1  0.836000  0.165183  0.078365  1
  Al  Al17  1  0.163945  0.834963  0.922853  1
  Al  Al18  1  0.873203  0.433507  0.250000  1
  Al  Al19  1  0.127449  0.567696  0.750000  1
  Al  Al20  1  0.560084  0.433450  0.250000  1
  Al  Al21  1  0.439990  0.566504  0.750000  1
  Al  Al22  1  0.999555  0.999167  0.250000  1
  Al  Al23  1  0.001989  0.999545  0.750000  1
  Si  Si24  1  0.331885  0.664325  0.041148  1
  Si  Si25  1  0.667529  0.336364  0.960093  1
  Si  Si26  1  0.667529  0.336364  0.539907  1
  Si  Si27  1  0.331885  0.664325  0.458852  1
  Si  Si28  1  0.562820  0.125798  0.250000  1
  Si  Si29  1  0.435667  0.873395  0.750000  1
  Os  Os30  1  0.499238  0.999495  0.000820  1
  Os  Os31  1  0.000422  0.500691  0.000654  1
  Os  Os32  1  0.499238  0.999495  0.499180  1
  Os  Os33  1  0.499804  0.500122  0.000113  1
  Os  Os34  1  0.000422  0.500691  0.499346  1
  Os  Os35  1  0.499804  0.500122  0.499887  1
  Os  Os36  1  0.999970  0.000044  0.999979  1
  Os  Os37  1  0.999970  0.000044  0.500021  1
