# generated using pymatgen
data_Ca2La5Pr3GaSi4Ge
_symmetry_space_group_name_H-M   'P 1'
_cell_length_a   7.87819728
_cell_length_b   9.05251977
_cell_length_c   7.87819800
_cell_angle_alpha   115.71541584
_cell_angle_beta   90.22598525
_cell_angle_gamma   115.65448277
_symmetry_Int_Tables_number   1
_chemical_formula_structural   Ca2La5Pr3GaSi4Ge
_chemical_formula_sum   'Ca2 La5 Pr3 Ga1 Si4 Ge1'
_cell_volume   443.39914443
_cell_formula_units_Z   1
loop_
 _symmetry_equiv_pos_site_id
 _symmetry_equiv_pos_as_xyz
  1  'x, y, z'
loop_
 _atom_site_type_symbol
 _atom_site_label
 _atom_site_symmetry_multiplicity
 _atom_site_fract_x
 _atom_site_fract_y
 _atom_site_fract_z
 _atom_site_occupancy
  Ca  Ca0  1  0.000462  0.000381  0.000351  1
  Ca  Ca1  1  0.500195  0.000735  0.500105  1
  La  La2  1  0.531430  0.709371  0.676600  1
  La  La3  1  0.675232  0.706518  0.176105  1
  La  La4  1  0.031654  0.706660  0.530230  1
  La  La5  1  0.324151  0.293037  0.825813  1
  La  La6  1  0.968324  0.292865  0.467587  1
  Pr  Pr7  1  0.179911  0.713077  0.034410  1
  Pr  Pr8  1  0.466243  0.288514  0.320846  1
  Pr  Pr9  1  0.821544  0.287304  0.967139  1
  Ga  Ga10  1  0.750630  0.499254  0.750662  1
  Si  Si11  1  0.887470  0.000581  0.613088  1
  Si  Si12  1  0.114254  0.000819  0.386586  1
  Si  Si13  1  0.612776  0.000850  0.113737  1
  Si  Si14  1  0.387187  0.000847  0.888011  1
  Ge  Ge15  1  0.248536  0.499185  0.248730  1
