# generated using pymatgen
data_Sr2Cd2Sn4PdAu
_symmetry_space_group_name_H-M   'P 1'
_cell_length_a   4.71958400
_cell_length_b   4.71958400
_cell_length_c   11.95208000
_cell_angle_alpha   90.00000000
_cell_angle_beta   90.00000000
_cell_angle_gamma   90.00000000
_symmetry_Int_Tables_number   1
_chemical_formula_structural   Sr2Cd2Sn4PdAu
_chemical_formula_sum   'Sr2 Cd2 Sn4 Pd1 Au1'
_cell_volume   266.22628484
_cell_formula_units_Z   1
loop_
 _symmetry_equiv_pos_site_id
 _symmetry_equiv_pos_as_xyz
  1  'x, y, z'
loop_
 _atom_site_type_symbol
 _atom_site_label
 _atom_site_symmetry_multiplicity
 _atom_site_fract_x
 _atom_site_fract_y
 _atom_site_fract_z
 _atom_site_occupancy
  Sr  Sr0  1  0.000000  0.500000  0.237241  1
  Sr  Sr1  1  0.500000  0.000000  0.758368  1
  Cd  Cd2  1  0.000000  0.000000  0.503126  1
  Cd  Cd3  1  0.500000  0.500000  0.503126  1
  Sn  Sn4  1  0.000000  0.000000  0.992657  1
  Sn  Sn5  1  0.500000  0.500000  0.992657  1
  Sn  Sn6  1  0.000000  0.500000  0.653921  1
  Sn  Sn7  1  0.500000  0.000000  0.354184  1
  Pd  Pd8  1  0.000000  0.500000  0.876129  1
  Au  Au9  1  0.500000  0.000000  0.128591  1
