# generated using pymatgen
data_Dy4Co13Ni5(P6Ru)2
_symmetry_space_group_name_H-M   'P 1'
_cell_length_a   3.67498100
_cell_length_b   10.35013112
_cell_length_c   11.80533314
_cell_angle_alpha   90.01775004
_cell_angle_beta   90.00000000
_cell_angle_gamma   90.00000000
_symmetry_Int_Tables_number   1
_chemical_formula_structural   Dy4Co13Ni5(P6Ru)2
_chemical_formula_sum   'Dy4 Co13 Ni5 P12 Ru2'
_cell_volume   449.03394838
_cell_formula_units_Z   1
loop_
 _symmetry_equiv_pos_site_id
 _symmetry_equiv_pos_as_xyz
  1  'x, y, z'
loop_
 _atom_site_type_symbol
 _atom_site_label
 _atom_site_symmetry_multiplicity
 _atom_site_fract_x
 _atom_site_fract_y
 _atom_site_fract_z
 _atom_site_occupancy
  Dy  Dy0  1  0.250000  0.582693  0.704383  1
  Dy  Dy1  1  0.250000  0.918609  0.201845  1
  Dy  Dy2  1  0.750000  0.414407  0.293459  1
  Dy  Dy3  1  0.750000  0.085490  0.794301  1
  Co  Co4  1  0.750000  0.909396  0.010138  1
  Co  Co5  1  0.250000  0.218883  0.176005  1
  Co  Co6  1  0.250000  0.281826  0.675733  1
  Co  Co7  1  0.750000  0.778827  0.824145  1
  Co  Co8  1  0.750000  0.720823  0.321894  1
  Co  Co9  1  0.250000  0.887154  0.702225  1
  Co  Co10  1  0.250000  0.613411  0.200230  1
  Co  Co11  1  0.750000  0.117391  0.302374  1
  Co  Co12  1  0.750000  0.381862  0.803028  1
  Co  Co13  1  0.250000  0.464924  0.932451  1
  Co  Co14  1  0.250000  0.034553  0.432300  1
  Co  Co15  1  0.750000  0.533664  0.068780  1
  Co  Co16  1  0.750000  0.966886  0.569323  1
  Ni  Ni17  1  0.750000  0.285976  0.012243  1
  Ni  Ni18  1  0.750000  0.214170  0.509861  1
  Ni  Ni19  1  0.250000  0.407210  0.483333  1
  Ni  Ni20  1  0.250000  0.092993  0.984925  1
  Ni  Ni21  1  0.750000  0.588457  0.513208  1
  P  P22  1  0.250000  0.416344  0.111500  1
  P  P23  1  0.250000  0.083712  0.611721  1
  P  P24  1  0.750000  0.578938  0.887926  1
  P  P25  1  0.750000  0.919936  0.387761  1
  P  P26  1  0.250000  0.272402  0.866016  1
  P  P27  1  0.250000  0.226760  0.365425  1
  P  P28  1  0.750000  0.729365  0.132474  1
  P  P29  1  0.750000  0.772451  0.634401  1
  P  P30  1  0.250000  0.599715  0.386928  1
  P  P31  1  0.250000  0.902392  0.890064  1
  P  P32  1  0.750000  0.393839  0.612620  1
  P  P33  1  0.750000  0.103648  0.110980  1
  Ru  Ru34  1  0.250000  0.714206  0.992204  1
  Ru  Ru35  1  0.250000  0.786687  0.493794  1
