# generated using pymatgen
data_AcCe(SnPd)4
_symmetry_space_group_name_H-M   'P 1'
_cell_length_a   4.67490200
_cell_length_b   4.67490200
_cell_length_c   10.72976000
_cell_angle_alpha   90.00000000
_cell_angle_beta   90.00000000
_cell_angle_gamma   90.00000000
_symmetry_Int_Tables_number   1
_chemical_formula_structural   AcCe(SnPd)4
_chemical_formula_sum   'Ac1 Ce1 Sn4 Pd4'
_cell_volume   234.49577932
_cell_formula_units_Z   1
loop_
 _symmetry_equiv_pos_site_id
 _symmetry_equiv_pos_as_xyz
  1  'x, y, z'
loop_
 _atom_site_type_symbol
 _atom_site_label
 _atom_site_symmetry_multiplicity
 _atom_site_fract_x
 _atom_site_fract_y
 _atom_site_fract_z
 _atom_site_occupancy
  Ac  Ac0  1  0.000000  0.500000  0.241717  1
  Ce  Ce1  1  0.500000  0.000000  0.758098  1
  Sn  Sn2  1  0.000000  0.000000  0.505009  1
  Sn  Sn3  1  0.500000  0.500000  0.505009  1
  Sn  Sn4  1  0.000000  0.500000  0.872081  1
  Sn  Sn5  1  0.500000  0.000000  0.123378  1
  Pd  Pd6  1  0.000000  0.000000  0.996121  1
  Pd  Pd7  1  0.500000  0.500000  0.996121  1
  Pd  Pd8  1  0.000000  0.500000  0.629698  1
  Pd  Pd9  1  0.500000  0.000000  0.372770  1
