# generated using pymatgen
data_La3SnTe2
_symmetry_space_group_name_H-M   'P 1'
_cell_length_a   7.95723355
_cell_length_b   7.95723351
_cell_length_c   7.95723400
_cell_angle_alpha   146.36427665
_cell_angle_beta   131.60558562
_cell_angle_gamma   60.22632515
_symmetry_Int_Tables_number   1
_chemical_formula_structural   La3SnTe2
_chemical_formula_sum   'La3 Sn1 Te2'
_cell_volume   206.74243193
_cell_formula_units_Z   1
loop_
 _symmetry_equiv_pos_site_id
 _symmetry_equiv_pos_as_xyz
  1  'x, y, z'
loop_
 _atom_site_type_symbol
 _atom_site_label
 _atom_site_symmetry_multiplicity
 _atom_site_fract_x
 _atom_site_fract_y
 _atom_site_fract_z
 _atom_site_occupancy
  La  La0  1  0.000000  0.000000  0.000000  1
  La  La1  1  0.661576  0.661576  0.000000  1
  La  La2  1  0.338424  0.338424  0.000000  1
  Sn  Sn3  1  0.500000  0.000000  0.500000  1
  Te  Te4  1  0.168097  0.668097  0.500000  1
  Te  Te5  1  0.831903  0.331903  0.500000  1
