# generated using pymatgen
data_Lu8Ta2B24IrRu
_symmetry_space_group_name_H-M   'P 1'
_cell_length_a   3.58858900
_cell_length_b   9.15855268
_cell_length_c   11.53683307
_cell_angle_alpha   90.01557496
_cell_angle_beta   90.00000000
_cell_angle_gamma   90.00000000
_symmetry_Int_Tables_number   1
_chemical_formula_structural   Lu8Ta2B24IrRu
_chemical_formula_sum   'Lu8 Ta2 B24 Ir1 Ru1'
_cell_volume   379.17278821
_cell_formula_units_Z   1
loop_
 _symmetry_equiv_pos_site_id
 _symmetry_equiv_pos_as_xyz
  1  'x, y, z'
loop_
 _atom_site_type_symbol
 _atom_site_label
 _atom_site_symmetry_multiplicity
 _atom_site_fract_x
 _atom_site_fract_y
 _atom_site_fract_z
 _atom_site_occupancy
  Lu  Lu0  1  0.000000  0.317931  0.414003  1
  Lu  Lu1  1  0.000000  0.681320  0.588273  1
  Lu  Lu2  1  0.000000  0.821814  0.082315  1
  Lu  Lu3  1  0.000000  0.177886  0.912819  1
  Lu  Lu4  1  0.000000  0.941579  0.373934  1
  Lu  Lu5  1  0.000000  0.051302  0.628607  1
  Lu  Lu6  1  0.000000  0.447026  0.126990  1
  Lu  Lu7  1  0.000000  0.560383  0.873778  1
  Ta  Ta8  1  0.000000  0.362269  0.678666  1
  Ta  Ta9  1  0.000000  0.138011  0.179094  1
  B  B10  1  0.500000  0.553489  0.432810  1
  B  B11  1  0.500000  0.450672  0.561331  1
  B  B12  1  0.500000  0.049254  0.061371  1
  B  B13  1  0.500000  0.946439  0.931295  1
  B  B14  1  0.500000  0.748635  0.420910  1
  B  B15  1  0.500000  0.245079  0.576770  1
  B  B16  1  0.500000  0.254825  0.076539  1
  B  B17  1  0.500000  0.752490  0.919581  1
  B  B18  1  0.500000  0.791521  0.265646  1
  B  B19  1  0.500000  0.202563  0.737364  1
  B  B20  1  0.500000  0.297752  0.237513  1
  B  B21  1  0.500000  0.709061  0.766460  1
  B  B22  1  0.500000  0.632586  0.184143  1
  B  B23  1  0.500000  0.371068  0.819031  1
  B  B24  1  0.500000  0.129134  0.319385  1
  B  B25  1  0.500000  0.867672  0.685716  1
  B  B26  1  0.500000  0.973559  0.213147  1
  B  B27  1  0.500000  0.016715  0.787231  1
  B  B28  1  0.500000  0.482505  0.287150  1
  B  B29  1  0.500000  0.526565  0.713608  1
  B  B30  1  0.500000  0.606475  0.029484  1
  B  B31  1  0.500000  0.401496  0.972089  1
  B  B32  1  0.500000  0.098359  0.472327  1
  B  B33  1  0.500000  0.893450  0.529351  1
  Ir  Ir34  1  0.000000  0.638576  0.321039  1
  Ru  Ru35  1  0.000000  0.860541  0.820232  1
