# generated using pymatgen
data_CeY3Er4(ReB6)4
_symmetry_space_group_name_H-M   'P 1'
_cell_length_a   3.68285400
_cell_length_b   9.16316209
_cell_length_c   11.55286701
_cell_angle_alpha   90.04492394
_cell_angle_beta   90.00000000
_cell_angle_gamma   90.00000000
_symmetry_Int_Tables_number   1
_chemical_formula_structural   CeY3Er4(ReB6)4
_chemical_formula_sum   'Ce1 Y3 Er4 Re4 B24'
_cell_volume   389.86972520
_cell_formula_units_Z   1
loop_
 _symmetry_equiv_pos_site_id
 _symmetry_equiv_pos_as_xyz
  1  'x, y, z'
loop_
 _atom_site_type_symbol
 _atom_site_label
 _atom_site_symmetry_multiplicity
 _atom_site_fract_x
 _atom_site_fract_y
 _atom_site_fract_z
 _atom_site_occupancy
  Ce  Ce0  1  0.000000  0.322994  0.414023  1
  Y  Y1  1  0.000000  0.677679  0.586666  1
  Y  Y2  1  0.000000  0.822900  0.085487  1
  Y  Y3  1  0.000000  0.176505  0.913968  1
  Er  Er4  1  0.000000  0.942741  0.369900  1
  Er  Er5  1  0.000000  0.056438  0.630478  1
  Er  Er6  1  0.000000  0.443303  0.129104  1
  Er  Er7  1  0.000000  0.557009  0.870288  1
  Re  Re8  1  0.000000  0.638301  0.320613  1
  Re  Re9  1  0.000000  0.361290  0.679108  1
  Re  Re10  1  0.000000  0.139491  0.179984  1
  Re  Re11  1  0.000000  0.861153  0.820551  1
  B  B12  1  0.500000  0.553826  0.432046  1
  B  B13  1  0.500000  0.445897  0.567986  1
  B  B14  1  0.500000  0.053560  0.067185  1
  B  B15  1  0.500000  0.946562  0.932664  1
  B  B16  1  0.500000  0.750035  0.418056  1
  B  B17  1  0.500000  0.250514  0.582629  1
  B  B18  1  0.500000  0.249442  0.081273  1
  B  B19  1  0.500000  0.750250  0.918159  1
  B  B20  1  0.500000  0.792225  0.265575  1
  B  B21  1  0.500000  0.207951  0.734974  1
  B  B22  1  0.500000  0.291632  0.233895  1
  B  B23  1  0.500000  0.707754  0.765625  1
  B  B24  1  0.500000  0.630958  0.184997  1
  B  B25  1  0.500000  0.369866  0.814720  1
  B  B26  1  0.500000  0.130559  0.314028  1
  B  B27  1  0.500000  0.869431  0.685778  1
  B  B28  1  0.500000  0.982444  0.211986  1
  B  B29  1  0.500000  0.017365  0.787853  1
  B  B30  1  0.500000  0.483387  0.287248  1
  B  B31  1  0.500000  0.517739  0.713054  1
  B  B32  1  0.500000  0.599872  0.027529  1
  B  B33  1  0.500000  0.400441  0.971914  1
  B  B34  1  0.500000  0.098912  0.472483  1
  B  B35  1  0.500000  0.899571  0.528172  1
