# generated using pymatgen
data_Tm3LuPd4F28
_symmetry_space_group_name_H-M   'P 1'
_cell_length_a   5.44661469
_cell_length_b   8.73302273
_cell_length_c   11.81263416
_cell_angle_alpha   62.53023831
_cell_angle_beta   89.97112653
_cell_angle_gamma   90.00062868
_symmetry_Int_Tables_number   1
_chemical_formula_structural   Tm3LuPd4F28
_chemical_formula_sum   'Tm3 Lu1 Pd4 F28'
_cell_volume   498.52402059
_cell_formula_units_Z   1
loop_
 _symmetry_equiv_pos_site_id
 _symmetry_equiv_pos_as_xyz
  1  'x, y, z'
loop_
 _atom_site_type_symbol
 _atom_site_label
 _atom_site_symmetry_multiplicity
 _atom_site_fract_x
 _atom_site_fract_y
 _atom_site_fract_z
 _atom_site_occupancy
  Tm  Tm0  1  0.261598  0.814804  0.263900  1
  Tm  Tm1  1  0.738589  0.183968  0.736206  1
  Tm  Tm2  1  0.761600  0.185043  0.236073  1
  Lu  Lu3  1  0.238093  0.815140  0.763692  1
  Pd  Pd4  1  0.759429  0.727677  0.041762  1
  Pd  Pd5  1  0.240759  0.273309  0.957077  1
  Pd  Pd6  1  0.259022  0.271956  0.457868  1
  Pd  Pd7  1  0.740361  0.727697  0.543302  1
  F  F8  1  0.937829  0.703297  0.415268  1
  F  F9  1  0.062033  0.296450  0.585911  1
  F  F10  1  0.437516  0.297193  0.085390  1
  F  F11  1  0.561456  0.703229  0.913986  1
  F  F12  1  0.465170  0.725353  0.136054  1
  F  F13  1  0.535200  0.274683  0.863307  1
  F  F14  1  0.964513  0.274509  0.363881  1
  F  F15  1  0.034735  0.725950  0.637475  1
  F  F16  1  0.951029  0.743084  0.175733  1
  F  F17  1  0.049579  0.257413  0.823333  1
  F  F18  1  0.450207  0.256761  0.323803  1
  F  F19  1  0.547558  0.743771  0.676845  1
  F  F20  1  0.772397  0.477536  0.141818  1
  F  F21  1  0.228146  0.523929  0.857318  1
  F  F22  1  0.271892  0.522302  0.357958  1
  F  F23  1  0.727805  0.477336  0.642656  1
  F  F24  1  0.937786  0.280911  0.042706  1
  F  F25  1  0.062560  0.720333  0.955652  1
  F  F26  1  0.438229  0.719523  0.457309  1
  F  F27  1  0.561927  0.279905  0.543321  1
  F  F28  1  0.741239  0.978074  0.449957  1
  F  F29  1  0.258396  0.021453  0.551076  1
  F  F30  1  0.241480  0.022865  0.050124  1
  F  F31  1  0.758251  0.978073  0.949107  1
  F  F32  1  0.587826  0.968839  0.231536  1
  F  F33  1  0.412624  0.028502  0.768236  1
  F  F34  1  0.087800  0.031003  0.268431  1
  F  F35  1  0.915367  0.968130  0.731924  1
