# generated using pymatgen
data_La3PrErP12Ru19
_symmetry_space_group_name_H-M   'P 1'
_cell_length_a   12.65866800
_cell_length_b   12.65866758
_cell_length_c   4.03039100
_cell_angle_alpha   90.00000000
_cell_angle_beta   90.00000000
_cell_angle_gamma   120.00000633
_symmetry_Int_Tables_number   1
_chemical_formula_structural   La3PrErP12Ru19
_chemical_formula_sum   'La3 Pr1 Er1 P12 Ru19'
_cell_volume   559.31155196
_cell_formula_units_Z   1
loop_
 _symmetry_equiv_pos_site_id
 _symmetry_equiv_pos_as_xyz
  1  'x, y, z'
loop_
 _atom_site_type_symbol
 _atom_site_label
 _atom_site_symmetry_multiplicity
 _atom_site_fract_x
 _atom_site_fract_y
 _atom_site_fract_z
 _atom_site_occupancy
  La  La0  1  0.182500  0.184015  0.500000  1
  La  La1  1  0.815985  0.998486  0.500000  1
  La  La2  1  0.001514  0.817500  0.500000  1
  Pr  Pr3  1  0.333333  0.666667  0.000000  1
  Er  Er4  1  0.666667  0.333333  0.000000  1
  P  P5  1  0.811498  0.808527  0.000000  1
  P  P6  1  0.191473  0.002970  0.000000  1
  P  P7  1  0.997030  0.188502  0.000000  1
  P  P8  1  0.169525  0.474934  0.500000  1
  P  P9  1  0.525066  0.694591  0.500000  1
  P  P10  1  0.305409  0.830475  0.500000  1
  P  P11  1  0.697188  0.520079  0.500000  1
  P  P12  1  0.822891  0.302812  0.500000  1
  P  P13  1  0.479921  0.177109  0.500000  1
  P  P14  1  0.375277  0.376521  0.000000  1
  P  P15  1  0.623479  0.998756  0.000000  1
  P  P16  1  0.001244  0.624723  0.000000  1
  Ru  Ru17  1  0.554838  0.554573  0.000000  1
  Ru  Ru18  1  0.445427  0.000265  0.000000  1
  Ru  Ru19  1  0.999735  0.445162  0.000000  1
  Ru  Ru20  1  0.714294  0.710714  0.500000  1
  Ru  Ru21  1  0.289286  0.003581  0.500000  1
  Ru  Ru22  1  0.996419  0.285706  0.500000  1
  Ru  Ru23  1  0.182870  0.378365  0.000000  1
  Ru  Ru24  1  0.621635  0.804504  0.000000  1
  Ru  Ru25  1  0.195496  0.817130  0.000000  1
  Ru  Ru26  1  0.805109  0.616832  0.000000  1
  Ru  Ru27  1  0.811723  0.194891  0.000000  1
  Ru  Ru28  1  0.383168  0.188277  0.000000  1
  Ru  Ru29  1  0.366832  0.490394  0.500000  1
  Ru  Ru30  1  0.509606  0.876438  0.500000  1
  Ru  Ru31  1  0.123562  0.633168  0.500000  1
  Ru  Ru32  1  0.873583  0.503820  0.500000  1
  Ru  Ru33  1  0.630237  0.126417  0.500000  1
  Ru  Ru34  1  0.496180  0.369763  0.500000  1
  Ru  Ru35  1  0.000000  0.000000  0.000000  1
