# generated using pymatgen
data_Pr3NdIn2RuRh2
_symmetry_space_group_name_H-M   'P 1'
_cell_length_a   7.86916192
_cell_length_b   7.86916196
_cell_length_c   4.16748600
_cell_angle_alpha   90.00000000
_cell_angle_beta   90.00000000
_cell_angle_gamma   121.56060510
_symmetry_Int_Tables_number   1
_chemical_formula_structural   Pr3NdIn2RuRh2
_chemical_formula_sum   'Pr3 Nd1 In2 Ru1 Rh2'
_cell_volume   219.89485072
_cell_formula_units_Z   1
loop_
 _symmetry_equiv_pos_site_id
 _symmetry_equiv_pos_as_xyz
  1  'x, y, z'
loop_
 _atom_site_type_symbol
 _atom_site_label
 _atom_site_symmetry_multiplicity
 _atom_site_fract_x
 _atom_site_fract_y
 _atom_site_fract_z
 _atom_site_occupancy
  Pr  Pr0  1  0.026772  0.584121  0.500000  1
  Pr  Pr1  1  0.379638  0.379638  0.500000  1
  Pr  Pr2  1  0.584121  0.026772  0.500000  1
  Nd  Nd3  1  0.758625  0.758625  0.000000  1
  In  In4  1  0.993513  0.248111  0.000000  1
  In  In5  1  0.248111  0.993513  0.000000  1
  Ru  Ru6  1  0.009727  0.009727  0.500000  1
  Rh  Rh7  1  0.332460  0.667034  0.000000  1
  Rh  Rh8  1  0.667034  0.332460  0.000000  1
