# generated using pymatgen
data_HfZr5Al(Si3Ni8)2
_symmetry_space_group_name_H-M   'P 1'
_cell_length_a   8.13121941
_cell_length_b   8.12405716
_cell_length_c   8.13122015
_cell_angle_alpha   60.02914302
_cell_angle_beta   59.94173261
_cell_angle_gamma   60.02913410
_symmetry_Int_Tables_number   1
_chemical_formula_structural   HfZr5Al(Si3Ni8)2
_chemical_formula_sum   'Hf1 Zr5 Al1 Si6 Ni16'
_cell_volume   379.81204263
_cell_formula_units_Z   1
loop_
 _symmetry_equiv_pos_site_id
 _symmetry_equiv_pos_as_xyz
  1  'x, y, z'
loop_
 _atom_site_type_symbol
 _atom_site_label
 _atom_site_symmetry_multiplicity
 _atom_site_fract_x
 _atom_site_fract_y
 _atom_site_fract_z
 _atom_site_occupancy
  Hf  Hf0  1  0.209784  0.790216  0.209784  1
  Zr  Zr1  1  0.790810  0.209190  0.790810  1
  Zr  Zr2  1  0.792123  0.791769  0.208231  1
  Zr  Zr3  1  0.208231  0.791769  0.792123  1
  Zr  Zr4  1  0.208231  0.207877  0.792123  1
  Zr  Zr5  1  0.792123  0.207877  0.208231  1
  Al  Al6  1  0.500219  0.499781  0.500219  1
  Si  Si7  1  0.000273  0.499727  0.000273  1
  Si  Si8  1  0.499979  0.500021  0.000591  1
  Si  Si9  1  0.500273  0.999727  0.500273  1
  Si  Si10  1  0.000591  0.500021  0.499979  1
  Si  Si11  1  0.000591  0.999409  0.499979  1
  Si  Si12  1  0.499979  0.999409  0.000591  1
  Ni  Ni13  1  0.168473  0.166827  0.168473  1
  Ni  Ni14  1  0.618953  0.621871  0.137306  1
  Ni  Ni15  1  0.378129  0.381047  0.378129  1
  Ni  Ni16  1  0.168473  0.496226  0.168473  1
  Ni  Ni17  1  0.168816  0.168467  0.494250  1
  Ni  Ni18  1  0.137306  0.621871  0.618953  1
  Ni  Ni19  1  0.621063  0.136513  0.621063  1
  Ni  Ni20  1  0.831533  0.831184  0.831533  1
  Ni  Ni21  1  0.863487  0.378937  0.378638  1
  Ni  Ni22  1  0.378638  0.378937  0.863487  1
  Ni  Ni23  1  0.378129  0.862694  0.378129  1
  Ni  Ni24  1  0.503774  0.831527  0.833173  1
  Ni  Ni25  1  0.621063  0.621362  0.621063  1
  Ni  Ni26  1  0.833173  0.831527  0.503774  1
  Ni  Ni27  1  0.494250  0.168467  0.168816  1
  Ni  Ni28  1  0.831533  0.505750  0.831533  1
