# generated using pymatgen
data_Pr2Re17C3
_symmetry_space_group_name_H-M   'P 1'
_cell_length_a   7.06652052
_cell_length_b   7.06652050
_cell_length_c   7.06652010
_cell_angle_alpha   82.87086778
_cell_angle_beta   82.87086619
_cell_angle_gamma   82.87087207
_symmetry_Int_Tables_number   1
_chemical_formula_structural   Pr2Re17C3
_chemical_formula_sum   'Pr2 Re17 C3'
_cell_volume   345.31271832
_cell_formula_units_Z   1
loop_
 _symmetry_equiv_pos_site_id
 _symmetry_equiv_pos_as_xyz
  1  'x, y, z'
loop_
 _atom_site_type_symbol
 _atom_site_label
 _atom_site_symmetry_multiplicity
 _atom_site_fract_x
 _atom_site_fract_y
 _atom_site_fract_z
 _atom_site_occupancy
  Pr  Pr0  1  0.651397  0.651397  0.651397  1
  Pr  Pr1  1  0.348603  0.348603  0.348603  1
  Re  Re2  1  0.000000  0.000000  0.500000  1
  Re  Re3  1  0.500000  0.000000  0.000000  1
  Re  Re4  1  0.000000  0.500000  0.000000  1
  Re  Re5  1  0.721122  0.278878  0.000000  1
  Re  Re6  1  0.000000  0.721122  0.278878  1
  Re  Re7  1  0.278878  0.000000  0.721122  1
  Re  Re8  1  0.000000  0.278878  0.721122  1
  Re  Re9  1  0.721122  0.000000  0.278878  1
  Re  Re10  1  0.278878  0.721122  0.000000  1
  Re  Re11  1  0.348394  0.348394  0.862980  1
  Re  Re12  1  0.862980  0.348394  0.348394  1
  Re  Re13  1  0.348394  0.862980  0.348394  1
  Re  Re14  1  0.651606  0.651606  0.137020  1
  Re  Re15  1  0.137020  0.651606  0.651606  1
  Re  Re16  1  0.651606  0.137020  0.651606  1
  Re  Re17  1  0.902625  0.902625  0.902625  1
  Re  Re18  1  0.097375  0.097375  0.097375  1
  C  C19  1  0.500000  0.500000  0.000000  1
  C  C20  1  0.000000  0.500000  0.500000  1
  C  C21  1  0.500000  0.000000  0.500000  1
