# generated using pymatgen
data_Er5(In2Au)2
_symmetry_space_group_name_H-M   'P 1'
_cell_length_a   3.63827200
_cell_length_b   8.18358100
_cell_length_c   18.36262000
_cell_angle_alpha   90.00000000
_cell_angle_beta   90.00000000
_cell_angle_gamma   90.00000000
_symmetry_Int_Tables_number   1
_chemical_formula_structural   Er5(In2Au)2
_chemical_formula_sum   'Er10 In8 Au4'
_cell_volume   546.73036684
_cell_formula_units_Z   2
loop_
 _symmetry_equiv_pos_site_id
 _symmetry_equiv_pos_as_xyz
  1  'x, y, z'
loop_
 _atom_site_type_symbol
 _atom_site_label
 _atom_site_symmetry_multiplicity
 _atom_site_fract_x
 _atom_site_fract_y
 _atom_site_fract_z
 _atom_site_occupancy
  Er  Er0  1  0.000000  0.500000  0.500000  1
  Er  Er1  1  0.000000  0.000000  0.000000  1
  Er  Er2  1  0.000000  0.737644  0.280612  1
  Er  Er3  1  0.000000  0.262356  0.719388  1
  Er  Er4  1  0.000000  0.762356  0.780612  1
  Er  Er5  1  0.000000  0.237644  0.219388  1
  Er  Er6  1  0.000000  0.616081  0.080029  1
  Er  Er7  1  0.000000  0.383919  0.919971  1
  Er  Er8  1  0.000000  0.883919  0.580029  1
  Er  Er9  1  0.000000  0.116081  0.419971  1
  In  In10  1  0.500000  0.714598  0.932221  1
  In  In11  1  0.500000  0.285402  0.067779  1
  In  In12  1  0.500000  0.785402  0.432221  1
  In  In13  1  0.500000  0.214598  0.567779  1
  In  In14  1  0.500000  0.581658  0.646969  1
  In  In15  1  0.500000  0.418342  0.353031  1
  In  In16  1  0.500000  0.918342  0.146969  1
  In  In17  1  0.500000  0.081658  0.853031  1
  Au  Au18  1  0.500000  0.525756  0.196629  1
  Au  Au19  1  0.500000  0.474244  0.803371  1
  Au  Au20  1  0.500000  0.974244  0.696629  1
  Au  Au21  1  0.500000  0.025756  0.303371  1
