# generated using pymatgen
data_Dy15ThCd3InCoNi3
_symmetry_space_group_name_H-M   'P 1'
_cell_length_a   9.53118458
_cell_length_b   9.53304670
_cell_length_c   9.53118600
_cell_angle_alpha   60.09606821
_cell_angle_beta   60.21968970
_cell_angle_gamma   60.09606161
_symmetry_Int_Tables_number   1
_chemical_formula_structural   Dy15ThCd3InCoNi3
_chemical_formula_sum   'Dy15 Th1 Cd3 In1 Co1 Ni3'
_cell_volume   614.26758779
_cell_formula_units_Z   1
loop_
 _symmetry_equiv_pos_site_id
 _symmetry_equiv_pos_as_xyz
  1  'x, y, z'
loop_
 _atom_site_type_symbol
 _atom_site_label
 _atom_site_symmetry_multiplicity
 _atom_site_fract_x
 _atom_site_fract_y
 _atom_site_fract_z
 _atom_site_occupancy
  Dy  Dy0  1  0.688093  0.313404  0.688093  1
  Dy  Dy1  1  0.684252  0.312613  0.310593  1
  Dy  Dy2  1  0.936938  0.565092  0.563653  1
  Dy  Dy3  1  0.547066  0.149974  0.152087  1
  Dy  Dy4  1  0.152087  0.149974  0.547066  1
  Dy  Dy5  1  0.933920  0.936712  0.564410  1
  Dy  Dy6  1  0.312687  0.685537  0.312687  1
  Dy  Dy7  1  0.564410  0.936712  0.933920  1
  Dy  Dy8  1  0.563341  0.938097  0.563341  1
  Dy  Dy9  1  0.687461  0.687449  0.312394  1
  Dy  Dy10  1  0.563653  0.565092  0.936938  1
  Dy  Dy11  1  0.935892  0.566345  0.935892  1
  Dy  Dy12  1  0.312394  0.687449  0.687461  1
  Dy  Dy13  1  0.152063  0.149758  0.152063  1
  Dy  Dy14  1  0.310593  0.312613  0.684252  1
  Th  Th15  1  0.158183  0.534639  0.158183  1
  Cd  Cd16  1  0.918892  0.919448  0.918892  1
  Cd  Cd17  1  0.918926  0.919281  0.245096  1
  Cd  Cd18  1  0.245096  0.919281  0.918926  1
  In  In19  1  0.919145  0.243578  0.919145  1
  Co  Co20  1  0.353085  0.361156  0.353085  1
  Ni  Ni21  1  0.356440  0.359571  0.926984  1
  Ni  Ni22  1  0.358403  0.926652  0.358403  1
  Ni  Ni23  1  0.926984  0.359571  0.356440  1
