# generated using pymatgen
data_K5AgSn2S7
_symmetry_space_group_name_H-M   'P 1'
_cell_length_a   7.52838216
_cell_length_b   7.52838165
_cell_length_c   16.43191837
_cell_angle_alpha   81.54658204
_cell_angle_beta   81.54658220
_cell_angle_gamma   95.19891617
_symmetry_Int_Tables_number   1
_chemical_formula_structural   K5AgSn2S7
_chemical_formula_sum   'K10 Ag2 Sn4 S14'
_cell_volume   905.16424270
_cell_formula_units_Z   2
loop_
 _symmetry_equiv_pos_site_id
 _symmetry_equiv_pos_as_xyz
  1  'x, y, z'
loop_
 _atom_site_type_symbol
 _atom_site_label
 _atom_site_symmetry_multiplicity
 _atom_site_fract_x
 _atom_site_fract_y
 _atom_site_fract_z
 _atom_site_occupancy
  K  K0  1  0.024097  0.735092  0.585675  1
  K  K1  1  0.264908  0.975903  0.914325  1
  K  K2  1  0.975903  0.264908  0.414325  1
  K  K3  1  0.735092  0.024097  0.085675  1
  K  K4  1  0.500000  0.500000  0.500000  1
  K  K5  1  0.500000  0.500000  0.000000  1
  K  K6  1  0.959628  0.520584  0.141498  1
  K  K7  1  0.479416  0.040372  0.358502  1
  K  K8  1  0.040372  0.479416  0.858502  1
  K  K9  1  0.520584  0.959628  0.641498  1
  Ag  Ag10  1  0.414327  0.585673  0.250000  1
  Ag  Ag11  1  0.585673  0.414327  0.750000  1
  Sn  Sn12  1  0.917677  0.763424  0.355239  1
  Sn  Sn13  1  0.236576  0.082323  0.144761  1
  Sn  Sn14  1  0.082323  0.236576  0.644761  1
  Sn  Sn15  1  0.763424  0.917677  0.855239  1
  S  S16  1  0.750567  0.873658  0.470179  1
  S  S17  1  0.126342  0.249433  0.029821  1
  S  S18  1  0.249433  0.126342  0.529821  1
  S  S19  1  0.873658  0.750567  0.970179  1
  S  S20  1  0.203668  0.666113  0.381128  1
  S  S21  1  0.333887  0.796332  0.118872  1
  S  S22  1  0.796332  0.333887  0.618872  1
  S  S23  1  0.666113  0.203668  0.881128  1
  S  S24  1  0.723351  0.531724  0.313035  1
  S  S25  1  0.468276  0.276649  0.186965  1
  S  S26  1  0.276649  0.468276  0.686965  1
  S  S27  1  0.531724  0.723351  0.813035  1
  S  S28  1  0.956047  0.043953  0.250000  1
  S  S29  1  0.043953  0.956047  0.750000  1
