# generated using pymatgen
data_Zr4CoPdN
_symmetry_space_group_name_H-M   'P 1'
_cell_length_a   8.74379697
_cell_length_b   8.74379755
_cell_length_c   8.74379800
_cell_angle_alpha   59.99999831
_cell_angle_beta   59.99999609
_cell_angle_gamma   60.00000398
_symmetry_Int_Tables_number   1
_chemical_formula_structural   Zr4CoPdN
_chemical_formula_sum   'Zr16 Co4 Pd4 N4'
_cell_volume   472.69963955
_cell_formula_units_Z   4
loop_
 _symmetry_equiv_pos_site_id
 _symmetry_equiv_pos_as_xyz
  1  'x, y, z'
loop_
 _atom_site_type_symbol
 _atom_site_label
 _atom_site_symmetry_multiplicity
 _atom_site_fract_x
 _atom_site_fract_y
 _atom_site_fract_z
 _atom_site_occupancy
  Zr  Zr0  1  0.077285  0.640905  0.640905  1
  Zr  Zr1  1  0.640905  0.077285  0.640905  1
  Zr  Zr2  1  0.640905  0.640905  0.077285  1
  Zr  Zr3  1  0.640905  0.640905  0.640905  1
  Zr  Zr4  1  0.816913  0.816913  0.183087  1
  Zr  Zr5  1  0.183087  0.183087  0.816913  1
  Zr  Zr6  1  0.816913  0.183087  0.816913  1
  Zr  Zr7  1  0.183087  0.816913  0.183087  1
  Zr  Zr8  1  0.183087  0.816913  0.816913  1
  Zr  Zr9  1  0.816913  0.183087  0.183087  1
  Zr  Zr10  1  0.433803  0.433803  0.066197  1
  Zr  Zr11  1  0.066197  0.066197  0.433803  1
  Zr  Zr12  1  0.433803  0.066197  0.433803  1
  Zr  Zr13  1  0.066197  0.433803  0.066197  1
  Zr  Zr14  1  0.066197  0.433803  0.433803  1
  Zr  Zr15  1  0.433803  0.066197  0.066197  1
  Co  Co16  1  0.444532  0.851823  0.851823  1
  Co  Co17  1  0.851823  0.444532  0.851823  1
  Co  Co18  1  0.851823  0.851823  0.444532  1
  Co  Co19  1  0.851823  0.851823  0.851823  1
  Pd  Pd20  1  0.751324  0.416225  0.416225  1
  Pd  Pd21  1  0.416225  0.751324  0.416225  1
  Pd  Pd22  1  0.416225  0.416225  0.751324  1
  Pd  Pd23  1  0.416225  0.416225  0.416225  1
  N  N24  1  0.623362  0.125546  0.125546  1
  N  N25  1  0.125546  0.623362  0.125546  1
  N  N26  1  0.125546  0.125546  0.623362  1
  N  N27  1  0.125546  0.125546  0.125546  1
