# generated using pymatgen
data_Dy15Ho4TmSn16
_symmetry_space_group_name_H-M   'P 1'
_cell_length_a   8.03038435
_cell_length_b   8.16670765
_cell_length_c   15.45350607
_cell_angle_alpha   90.00257072
_cell_angle_beta   89.98953802
_cell_angle_gamma   89.99332249
_symmetry_Int_Tables_number   1
_chemical_formula_structural   Dy15Ho4TmSn16
_chemical_formula_sum   'Dy15 Ho4 Tm1 Sn16'
_cell_volume   1013.46873881
_cell_formula_units_Z   1
loop_
 _symmetry_equiv_pos_site_id
 _symmetry_equiv_pos_as_xyz
  1  'x, y, z'
loop_
 _atom_site_type_symbol
 _atom_site_label
 _atom_site_symmetry_multiplicity
 _atom_site_fract_x
 _atom_site_fract_y
 _atom_site_fract_z
 _atom_site_occupancy
  Dy  Dy0  1  0.867494  0.662565  0.622455  1
  Dy  Dy1  1  0.632346  0.162741  0.377653  1
  Dy  Dy2  1  0.132533  0.337265  0.121831  1
  Dy  Dy3  1  0.632356  0.162828  0.122405  1
  Dy  Dy4  1  0.132477  0.337277  0.377943  1
  Dy  Dy5  1  0.367312  0.837220  0.622486  1
  Dy  Dy6  1  0.867708  0.662388  0.877791  1
  Dy  Dy7  1  0.520213  0.320801  0.902678  1
  Dy  Dy8  1  0.020542  0.179169  0.597401  1
  Dy  Dy9  1  0.479880  0.679340  0.403018  1
  Dy  Dy10  1  0.979632  0.820623  0.097239  1
  Dy  Dy11  1  0.479899  0.679440  0.096770  1
  Dy  Dy12  1  0.979742  0.820766  0.402776  1
  Dy  Dy13  1  0.520254  0.321052  0.597428  1
  Dy  Dy14  1  0.020428  0.179221  0.902565  1
  Ho  Ho15  1  0.367174  0.837480  0.877348  1
  Ho  Ho16  1  0.698640  0.997057  0.750116  1
  Ho  Ho17  1  0.801291  0.496941  0.250014  1
  Ho  Ho18  1  0.301239  0.002985  0.249877  1
  Tm  Tm19  1  0.198893  0.503320  0.750138  1
  Sn  Sn20  1  0.292968  0.036389  0.041209  1
  Sn  Sn21  1  0.792888  0.463166  0.458484  1
  Sn  Sn22  1  0.706985  0.963333  0.541889  1
  Sn  Sn23  1  0.207623  0.536959  0.957509  1
  Sn  Sn24  1  0.706447  0.963214  0.958064  1
  Sn  Sn25  1  0.207153  0.536533  0.542387  1
  Sn  Sn26  1  0.292904  0.036654  0.458432  1
  Sn  Sn27  1  0.792806  0.463114  0.041550  1
  Sn  Sn28  1  0.563796  0.618021  0.750289  1
  Sn  Sn29  1  0.065053  0.881204  0.750267  1
  Sn  Sn30  1  0.435016  0.382182  0.249902  1
  Sn  Sn31  1  0.935461  0.118297  0.249972  1
  Sn  Sn32  1  0.329703  0.149562  0.749982  1
  Sn  Sn33  1  0.830360  0.351485  0.749905  1
  Sn  Sn34  1  0.670342  0.851487  0.250104  1
  Sn  Sn35  1  0.170433  0.647922  0.250125  1
