# generated using pymatgen
data_LiTb16In3IrRh3
_symmetry_space_group_name_H-M   'P 1'
_cell_length_a   9.69302114
_cell_length_b   9.71510119
_cell_length_c   9.69302121
_cell_angle_alpha   60.09600857
_cell_angle_beta   59.99840518
_cell_angle_gamma   60.09600187
_symmetry_Int_Tables_number   1
_chemical_formula_structural   LiTb16In3IrRh3
_chemical_formula_sum   'Li1 Tb16 In3 Ir1 Rh3'
_cell_volume   646.35943779
_cell_formula_units_Z   1
loop_
 _symmetry_equiv_pos_site_id
 _symmetry_equiv_pos_as_xyz
  1  'x, y, z'
loop_
 _atom_site_type_symbol
 _atom_site_label
 _atom_site_symmetry_multiplicity
 _atom_site_fract_x
 _atom_site_fract_y
 _atom_site_fract_z
 _atom_site_occupancy
  Li  Li0  1  0.428457  0.428388  0.428457  1
  Tb  Tb1  1  0.808556  0.807917  0.191671  1
  Tb  Tb2  1  0.808317  0.191782  0.808317  1
  Tb  Tb3  1  0.187636  0.187959  0.813458  1
  Tb  Tb4  1  0.650229  0.047388  0.650229  1
  Tb  Tb5  1  0.061290  0.061292  0.438282  1
  Tb  Tb6  1  0.438462  0.436395  0.061985  1
  Tb  Tb7  1  0.650813  0.650447  0.650813  1
  Tb  Tb8  1  0.813458  0.187959  0.187636  1
  Tb  Tb9  1  0.191671  0.807917  0.808556  1
  Tb  Tb10  1  0.046767  0.650365  0.650472  1
  Tb  Tb11  1  0.438282  0.061292  0.061290  1
  Tb  Tb12  1  0.436581  0.062387  0.436581  1
  Tb  Tb13  1  0.060420  0.438324  0.060420  1
  Tb  Tb14  1  0.650472  0.650365  0.046767  1
  Tb  Tb15  1  0.187516  0.813499  0.187516  1
  Tb  Tb16  1  0.061985  0.436395  0.438462  1
  In  In17  1  0.417788  0.417664  0.745587  1
  In  In18  1  0.417777  0.745453  0.417777  1
  In  In19  1  0.745587  0.417664  0.417788  1
  Ir  Ir20  1  0.857716  0.425995  0.857716  1
  Rh  Rh21  1  0.857088  0.857309  0.857088  1
  Rh  Rh22  1  0.857723  0.857921  0.425410  1
  Rh  Rh23  1  0.425410  0.857921  0.857723  1
