# generated using pymatgen
data_Ce5Tc3Ge2
_symmetry_space_group_name_H-M   'P 1'
_cell_length_a   8.32148683
_cell_length_b   8.32148711
_cell_length_c   8.32148800
_cell_angle_alpha   109.47122038
_cell_angle_beta   109.47122105
_cell_angle_gamma   109.47122987
_symmetry_Int_Tables_number   1
_chemical_formula_structural   Ce5Tc3Ge2
_chemical_formula_sum   'Ce10 Tc6 Ge4'
_cell_volume   443.58916003
_cell_formula_units_Z   2
loop_
 _symmetry_equiv_pos_site_id
 _symmetry_equiv_pos_as_xyz
  1  'x, y, z'
loop_
 _atom_site_type_symbol
 _atom_site_label
 _atom_site_symmetry_multiplicity
 _atom_site_fract_x
 _atom_site_fract_y
 _atom_site_fract_z
 _atom_site_occupancy
  Ce  Ce0  1  0.782700  0.782700  0.782700  1
  Ce  Ce1  1  0.301421  0.551421  0.750000  1
  Ce  Ce2  1  0.750000  0.301421  0.551421  1
  Ce  Ce3  1  0.551421  0.750000  0.301421  1
  Ce  Ce4  1  0.717300  0.500000  0.000000  1
  Ce  Ce5  1  0.000000  0.717300  0.500000  1
  Ce  Ce6  1  0.500000  0.000000  0.717300  1
  Ce  Ce7  1  0.250000  0.198579  0.948579  1
  Ce  Ce8  1  0.948579  0.250000  0.198579  1
  Ce  Ce9  1  0.198579  0.948579  0.250000  1
  Tc  Tc10  1  0.872883  0.122883  0.750000  1
  Tc  Tc11  1  0.750000  0.872883  0.122883  1
  Tc  Tc12  1  0.122883  0.750000  0.872883  1
  Tc  Tc13  1  0.250000  0.627117  0.377117  1
  Tc  Tc14  1  0.377117  0.250000  0.627117  1
  Tc  Tc15  1  0.627117  0.377117  0.250000  1
  Ge  Ge16  1  0.402566  0.402566  0.402566  1
  Ge  Ge17  1  0.097434  0.500000  0.000000  1
  Ge  Ge18  1  0.000000  0.097434  0.500000  1
  Ge  Ge19  1  0.500000  0.000000  0.097434  1
