# generated using pymatgen
data_Er4HgAs5Rh7
_symmetry_space_group_name_H-M   'P 1'
_cell_length_a   7.29952175
_cell_length_b   7.29952183
_cell_length_c   7.29951994
_cell_angle_alpha   110.25271130
_cell_angle_beta   107.91928984
_cell_angle_gamma   110.25271574
_symmetry_Int_Tables_number   1
_chemical_formula_structural   Er4HgAs5Rh7
_chemical_formula_sum   'Er4 Hg1 As5 Rh7'
_cell_volume   299.24231133
_cell_formula_units_Z   1
loop_
 _symmetry_equiv_pos_site_id
 _symmetry_equiv_pos_as_xyz
  1  'x, y, z'
loop_
 _atom_site_type_symbol
 _atom_site_label
 _atom_site_symmetry_multiplicity
 _atom_site_fract_x
 _atom_site_fract_y
 _atom_site_fract_z
 _atom_site_occupancy
  Er  Er0  1  0.475998  0.477192  0.475998  1
  Er  Er1  1  0.998806  0.522808  0.998806  1
  Er  Er2  1  0.475998  0.000000  0.998806  1
  Er  Er3  1  0.998806  0.000000  0.475998  1
  Hg  Hg4  1  0.718655  0.000000  0.718655  1
  As  As5  1  0.674794  0.684090  0.990704  1
  As  As6  1  0.306614  0.315910  0.990704  1
  As  As7  1  0.990704  0.684090  0.674794  1
  As  As8  1  0.990704  0.315910  0.306614  1
  As  As9  1  0.344460  0.000000  0.344460  1
  Rh  Rh10  1  0.497844  0.744197  0.242044  1
  Rh  Rh11  1  0.753647  0.255803  0.497844  1
  Rh  Rh12  1  0.242044  0.744197  0.497844  1
  Rh  Rh13  1  0.244495  0.500000  0.744495  1
  Rh  Rh14  1  0.044097  0.000000  0.044097  1
  Rh  Rh15  1  0.497844  0.255803  0.753647  1
  Rh  Rh16  1  0.744495  0.500000  0.244495  1
