# generated using pymatgen
data_Nd2PaCoSn3Ir2
_symmetry_space_group_name_H-M   'P 1'
_cell_length_a   7.62695400
_cell_length_b   7.54745652
_cell_length_c   3.95593300
_cell_angle_alpha   90.00000000
_cell_angle_beta   90.00000000
_cell_angle_gamma   120.34903657
_symmetry_Int_Tables_number   1
_chemical_formula_structural   Nd2PaCoSn3Ir2
_chemical_formula_sum   'Nd2 Pa1 Co1 Sn3 Ir2'
_cell_volume   196.51380670
_cell_formula_units_Z   1
loop_
 _symmetry_equiv_pos_site_id
 _symmetry_equiv_pos_as_xyz
  1  'x, y, z'
loop_
 _atom_site_type_symbol
 _atom_site_label
 _atom_site_symmetry_multiplicity
 _atom_site_fract_x
 _atom_site_fract_y
 _atom_site_fract_z
 _atom_site_occupancy
  Nd  Nd0  1  0.000732  0.592008  0.000000  1
  Nd  Nd1  1  0.408725  0.407992  0.000000  1
  Pa  Pa2  1  0.588901  0.000000  0.000000  1
  Co  Co3  1  0.978395  0.000000  0.000000  1
  Sn  Sn4  1  0.235634  0.000000  0.500000  1
  Sn  Sn5  1  0.007178  0.253136  0.500000  1
  Sn  Sn6  1  0.754042  0.746864  0.500000  1
  Ir  Ir7  1  0.364957  0.703522  0.500000  1
  Ir  Ir8  1  0.661436  0.296478  0.500000  1
