# generated using pymatgen
data_Pr5TiRuO12
_symmetry_space_group_name_H-M   'P 1'
_cell_length_a   7.10955602
_cell_length_b   7.10955624
_cell_length_c   7.68146490
_cell_angle_alpha   74.44183136
_cell_angle_beta   74.44182926
_cell_angle_gamma   50.46995602
_symmetry_Int_Tables_number   1
_chemical_formula_structural   Pr5TiRuO12
_chemical_formula_sum   'Pr5 Ti1 Ru1 O12'
_cell_volume   285.99841105
_cell_formula_units_Z   1
loop_
 _symmetry_equiv_pos_site_id
 _symmetry_equiv_pos_as_xyz
  1  'x, y, z'
loop_
 _atom_site_type_symbol
 _atom_site_label
 _atom_site_symmetry_multiplicity
 _atom_site_fract_x
 _atom_site_fract_y
 _atom_site_fract_z
 _atom_site_occupancy
  Pr  Pr0  1  0.307166  0.304627  0.357139  1
  Pr  Pr1  1  0.695373  0.692834  0.642861  1
  Pr  Pr2  1  0.690293  0.697127  0.164762  1
  Pr  Pr3  1  0.302873  0.309707  0.835238  1
  Pr  Pr4  1  0.001829  0.998171  0.500000  1
  Ti  Ti5  1  0.776359  0.223641  0.000000  1
  Ru  Ru6  1  0.251848  0.748152  0.000000  1
  O  O7  1  0.095218  0.596203  0.577097  1
  O  O8  1  0.000026  0.998459  0.175938  1
  O  O9  1  0.403797  0.904782  0.422903  1
  O  O10  1  0.493489  0.507908  0.173820  1
  O  O11  1  0.098062  0.583458  0.079205  1
  O  O12  1  0.904460  0.403826  0.421714  1
  O  O13  1  0.001541  0.999974  0.824062  1
  O  O14  1  0.596174  0.095539  0.578286  1
  O  O15  1  0.492092  0.506511  0.826180  1
  O  O16  1  0.579967  0.107108  0.077233  1
  O  O17  1  0.416542  0.901938  0.920795  1
  O  O18  1  0.892892  0.420033  0.922767  1
