# generated using pymatgen
data_LaCo(As4Os)3
_symmetry_space_group_name_H-M   'P 1'
_cell_length_a   7.41837303
_cell_length_b   7.46825781
_cell_length_c   7.41837257
_cell_angle_alpha   109.60749338
_cell_angle_beta   109.33459918
_cell_angle_gamma   109.60750271
_symmetry_Int_Tables_number   1
_chemical_formula_structural   LaCo(As4Os)3
_chemical_formula_sum   'La1 Co1 As12 Os3'
_cell_volume   315.85048092
_cell_formula_units_Z   1
loop_
 _symmetry_equiv_pos_site_id
 _symmetry_equiv_pos_as_xyz
  1  'x, y, z'
loop_
 _atom_site_type_symbol
 _atom_site_label
 _atom_site_symmetry_multiplicity
 _atom_site_fract_x
 _atom_site_fract_y
 _atom_site_fract_z
 _atom_site_occupancy
  La  La0  1  0.000000  0.000000  0.000000  1
  Co  Co1  1  0.000000  0.500000  0.000000  1
  As  As2  1  0.348603  0.198413  0.850861  1
  As  As3  1  0.651397  0.801587  0.149139  1
  As  As4  1  0.659913  0.502758  0.853561  1
  As  As5  1  0.340087  0.497242  0.146439  1
  As  As6  1  0.193648  0.842844  0.340087  1
  As  As7  1  0.806352  0.157156  0.659913  1
  As  As8  1  0.502259  0.849810  0.651397  1
  As  As9  1  0.497741  0.150190  0.348603  1
  As  As10  1  0.853561  0.350803  0.193648  1
  As  As11  1  0.146439  0.649197  0.806352  1
  As  As12  1  0.850861  0.652448  0.502259  1
  As  As13  1  0.149139  0.347552  0.497741  1
  Os  Os14  1  0.000000  0.000000  0.500000  1
  Os  Os15  1  0.500000  0.000000  0.000000  1
  Os  Os16  1  0.500000  0.500000  0.500000  1
