# generated using pymatgen
data_Hf18Re5Mo3PRu
_symmetry_space_group_name_H-M   'P 1'
_cell_length_a   8.63756653
_cell_length_b   8.63756659
_cell_length_c   8.54815700
_cell_angle_alpha   90.00000000
_cell_angle_beta   90.00000000
_cell_angle_gamma   120.04013346
_symmetry_Int_Tables_number   1
_chemical_formula_structural   Hf18Re5Mo3PRu
_chemical_formula_sum   'Hf18 Re5 Mo3 P1 Ru1'
_cell_volume   552.09035525
_cell_formula_units_Z   1
loop_
 _symmetry_equiv_pos_site_id
 _symmetry_equiv_pos_as_xyz
  1  'x, y, z'
loop_
 _atom_site_type_symbol
 _atom_site_label
 _atom_site_symmetry_multiplicity
 _atom_site_fract_x
 _atom_site_fract_y
 _atom_site_fract_z
 _atom_site_occupancy
  Hf  Hf0  1  0.198562  0.801438  0.446008  1
  Hf  Hf1  1  0.198181  0.396484  0.446578  1
  Hf  Hf2  1  0.603516  0.801819  0.446578  1
  Hf  Hf3  1  0.804366  0.195634  0.549246  1
  Hf  Hf4  1  0.803604  0.607954  0.548462  1
  Hf  Hf5  1  0.392046  0.196396  0.548462  1
  Hf  Hf6  1  0.804366  0.195634  0.950754  1
  Hf  Hf7  1  0.803604  0.607954  0.951538  1
  Hf  Hf8  1  0.392046  0.196396  0.951538  1
  Hf  Hf9  1  0.198562  0.801438  0.053992  1
  Hf  Hf10  1  0.198181  0.396484  0.053422  1
  Hf  Hf11  1  0.603516  0.801819  0.053422  1
  Hf  Hf12  1  0.541612  0.458388  0.250000  1
  Hf  Hf13  1  0.542152  0.083686  0.250000  1
  Hf  Hf14  1  0.916314  0.457848  0.250000  1
  Hf  Hf15  1  0.459781  0.540219  0.750000  1
  Hf  Hf16  1  0.460940  0.920180  0.750000  1
  Hf  Hf17  1  0.079820  0.539060  0.750000  1
  Re  Re18  1  0.888370  0.111630  0.250000  1
  Re  Re19  1  0.888008  0.776370  0.250000  1
  Re  Re20  1  0.223630  0.111992  0.250000  1
  Re  Re21  1  0.110862  0.222567  0.750000  1
  Re  Re22  1  0.777433  0.889138  0.750000  1
  Mo  Mo23  1  0.110256  0.889744  0.750000  1
  Mo  Mo24  1  0.999840  0.000160  0.499055  1
  Mo  Mo25  1  0.999840  0.000160  0.000945  1
  P  P26  1  0.666914  0.333086  0.750000  1
  Ru  Ru27  1  0.333680  0.666320  0.250000  1
