# generated using pymatgen
data_Hf10CuSn6As
_symmetry_space_group_name_H-M   'P 1'
_cell_length_a   8.60663900
_cell_length_b   8.60663960
_cell_length_c   5.84042600
_cell_angle_alpha   90.00000000
_cell_angle_beta   90.00000000
_cell_angle_gamma   119.99999384
_symmetry_Int_Tables_number   1
_chemical_formula_structural   Hf10CuSn6As
_chemical_formula_sum   'Hf10 Cu1 Sn6 As1'
_cell_volume   374.66436542
_cell_formula_units_Z   1
loop_
 _symmetry_equiv_pos_site_id
 _symmetry_equiv_pos_as_xyz
  1  'x, y, z'
loop_
 _atom_site_type_symbol
 _atom_site_label
 _atom_site_symmetry_multiplicity
 _atom_site_fract_x
 _atom_site_fract_y
 _atom_site_fract_z
 _atom_site_occupancy
  Hf  Hf0  1  0.333333  0.666667  0.000000  1
  Hf  Hf1  1  0.666667  0.333333  0.500000  1
  Hf  Hf2  1  0.666667  0.333333  0.000000  1
  Hf  Hf3  1  0.333333  0.666667  0.500000  1
  Hf  Hf4  1  0.263055  0.000000  0.252274  1
  Hf  Hf5  1  0.263055  0.263055  0.747726  1
  Hf  Hf6  1  0.000000  0.736945  0.747726  1
  Hf  Hf7  1  0.000000  0.263055  0.252274  1
  Hf  Hf8  1  0.736945  0.736945  0.252274  1
  Hf  Hf9  1  0.736945  0.000000  0.747726  1
  Cu  Cu10  1  0.000000  0.000000  0.500000  1
  Sn  Sn11  1  0.609941  0.000000  0.251793  1
  Sn  Sn12  1  0.609941  0.609941  0.748207  1
  Sn  Sn13  1  0.000000  0.390059  0.748207  1
  Sn  Sn14  1  0.000000  0.609941  0.251793  1
  Sn  Sn15  1  0.390059  0.390059  0.251793  1
  Sn  Sn16  1  0.390059  0.000000  0.748207  1
  As  As17  1  0.000000  0.000000  0.000000  1
