# generated using pymatgen
data_Be8NbAlOs2
_symmetry_space_group_name_H-M   'P 1'
_cell_length_a   4.40091300
_cell_length_b   4.40091322
_cell_length_c   7.27361200
_cell_angle_alpha   90.00000000
_cell_angle_beta   90.00000000
_cell_angle_gamma   119.99999083
_symmetry_Int_Tables_number   1
_chemical_formula_structural   Be8NbAlOs2
_chemical_formula_sum   'Be8 Nb1 Al1 Os2'
_cell_volume   122.00184277
_cell_formula_units_Z   1
loop_
 _symmetry_equiv_pos_site_id
 _symmetry_equiv_pos_as_xyz
  1  'x, y, z'
loop_
 _atom_site_type_symbol
 _atom_site_label
 _atom_site_symmetry_multiplicity
 _atom_site_fract_x
 _atom_site_fract_y
 _atom_site_fract_z
 _atom_site_occupancy
  Be  Be0  1  0.000000  0.000000  0.002518  1
  Be  Be1  1  0.000000  0.000000  0.492494  1
  Be  Be2  1  0.830532  0.661065  0.243549  1
  Be  Be3  1  0.166729  0.833271  0.758568  1
  Be  Be4  1  0.666542  0.833271  0.758568  1
  Be  Be5  1  0.338935  0.169468  0.243549  1
  Be  Be6  1  0.830532  0.169468  0.243549  1
  Be  Be7  1  0.166729  0.333458  0.758568  1
  Nb  Nb8  1  0.666667  0.333333  0.561992  1
  Al  Al9  1  0.333333  0.666667  0.062656  1
  Os  Os10  1  0.666667  0.333333  0.936247  1
  Os  Os11  1  0.333333  0.666667  0.437742  1
