# generated using pymatgen
data_Lu2ScB2Ir4Rh
_symmetry_space_group_name_H-M   'P 1'
_cell_length_a   9.69471800
_cell_length_b   9.69471800
_cell_length_c   3.14462500
_cell_angle_alpha   90.00000000
_cell_angle_beta   90.00000000
_cell_angle_gamma   90.00000000
_symmetry_Int_Tables_number   1
_chemical_formula_structural   Lu2ScB2Ir4Rh
_chemical_formula_sum   'Lu4 Sc2 B4 Ir8 Rh2'
_cell_volume   295.55562174
_cell_formula_units_Z   2
loop_
 _symmetry_equiv_pos_site_id
 _symmetry_equiv_pos_as_xyz
  1  'x, y, z'
loop_
 _atom_site_type_symbol
 _atom_site_label
 _atom_site_symmetry_multiplicity
 _atom_site_fract_x
 _atom_site_fract_y
 _atom_site_fract_z
 _atom_site_occupancy
  Lu  Lu0  1  0.824549  0.324549  0.000000  1
  Lu  Lu1  1  0.324549  0.175451  0.000000  1
  Lu  Lu2  1  0.675451  0.824549  0.000000  1
  Lu  Lu3  1  0.175451  0.675451  0.000000  1
  Sc  Sc4  1  0.000000  0.000000  0.000000  1
  Sc  Sc5  1  0.500000  0.500000  0.000000  1
  B  B6  1  0.621803  0.121803  0.000000  1
  B  B7  1  0.121803  0.378197  0.000000  1
  B  B8  1  0.878197  0.621803  0.000000  1
  B  B9  1  0.378197  0.878197  0.000000  1
  Ir  Ir10  1  0.069482  0.224414  0.500000  1
  Ir  Ir11  1  0.224414  0.930518  0.500000  1
  Ir  Ir12  1  0.775586  0.069482  0.500000  1
  Ir  Ir13  1  0.930518  0.775586  0.500000  1
  Ir  Ir14  1  0.430518  0.724414  0.500000  1
  Ir  Ir15  1  0.569482  0.275586  0.500000  1
  Ir  Ir16  1  0.724414  0.569482  0.500000  1
  Ir  Ir17  1  0.275586  0.430518  0.500000  1
  Rh  Rh18  1  0.500000  0.000000  0.500000  1
  Rh  Rh19  1  0.000000  0.500000  0.500000  1
