# generated using pymatgen
data_Er8Hf12Si15Ni
_symmetry_space_group_name_H-M   'P 1'
_cell_length_a   7.23930925
_cell_length_b   7.26829717
_cell_length_c   13.34541551
_cell_angle_alpha   90.19746070
_cell_angle_beta   89.92561547
_cell_angle_gamma   90.15384108
_symmetry_Int_Tables_number   1
_chemical_formula_structural   Er8Hf12Si15Ni
_chemical_formula_sum   'Er8 Hf12 Si15 Ni1'
_cell_volume   702.19446087
_cell_formula_units_Z   1
loop_
 _symmetry_equiv_pos_site_id
 _symmetry_equiv_pos_as_xyz
  1  'x, y, z'
loop_
 _atom_site_type_symbol
 _atom_site_label
 _atom_site_symmetry_multiplicity
 _atom_site_fract_x
 _atom_site_fract_y
 _atom_site_fract_z
 _atom_site_occupancy
  Er  Er0  1  0.996652  0.348799  0.215338  1
  Er  Er1  1  0.005814  0.653257  0.714386  1
  Er  Er2  1  0.159780  0.489702  0.461520  1
  Er  Er3  1  0.504402  0.845804  0.034710  1
  Er  Er4  1  0.844182  0.504313  0.965608  1
  Er  Er5  1  0.495768  0.152154  0.537555  1
  Er  Er6  1  0.345263  0.996323  0.785597  1
  Er  Er7  1  0.656733  0.003473  0.284597  1
  Hf  Hf8  1  0.175374  0.177494  0.999419  1
  Hf  Hf9  1  0.825706  0.822112  0.499628  1
  Hf  Hf10  1  0.323136  0.677381  0.250385  1
  Hf  Hf11  1  0.676130  0.323875  0.750207  1
  Hf  Hf12  1  0.152645  0.008091  0.374316  1
  Hf  Hf13  1  0.852026  0.003414  0.875654  1
  Hf  Hf14  1  0.503228  0.647118  0.624585  1
  Hf  Hf15  1  0.353213  0.496964  0.874735  1
  Hf  Hf16  1  0.494267  0.351656  0.128805  1
  Hf  Hf17  1  0.638799  0.497900  0.376041  1
  Hf  Hf18  1  0.997618  0.146032  0.626071  1
  Hf  Hf19  1  0.000196  0.852812  0.124139  1
  Si  Si20  1  0.640787  0.704935  0.818271  1
  Si  Si21  1  0.203845  0.857777  0.566529  1
  Si  Si22  1  0.140341  0.796538  0.932304  1
  Si  Si23  1  0.795773  0.141905  0.067749  1
  Si  Si24  1  0.857105  0.199149  0.435505  1
  Si  Si25  1  0.296153  0.359063  0.683301  1
  Si  Si26  1  0.704293  0.642929  0.182131  1
  Si  Si27  1  0.292457  0.052247  0.185446  1
  Si  Si28  1  0.705173  0.948870  0.686076  1
  Si  Si29  1  0.449285  0.795231  0.435864  1
  Si  Si30  1  0.203913  0.551615  0.062995  1
  Si  Si31  1  0.549057  0.204974  0.936260  1
  Si  Si32  1  0.796888  0.448988  0.564744  1
  Si  Si33  1  0.049169  0.296887  0.814827  1
  Si  Si34  1  0.949669  0.706821  0.313970  1
  Ni  Ni35  1  0.365160  0.293403  0.310736  1
