# generated using pymatgen
data_SrLi3Eu2Pb3
_symmetry_space_group_name_H-M   'P 1'
_cell_length_a   5.12444400
_cell_length_b   5.12444377
_cell_length_c   11.65114100
_cell_angle_alpha   90.00000000
_cell_angle_beta   90.00000000
_cell_angle_gamma   119.99998855
_symmetry_Int_Tables_number   1
_chemical_formula_structural   SrLi3Eu2Pb3
_chemical_formula_sum   'Sr1 Li3 Eu2 Pb3'
_cell_volume   264.96750948
_cell_formula_units_Z   1
loop_
 _symmetry_equiv_pos_site_id
 _symmetry_equiv_pos_as_xyz
  1  'x, y, z'
loop_
 _atom_site_type_symbol
 _atom_site_label
 _atom_site_symmetry_multiplicity
 _atom_site_fract_x
 _atom_site_fract_y
 _atom_site_fract_z
 _atom_site_occupancy
  Sr  Sr0  1  0.666667  0.333333  0.333907  1
  Li  Li1  1  0.000000  0.000000  0.806252  1
  Li  Li2  1  0.333333  0.666667  0.524167  1
  Li  Li3  1  0.000000  0.000000  0.162358  1
  Eu  Eu4  1  0.666667  0.333333  0.672772  1
  Eu  Eu5  1  0.666667  0.333333  0.996390  1
  Pb  Pb6  1  0.333333  0.666667  0.140764  1
  Pb  Pb7  1  0.333333  0.666667  0.843618  1
  Pb  Pb8  1  0.000000  0.000000  0.519771  1
