# generated using pymatgen
data_Tb4Tc3Os2Ru3
_symmetry_space_group_name_H-M   'P 1'
_cell_length_a   5.26362227
_cell_length_b   5.15045740
_cell_length_c   9.20523600
_cell_angle_alpha   90.00000000
_cell_angle_beta   90.00000000
_cell_angle_gamma   117.88950527
_symmetry_Int_Tables_number   1
_chemical_formula_structural   Tb4Tc3Os2Ru3
_chemical_formula_sum   'Tb4 Tc3 Os2 Ru3'
_cell_volume   220.56909409
_cell_formula_units_Z   1
loop_
 _symmetry_equiv_pos_site_id
 _symmetry_equiv_pos_as_xyz
  1  'x, y, z'
loop_
 _atom_site_type_symbol
 _atom_site_label
 _atom_site_symmetry_multiplicity
 _atom_site_fract_x
 _atom_site_fract_y
 _atom_site_fract_z
 _atom_site_occupancy
  Tb  Tb0  1  0.330185  0.666110  0.435973  1
  Tb  Tb1  1  0.671012  0.333104  0.566138  1
  Tb  Tb2  1  0.671012  0.333104  0.933862  1
  Tb  Tb3  1  0.330185  0.666110  0.064027  1
  Tc  Tc4  1  0.830524  0.171622  0.250000  1
  Tc  Tc5  1  0.829365  0.661031  0.250000  1
  Tc  Tc6  1  0.163983  0.831798  0.750000  1
  Os  Os7  1  0.339321  0.169739  0.250000  1
  Os  Os8  1  0.166941  0.340383  0.750000  1
  Ru  Ru9  1  0.007933  0.000748  0.501734  1
  Ru  Ru10  1  0.007933  0.000748  0.998266  1
  Ru  Ru11  1  0.651607  0.825505  0.750000  1
