# generated using pymatgen
data_La2InRhAu
_symmetry_space_group_name_H-M   'P 1'
_cell_length_a   8.03928600
_cell_length_b   8.02946300
_cell_length_c   3.95617300
_cell_angle_alpha   90.00000000
_cell_angle_beta   90.00000000
_cell_angle_gamma   90.00000000
_symmetry_Int_Tables_number   1
_chemical_formula_structural   La2InRhAu
_chemical_formula_sum   'La4 In2 Rh2 Au2'
_cell_volume   255.37551471
_cell_formula_units_Z   2
loop_
 _symmetry_equiv_pos_site_id
 _symmetry_equiv_pos_as_xyz
  1  'x, y, z'
loop_
 _atom_site_type_symbol
 _atom_site_label
 _atom_site_symmetry_multiplicity
 _atom_site_fract_x
 _atom_site_fract_y
 _atom_site_fract_z
 _atom_site_occupancy
  La  La0  1  0.179652  0.311241  0.500000  1
  La  La1  1  0.679652  0.188759  0.500000  1
  La  La2  1  0.823044  0.651042  0.500000  1
  La  La3  1  0.323044  0.848958  0.500000  1
  In  In4  1  0.002241  0.007465  0.000000  1
  In  In5  1  0.502241  0.492535  0.000000  1
  Rh  Rh6  1  0.363226  0.126810  0.000000  1
  Rh  Rh7  1  0.863226  0.373190  0.000000  1
  Au  Au8  1  0.131838  0.618819  0.000000  1
  Au  Au9  1  0.631838  0.881181  0.000000  1
