# generated using pymatgen
data_Pr2NpSe5
_symmetry_space_group_name_H-M   'P 1'
_cell_length_a   7.95718700
_cell_length_b   8.46021300
_cell_length_c   12.54941300
_cell_angle_alpha   90.00000000
_cell_angle_beta   90.00000000
_cell_angle_gamma   90.00000000
_symmetry_Int_Tables_number   1
_chemical_formula_structural   Pr2NpSe5
_chemical_formula_sum   'Pr8 Np4 Se20'
_cell_volume   844.82016956
_cell_formula_units_Z   4
loop_
 _symmetry_equiv_pos_site_id
 _symmetry_equiv_pos_as_xyz
  1  'x, y, z'
loop_
 _atom_site_type_symbol
 _atom_site_label
 _atom_site_symmetry_multiplicity
 _atom_site_fract_x
 _atom_site_fract_y
 _atom_site_fract_z
 _atom_site_occupancy
  Pr  Pr0  1  0.975155  0.501038  0.322527  1
  Pr  Pr1  1  0.524845  0.998962  0.822527  1
  Pr  Pr2  1  0.024845  0.001038  0.677473  1
  Pr  Pr3  1  0.475155  0.498962  0.177473  1
  Pr  Pr4  1  0.024845  0.498962  0.677473  1
  Pr  Pr5  1  0.475155  0.001038  0.177473  1
  Pr  Pr6  1  0.975155  0.998962  0.322527  1
  Pr  Pr7  1  0.524845  0.501038  0.822527  1
  Np  Np8  1  0.938139  0.750000  0.003870  1
  Np  Np9  1  0.561861  0.750000  0.503870  1
  Np  Np10  1  0.061861  0.250000  0.996130  1
  Np  Np11  1  0.438139  0.250000  0.496130  1
  Se  Se12  1  0.833667  0.038899  0.094779  1
  Se  Se13  1  0.666333  0.461101  0.594779  1
  Se  Se14  1  0.166333  0.538899  0.905221  1
  Se  Se15  1  0.333667  0.961101  0.405221  1
  Se  Se16  1  0.166333  0.961101  0.905221  1
  Se  Se17  1  0.333667  0.538899  0.405221  1
  Se  Se18  1  0.833667  0.461101  0.094779  1
  Se  Se19  1  0.666333  0.038899  0.594779  1
  Se  Se20  1  0.547077  0.750000  0.001147  1
  Se  Se21  1  0.952923  0.750000  0.501147  1
  Se  Se22  1  0.452923  0.250000  0.998853  1
  Se  Se23  1  0.047077  0.250000  0.498853  1
  Se  Se24  1  0.169255  0.750000  0.185050  1
  Se  Se25  1  0.330745  0.750000  0.685050  1
  Se  Se26  1  0.830745  0.250000  0.814950  1
  Se  Se27  1  0.669255  0.250000  0.314950  1
  Se  Se28  1  0.693334  0.750000  0.287059  1
  Se  Se29  1  0.806666  0.750000  0.787059  1
  Se  Se30  1  0.306666  0.250000  0.712941  1
  Se  Se31  1  0.193334  0.250000  0.212941  1
