# generated using pymatgen
data_LuU2Sn3IrRh2
_symmetry_space_group_name_H-M   'P 1'
_cell_length_a   7.44641490
_cell_length_b   7.45859390
_cell_length_c   3.98168200
_cell_angle_alpha   90.00000000
_cell_angle_beta   90.00000000
_cell_angle_gamma   121.08785158
_symmetry_Int_Tables_number   1
_chemical_formula_structural   LuU2Sn3IrRh2
_chemical_formula_sum   'Lu1 U2 Sn3 Ir1 Rh2'
_cell_volume   189.38062646
_cell_formula_units_Z   1
loop_
 _symmetry_equiv_pos_site_id
 _symmetry_equiv_pos_as_xyz
  1  'x, y, z'
loop_
 _atom_site_type_symbol
 _atom_site_label
 _atom_site_symmetry_multiplicity
 _atom_site_fract_x
 _atom_site_fract_y
 _atom_site_fract_z
 _atom_site_occupancy
  Lu  Lu0  1  0.407332  0.409827  0.500000  1
  U  U1  1  0.583794  0.998168  0.500000  1
  U  U2  1  0.005300  0.586998  0.500000  1
  Sn  Sn3  1  0.736101  0.734195  0.000000  1
  Sn  Sn4  1  0.256413  0.010959  0.000000  1
  Sn  Sn5  1  0.006742  0.254509  0.000000  1
  Ir  Ir6  1  0.331265  0.681043  0.000000  1
  Rh  Rh7  1  0.680238  0.331336  0.000000  1
  Rh  Rh8  1  0.992815  0.992964  0.500000  1
