# generated using pymatgen
data_Sc2SnB2Ir5
_symmetry_space_group_name_H-M   'P 1'
_cell_length_a   9.44202500
_cell_length_b   9.44202500
_cell_length_c   3.22721900
_cell_angle_alpha   90.00000000
_cell_angle_beta   90.00000000
_cell_angle_gamma   90.00000000
_symmetry_Int_Tables_number   1
_chemical_formula_structural   Sc2SnB2Ir5
_chemical_formula_sum   'Sc4 Sn2 B4 Ir10'
_cell_volume   287.71249935
_cell_formula_units_Z   2
loop_
 _symmetry_equiv_pos_site_id
 _symmetry_equiv_pos_as_xyz
  1  'x, y, z'
loop_
 _atom_site_type_symbol
 _atom_site_label
 _atom_site_symmetry_multiplicity
 _atom_site_fract_x
 _atom_site_fract_y
 _atom_site_fract_z
 _atom_site_occupancy
  Sc  Sc0  1  0.675220  0.175220  0.000000  1
  Sc  Sc1  1  0.324780  0.824780  0.000000  1
  Sc  Sc2  1  0.175220  0.324780  0.000000  1
  Sc  Sc3  1  0.824780  0.675220  0.000000  1
  Sn  Sn4  1  0.000000  0.000000  0.000000  1
  Sn  Sn5  1  0.500000  0.500000  0.000000  1
  B  B6  1  0.121784  0.621784  0.000000  1
  B  B7  1  0.878216  0.378216  0.000000  1
  B  B8  1  0.621784  0.878216  0.000000  1
  B  B9  1  0.378216  0.121784  0.000000  1
  Ir  Ir10  1  0.222467  0.072021  0.500000  1
  Ir  Ir11  1  0.777533  0.927979  0.500000  1
  Ir  Ir12  1  0.072021  0.777533  0.500000  1
  Ir  Ir13  1  0.722467  0.427979  0.500000  1
  Ir  Ir14  1  0.927979  0.222467  0.500000  1
  Ir  Ir15  1  0.277533  0.572021  0.500000  1
  Ir  Ir16  1  0.572021  0.722467  0.500000  1
  Ir  Ir17  1  0.427979  0.277533  0.500000  1
  Ir  Ir18  1  0.500000  0.000000  0.500000  1
  Ir  Ir19  1  0.000000  0.500000  0.500000  1
