# generated using pymatgen
data_As2(PSe3)3
_symmetry_space_group_name_H-M   'P 1'
_cell_length_a   6.42326019
_cell_length_b   8.28672100
_cell_length_c   15.48001322
_cell_angle_alpha   91.54698479
_cell_angle_beta   102.12394802
_cell_angle_gamma   89.25904612
_symmetry_Int_Tables_number   1
_chemical_formula_structural   As2(PSe3)3
_chemical_formula_sum   'As4 P6 Se18'
_cell_volume   805.27253000
_cell_formula_units_Z   2
loop_
 _symmetry_equiv_pos_site_id
 _symmetry_equiv_pos_as_xyz
  1  'x, y, z'
loop_
 _atom_site_type_symbol
 _atom_site_label
 _atom_site_symmetry_multiplicity
 _atom_site_fract_x
 _atom_site_fract_y
 _atom_site_fract_z
 _atom_site_occupancy
  As  As0  1  0.559581  0.617782  0.113364  1
  As  As1  1  0.215388  0.932634  0.429978  1
  As  As2  1  0.440419  0.382218  0.886636  1
  As  As3  1  0.784612  0.067366  0.570022  1
  P  P4  1  0.321873  0.286370  0.636924  1
  P  P5  1  0.966876  0.617338  0.965758  1
  P  P6  1  0.650661  0.949215  0.295179  1
  P  P7  1  0.349339  0.050785  0.704821  1
  P  P8  1  0.033124  0.382662  0.034242  1
  P  P9  1  0.678127  0.713630  0.363076  1
  Se  Se10  1  0.138624  0.208703  0.941857  1
  Se  Se11  1  0.791614  0.537566  0.275198  1
  Se  Se12  1  0.487502  0.878769  0.617893  1
  Se  Se13  1  0.703232  0.318922  0.053138  1
  Se  Se14  1  0.352599  0.659639  0.382901  1
  Se  Se15  1  0.020840  0.983561  0.716245  1
  Se  Se16  1  0.249085  0.427349  0.161789  1
  Se  Se17  1  0.917130  0.750944  0.488790  1
  Se  Se18  1  0.563851  0.087299  0.833595  1
  Se  Se19  1  0.861376  0.791297  0.058143  1
  Se  Se20  1  0.512498  0.121231  0.382107  1
  Se  Se21  1  0.208386  0.462434  0.724802  1
  Se  Se22  1  0.296768  0.681078  0.946862  1
  Se  Se23  1  0.979160  0.016439  0.283755  1
  Se  Se24  1  0.647401  0.340361  0.617099  1
  Se  Se25  1  0.750915  0.572651  0.838211  1
  Se  Se26  1  0.436149  0.912701  0.166405  1
  Se  Se27  1  0.082870  0.249056  0.511210  1
