# generated using pymatgen
data_Zr6Fe4Co11Si7Pt
_symmetry_space_group_name_H-M   'P 1'
_cell_length_a   8.14895379
_cell_length_b   8.14895363
_cell_length_c   8.16027784
_cell_angle_alpha   60.04589687
_cell_angle_beta   60.04589707
_cell_angle_gamma   59.99998926
_symmetry_Int_Tables_number   1
_chemical_formula_structural   Zr6Fe4Co11Si7Pt
_chemical_formula_sum   'Zr6 Fe4 Co11 Si7 Pt1'
_cell_volume   383.43747019
_cell_formula_units_Z   1
loop_
 _symmetry_equiv_pos_site_id
 _symmetry_equiv_pos_as_xyz
  1  'x, y, z'
loop_
 _atom_site_type_symbol
 _atom_site_label
 _atom_site_symmetry_multiplicity
 _atom_site_fract_x
 _atom_site_fract_y
 _atom_site_fract_z
 _atom_site_occupancy
  Zr  Zr0  1  0.703118  0.703118  0.294140  1
  Zr  Zr1  1  0.299623  0.703118  0.294140  1
  Zr  Zr2  1  0.703118  0.299623  0.294140  1
  Zr  Zr3  1  0.293028  0.293028  0.709639  1
  Zr  Zr4  1  0.704305  0.293028  0.709639  1
  Zr  Zr5  1  0.293028  0.704305  0.709639  1
  Fe  Fe6  1  0.323455  0.323455  0.029635  1
  Fe  Fe7  1  0.324061  0.029270  0.322607  1
  Fe  Fe8  1  0.029270  0.324061  0.322607  1
  Fe  Fe9  1  0.324061  0.324061  0.322607  1
  Co  Co10  1  0.880338  0.359200  0.880125  1
  Co  Co11  1  0.359200  0.880338  0.880125  1
  Co  Co12  1  0.880338  0.880338  0.880125  1
  Co  Co13  1  0.122054  0.122054  0.633835  1
  Co  Co14  1  0.123225  0.636975  0.116575  1
  Co  Co15  1  0.636975  0.123225  0.116575  1
  Co  Co16  1  0.123225  0.123225  0.116575  1
  Co  Co17  1  0.669512  0.669512  0.991465  1
  Co  Co18  1  0.668285  0.990344  0.673086  1
  Co  Co19  1  0.990344  0.668285  0.673086  1
  Co  Co20  1  0.668285  0.668285  0.673086  1
  Si  Si21  1  0.006111  0.006111  0.981667  1
  Si  Si22  1  0.999184  0.999184  0.510554  1
  Si  Si23  1  0.491079  0.999184  0.510554  1
  Si  Si24  1  0.999184  0.491079  0.510554  1
  Si  Si25  1  0.502126  0.502126  0.998199  1
  Si  Si26  1  0.997549  0.502126  0.998199  1
  Si  Si27  1  0.502126  0.997549  0.998199  1
  Pt  Pt28  1  0.883794  0.883794  0.348619  1
