# generated using pymatgen
data_CaZr(NiSb)2
_symmetry_space_group_name_H-M   'P 1'
_cell_length_a   4.19431200
_cell_length_b   8.04688670
_cell_length_c   7.42352997
_cell_angle_alpha   87.92862936
_cell_angle_beta   90.00000000
_cell_angle_gamma   90.00000000
_symmetry_Int_Tables_number   1
_chemical_formula_structural   CaZr(NiSb)2
_chemical_formula_sum   'Ca2 Zr2 Ni4 Sb4'
_cell_volume   250.38898260
_cell_formula_units_Z   2
loop_
 _symmetry_equiv_pos_site_id
 _symmetry_equiv_pos_as_xyz
  1  'x, y, z'
loop_
 _atom_site_type_symbol
 _atom_site_label
 _atom_site_symmetry_multiplicity
 _atom_site_fract_x
 _atom_site_fract_y
 _atom_site_fract_z
 _atom_site_occupancy
  Ca  Ca0  1  0.750000  0.015545  0.746441  1
  Ca  Ca1  1  0.250000  0.984455  0.253559  1
  Zr  Zr2  1  0.750000  0.483098  0.708494  1
  Zr  Zr3  1  0.250000  0.516902  0.291506  1
  Ni  Ni4  1  0.250000  0.593352  0.934043  1
  Ni  Ni5  1  0.750000  0.406648  0.065957  1
  Ni  Ni6  1  0.250000  0.289715  0.578314  1
  Ni  Ni7  1  0.750000  0.710285  0.421686  1
  Sb  Sb8  1  0.250000  0.746450  0.612203  1
  Sb  Sb9  1  0.750000  0.253550  0.387797  1
  Sb  Sb10  1  0.250000  0.265736  0.925319  1
  Sb  Sb11  1  0.750000  0.734264  0.074681  1
