# generated using pymatgen
data_Ho2LuAl12Ru3Pt
_symmetry_space_group_name_H-M   'P 1'
_cell_length_a   8.78123020
_cell_length_b   8.77540195
_cell_length_c   9.53244384
_cell_angle_alpha   90.03741091
_cell_angle_beta   90.10312726
_cell_angle_gamma   119.48688806
_symmetry_Int_Tables_number   1
_chemical_formula_structural   Ho2LuAl12Ru3Pt
_chemical_formula_sum   'Ho4 Lu2 Al24 Ru6 Pt2'
_cell_volume   639.40826316
_cell_formula_units_Z   2
loop_
 _symmetry_equiv_pos_site_id
 _symmetry_equiv_pos_as_xyz
  1  'x, y, z'
loop_
 _atom_site_type_symbol
 _atom_site_label
 _atom_site_symmetry_multiplicity
 _atom_site_fract_x
 _atom_site_fract_y
 _atom_site_fract_z
 _atom_site_occupancy
  Ho  Ho0  1  0.615540  0.809551  0.251318  1
  Ho  Ho1  1  0.384460  0.190449  0.748682  1
  Ho  Ho2  1  0.191548  0.806594  0.251868  1
  Ho  Ho3  1  0.808452  0.193406  0.748132  1
  Lu  Lu4  1  0.192263  0.391949  0.252813  1
  Lu  Lu5  1  0.807737  0.608051  0.747187  1
  Al  Al6  1  0.327227  0.664408  0.025845  1
  Al  Al7  1  0.672773  0.335592  0.974155  1
  Al  Al8  1  0.666704  0.332586  0.523952  1
  Al  Al9  1  0.333296  0.667414  0.476048  1
  Al  Al10  1  0.163915  0.327055  0.576090  1
  Al  Al11  1  0.836085  0.672945  0.423910  1
  Al  Al12  1  0.674171  0.836361  0.576510  1
  Al  Al13  1  0.842121  0.676018  0.078425  1
  Al  Al14  1  0.325829  0.163639  0.423490  1
  Al  Al15  1  0.157879  0.323982  0.921575  1
  Al  Al16  1  0.163024  0.836399  0.578277  1
  Al  Al17  1  0.322376  0.162684  0.080243  1
  Al  Al18  1  0.836976  0.163601  0.421723  1
  Al  Al19  1  0.677624  0.837316  0.919757  1
  Al  Al20  1  0.842430  0.168043  0.080138  1
  Al  Al21  1  0.157570  0.831957  0.919862  1
  Al  Al22  1  0.561733  0.125773  0.252484  1
  Al  Al23  1  0.438267  0.874227  0.747516  1
  Al  Al24  1  0.877815  0.440566  0.249077  1
  Al  Al25  1  0.122185  0.559434  0.750923  1
  Al  Al26  1  0.561786  0.438156  0.252962  1
  Al  Al27  1  0.438214  0.561844  0.747038  1
  Al  Al28  1  0.999631  0.004273  0.250397  1
  Al  Al29  1  0.000369  0.995727  0.749603  1
  Ru  Ru30  1  0.000000  0.500000  0.000000  1
  Ru  Ru31  1  0.500000  0.000000  0.500000  1
  Ru  Ru32  1  0.000000  0.500000  0.500000  1
  Ru  Ru33  1  0.500000  0.500000  0.500000  1
  Ru  Ru34  1  0.000000  0.000000  0.000000  1
  Ru  Ru35  1  0.000000  0.000000  0.500000  1
  Pt  Pt36  1  0.500000  0.000000  0.000000  1
  Pt  Pt37  1  0.500000  0.500000  0.000000  1
