# generated using pymatgen
data_Rb4LaPaTe6
_symmetry_space_group_name_H-M   'P 1'
_cell_length_a   8.36416287
_cell_length_b   8.36416294
_cell_length_c   8.97647817
_cell_angle_alpha   80.92778643
_cell_angle_beta   80.92778217
_cell_angle_gamma   119.99533561
_symmetry_Int_Tables_number   1
_chemical_formula_structural   Rb4LaPaTe6
_chemical_formula_sum   'Rb4 La1 Pa1 Te6'
_cell_volume   516.12994149
_cell_formula_units_Z   1
loop_
 _symmetry_equiv_pos_site_id
 _symmetry_equiv_pos_as_xyz
  1  'x, y, z'
loop_
 _atom_site_type_symbol
 _atom_site_label
 _atom_site_symmetry_multiplicity
 _atom_site_fract_x
 _atom_site_fract_y
 _atom_site_fract_z
 _atom_site_occupancy
  Rb  Rb0  1  0.500018  0.499982  0.000000  1
  Rb  Rb1  1  0.655850  0.344150  0.500000  1
  Rb  Rb2  1  0.344168  0.655832  0.500000  1
  Rb  Rb3  1  0.000177  0.999823  0.500000  1
  La  La4  1  0.832261  0.167739  0.000000  1
  Pa  Pa5  1  0.167686  0.832314  0.000000  1
  Te  Te6  1  0.816446  0.797295  0.202992  1
  Te  Te7  1  0.202705  0.183554  0.797008  1
  Te  Te8  1  0.410520  0.043606  0.205405  1
  Te  Te9  1  0.549879  0.936103  0.794021  1
  Te  Te10  1  0.956394  0.589480  0.794595  1
  Te  Te11  1  0.063897  0.450121  0.205979  1
