# generated using pymatgen
data_Zr6Sn6IrRh5
_symmetry_space_group_name_H-M   'P 1'
_cell_length_a   7.43426700
_cell_length_b   7.43426718
_cell_length_c   7.29509900
_cell_angle_alpha   90.00000000
_cell_angle_beta   90.00000000
_cell_angle_gamma   120.00000365
_symmetry_Int_Tables_number   1
_chemical_formula_structural   Zr6Sn6IrRh5
_chemical_formula_sum   'Zr6 Sn6 Ir1 Rh5'
_cell_volume   349.17096687
_cell_formula_units_Z   1
loop_
 _symmetry_equiv_pos_site_id
 _symmetry_equiv_pos_as_xyz
  1  'x, y, z'
loop_
 _atom_site_type_symbol
 _atom_site_label
 _atom_site_symmetry_multiplicity
 _atom_site_fract_x
 _atom_site_fract_y
 _atom_site_fract_z
 _atom_site_occupancy
  Zr  Zr0  1  0.596654  0.984831  0.749587  1
  Zr  Zr1  1  0.388178  0.403346  0.749587  1
  Zr  Zr2  1  0.015169  0.611822  0.749587  1
  Zr  Zr3  1  0.613398  0.022764  0.248562  1
  Zr  Zr4  1  0.409365  0.386602  0.248562  1
  Zr  Zr5  1  0.977236  0.590635  0.248562  1
  Sn  Sn6  1  0.268343  0.997147  0.999748  1
  Sn  Sn7  1  0.728688  0.728988  0.499034  1
  Sn  Sn8  1  0.000300  0.271312  0.499034  1
  Sn  Sn9  1  0.002853  0.271197  0.999748  1
  Sn  Sn10  1  0.728803  0.731657  0.999748  1
  Sn  Sn11  1  0.271012  0.999700  0.499034  1
  Ir  Ir12  1  0.666667  0.333333  0.965514  1
  Rh  Rh13  1  0.666667  0.333333  0.545480  1
  Rh  Rh14  1  0.333333  0.666667  0.033805  1
  Rh  Rh15  1  0.333333  0.666667  0.465761  1
  Rh  Rh16  1  0.000000  0.000000  0.749343  1
  Rh  Rh17  1  0.000000  0.000000  0.249304  1
