# generated using pymatgen
data_Ho3Er7In8Pd3Ru
_symmetry_space_group_name_H-M   'P 1'
_cell_length_a   3.60758600
_cell_length_b   8.09237606
_cell_length_c   18.20344619
_cell_angle_alpha   89.99884154
_cell_angle_beta   90.00000000
_cell_angle_gamma   90.00000000
_symmetry_Int_Tables_number   1
_chemical_formula_structural   Ho3Er7In8Pd3Ru
_chemical_formula_sum   'Ho3 Er7 In8 Pd3 Ru1'
_cell_volume   531.43036312
_cell_formula_units_Z   1
loop_
 _symmetry_equiv_pos_site_id
 _symmetry_equiv_pos_as_xyz
  1  'x, y, z'
loop_
 _atom_site_type_symbol
 _atom_site_label
 _atom_site_symmetry_multiplicity
 _atom_site_fract_x
 _atom_site_fract_y
 _atom_site_fract_z
 _atom_site_occupancy
  Ho  Ho0  1  0.000000  0.499851  0.499608  1
  Ho  Ho1  1  0.000000  0.999687  0.000774  1
  Ho  Ho2  1  0.000000  0.727410  0.277194  1
  Er  Er3  1  0.000000  0.259683  0.720423  1
  Er  Er4  1  0.000000  0.759699  0.779444  1
  Er  Er5  1  0.000000  0.252700  0.220443  1
  Er  Er6  1  0.000000  0.614663  0.086959  1
  Er  Er7  1  0.000000  0.384135  0.916108  1
  Er  Er8  1  0.000000  0.883915  0.583884  1
  Er  Er9  1  0.000000  0.118306  0.414904  1
  In  In10  1  0.500000  0.709941  0.931720  1
  In  In11  1  0.500000  0.292236  0.069047  1
  In  In12  1  0.500000  0.791802  0.432345  1
  In  In13  1  0.500000  0.209255  0.567766  1
  In  In14  1  0.500000  0.579513  0.649227  1
  In  In15  1  0.500000  0.424933  0.350021  1
  In  In16  1  0.500000  0.921213  0.150202  1
  In  In17  1  0.500000  0.078402  0.851042  1
  Pd  Pd18  1  0.500000  0.477360  0.804145  1
  Pd  Pd19  1  0.500000  0.977652  0.695509  1
  Pd  Pd20  1  0.500000  0.019719  0.304176  1
  Ru  Ru21  1  0.500000  0.517926  0.195058  1
