# generated using pymatgen
data_Ce16Tm3MgIr12
_symmetry_space_group_name_H-M   'P 1'
_cell_length_a   11.08612300
_cell_length_b   11.08612300
_cell_length_c   6.18061400
_cell_angle_alpha   90.00000000
_cell_angle_beta   90.00000000
_cell_angle_gamma   90.00000000
_symmetry_Int_Tables_number   1
_chemical_formula_structural   Ce16Tm3MgIr12
_chemical_formula_sum   'Ce16 Tm3 Mg1 Ir12'
_cell_volume   759.61058310
_cell_formula_units_Z   1
loop_
 _symmetry_equiv_pos_site_id
 _symmetry_equiv_pos_as_xyz
  1  'x, y, z'
loop_
 _atom_site_type_symbol
 _atom_site_label
 _atom_site_symmetry_multiplicity
 _atom_site_fract_x
 _atom_site_fract_y
 _atom_site_fract_z
 _atom_site_occupancy
  Ce  Ce0  1  0.279783  0.086403  0.380855  1
  Ce  Ce1  1  0.286551  0.909947  0.878228  1
  Ce  Ce2  1  0.713449  0.090053  0.878228  1
  Ce  Ce3  1  0.720217  0.913597  0.380855  1
  Ce  Ce4  1  0.590590  0.787745  0.879112  1
  Ce  Ce5  1  0.587649  0.211827  0.377074  1
  Ce  Ce6  1  0.412351  0.788173  0.377074  1
  Ce  Ce7  1  0.409410  0.212255  0.879112  1
  Ce  Ce8  1  0.211827  0.412351  0.622926  1
  Ce  Ce9  1  0.212255  0.590590  0.120888  1
  Ce  Ce10  1  0.787745  0.409410  0.120888  1
  Ce  Ce11  1  0.788173  0.587649  0.622926  1
  Ce  Ce12  1  0.909947  0.713449  0.121772  1
  Ce  Ce13  1  0.913597  0.279783  0.619145  1
  Ce  Ce14  1  0.086403  0.720217  0.619145  1
  Ce  Ce15  1  0.090053  0.286551  0.121772  1
  Tm  Tm16  1  0.000000  0.000000  0.000000  1
  Tm  Tm17  1  0.500000  0.500000  0.000000  1
  Tm  Tm18  1  0.500000  0.500000  0.500000  1
  Mg  Mg19  1  0.000000  0.000000  0.500000  1
  Ir  Ir20  1  0.844393  0.154925  0.246102  1
  Ir  Ir21  1  0.845075  0.844393  0.753898  1
  Ir  Ir22  1  0.154925  0.155607  0.753898  1
  Ir  Ir23  1  0.155607  0.845075  0.246102  1
  Ir  Ir24  1  0.655095  0.345015  0.748363  1
  Ir  Ir25  1  0.654985  0.655095  0.251637  1
  Ir  Ir26  1  0.345015  0.344905  0.251637  1
  Ir  Ir27  1  0.344905  0.654985  0.748363  1
  Ir  Ir28  1  0.500000  0.000000  0.118117  1
  Ir  Ir29  1  0.500000  0.000000  0.616276  1
  Ir  Ir30  1  0.000000  0.500000  0.881883  1
  Ir  Ir31  1  0.000000  0.500000  0.383724  1
