# generated using pymatgen
data_ErFeNi(PRu)3
_symmetry_space_group_name_H-M   'P 1'
_cell_length_a   3.78441800
_cell_length_b   10.64650800
_cell_length_c   12.09771800
_cell_angle_alpha   90.00000000
_cell_angle_beta   90.00000000
_cell_angle_gamma   90.00000000
_symmetry_Int_Tables_number   1
_chemical_formula_structural   ErFeNi(PRu)3
_chemical_formula_sum   'Er4 Fe4 Ni4 P12 Ru12'
_cell_volume   487.42717811
_cell_formula_units_Z   4
loop_
 _symmetry_equiv_pos_site_id
 _symmetry_equiv_pos_as_xyz
  1  'x, y, z'
loop_
 _atom_site_type_symbol
 _atom_site_label
 _atom_site_symmetry_multiplicity
 _atom_site_fract_x
 _atom_site_fract_y
 _atom_site_fract_z
 _atom_site_occupancy
  Er  Er0  1  0.250000  0.584994  0.707458  1
  Er  Er1  1  0.250000  0.915006  0.207458  1
  Er  Er2  1  0.750000  0.415006  0.292542  1
  Er  Er3  1  0.750000  0.084994  0.792542  1
  Fe  Fe4  1  0.250000  0.463095  0.933019  1
  Fe  Fe5  1  0.250000  0.036905  0.433019  1
  Fe  Fe6  1  0.750000  0.536905  0.066981  1
  Fe  Fe7  1  0.750000  0.963095  0.566981  1
  Ni  Ni8  1  0.250000  0.888383  0.698785  1
  Ni  Ni9  1  0.250000  0.611617  0.198785  1
  Ni  Ni10  1  0.750000  0.111617  0.301215  1
  Ni  Ni11  1  0.750000  0.388383  0.801215  1
  P  P12  1  0.250000  0.424692  0.110248  1
  P  P13  1  0.250000  0.075308  0.610248  1
  P  P14  1  0.750000  0.575308  0.889752  1
  P  P15  1  0.750000  0.924692  0.389752  1
  P  P16  1  0.250000  0.269803  0.872656  1
  P  P17  1  0.250000  0.230197  0.372656  1
  P  P18  1  0.750000  0.730197  0.127344  1
  P  P19  1  0.750000  0.769803  0.627344  1
  P  P20  1  0.250000  0.601127  0.390199  1
  P  P21  1  0.250000  0.898873  0.890199  1
  P  P22  1  0.750000  0.398873  0.609801  1
  P  P23  1  0.750000  0.101127  0.109801  1
  Ru  Ru24  1  0.250000  0.705641  0.987654  1
  Ru  Ru25  1  0.250000  0.794359  0.487654  1
  Ru  Ru26  1  0.750000  0.294359  0.012346  1
  Ru  Ru27  1  0.750000  0.205641  0.512346  1
  Ru  Ru28  1  0.250000  0.405579  0.485317  1
  Ru  Ru29  1  0.250000  0.094422  0.985317  1
  Ru  Ru30  1  0.750000  0.594421  0.514683  1
  Ru  Ru31  1  0.750000  0.905579  0.014683  1
  Ru  Ru32  1  0.250000  0.223734  0.181247  1
  Ru  Ru33  1  0.250000  0.276266  0.681247  1
  Ru  Ru34  1  0.750000  0.776266  0.818753  1
  Ru  Ru35  1  0.750000  0.723734  0.318753  1
