# generated using pymatgen
data_Y5Th(SiPt5)2
_symmetry_space_group_name_H-M   'P 1'
_cell_length_a   8.26580218
_cell_length_b   8.26580111
_cell_length_c   8.26580100
_cell_angle_alpha   127.29916701
_cell_angle_beta   125.39777562
_cell_angle_gamma   79.32567375
_symmetry_Int_Tables_number   1
_chemical_formula_structural   Y5Th(SiPt5)2
_chemical_formula_sum   'Y5 Th1 Si2 Pt10'
_cell_volume   354.03298394
_cell_formula_units_Z   1
loop_
 _symmetry_equiv_pos_site_id
 _symmetry_equiv_pos_as_xyz
  1  'x, y, z'
loop_
 _atom_site_type_symbol
 _atom_site_label
 _atom_site_symmetry_multiplicity
 _atom_site_fract_x
 _atom_site_fract_y
 _atom_site_fract_z
 _atom_site_occupancy
  Y  Y0  1  0.227605  0.448088  0.779517  1
  Y  Y1  1  0.771734  0.548389  0.223344  1
  Y  Y2  1  0.831430  0.051912  0.779517  1
  Y  Y3  1  0.174955  0.951611  0.223344  1
  Y  Y4  1  0.392508  0.250000  0.142508  1
  Th  Th5  1  0.614491  0.750000  0.864491  1
  Si  Si6  1  0.786809  0.250000  0.536809  1
  Si  Si7  1  0.210631  0.750000  0.460631  1
  Pt  Pt8  1  0.170082  0.402310  0.358597  1
  Pt  Pt9  1  0.830899  0.188195  0.230429  1
  Pt  Pt10  1  0.456287  0.097690  0.767773  1
  Pt  Pt11  1  0.542235  0.311805  0.642704  1
  Pt  Pt12  1  0.995416  0.504664  0.000080  1
  Pt  Pt13  1  0.995416  0.995336  0.490751  1
  Pt  Pt14  1  0.456287  0.688514  0.358597  1
  Pt  Pt15  1  0.542235  0.899531  0.230429  1
  Pt  Pt16  1  0.170082  0.811486  0.767773  1
  Pt  Pt17  1  0.830899  0.600469  0.642704  1
