# generated using pymatgen
data_Cs6YTmCl12
_symmetry_space_group_name_H-M   'P 1'
_cell_length_a   9.46378100
_cell_length_b   9.46031923
_cell_length_c   7.84852300
_cell_angle_alpha   90.00000000
_cell_angle_beta   90.00000000
_cell_angle_gamma   90.02925257
_symmetry_Int_Tables_number   1
_chemical_formula_structural   Cs6YTmCl12
_chemical_formula_sum   'Cs6 Y1 Tm1 Cl12'
_cell_volume   702.68122891
_cell_formula_units_Z   1
loop_
 _symmetry_equiv_pos_site_id
 _symmetry_equiv_pos_as_xyz
  1  'x, y, z'
loop_
 _atom_site_type_symbol
 _atom_site_label
 _atom_site_symmetry_multiplicity
 _atom_site_fract_x
 _atom_site_fract_y
 _atom_site_fract_z
 _atom_site_occupancy
  Cs  Cs0  1  0.000000  0.000000  0.500000  1
  Cs  Cs1  1  0.000000  0.000000  0.000000  1
  Cs  Cs2  1  0.236316  0.580680  0.500000  1
  Cs  Cs3  1  0.763684  0.419320  0.500000  1
  Cs  Cs4  1  0.419360  0.235834  0.000000  1
  Cs  Cs5  1  0.580640  0.764166  0.000000  1
  Y  Y6  1  0.000000  0.500000  0.000000  1
  Tm  Tm7  1  0.500000  0.000000  0.500000  1
  Cl  Cl8  1  0.688739  0.055145  0.736388  1
  Cl  Cl9  1  0.311261  0.944855  0.736388  1
  Cl  Cl10  1  0.944122  0.691337  0.239576  1
  Cl  Cl11  1  0.055878  0.308663  0.239576  1
  Cl  Cl12  1  0.311261  0.944855  0.263612  1
  Cl  Cl13  1  0.688739  0.055145  0.263612  1
  Cl  Cl14  1  0.055878  0.308663  0.760424  1
  Cl  Cl15  1  0.944122  0.691337  0.760424  1
  Cl  Cl16  1  0.569591  0.733651  0.500000  1
  Cl  Cl17  1  0.430409  0.266349  0.500000  1
  Cl  Cl18  1  0.270027  0.570541  0.000000  1
  Cl  Cl19  1  0.729973  0.429459  0.000000  1
