# generated using pymatgen
data_Rb4NaInTe4
_symmetry_space_group_name_H-M   'P 1'
_cell_length_a   9.27237265
_cell_length_b   9.27237312
_cell_length_c   9.27237200
_cell_angle_alpha   131.79533551
_cell_angle_beta   129.33847896
_cell_angle_gamma   72.52003854
_symmetry_Int_Tables_number   1
_chemical_formula_structural   Rb4NaInTe4
_chemical_formula_sum   'Rb4 Na1 In1 Te4'
_cell_volume   449.24925780
_cell_formula_units_Z   1
loop_
 _symmetry_equiv_pos_site_id
 _symmetry_equiv_pos_as_xyz
  1  'x, y, z'
loop_
 _atom_site_type_symbol
 _atom_site_label
 _atom_site_symmetry_multiplicity
 _atom_site_fract_x
 _atom_site_fract_y
 _atom_site_fract_z
 _atom_site_occupancy
  Rb  Rb0  1  0.471838  0.140335  0.323181  1
  Rb  Rb1  1  0.817154  0.648656  0.176819  1
  Rb  Rb2  1  0.528162  0.851344  0.668497  1
  Rb  Rb3  1  0.182846  0.359665  0.831503  1
  Na  Na4  1  0.000000  0.750000  0.750000  1
  In  In5  1  0.000000  0.250000  0.250000  1
  Te  Te6  1  0.093438  0.916962  0.229288  1
  Te  Te7  1  0.906562  0.135848  0.823522  1
  Te  Te8  1  0.312326  0.583038  0.676478  1
  Te  Te9  1  0.687674  0.364152  0.270712  1
