# generated using pymatgen
data_La14RuPt4Rh
_symmetry_space_group_name_H-M   'P 1'
_cell_length_a   10.27928026
_cell_length_b   10.28391993
_cell_length_c   6.58863248
_cell_angle_alpha   90.17336503
_cell_angle_beta   89.85578748
_cell_angle_gamma   119.77660857
_symmetry_Int_Tables_number   1
_chemical_formula_structural   La14RuPt4Rh
_chemical_formula_sum   'La14 Ru1 Pt4 Rh1'
_cell_volume   604.53053594
_cell_formula_units_Z   1
loop_
 _symmetry_equiv_pos_site_id
 _symmetry_equiv_pos_as_xyz
  1  'x, y, z'
loop_
 _atom_site_type_symbol
 _atom_site_label
 _atom_site_symmetry_multiplicity
 _atom_site_fract_x
 _atom_site_fract_y
 _atom_site_fract_z
 _atom_site_occupancy
  La  La0  1  0.668192  0.331622  0.561591  1
  La  La1  1  0.330842  0.662264  0.058358  1
  La  La2  1  0.872635  0.743897  0.795410  1
  La  La3  1  0.250324  0.133161  0.793768  1
  La  La4  1  0.883405  0.132942  0.792549  1
  La  La5  1  0.121232  0.250426  0.288535  1
  La  La6  1  0.747074  0.876506  0.293520  1
  La  La7  1  0.125983  0.870841  0.293136  1
  La  La8  1  0.465541  0.929777  0.585900  1
  La  La9  1  0.080349  0.533774  0.595292  1
  La  La10  1  0.454135  0.533635  0.592119  1
  La  La11  1  0.541853  0.077777  0.084719  1
  La  La12  1  0.922857  0.455366  0.094423  1
  La  La13  1  0.533774  0.460986  0.090341  1
  Ru  Ru14  1  0.190366  0.378131  0.832058  1
  Pt  Pt15  1  0.626513  0.815577  0.832467  1
  Pt  Pt16  1  0.189599  0.816023  0.832753  1
  Pt  Pt17  1  0.811128  0.625048  0.333492  1
  Pt  Pt18  1  0.375430  0.186969  0.336338  1
  Rh  Rh19  1  0.808765  0.185279  0.328280  1
