# generated using pymatgen
data_Y16Cd4Ir3Ru
_symmetry_space_group_name_H-M   'P 1'
_cell_length_a   9.71091848
_cell_length_b   9.71091761
_cell_length_c   9.71091811
_cell_angle_alpha   59.61270965
_cell_angle_beta   59.61271302
_cell_angle_gamma   59.61271407
_symmetry_Int_Tables_number   1
_chemical_formula_structural   Y16Cd4Ir3Ru
_chemical_formula_sum   'Y16 Cd4 Ir3 Ru1'
_cell_volume   641.83933043
_cell_formula_units_Z   1
loop_
 _symmetry_equiv_pos_site_id
 _symmetry_equiv_pos_as_xyz
  1  'x, y, z'
loop_
 _atom_site_type_symbol
 _atom_site_label
 _atom_site_symmetry_multiplicity
 _atom_site_fract_x
 _atom_site_fract_y
 _atom_site_fract_z
 _atom_site_occupancy
  Y  Y0  1  0.349478  0.349478  0.349478  1
  Y  Y1  1  0.348571  0.348571  0.956983  1
  Y  Y2  1  0.348571  0.956983  0.348571  1
  Y  Y3  1  0.956983  0.348571  0.348571  1
  Y  Y4  1  0.811432  0.189573  0.189573  1
  Y  Y5  1  0.187940  0.808965  0.808965  1
  Y  Y6  1  0.189573  0.811432  0.189573  1
  Y  Y7  1  0.808965  0.187940  0.808965  1
  Y  Y8  1  0.189573  0.189573  0.811432  1
  Y  Y9  1  0.808965  0.808965  0.187940  1
  Y  Y10  1  0.939582  0.560979  0.560979  1
  Y  Y11  1  0.559375  0.938180  0.938180  1
  Y  Y12  1  0.560979  0.939582  0.560979  1
  Y  Y13  1  0.938180  0.559375  0.938180  1
  Y  Y14  1  0.560979  0.560979  0.939582  1
  Y  Y15  1  0.938180  0.938180  0.559375  1
  Cd  Cd16  1  0.579558  0.579558  0.579558  1
  Cd  Cd17  1  0.580657  0.580657  0.256558  1
  Cd  Cd18  1  0.580657  0.256558  0.580657  1
  Cd  Cd19  1  0.256558  0.580657  0.580657  1
  Ir  Ir20  1  0.143431  0.143431  0.577466  1
  Ir  Ir21  1  0.143431  0.577466  0.143431  1
  Ir  Ir22  1  0.577466  0.143431  0.143431  1
  Ru  Ru23  1  0.140922  0.140922  0.140922  1
