# generated using pymatgen
data_CeZnCuAu4
_symmetry_space_group_name_H-M   'P 1'
_cell_length_a   5.63578166
_cell_length_b   5.63578234
_cell_length_c   5.63578225
_cell_angle_alpha   102.77994604
_cell_angle_beta   102.77995556
_cell_angle_gamma   123.88898629
_symmetry_Int_Tables_number   1
_chemical_formula_structural   CeZnCuAu4
_chemical_formula_sum   'Ce1 Zn1 Cu1 Au4'
_cell_volume   131.13364211
_cell_formula_units_Z   1
loop_
 _symmetry_equiv_pos_site_id
 _symmetry_equiv_pos_as_xyz
  1  'x, y, z'
loop_
 _atom_site_type_symbol
 _atom_site_label
 _atom_site_symmetry_multiplicity
 _atom_site_fract_x
 _atom_site_fract_y
 _atom_site_fract_z
 _atom_site_occupancy
  Ce  Ce0  1  0.000000  0.000000  0.000000  1
  Zn  Zn1  1  0.750000  0.250000  0.500000  1
  Cu  Cu2  1  0.250000  0.750000  0.500000  1
  Au  Au3  1  0.299742  0.299742  0.599485  1
  Au  Au4  1  0.700258  0.700258  0.400515  1
  Au  Au5  1  0.700258  0.299742  0.000000  1
  Au  Au6  1  0.299742  0.700258  0.000000  1
