# generated using pymatgen
data_DyZr3Sc4(P3Ir4)4
_symmetry_space_group_name_H-M   'P 1'
_cell_length_a   12.82734000
_cell_length_b   12.82733837
_cell_length_c   3.92668300
_cell_angle_alpha   90.00000000
_cell_angle_beta   90.00000000
_cell_angle_gamma   119.99999904
_symmetry_Int_Tables_number   1
_chemical_formula_structural   DyZr3Sc4(P3Ir4)4
_chemical_formula_sum   'Dy1 Zr3 Sc4 P12 Ir16'
_cell_volume   559.53806351
_cell_formula_units_Z   1
loop_
 _symmetry_equiv_pos_site_id
 _symmetry_equiv_pos_as_xyz
  1  'x, y, z'
loop_
 _atom_site_type_symbol
 _atom_site_label
 _atom_site_symmetry_multiplicity
 _atom_site_fract_x
 _atom_site_fract_y
 _atom_site_fract_z
 _atom_site_occupancy
  Dy  Dy0  1  0.333333  0.666667  0.000000  1
  Zr  Zr1  1  0.449918  0.000755  0.000000  1
  Zr  Zr2  1  0.999245  0.449163  0.000000  1
  Zr  Zr3  1  0.550837  0.550082  0.000000  1
  Sc  Sc4  1  0.666667  0.333333  0.000000  1
  Sc  Sc5  1  0.816186  0.999888  0.500000  1
  Sc  Sc6  1  0.000112  0.816298  0.500000  1
  Sc  Sc7  1  0.183702  0.183814  0.500000  1
  P  P8  1  0.173649  0.000410  0.000000  1
  P  P9  1  0.999590  0.173239  0.000000  1
  P  P10  1  0.826761  0.826351  0.000000  1
  P  P11  1  0.169251  0.481564  0.500000  1
  P  P12  1  0.518436  0.687685  0.500000  1
  P  P13  1  0.312315  0.830749  0.500000  1
  P  P14  1  0.687522  0.516148  0.500000  1
  P  P15  1  0.828625  0.312478  0.500000  1
  P  P16  1  0.483852  0.171375  0.500000  1
  P  P17  1  0.652654  0.000100  0.000000  1
  P  P18  1  0.999900  0.652553  0.000000  1
  P  P19  1  0.347447  0.347346  0.000000  1
  Ir  Ir20  1  0.357385  0.492350  0.500000  1
  Ir  Ir21  1  0.507650  0.865035  0.500000  1
  Ir  Ir22  1  0.134965  0.642615  0.500000  1
  Ir  Ir23  1  0.861529  0.504703  0.500000  1
  Ir  Ir24  1  0.643174  0.138471  0.500000  1
  Ir  Ir25  1  0.495297  0.356826  0.500000  1
  Ir  Ir26  1  0.177763  0.367440  0.000000  1
  Ir  Ir27  1  0.632560  0.810324  0.000000  1
  Ir  Ir28  1  0.189676  0.822237  0.000000  1
  Ir  Ir29  1  0.810022  0.631786  0.000000  1
  Ir  Ir30  1  0.821765  0.189978  0.000000  1
  Ir  Ir31  1  0.368214  0.178235  0.000000  1
  Ir  Ir32  1  0.275862  0.000378  0.500000  1
  Ir  Ir33  1  0.999622  0.275484  0.500000  1
  Ir  Ir34  1  0.724516  0.724138  0.500000  1
  Ir  Ir35  1  0.000000  0.000000  0.000000  1
