# generated using pymatgen
data_LaNd11Ir3RhBr12
_symmetry_space_group_name_H-M   'P 1'
_cell_length_a   10.49364128
_cell_length_b   10.49197040
_cell_length_c   10.54690127
_cell_angle_alpha   109.34218067
_cell_angle_beta   109.69174509
_cell_angle_gamma   109.47984163
_symmetry_Int_Tables_number   1
_chemical_formula_structural   LaNd11Ir3RhBr12
_chemical_formula_sum   'La1 Nd11 Ir3 Rh1 Br12'
_cell_volume   892.78210943
_cell_formula_units_Z   1
loop_
 _symmetry_equiv_pos_site_id
 _symmetry_equiv_pos_as_xyz
  1  'x, y, z'
loop_
 _atom_site_type_symbol
 _atom_site_label
 _atom_site_symmetry_multiplicity
 _atom_site_fract_x
 _atom_site_fract_y
 _atom_site_fract_z
 _atom_site_occupancy
  La  La0  1  0.033398  0.266699  0.016699  1
  Nd  Nd1  1  0.266300  0.752050  0.235019  1
  Nd  Nd2  1  0.481137  0.745481  0.014799  1
  Nd  Nd3  1  0.234860  0.469112  0.486070  1
  Nd  Nd4  1  0.014110  0.031225  0.267017  1
  Nd  Nd5  1  0.234860  0.265748  0.748791  1
  Nd  Nd6  1  0.014110  0.482885  0.747093  1
  Nd  Nd7  1  0.481137  0.235656  0.466339  1
  Nd  Nd8  1  0.266300  0.014250  0.031279  1
  Nd  Nd9  1  0.749653  0.233642  0.266003  1
  Nd  Nd10  1  0.749653  0.016011  0.483650  1
  Nd  Nd11  1  0.470525  0.485262  0.235262  1
  Ir  Ir12  1  0.249378  0.499868  0.000946  1
  Ir  Ir13  1  0.998988  0.249494  0.499494  1
  Ir  Ir14  1  0.249378  0.249510  0.248432  1
  Rh  Rh15  1  0.499235  0.999618  0.249618  1
  Br  Br16  1  0.250256  0.996156  0.504270  1
  Br  Br17  1  0.509984  0.504992  0.754992  1
  Br  Br18  1  0.250256  0.754100  0.745986  1
  Br  Br19  1  0.991493  0.745746  0.995746  1
  Br  Br20  1  0.999548  0.509796  0.256091  1
  Br  Br21  1  0.743538  0.993515  0.993340  1
  Br  Br22  1  0.754605  0.745652  0.250603  1
  Br  Br23  1  0.504803  0.754813  0.508168  1
  Br  Br24  1  0.504803  0.249991  0.996636  1
  Br  Br25  1  0.754605  0.508954  0.504002  1
  Br  Br26  1  0.743538  0.250023  0.750198  1
  Br  Br27  1  0.999548  0.989752  0.743457  1
