# generated using pymatgen
data_CaNdEr(Si3Pd10)2
_symmetry_space_group_name_H-M   'P 1'
_cell_length_a   8.74037580
_cell_length_b   8.74037534
_cell_length_c   8.74037700
_cell_angle_alpha   60.00000507
_cell_angle_beta   60.00000681
_cell_angle_gamma   60.00000498
_symmetry_Int_Tables_number   1
_chemical_formula_structural   CaNdEr(Si3Pd10)2
_chemical_formula_sum   'Ca1 Nd1 Er1 Si6 Pd20'
_cell_volume   472.14501849
_cell_formula_units_Z   1
loop_
 _symmetry_equiv_pos_site_id
 _symmetry_equiv_pos_as_xyz
  1  'x, y, z'
loop_
 _atom_site_type_symbol
 _atom_site_label
 _atom_site_symmetry_multiplicity
 _atom_site_fract_x
 _atom_site_fract_y
 _atom_site_fract_z
 _atom_site_occupancy
  Ca  Ca0  1  0.750000  0.750000  0.750000  1
  Nd  Nd1  1  0.250000  0.250000  0.250000  1
  Er  Er2  1  0.000000  0.000000  0.000000  1
  Si  Si3  1  0.732584  0.267416  0.267416  1
  Si  Si4  1  0.267416  0.732584  0.732584  1
  Si  Si5  1  0.267416  0.732584  0.267416  1
  Si  Si6  1  0.732584  0.267416  0.732584  1
  Si  Si7  1  0.267416  0.267416  0.732584  1
  Si  Si8  1  0.732584  0.732584  0.267416  1
  Pd  Pd9  1  0.343188  0.000625  0.000625  1
  Pd  Pd10  1  0.655562  0.000625  0.000625  1
  Pd  Pd11  1  0.000625  0.343188  0.655562  1
  Pd  Pd12  1  0.000625  0.655562  0.343188  1
  Pd  Pd13  1  0.000625  0.343188  0.000625  1
  Pd  Pd14  1  0.655562  0.000625  0.343188  1
  Pd  Pd15  1  0.000625  0.655562  0.000625  1
  Pd  Pd16  1  0.343188  0.000625  0.655562  1
  Pd  Pd17  1  0.000625  0.000625  0.343188  1
  Pd  Pd18  1  0.000625  0.000625  0.655562  1
  Pd  Pd19  1  0.655562  0.343188  0.000625  1
  Pd  Pd20  1  0.343188  0.655562  0.000625  1
  Pd  Pd21  1  0.385317  0.385317  0.385317  1
  Pd  Pd22  1  0.615466  0.615466  0.615466  1
  Pd  Pd23  1  0.385317  0.385317  0.844050  1
  Pd  Pd24  1  0.385317  0.844050  0.385317  1
  Pd  Pd25  1  0.615466  0.615466  0.153600  1
  Pd  Pd26  1  0.615466  0.153600  0.615466  1
  Pd  Pd27  1  0.844050  0.385317  0.385317  1
  Pd  Pd28  1  0.153600  0.615466  0.615466  1
