# generated using pymatgen
data_Pr16CdIn3Ru4
_symmetry_space_group_name_H-M   'P 1'
_cell_length_a   10.01642446
_cell_length_b   10.00998948
_cell_length_c   10.00999000
_cell_angle_alpha   60.00000490
_cell_angle_beta   60.02125445
_cell_angle_gamma   60.02125486
_symmetry_Int_Tables_number   1
_chemical_formula_structural   Pr16CdIn3Ru4
_chemical_formula_sum   'Pr16 Cd1 In3 Ru4'
_cell_volume   709.91189265
_cell_formula_units_Z   1
loop_
 _symmetry_equiv_pos_site_id
 _symmetry_equiv_pos_as_xyz
  1  'x, y, z'
loop_
 _atom_site_type_symbol
 _atom_site_label
 _atom_site_symmetry_multiplicity
 _atom_site_fract_x
 _atom_site_fract_y
 _atom_site_fract_z
 _atom_site_occupancy
  Pr  Pr0  1  0.345913  0.346057  0.346057  1
  Pr  Pr1  1  0.345913  0.346057  0.961973  1
  Pr  Pr2  1  0.345913  0.961973  0.346057  1
  Pr  Pr3  1  0.960732  0.346423  0.346423  1
  Pr  Pr4  1  0.807870  0.192449  0.192449  1
  Pr  Pr5  1  0.190792  0.809120  0.809120  1
  Pr  Pr6  1  0.190792  0.809120  0.190968  1
  Pr  Pr7  1  0.807870  0.192449  0.807233  1
  Pr  Pr8  1  0.190792  0.190968  0.809120  1
  Pr  Pr9  1  0.807870  0.807233  0.192449  1
  Pr  Pr10  1  0.941301  0.559890  0.559890  1
  Pr  Pr11  1  0.560021  0.939637  0.939637  1
  Pr  Pr12  1  0.560021  0.939637  0.560704  1
  Pr  Pr13  1  0.941301  0.559890  0.938919  1
  Pr  Pr14  1  0.560021  0.560704  0.939637  1
  Pr  Pr15  1  0.941301  0.938919  0.559890  1
  Cd  Cd16  1  0.263222  0.578926  0.578926  1
  In  In17  1  0.579067  0.579627  0.579627  1
  In  In18  1  0.579067  0.579627  0.261679  1
  In  In19  1  0.579067  0.261679  0.579627  1
  Ru  Ru20  1  0.138841  0.137741  0.137741  1
  Ru  Ru21  1  0.138841  0.137741  0.585676  1
  Ru  Ru22  1  0.138841  0.585676  0.137741  1
  Ru  Ru23  1  0.584634  0.138455  0.138455  1
