# generated using pymatgen
data_Tb6ErFeI12
_symmetry_space_group_name_H-M   'P 1'
_cell_length_a   9.76222275
_cell_length_b   9.79744488
_cell_length_c   9.78343541
_cell_angle_alpha   106.97152374
_cell_angle_beta   106.97506452
_cell_angle_gamma   106.88569087
_symmetry_Int_Tables_number   1
_chemical_formula_structural   Tb6ErFeI12
_chemical_formula_sum   'Tb6 Er1 Fe1 I12'
_cell_volume   780.47410962
_cell_formula_units_Z   1
loop_
 _symmetry_equiv_pos_site_id
 _symmetry_equiv_pos_as_xyz
  1  'x, y, z'
loop_
 _atom_site_type_symbol
 _atom_site_label
 _atom_site_symmetry_multiplicity
 _atom_site_fract_x
 _atom_site_fract_y
 _atom_site_fract_z
 _atom_site_occupancy
  Tb  Tb0  1  0.907352  0.978053  0.707585  1
  Tb  Tb1  1  0.720954  0.912067  0.979447  1
  Tb  Tb2  1  0.978522  0.706319  0.906164  1
  Tb  Tb3  1  0.092628  0.021879  0.292325  1
  Tb  Tb4  1  0.278957  0.089088  0.020895  1
  Tb  Tb5  1  0.499847  0.500569  0.500136  1
  Er  Er6  1  0.020831  0.288295  0.091968  1
  Fe  Fe7  1  0.999803  0.999423  0.999793  1
  I  I8  1  0.840011  0.614289  0.536442  1
  I  I9  1  0.538078  0.840386  0.616588  1
  I  I10  1  0.614714  0.539960  0.840712  1
  I  I11  1  0.158750  0.386007  0.460678  1
  I  I12  1  0.462378  0.160756  0.383743  1
  I  I13  1  0.382483  0.460293  0.159329  1
  I  I14  1  0.929509  0.321927  0.777515  1
  I  I15  1  0.773401  0.927830  0.319229  1
  I  I16  1  0.320318  0.777150  0.929758  1
  I  I17  1  0.071202  0.677224  0.225247  1
  I  I18  1  0.227099  0.072916  0.681193  1
  I  I19  1  0.683162  0.225569  0.071252  1
