# generated using pymatgen
data_Y3Zr7(Si5Ir2)4
_symmetry_space_group_name_H-M   'P 1'
_cell_length_a   12.47539124
_cell_length_b   12.47539124
_cell_length_c   4.14822200
_cell_angle_alpha   90.00000000
_cell_angle_beta   90.00000000
_cell_angle_gamma   90.06862419
_symmetry_Int_Tables_number   1
_chemical_formula_structural   Y3Zr7(Si5Ir2)4
_chemical_formula_sum   'Y3 Zr7 Si20 Ir8'
_cell_volume   645.60967126
_cell_formula_units_Z   1
loop_
 _symmetry_equiv_pos_site_id
 _symmetry_equiv_pos_as_xyz
  1  'x, y, z'
loop_
 _atom_site_type_symbol
 _atom_site_label
 _atom_site_symmetry_multiplicity
 _atom_site_fract_x
 _atom_site_fract_y
 _atom_site_fract_z
 _atom_site_occupancy
  Y  Y0  1  0.114964  0.614964  0.500000  1
  Y  Y1  1  0.384290  0.115887  0.500000  1
  Y  Y2  1  0.615887  0.884290  0.500000  1
  Zr  Zr3  1  0.499913  0.500429  0.000000  1
  Zr  Zr4  1  0.000429  0.999913  0.000000  1
  Zr  Zr5  1  0.677880  0.177880  0.500000  1
  Zr  Zr6  1  0.324433  0.824433  0.500000  1
  Zr  Zr7  1  0.174145  0.323932  0.500000  1
  Zr  Zr8  1  0.823932  0.674145  0.500000  1
  Zr  Zr9  1  0.883559  0.383559  0.500000  1
  Si  Si10  1  0.567802  0.067802  0.000000  1
  Si  Si11  1  0.433254  0.933254  0.000000  1
  Si  Si12  1  0.065067  0.432705  0.000000  1
  Si  Si13  1  0.932705  0.565067  0.000000  1
  Si  Si14  1  0.664439  0.698751  0.000000  1
  Si  Si15  1  0.335798  0.300400  0.000000  1
  Si  Si16  1  0.164187  0.800117  0.000000  1
  Si  Si17  1  0.836876  0.201540  0.000000  1
  Si  Si18  1  0.300117  0.664187  0.000000  1
  Si  Si19  1  0.701540  0.336876  0.000000  1
  Si  Si20  1  0.198751  0.164439  0.000000  1
  Si  Si21  1  0.800400  0.835798  0.000000  1
  Si  Si22  1  0.654020  0.504246  0.500000  1
  Si  Si23  1  0.346578  0.492810  0.500000  1
  Si  Si24  1  0.153074  0.993896  0.500000  1
  Si  Si25  1  0.847330  0.006429  0.500000  1
  Si  Si26  1  0.493896  0.653074  0.500000  1
  Si  Si27  1  0.506429  0.347330  0.500000  1
  Si  Si28  1  0.004246  0.154020  0.500000  1
  Si  Si29  1  0.992810  0.846578  0.500000  1
  Ir  Ir30  1  0.744796  0.520183  0.000000  1
  Ir  Ir31  1  0.255668  0.478503  0.000000  1
  Ir  Ir32  1  0.243187  0.979135  0.000000  1
  Ir  Ir33  1  0.757495  0.022283  0.000000  1
  Ir  Ir34  1  0.479135  0.743187  0.000000  1
  Ir  Ir35  1  0.522283  0.257495  0.000000  1
  Ir  Ir36  1  0.020183  0.244796  0.000000  1
  Ir  Ir37  1  0.978503  0.755668  0.000000  1
