# generated using pymatgen
data_LiLa7DyPt6
_symmetry_space_group_name_H-M   'P 1'
_cell_length_a   7.81861888
_cell_length_b   7.81861817
_cell_length_c   7.81861867
_cell_angle_alpha   69.96305947
_cell_angle_beta   69.96305996
_cell_angle_gamma   69.96305724
_symmetry_Int_Tables_number   1
_chemical_formula_structural   LiLa7DyPt6
_chemical_formula_sum   'Li1 La7 Dy1 Pt6'
_cell_volume   407.88248426
_cell_formula_units_Z   1
loop_
 _symmetry_equiv_pos_site_id
 _symmetry_equiv_pos_as_xyz
  1  'x, y, z'
loop_
 _atom_site_type_symbol
 _atom_site_label
 _atom_site_symmetry_multiplicity
 _atom_site_fract_x
 _atom_site_fract_y
 _atom_site_fract_z
 _atom_site_occupancy
  Li  Li0  1  0.998214  0.998214  0.998214  1
  La  La1  1  0.185858  0.185858  0.185858  1
  La  La2  1  0.317072  0.616003  0.855444  1
  La  La3  1  0.855444  0.317072  0.616003  1
  La  La4  1  0.616003  0.855444  0.317072  1
  La  La5  1  0.681582  0.389092  0.141841  1
  La  La6  1  0.141841  0.681582  0.389092  1
  La  La7  1  0.389092  0.141841  0.681582  1
  Dy  Dy8  1  0.816051  0.816051  0.816051  1
  Pt  Pt9  1  0.174224  0.952696  0.580823  1
  Pt  Pt10  1  0.580823  0.174224  0.952696  1
  Pt  Pt11  1  0.952696  0.580823  0.174224  1
  Pt  Pt12  1  0.818963  0.042210  0.429926  1
  Pt  Pt13  1  0.429926  0.818963  0.042210  1
  Pt  Pt14  1  0.042210  0.429926  0.818963  1
