# generated using pymatgen
data_Dy2Er2GaCo4
_symmetry_space_group_name_H-M   'P 1'
_cell_length_a   5.41712986
_cell_length_b   5.41713013
_cell_length_c   8.84113364
_cell_angle_alpha   70.92844694
_cell_angle_beta   70.92844807
_cell_angle_gamma   43.52524743
_symmetry_Int_Tables_number   1
_chemical_formula_structural   Dy2Er2GaCo4
_chemical_formula_sum   'Dy2 Er2 Ga1 Co4'
_cell_volume   167.25026411
_cell_formula_units_Z   1
loop_
 _symmetry_equiv_pos_site_id
 _symmetry_equiv_pos_as_xyz
  1  'x, y, z'
loop_
 _atom_site_type_symbol
 _atom_site_label
 _atom_site_symmetry_multiplicity
 _atom_site_fract_x
 _atom_site_fract_y
 _atom_site_fract_z
 _atom_site_occupancy
  Dy  Dy0  1  0.745876  0.745876  0.662448  1
  Dy  Dy1  1  0.254124  0.254124  0.337552  1
  Er  Er2  1  0.390628  0.390628  0.885931  1
  Er  Er3  1  0.609372  0.609372  0.114069  1
  Ga  Ga4  1  0.500000  0.500000  0.500000  1
  Co  Co5  1  0.036428  0.036428  0.645563  1
  Co  Co6  1  0.963572  0.963572  0.354437  1
  Co  Co7  1  0.092976  0.092976  0.880428  1
  Co  Co8  1  0.907024  0.907024  0.119572  1
