# generated using pymatgen
data_Er6Zr4Sn5Bi
_symmetry_space_group_name_H-M   'P 1'
_cell_length_a   8.81811800
_cell_length_b   8.80935250
_cell_length_c   6.09132700
_cell_angle_alpha   90.00000000
_cell_angle_beta   90.00000000
_cell_angle_gamma   120.03292051
_symmetry_Int_Tables_number   1
_chemical_formula_structural   Er6Zr4Sn5Bi
_chemical_formula_sum   'Er6 Zr4 Sn5 Bi1'
_cell_volume   409.65501604
_cell_formula_units_Z   1
loop_
 _symmetry_equiv_pos_site_id
 _symmetry_equiv_pos_as_xyz
  1  'x, y, z'
loop_
 _atom_site_type_symbol
 _atom_site_label
 _atom_site_symmetry_multiplicity
 _atom_site_fract_x
 _atom_site_fract_y
 _atom_site_fract_z
 _atom_site_occupancy
  Er  Er0  1  0.995294  0.756043  0.750000  1
  Er  Er1  1  0.000644  0.241049  0.250000  1
  Er  Er2  1  0.759594  0.758951  0.250000  1
  Er  Er3  1  0.762374  0.000000  0.750000  1
  Er  Er4  1  0.239251  0.243957  0.750000  1
  Er  Er5  1  0.239372  0.000000  0.250000  1
  Zr  Zr6  1  0.333025  0.664075  0.497925  1
  Zr  Zr7  1  0.668951  0.335925  0.002075  1
  Zr  Zr8  1  0.668951  0.335925  0.497925  1
  Zr  Zr9  1  0.333025  0.664075  0.002075  1
  Sn  Sn10  1  0.400004  0.399025  0.250000  1
  Sn  Sn11  1  0.000978  0.600975  0.250000  1
  Sn  Sn12  1  0.999575  0.399821  0.750000  1
  Sn  Sn13  1  0.599754  0.600179  0.750000  1
  Sn  Sn14  1  0.601053  0.000000  0.250000  1
  Bi  Bi15  1  0.398154  0.000000  0.750000  1
