# generated using pymatgen
data_Tm8B24Mo3Ir
_symmetry_space_group_name_H-M   'P 1'
_cell_length_a   3.61418800
_cell_length_b   9.17341268
_cell_length_c   11.55400704
_cell_angle_alpha   90.14598223
_cell_angle_beta   90.00000000
_cell_angle_gamma   90.00000000
_symmetry_Int_Tables_number   1
_chemical_formula_structural   Tm8B24Mo3Ir
_chemical_formula_sum   'Tm8 B24 Mo3 Ir1'
_cell_volume   383.06536674
_cell_formula_units_Z   1
loop_
 _symmetry_equiv_pos_site_id
 _symmetry_equiv_pos_as_xyz
  1  'x, y, z'
loop_
 _atom_site_type_symbol
 _atom_site_label
 _atom_site_symmetry_multiplicity
 _atom_site_fract_x
 _atom_site_fract_y
 _atom_site_fract_z
 _atom_site_occupancy
  Tm  Tm0  1  0.000000  0.317604  0.414459  1
  Tm  Tm1  1  0.000000  0.679624  0.589045  1
  Tm  Tm2  1  0.000000  0.824355  0.082805  1
  Tm  Tm3  1  0.000000  0.178628  0.913383  1
  Tm  Tm4  1  0.000000  0.942882  0.371054  1
  Tm  Tm5  1  0.000000  0.055488  0.627709  1
  Tm  Tm6  1  0.000000  0.442656  0.128600  1
  Tm  Tm7  1  0.000000  0.556443  0.872763  1
  B  B8  1  0.500000  0.554419  0.433360  1
  B  B9  1  0.500000  0.449118  0.563733  1
  B  B10  1  0.500000  0.051870  0.065475  1
  B  B11  1  0.500000  0.949220  0.934778  1
  B  B12  1  0.500000  0.749338  0.419794  1
  B  B13  1  0.500000  0.247588  0.578318  1
  B  B14  1  0.500000  0.251299  0.079351  1
  B  B15  1  0.500000  0.749480  0.921792  1
  B  B16  1  0.500000  0.791344  0.264701  1
  B  B17  1  0.500000  0.206182  0.735031  1
  B  B18  1  0.500000  0.295099  0.237412  1
  B  B19  1  0.500000  0.705341  0.764934  1
  B  B20  1  0.500000  0.631549  0.184323  1
  B  B21  1  0.500000  0.369715  0.815668  1
  B  B22  1  0.500000  0.130828  0.317925  1
  B  B23  1  0.500000  0.868041  0.683200  1
  B  B24  1  0.500000  0.978038  0.212360  1
  B  B25  1  0.500000  0.021392  0.786974  1
  B  B26  1  0.500000  0.482672  0.288052  1
  B  B27  1  0.500000  0.521779  0.712114  1
  B  B28  1  0.500000  0.603142  0.030260  1
  B  B29  1  0.500000  0.398169  0.972303  1
  B  B30  1  0.500000  0.099413  0.471532  1
  B  B31  1  0.500000  0.895822  0.527274  1
  Mo  Mo32  1  0.000000  0.362440  0.677228  1
  Mo  Mo33  1  0.000000  0.139463  0.181172  1
  Mo  Mo34  1  0.000000  0.861100  0.820204  1
  Ir  Ir35  1  0.000000  0.638457  0.320914  1
