# generated using pymatgen
data_YbDy11(SiPd)12
_symmetry_space_group_name_H-M   'P 1'
_cell_length_a   4.36344300
_cell_length_b   7.44680601
_cell_length_c   21.16302400
_cell_angle_alpha   90.00278523
_cell_angle_beta   90.00000000
_cell_angle_gamma   90.00000000
_symmetry_Int_Tables_number   1
_chemical_formula_structural   YbDy11(SiPd)12
_chemical_formula_sum   'Yb1 Dy11 Si12 Pd12'
_cell_volume   687.66523893
_cell_formula_units_Z   1
loop_
 _symmetry_equiv_pos_site_id
 _symmetry_equiv_pos_as_xyz
  1  'x, y, z'
loop_
 _atom_site_type_symbol
 _atom_site_label
 _atom_site_symmetry_multiplicity
 _atom_site_fract_x
 _atom_site_fract_y
 _atom_site_fract_z
 _atom_site_occupancy
  Yb  Yb0  1  0.250000  0.704454  0.332792  1
  Dy  Dy1  1  0.750000  0.294116  0.667705  1
  Dy  Dy2  1  0.750000  0.203424  0.167344  1
  Dy  Dy3  1  0.250000  0.794098  0.832493  1
  Dy  Dy4  1  0.250000  0.795013  0.166691  1
  Dy  Dy5  1  0.750000  0.206003  0.833640  1
  Dy  Dy6  1  0.750000  0.296167  0.333919  1
  Dy  Dy7  1  0.250000  0.706389  0.666544  1
  Dy  Dy8  1  0.250000  0.711016  0.001013  1
  Dy  Dy9  1  0.750000  0.289933  0.998920  1
  Dy  Dy10  1  0.750000  0.210256  0.498871  1
  Dy  Dy11  1  0.250000  0.790516  0.500553  1
  Si  Si12  1  0.250000  0.090424  0.070702  1
  Si  Si13  1  0.750000  0.909734  0.928479  1
  Si  Si14  1  0.750000  0.588273  0.433642  1
  Si  Si15  1  0.250000  0.410590  0.572084  1
  Si  Si16  1  0.250000  0.087553  0.272371  1
  Si  Si17  1  0.750000  0.914562  0.728420  1
  Si  Si18  1  0.750000  0.584397  0.225847  1
  Si  Si19  1  0.250000  0.414788  0.771331  1
  Si  Si20  1  0.250000  0.087972  0.394579  1
  Si  Si21  1  0.750000  0.912203  0.604978  1
  Si  Si22  1  0.750000  0.587621  0.104506  1
  Si  Si23  1  0.250000  0.412595  0.895153  1
  Pd  Pd24  1  0.250000  0.417292  0.236708  1
  Pd  Pd25  1  0.750000  0.582999  0.763249  1
  Pd  Pd26  1  0.750000  0.916030  0.262520  1
  Pd  Pd27  1  0.250000  0.083221  0.736730  1
  Pd  Pd28  1  0.250000  0.416889  0.435805  1
  Pd  Pd29  1  0.750000  0.582771  0.562334  1
  Pd  Pd30  1  0.750000  0.917160  0.062403  1
  Pd  Pd31  1  0.250000  0.082634  0.937765  1
  Pd  Pd32  1  0.250000  0.420299  0.093895  1
  Pd  Pd33  1  0.750000  0.579701  0.906229  1
  Pd  Pd34  1  0.750000  0.918498  0.406364  1
  Pd  Pd35  1  0.250000  0.080408  0.593414  1
