# generated using pymatgen
data_LaCeNb2(AsO)2
_symmetry_space_group_name_H-M   'P 1'
_cell_length_a   4.00936800
_cell_length_b   4.00936800
_cell_length_c   9.34952600
_cell_angle_alpha   90.00000000
_cell_angle_beta   90.00000000
_cell_angle_gamma   90.00000000
_symmetry_Int_Tables_number   1
_chemical_formula_structural   LaCeNb2(AsO)2
_chemical_formula_sum   'La1 Ce1 Nb2 As2 O2'
_cell_volume   150.29392739
_cell_formula_units_Z   1
loop_
 _symmetry_equiv_pos_site_id
 _symmetry_equiv_pos_as_xyz
  1  'x, y, z'
loop_
 _atom_site_type_symbol
 _atom_site_label
 _atom_site_symmetry_multiplicity
 _atom_site_fract_x
 _atom_site_fract_y
 _atom_site_fract_z
 _atom_site_occupancy
  La  La0  1  0.250003  0.250003  0.134753  1
  Ce  Ce1  1  0.750002  0.750002  0.868568  1
  Nb  Nb2  1  0.750002  0.250003  0.503759  1
  Nb  Nb3  1  0.250003  0.750002  0.503759  1
  As  As4  1  0.750002  0.750002  0.309658  1
  As  As5  1  0.250003  0.250003  0.696133  1
  O  O6  1  0.750002  0.250003  0.991685  1
  O  O7  1  0.250003  0.750002  0.991685  1
