# generated using pymatgen
data_Dy5Y5AlSb5
_symmetry_space_group_name_H-M   'P 1'
_cell_length_a   6.37099100
_cell_length_b   8.97168639
_cell_length_c   8.94335538
_cell_angle_alpha   119.98997843
_cell_angle_beta   90.00006330
_cell_angle_gamma   89.99995431
_symmetry_Int_Tables_number   1
_chemical_formula_structural   Dy5Y5AlSb5
_chemical_formula_sum   'Dy5 Y5 Al1 Sb5'
_cell_volume   442.74742512
_cell_formula_units_Z   1
loop_
 _symmetry_equiv_pos_site_id
 _symmetry_equiv_pos_as_xyz
  1  'x, y, z'
loop_
 _atom_site_type_symbol
 _atom_site_label
 _atom_site_symmetry_multiplicity
 _atom_site_fract_x
 _atom_site_fract_y
 _atom_site_fract_z
 _atom_site_occupancy
  Dy  Dy0  1  0.500323  0.338566  0.673250  1
  Dy  Dy1  1  0.500681  0.665331  0.326907  1
  Dy  Dy2  1  0.999319  0.665333  0.326907  1
  Dy  Dy3  1  0.999675  0.338565  0.673249  1
  Dy  Dy4  1  0.249999  0.001113  0.754777  1
  Y  Y5  1  0.749999  0.248216  0.999605  1
  Y  Y6  1  0.750001  0.751934  0.760512  1
  Y  Y7  1  0.750001  0.990854  0.237712  1
  Y  Y8  1  0.249999  0.756916  0.000514  1
  Y  Y9  1  0.249999  0.246639  0.245537  1
  Al  Al10  1  0.749999  0.605121  0.000801  1
  Sb  Sb11  1  0.750005  0.386625  0.388614  1
  Sb  Sb12  1  0.749999  0.998155  0.610064  1
  Sb  Sb13  1  0.249997  0.391376  0.000130  1
  Sb  Sb14  1  0.249999  0.612158  0.609715  1
  Sb  Sb15  1  0.250003  0.003101  0.391706  1
