# generated using pymatgen
data_KTbBeF6
_symmetry_space_group_name_H-M   'P 1'
_cell_length_a   5.88079600
_cell_length_b   6.45612809
_cell_length_c   7.14160926
_cell_angle_alpha   67.11346497
_cell_angle_beta   90.00000000
_cell_angle_gamma   90.00000000
_symmetry_Int_Tables_number   1
_chemical_formula_structural   KTbBeF6
_chemical_formula_sum   'K2 Tb2 Be2 F12'
_cell_volume   249.80117990
_cell_formula_units_Z   2
loop_
 _symmetry_equiv_pos_site_id
 _symmetry_equiv_pos_as_xyz
  1  'x, y, z'
loop_
 _atom_site_type_symbol
 _atom_site_label
 _atom_site_symmetry_multiplicity
 _atom_site_fract_x
 _atom_site_fract_y
 _atom_site_fract_z
 _atom_site_occupancy
  K  K0  1  0.250000  0.070673  0.796717  1
  K  K1  1  0.750000  0.929327  0.203283  1
  Tb  Tb2  1  0.250000  0.387885  0.181180  1
  Tb  Tb3  1  0.750000  0.612115  0.818820  1
  Be  Be4  1  0.250000  0.767986  0.463686  1
  Be  Be5  1  0.750000  0.232014  0.536314  1
  F  F6  1  0.464294  0.767911  0.594037  1
  F  F7  1  0.535706  0.232089  0.405963  1
  F  F8  1  0.964294  0.232089  0.405963  1
  F  F9  1  0.035706  0.767911  0.594037  1
  F  F10  1  0.250000  0.558951  0.408606  1
  F  F11  1  0.750000  0.441049  0.591394  1
  F  F12  1  0.498601  0.680033  0.034255  1
  F  F13  1  0.501399  0.319967  0.965745  1
  F  F14  1  0.998601  0.319967  0.965745  1
  F  F15  1  0.001399  0.680033  0.034255  1
  F  F16  1  0.250000  0.987411  0.263798  1
  F  F17  1  0.750000  0.012589  0.736202  1
