# generated using pymatgen
data_Dy2Y6Cd2CoRu
_symmetry_space_group_name_H-M   'P 1'
_cell_length_a   9.58367023
_cell_length_b   9.58366955
_cell_length_c   9.56310000
_cell_angle_alpha   60.07097410
_cell_angle_beta   60.07097644
_cell_angle_gamma   60.15133145
_symmetry_Int_Tables_number   1
_chemical_formula_structural   Dy2Y6Cd2CoRu
_chemical_formula_sum   'Dy4 Y12 Cd4 Co2 Ru2'
_cell_volume   622.45472674
_cell_formula_units_Z   2
loop_
 _symmetry_equiv_pos_site_id
 _symmetry_equiv_pos_as_xyz
  1  'x, y, z'
loop_
 _atom_site_type_symbol
 _atom_site_label
 _atom_site_symmetry_multiplicity
 _atom_site_fract_x
 _atom_site_fract_y
 _atom_site_fract_z
 _atom_site_occupancy
  Dy  Dy0  1  0.595160  0.595160  0.601440  1
  Dy  Dy1  1  0.595160  0.595160  0.208240  1
  Dy  Dy2  1  0.592068  0.212620  0.597656  1
  Dy  Dy3  1  0.212620  0.592068  0.597656  1
  Y  Y4  1  0.063849  0.438443  0.439410  1
  Y  Y5  1  0.438443  0.063849  0.058298  1
  Y  Y6  1  0.438443  0.063849  0.439410  1
  Y  Y7  1  0.063849  0.438443  0.058298  1
  Y  Y8  1  0.438736  0.438736  0.061264  1
  Y  Y9  1  0.060940  0.060940  0.439060  1
  Y  Y10  1  0.189088  0.813003  0.808964  1
  Y  Y11  1  0.813003  0.189088  0.188946  1
  Y  Y12  1  0.813003  0.189088  0.808964  1
  Y  Y13  1  0.189088  0.813003  0.188946  1
  Y  Y14  1  0.809232  0.809232  0.190768  1
  Y  Y15  1  0.186760  0.186760  0.813240  1
  Cd  Cd16  1  0.830137  0.830137  0.829971  1
  Cd  Cd17  1  0.830137  0.830137  0.509752  1
  Cd  Cd18  1  0.830550  0.508346  0.830552  1
  Cd  Cd19  1  0.508346  0.830550  0.830552  1
  Co  Co20  1  0.391423  0.391423  0.390276  1
  Co  Co21  1  0.391423  0.391423  0.826880  1
  Ru  Ru22  1  0.391784  0.826758  0.390730  1
  Ru  Ru23  1  0.826758  0.391784  0.390730  1
