# generated using pymatgen
data_Ti3AlTcSe8
_symmetry_space_group_name_H-M   'P 1'
_cell_length_a   7.42213064
_cell_length_b   7.42213205
_cell_length_c   7.25381252
_cell_angle_alpha   59.22939875
_cell_angle_beta   59.22939862
_cell_angle_gamma   60.00000384
_symmetry_Int_Tables_number   1
_chemical_formula_structural   Ti3AlTcSe8
_chemical_formula_sum   'Ti3 Al1 Tc1 Se8'
_cell_volume   279.22266291
_cell_formula_units_Z   1
loop_
 _symmetry_equiv_pos_site_id
 _symmetry_equiv_pos_as_xyz
  1  'x, y, z'
loop_
 _atom_site_type_symbol
 _atom_site_label
 _atom_site_symmetry_multiplicity
 _atom_site_fract_x
 _atom_site_fract_y
 _atom_site_fract_z
 _atom_site_occupancy
  Ti  Ti0  1  0.615719  0.178299  0.590264  1
  Ti  Ti1  1  0.178299  0.615719  0.590264  1
  Ti  Ti2  1  0.615719  0.615719  0.590264  1
  Al  Al3  1  0.006797  0.006797  0.979608  1
  Tc  Tc4  1  0.596258  0.596258  0.211227  1
  Se  Se5  1  0.373379  0.373379  0.879863  1
  Se  Se6  1  0.362605  0.897237  0.377552  1
  Se  Se7  1  0.897237  0.362605  0.377552  1
  Se  Se8  1  0.362605  0.362605  0.377552  1
  Se  Se9  1  0.869555  0.869555  0.391332  1
  Se  Se10  1  0.856466  0.408893  0.878174  1
  Se  Se11  1  0.408893  0.856466  0.878174  1
  Se  Se12  1  0.856466  0.856466  0.878174  1
