# generated using pymatgen
data_Zr3Sc5Fe7Si16Ru5
_symmetry_space_group_name_H-M   'P 1'
_cell_length_a   9.77594461
_cell_length_b   9.77662461
_cell_length_c   13.04246550
_cell_angle_alpha   53.62136441
_cell_angle_beta   53.61320663
_cell_angle_gamma   30.92236676
_symmetry_Int_Tables_number   1
_chemical_formula_structural   Zr3Sc5Fe7Si16Ru5
_chemical_formula_sum   'Zr3 Sc5 Fe7 Si16 Ru5'
_cell_volume   504.88181764
_cell_formula_units_Z   1
loop_
 _symmetry_equiv_pos_site_id
 _symmetry_equiv_pos_as_xyz
  1  'x, y, z'
loop_
 _atom_site_type_symbol
 _atom_site_label
 _atom_site_symmetry_multiplicity
 _atom_site_fract_x
 _atom_site_fract_y
 _atom_site_fract_z
 _atom_site_occupancy
  Zr  Zr0  1  0.435836  0.710269  0.855904  1
  Zr  Zr1  1  0.706900  0.434024  0.359302  1
  Zr  Zr2  1  0.564951  0.290312  0.142241  1
  Sc  Sc3  1  0.040267  0.292232  0.641850  1
  Sc  Sc4  1  0.708843  0.959237  0.857825  1
  Sc  Sc5  1  0.962173  0.706520  0.361073  1
  Sc  Sc6  1  0.292114  0.040884  0.139801  1
  Sc  Sc7  1  0.289737  0.566046  0.644244  1
  Fe  Fe8  1  0.896440  0.140581  0.584390  1
  Fe  Fe9  1  0.859396  0.103985  0.915251  1
  Fe  Fe10  1  0.101300  0.857823  0.415538  1
  Fe  Fe11  1  0.143020  0.896487  0.083219  1
  Fe  Fe12  1  0.829060  0.648473  0.779054  1
  Fe  Fe13  1  0.351213  0.168832  0.721744  1
  Fe  Fe14  1  0.170883  0.352974  0.219169  1
  Si  Si15  1  0.971580  0.257461  0.891504  1
  Si  Si16  1  0.742098  0.029311  0.608787  1
  Si  Si17  1  0.033984  0.741868  0.105421  1
  Si  Si18  1  0.245116  0.974639  0.395239  1
  Si  Si19  1  0.141247  0.388648  0.890805  1
  Si  Si20  1  0.614488  0.857479  0.607208  1
  Si  Si21  1  0.861828  0.609198  0.104678  1
  Si  Si22  1  0.383396  0.147003  0.396602  1
  Si  Si23  1  0.080344  0.575535  0.570210  1
  Si  Si24  1  0.423413  0.922565  0.931540  1
  Si  Si25  1  0.926697  0.415412  0.435700  1
  Si  Si26  1  0.578206  0.081339  0.061976  1
  Si  Si27  1  0.629171  0.370691  0.749338  1
  Si  Si28  1  0.372186  0.628181  0.249628  1
  Si  Si29  1  0.112745  0.887238  0.749292  1
  Si  Si30  1  0.886284  0.113406  0.249772  1
  Ru  Ru31  1  0.646180  0.830713  0.280019  1
  Ru  Ru32  1  0.245713  0.513105  0.933630  1
  Ru  Ru33  1  0.489364  0.751305  0.568102  1
  Ru  Ru34  1  0.753098  0.488523  0.064522  1
  Ru  Ru35  1  0.510728  0.247703  0.435421  1
