# generated using pymatgen
data_BaSn2BrF5
_symmetry_space_group_name_H-M   'P 1'
_cell_length_a   5.95854300
_cell_length_b   5.95854300
_cell_length_c   9.74713800
_cell_angle_alpha   90.00000000
_cell_angle_beta   90.00000000
_cell_angle_gamma   90.00000000
_symmetry_Int_Tables_number   1
_chemical_formula_structural   BaSn2BrF5
_chemical_formula_sum   'Ba2 Sn4 Br2 F10'
_cell_volume   346.06467504
_cell_formula_units_Z   2
loop_
 _symmetry_equiv_pos_site_id
 _symmetry_equiv_pos_as_xyz
  1  'x, y, z'
loop_
 _atom_site_type_symbol
 _atom_site_label
 _atom_site_symmetry_multiplicity
 _atom_site_fract_x
 _atom_site_fract_y
 _atom_site_fract_z
 _atom_site_occupancy
  Ba  Ba0  1  0.500000  0.500000  0.000000  1
  Ba  Ba1  1  0.000000  0.000000  0.000000  1
  Sn  Sn2  1  0.500000  0.000000  0.676533  1
  Sn  Sn3  1  0.000000  0.500000  0.726751  1
  Sn  Sn4  1  0.500000  0.000000  0.273249  1
  Sn  Sn5  1  0.000000  0.500000  0.323467  1
  Br  Br6  1  0.500000  0.500000  0.500000  1
  Br  Br7  1  0.000000  0.000000  0.500000  1
  F  F8  1  0.500000  0.000000  0.045019  1
  F  F9  1  0.766170  0.266170  0.190144  1
  F  F10  1  0.266170  0.233830  0.809856  1
  F  F11  1  0.766170  0.733830  0.190144  1
  F  F12  1  0.733830  0.766170  0.809856  1
  F  F13  1  0.233830  0.266170  0.190144  1
  F  F14  1  0.000000  0.500000  0.954981  1
  F  F15  1  0.733830  0.233830  0.809856  1
  F  F16  1  0.266170  0.766170  0.809856  1
  F  F17  1  0.233830  0.733830  0.190144  1
