# generated using pymatgen
data_Sm2Mn9Fe3P7
_symmetry_space_group_name_H-M   'P 1'
_cell_length_a   9.31671500
_cell_length_b   9.31671450
_cell_length_c   3.59372500
_cell_angle_alpha   90.00000000
_cell_angle_beta   90.00000000
_cell_angle_gamma   120.00000534
_symmetry_Int_Tables_number   1
_chemical_formula_structural   Sm2Mn9Fe3P7
_chemical_formula_sum   'Sm2 Mn9 Fe3 P7'
_cell_volume   270.14755845
_cell_formula_units_Z   1
loop_
 _symmetry_equiv_pos_site_id
 _symmetry_equiv_pos_as_xyz
  1  'x, y, z'
loop_
 _atom_site_type_symbol
 _atom_site_label
 _atom_site_symmetry_multiplicity
 _atom_site_fract_x
 _atom_site_fract_y
 _atom_site_fract_z
 _atom_site_occupancy
  Sm  Sm0  1  0.333333  0.666667  0.500000  1
  Sm  Sm1  1  0.000000  0.000000  0.000000  1
  Mn  Mn2  1  0.093682  0.382798  0.000000  1
  Mn  Mn3  1  0.617202  0.710884  0.000000  1
  Mn  Mn4  1  0.289116  0.906318  0.000000  1
  Mn  Mn5  1  0.059267  0.770849  0.500000  1
  Mn  Mn6  1  0.229151  0.288418  0.500000  1
  Mn  Mn7  1  0.711582  0.940733  0.500000  1
  Mn  Mn8  1  0.896975  0.438079  0.500000  1
  Mn  Mn9  1  0.561921  0.458897  0.500000  1
  Mn  Mn10  1  0.541103  0.103025  0.500000  1
  Fe  Fe11  1  0.820825  0.605195  0.000000  1
  Fe  Fe12  1  0.394805  0.215630  0.000000  1
  Fe  Fe13  1  0.784370  0.179175  0.000000  1
  P  P14  1  0.790709  0.735249  0.500000  1
  P  P15  1  0.264751  0.055460  0.500000  1
  P  P16  1  0.944540  0.209291  0.500000  1
  P  P17  1  0.666667  0.333333  0.000000  1
  P  P18  1  0.071666  0.622145  0.000000  1
  P  P19  1  0.377855  0.449521  0.000000  1
  P  P20  1  0.550479  0.928334  0.000000  1
