# generated using pymatgen
data_Dy3Er9Os4
_symmetry_space_group_name_H-M   'P 1'
_cell_length_a   6.29123790
_cell_length_b   7.37034606
_cell_length_c   8.98679000
_cell_angle_alpha   90.00000000
_cell_angle_beta   90.00000000
_cell_angle_gamma   89.93875794
_symmetry_Int_Tables_number   1
_chemical_formula_structural   Dy3Er9Os4
_chemical_formula_sum   'Dy3 Er9 Os4'
_cell_volume   416.70463644
_cell_formula_units_Z   1
loop_
 _symmetry_equiv_pos_site_id
 _symmetry_equiv_pos_as_xyz
  1  'x, y, z'
loop_
 _atom_site_type_symbol
 _atom_site_label
 _atom_site_symmetry_multiplicity
 _atom_site_fract_x
 _atom_site_fract_y
 _atom_site_fract_z
 _atom_site_occupancy
  Dy  Dy0  1  0.870473  0.539033  0.250000  1
  Dy  Dy1  1  0.629678  0.039065  0.250000  1
  Dy  Dy2  1  0.130057  0.460776  0.750000  1
  Er  Er3  1  0.333069  0.675618  0.062855  1
  Er  Er4  1  0.167487  0.174676  0.437327  1
  Er  Er5  1  0.666753  0.324553  0.562988  1
  Er  Er6  1  0.832218  0.825062  0.936716  1
  Er  Er7  1  0.666753  0.324553  0.937012  1
  Er  Er8  1  0.832218  0.825062  0.563284  1
  Er  Er9  1  0.333069  0.675618  0.437145  1
  Er  Er10  1  0.167487  0.174676  0.062673  1
  Er  Er11  1  0.369753  0.960697  0.750000  1
  Os  Os12  1  0.042073  0.882896  0.250000  1
  Os  Os13  1  0.457978  0.382768  0.250000  1
  Os  Os14  1  0.959453  0.116919  0.750000  1
  Os  Os15  1  0.541482  0.618030  0.750000  1
