# generated using pymatgen
data_Fe3Co(PtO3)8
_symmetry_space_group_name_H-M   'P 1'
_cell_length_a   4.59181386
_cell_length_b   9.18811373
_cell_length_c   9.47453700
_cell_angle_alpha   90.00000000
_cell_angle_beta   90.00000000
_cell_angle_gamma   89.92979830
_symmetry_Int_Tables_number   1
_chemical_formula_structural   Fe3Co(PtO3)8
_chemical_formula_sum   'Fe3 Co1 Pt8 O24'
_cell_volume   399.73143887
_cell_formula_units_Z   1
loop_
 _symmetry_equiv_pos_site_id
 _symmetry_equiv_pos_as_xyz
  1  'x, y, z'
loop_
 _atom_site_type_symbol
 _atom_site_label
 _atom_site_symmetry_multiplicity
 _atom_site_fract_x
 _atom_site_fract_y
 _atom_site_fract_z
 _atom_site_occupancy
  Fe  Fe0  1  0.500478  0.750327  0.500000  1
  Fe  Fe1  1  0.000000  0.000000  0.000000  1
  Fe  Fe2  1  0.499522  0.249673  0.500000  1
  Co  Co3  1  0.000000  0.500000  0.000000  1
  Pt  Pt4  1  0.000000  0.000000  0.331748  1
  Pt  Pt5  1  0.000000  0.500000  0.331556  1
  Pt  Pt6  1  0.499495  0.251797  0.832536  1
  Pt  Pt7  1  0.500505  0.748203  0.832536  1
  Pt  Pt8  1  0.499495  0.251797  0.167464  1
  Pt  Pt9  1  0.500505  0.748203  0.167464  1
  Pt  Pt10  1  0.000000  0.000000  0.668252  1
  Pt  Pt11  1  0.000000  0.500000  0.668444  1
  O  O12  1  0.308954  0.155430  0.000000  1
  O  O13  1  0.305936  0.652101  0.000000  1
  O  O14  1  0.191280  0.404107  0.500000  1
  O  O15  1  0.192049  0.904452  0.500000  1
  O  O16  1  0.807951  0.095548  0.500000  1
  O  O17  1  0.808720  0.595893  0.500000  1
  O  O18  1  0.694064  0.347899  0.000000  1
  O  O19  1  0.691046  0.844570  0.000000  1
  O  O20  1  0.306435  0.154216  0.335341  1
  O  O21  1  0.307802  0.653116  0.335824  1
  O  O22  1  0.191551  0.405087  0.836709  1
  O  O23  1  0.192695  0.902967  0.836156  1
  O  O24  1  0.807305  0.097033  0.836156  1
  O  O25  1  0.808449  0.594913  0.836709  1
  O  O26  1  0.807305  0.097033  0.163844  1
  O  O27  1  0.808449  0.594913  0.163291  1
  O  O28  1  0.191551  0.405087  0.163291  1
  O  O29  1  0.192695  0.902967  0.163844  1
  O  O30  1  0.692198  0.346884  0.335824  1
  O  O31  1  0.693565  0.845784  0.335341  1
  O  O32  1  0.306435  0.154216  0.664659  1
  O  O33  1  0.307802  0.653116  0.664176  1
  O  O34  1  0.692198  0.346884  0.664176  1
  O  O35  1  0.693565  0.845784  0.664659  1
