# generated using pymatgen
data_Nd12Co4PdPb
_symmetry_space_group_name_H-M   'P 1'
_cell_length_a   8.67851115
_cell_length_b   8.67827073
_cell_length_c   8.67851013
_cell_angle_alpha   110.94742969
_cell_angle_beta   109.54828767
_cell_angle_gamma   107.93309208
_symmetry_Int_Tables_number   1
_chemical_formula_structural   Nd12Co4PdPb
_chemical_formula_sum   'Nd12 Co4 Pd1 Pb1'
_cell_volume   502.79953659
_cell_formula_units_Z   1
loop_
 _symmetry_equiv_pos_site_id
 _symmetry_equiv_pos_as_xyz
  1  'x, y, z'
loop_
 _atom_site_type_symbol
 _atom_site_label
 _atom_site_symmetry_multiplicity
 _atom_site_fract_x
 _atom_site_fract_y
 _atom_site_fract_z
 _atom_site_occupancy
  Nd  Nd0  1  0.404827  0.205935  0.198895  1
  Nd  Nd1  1  0.595173  0.794065  0.801105  1
  Nd  Nd2  1  0.007040  0.205935  0.801109  1
  Nd  Nd3  1  0.992960  0.794065  0.198891  1
  Nd  Nd4  1  0.183948  0.297749  0.481696  1
  Nd  Nd5  1  0.816052  0.702251  0.518304  1
  Nd  Nd6  1  0.183947  0.702251  0.886201  1
  Nd  Nd7  1  0.816053  0.297749  0.113799  1
  Nd  Nd8  1  0.316548  0.624425  0.307877  1
  Nd  Nd9  1  0.683452  0.375575  0.692123  1
  Nd  Nd10  1  0.316548  0.008671  0.692123  1
  Nd  Nd11  1  0.683452  0.991329  0.307877  1
  Co  Co12  1  0.379655  0.000000  0.379655  1
  Co  Co13  1  0.620345  0.000000  0.620345  1
  Co  Co14  1  0.110337  0.610332  0.499995  1
  Co  Co15  1  0.889663  0.389668  0.500005  1
  Pd  Pd16  1  0.000000  0.000000  0.000000  1
  Pb  Pb17  1  0.500000  0.500000  0.000000  1
