# generated using pymatgen
data_SmZn2AgPt2
_symmetry_space_group_name_H-M   'P 1'
_cell_length_a   5.30966445
_cell_length_b   5.28802744
_cell_length_c   5.28802696
_cell_angle_alpha   63.66690508
_cell_angle_beta   59.86455627
_cell_angle_gamma   59.86455254
_symmetry_Int_Tables_number   1
_chemical_formula_structural   SmZn2AgPt2
_chemical_formula_sum   'Sm1 Zn2 Ag1 Pt2'
_cell_volume   107.34903084
_cell_formula_units_Z   1
loop_
 _symmetry_equiv_pos_site_id
 _symmetry_equiv_pos_as_xyz
  1  'x, y, z'
loop_
 _atom_site_type_symbol
 _atom_site_label
 _atom_site_symmetry_multiplicity
 _atom_site_fract_x
 _atom_site_fract_y
 _atom_site_fract_z
 _atom_site_occupancy
  Sm  Sm0  1  0.992697  0.007303  0.007303  1
  Zn  Zn1  1  0.130189  0.619113  0.619113  1
  Zn  Zn2  1  0.631584  0.619113  0.619113  1
  Ag  Ag3  1  0.241430  0.258570  0.258570  1
  Pt  Pt4  1  0.627049  0.621702  0.124199  1
  Pt  Pt5  1  0.627049  0.124199  0.621702  1
