# generated using pymatgen
data_La(DyS2)3
_symmetry_space_group_name_H-M   'P 1'
_cell_length_a   4.01710700
_cell_length_b   11.14314292
_cell_length_c   11.39250234
_cell_angle_alpha   71.21446071
_cell_angle_beta   90.00000000
_cell_angle_gamma   90.00000000
_symmetry_Int_Tables_number   1
_chemical_formula_structural   La(DyS2)3
_chemical_formula_sum   'La2 Dy6 S12'
_cell_volume   482.79929335
_cell_formula_units_Z   2
loop_
 _symmetry_equiv_pos_site_id
 _symmetry_equiv_pos_as_xyz
  1  'x, y, z'
loop_
 _atom_site_type_symbol
 _atom_site_label
 _atom_site_symmetry_multiplicity
 _atom_site_fract_x
 _atom_site_fract_y
 _atom_site_fract_z
 _atom_site_occupancy
  La  La0  1  0.750000  0.549346  0.805221  1
  La  La1  1  0.250000  0.450654  0.194779  1
  Dy  Dy2  1  0.750000  0.179389  0.998818  1
  Dy  Dy3  1  0.250000  0.820611  0.001182  1
  Dy  Dy4  1  0.750000  0.941439  0.666837  1
  Dy  Dy5  1  0.250000  0.058561  0.333163  1
  Dy  Dy6  1  0.750000  0.661351  0.412840  1
  Dy  Dy7  1  0.250000  0.338649  0.587160  1
  S  S8  1  0.750000  0.978215  0.888118  1
  S  S9  1  0.250000  0.021785  0.111882  1
  S  S10  1  0.750000  0.303469  0.748670  1
  S  S11  1  0.250000  0.696531  0.251330  1
  S  S12  1  0.750000  0.894583  0.441054  1
  S  S13  1  0.250000  0.105417  0.558946  1
  S  S14  1  0.750000  0.418230  0.406600  1
  S  S15  1  0.250000  0.581770  0.593400  1
  S  S16  1  0.750000  0.233710  0.228967  1
  S  S17  1  0.250000  0.766290  0.771033  1
  S  S18  1  0.750000  0.619937  0.036356  1
  S  S19  1  0.250000  0.380063  0.963644  1
