# generated using pymatgen
data_Ca3SnAu3
_symmetry_space_group_name_H-M   'P 1'
_cell_length_a   4.68545900
_cell_length_b   8.93121400
_cell_length_c   16.75926600
_cell_angle_alpha   90.00000000
_cell_angle_beta   90.00000000
_cell_angle_gamma   90.00000000
_symmetry_Int_Tables_number   1
_chemical_formula_structural   Ca3SnAu3
_chemical_formula_sum   'Ca12 Sn4 Au12'
_cell_volume   701.32227283
_cell_formula_units_Z   4
loop_
 _symmetry_equiv_pos_site_id
 _symmetry_equiv_pos_as_xyz
  1  'x, y, z'
loop_
 _atom_site_type_symbol
 _atom_site_label
 _atom_site_symmetry_multiplicity
 _atom_site_fract_x
 _atom_site_fract_y
 _atom_site_fract_z
 _atom_site_occupancy
  Ca  Ca0  1  0.750000  0.025812  0.844297  1
  Ca  Ca1  1  0.750000  0.474188  0.344297  1
  Ca  Ca2  1  0.250000  0.974188  0.155703  1
  Ca  Ca3  1  0.750000  0.249852  0.555327  1
  Ca  Ca4  1  0.250000  0.749852  0.944673  1
  Ca  Ca5  1  0.750000  0.250148  0.055327  1
  Ca  Ca6  1  0.250000  0.129879  0.366918  1
  Ca  Ca7  1  0.250000  0.750148  0.444673  1
  Ca  Ca8  1  0.750000  0.870121  0.633082  1
  Ca  Ca9  1  0.750000  0.629879  0.133082  1
  Ca  Ca10  1  0.250000  0.370121  0.866918  1
  Ca  Ca11  1  0.250000  0.525812  0.655703  1
  Sn  Sn12  1  0.750000  0.636216  0.793095  1
  Sn  Sn13  1  0.250000  0.363784  0.206905  1
  Sn  Sn14  1  0.250000  0.136216  0.706905  1
  Sn  Sn15  1  0.750000  0.863784  0.293095  1
  Au  Au16  1  0.750000  0.174336  0.238758  1
  Au  Au17  1  0.250000  0.466684  0.048172  1
  Au  Au18  1  0.750000  0.325664  0.738758  1
  Au  Au19  1  0.250000  0.085480  0.970088  1
  Au  Au20  1  0.250000  0.033316  0.548172  1
  Au  Au21  1  0.250000  0.825664  0.761242  1
  Au  Au22  1  0.750000  0.533316  0.951828  1
  Au  Au23  1  0.750000  0.585480  0.529912  1
  Au  Au24  1  0.750000  0.966684  0.451828  1
  Au  Au25  1  0.250000  0.674336  0.261242  1
  Au  Au26  1  0.250000  0.414520  0.470088  1
  Au  Au27  1  0.750000  0.914520  0.029912  1
