# generated using pymatgen
data_La3Ga4(PtRh)2
_symmetry_space_group_name_H-M   'P 1'
_cell_length_a   8.41584162
_cell_length_b   8.41584193
_cell_length_c   8.41584092
_cell_angle_alpha   151.43149314
_cell_angle_beta   126.78054294
_cell_angle_gamma   61.51050680
_symmetry_Int_Tables_number   1
_chemical_formula_structural   La3Ga4(PtRh)2
_chemical_formula_sum   'La3 Ga4 Pt2 Rh2'
_cell_volume   226.43619938
_cell_formula_units_Z   1
loop_
 _symmetry_equiv_pos_site_id
 _symmetry_equiv_pos_as_xyz
  1  'x, y, z'
loop_
 _atom_site_type_symbol
 _atom_site_label
 _atom_site_symmetry_multiplicity
 _atom_site_fract_x
 _atom_site_fract_y
 _atom_site_fract_z
 _atom_site_occupancy
  La  La0  1  0.500000  0.000000  0.500000  1
  La  La1  1  0.872507  0.872507  0.000000  1
  La  La2  1  0.127493  0.127493  0.000000  1
  Ga  Ga3  1  0.480785  0.674678  0.806107  1
  Ga  Ga4  1  0.868571  0.674678  0.193893  1
  Ga  Ga5  1  0.131429  0.325322  0.806107  1
  Ga  Ga6  1  0.519215  0.325322  0.193893  1
  Pt  Pt7  1  0.794783  0.500000  0.294783  1
  Pt  Pt8  1  0.205217  0.500000  0.705217  1
  Rh  Rh9  1  0.283183  0.783183  0.500000  1
  Rh  Rh10  1  0.716817  0.216817  0.500000  1
