# generated using pymatgen
data_AcThZn5Si
_symmetry_space_group_name_H-M   'P 1'
_cell_length_a   8.49675800
_cell_length_b   8.49675760
_cell_length_c   8.95142600
_cell_angle_alpha   90.00000000
_cell_angle_beta   90.00000000
_cell_angle_gamma   148.98243693
_symmetry_Int_Tables_number   1
_chemical_formula_structural   AcThZn5Si
_chemical_formula_sum   'Ac2 Th2 Zn10 Si2'
_cell_volume   333.01172231
_cell_formula_units_Z   2
loop_
 _symmetry_equiv_pos_site_id
 _symmetry_equiv_pos_as_xyz
  1  'x, y, z'
loop_
 _atom_site_type_symbol
 _atom_site_label
 _atom_site_symmetry_multiplicity
 _atom_site_fract_x
 _atom_site_fract_y
 _atom_site_fract_z
 _atom_site_occupancy
  Ac  Ac0  1  0.000000  0.000000  0.500000  1
  Ac  Ac1  1  0.000000  0.000000  0.000000  1
  Th  Th2  1  0.206401  0.793599  0.250000  1
  Th  Th3  1  0.793599  0.206401  0.750000  1
  Zn  Zn4  1  0.812226  0.187774  0.393355  1
  Zn  Zn5  1  0.187774  0.812226  0.606645  1
  Zn  Zn6  1  0.812226  0.187774  0.106645  1
  Zn  Zn7  1  0.187774  0.812226  0.893355  1
  Zn  Zn8  1  0.654352  0.345648  0.478104  1
  Zn  Zn9  1  0.345648  0.654352  0.521896  1
  Zn  Zn10  1  0.654352  0.345648  0.021896  1
  Zn  Zn11  1  0.345648  0.654352  0.978104  1
  Zn  Zn12  1  0.406481  0.593519  0.250000  1
  Zn  Zn13  1  0.593519  0.406481  0.750000  1
  Si  Si14  1  0.564835  0.435165  0.250000  1
  Si  Si15  1  0.435165  0.564835  0.750000  1
