# generated using pymatgen
data_Yb4CeURu6
_symmetry_space_group_name_H-M   'P 1'
_cell_length_a   5.74359437
_cell_length_b   5.28134186
_cell_length_c   9.15600800
_cell_angle_alpha   90.00000000
_cell_angle_beta   90.00000000
_cell_angle_gamma   123.03545556
_symmetry_Int_Tables_number   1
_chemical_formula_structural   Yb4CeURu6
_chemical_formula_sum   'Yb4 Ce1 U1 Ru6'
_cell_volume   232.83644564
_cell_formula_units_Z   1
loop_
 _symmetry_equiv_pos_site_id
 _symmetry_equiv_pos_as_xyz
  1  'x, y, z'
loop_
 _atom_site_type_symbol
 _atom_site_label
 _atom_site_symmetry_multiplicity
 _atom_site_fract_x
 _atom_site_fract_y
 _atom_site_fract_z
 _atom_site_occupancy
  Yb  Yb0  1  0.664366  0.328305  0.565413  1
  Yb  Yb1  1  0.342441  0.684360  0.437548  1
  Yb  Yb2  1  0.342441  0.684360  0.062452  1
  Yb  Yb3  1  0.664366  0.328305  0.934587  1
  Ce  Ce4  1  0.831988  0.662880  0.250000  1
  U  U5  1  0.142703  0.282565  0.750000  1
  Ru  Ru6  1  0.013653  0.028351  0.510767  1
  Ru  Ru7  1  0.013653  0.028351  0.989233  1
  Ru  Ru8  1  0.167471  0.793726  0.750000  1
  Ru  Ru9  1  0.623392  0.791128  0.750000  1
  Ru  Ru10  1  0.838151  0.193851  0.250000  1
  Ru  Ru11  1  0.355377  0.193820  0.250000  1
