# generated using pymatgen
data_Tb4Er5TmSn8
_symmetry_space_group_name_H-M   'P 1'
_cell_length_a   7.99629400
_cell_length_b   8.13851700
_cell_length_c   15.39006600
_cell_angle_alpha   90.00000000
_cell_angle_beta   90.00000000
_cell_angle_gamma   90.00000000
_symmetry_Int_Tables_number   1
_chemical_formula_structural   Tb4Er5TmSn8
_chemical_formula_sum   'Tb8 Er10 Tm2 Sn16'
_cell_volume   1001.55432510
_cell_formula_units_Z   2
loop_
 _symmetry_equiv_pos_site_id
 _symmetry_equiv_pos_as_xyz
  1  'x, y, z'
loop_
 _atom_site_type_symbol
 _atom_site_label
 _atom_site_symmetry_multiplicity
 _atom_site_fract_x
 _atom_site_fract_y
 _atom_site_fract_z
 _atom_site_occupancy
  Tb  Tb0  1  0.520353  0.320539  0.902959  1
  Tb  Tb1  1  0.020353  0.179461  0.597041  1
  Tb  Tb2  1  0.479593  0.679441  0.402712  1
  Tb  Tb3  1  0.979593  0.820559  0.097288  1
  Tb  Tb4  1  0.479593  0.679441  0.097288  1
  Tb  Tb5  1  0.979593  0.820559  0.402712  1
  Tb  Tb6  1  0.520353  0.320539  0.597041  1
  Tb  Tb7  1  0.020353  0.179461  0.902959  1
  Er  Er8  1  0.366700  0.836463  0.877637  1
  Er  Er9  1  0.866700  0.663537  0.622363  1
  Er  Er10  1  0.633198  0.163404  0.377218  1
  Er  Er11  1  0.133198  0.336596  0.122782  1
  Er  Er12  1  0.633198  0.163404  0.122782  1
  Er  Er13  1  0.133198  0.336596  0.377218  1
  Er  Er14  1  0.366700  0.836463  0.622363  1
  Er  Er15  1  0.866700  0.663537  0.877637  1
  Er  Er16  1  0.197910  0.503556  0.750000  1
  Er  Er17  1  0.697910  0.996444  0.750000  1
  Tm  Tm18  1  0.802276  0.496238  0.250000  1
  Tm  Tm19  1  0.302276  0.003762  0.250000  1
  Sn  Sn20  1  0.294564  0.037126  0.042003  1
  Sn  Sn21  1  0.794564  0.462874  0.457997  1
  Sn  Sn22  1  0.705364  0.962808  0.541474  1
  Sn  Sn23  1  0.205364  0.537192  0.958526  1
  Sn  Sn24  1  0.705364  0.962808  0.958526  1
  Sn  Sn25  1  0.205364  0.537192  0.541474  1
  Sn  Sn26  1  0.294564  0.037126  0.457997  1
  Sn  Sn27  1  0.794564  0.462874  0.042003  1
  Sn  Sn28  1  0.564380  0.620269  0.750000  1
  Sn  Sn29  1  0.064380  0.879731  0.750000  1
  Sn  Sn30  1  0.436200  0.379660  0.250000  1
  Sn  Sn31  1  0.936200  0.120340  0.250000  1
  Sn  Sn32  1  0.328992  0.146975  0.750000  1
  Sn  Sn33  1  0.828992  0.353025  0.750000  1
  Sn  Sn34  1  0.670696  0.852386  0.250000  1
  Sn  Sn35  1  0.170696  0.647614  0.250000  1
