# generated using pymatgen
data_BeB2PbO5
_symmetry_space_group_name_H-M   'P 1'
_cell_length_a   4.00645200
_cell_length_b   5.28366379
_cell_length_c   18.32761907
_cell_angle_alpha   80.23573996
_cell_angle_beta   90.00000000
_cell_angle_gamma   90.00000000
_symmetry_Int_Tables_number   1
_chemical_formula_structural   BeB2PbO5
_chemical_formula_sum   'Be4 B8 Pb4 O20'
_cell_volume   382.35248207
_cell_formula_units_Z   4
loop_
 _symmetry_equiv_pos_site_id
 _symmetry_equiv_pos_as_xyz
  1  'x, y, z'
loop_
 _atom_site_type_symbol
 _atom_site_label
 _atom_site_symmetry_multiplicity
 _atom_site_fract_x
 _atom_site_fract_y
 _atom_site_fract_z
 _atom_site_occupancy
  Be  Be0  1  0.757135  0.893847  0.715516  1
  Be  Be1  1  0.742865  0.893847  0.215516  1
  Be  Be2  1  0.242865  0.106153  0.284484  1
  Be  Be3  1  0.257135  0.106153  0.784484  1
  B  B4  1  0.038080  0.297226  0.897767  1
  B  B5  1  0.461920  0.297226  0.397767  1
  B  B6  1  0.961920  0.702774  0.102233  1
  B  B7  1  0.538080  0.702774  0.602233  1
  B  B8  1  0.271517  0.599190  0.782741  1
  B  B9  1  0.228483  0.599190  0.282741  1
  B  B10  1  0.728483  0.400810  0.217259  1
  B  B11  1  0.771517  0.400810  0.717259  1
  Pb  Pb12  1  0.725228  0.777420  0.930867  1
  Pb  Pb13  1  0.774772  0.777420  0.430867  1
  Pb  Pb14  1  0.274772  0.222580  0.069133  1
  Pb  Pb15  1  0.225228  0.222580  0.569133  1
  O  O16  1  0.131743  0.540268  0.860616  1
  O  O17  1  0.368257  0.540268  0.360616  1
  O  O18  1  0.868257  0.459732  0.139384  1
  O  O19  1  0.631743  0.459732  0.639384  1
  O  O20  1  0.451347  0.842042  0.775425  1
  O  O21  1  0.048653  0.842042  0.275425  1
  O  O22  1  0.548653  0.157958  0.224575  1
  O  O23  1  0.951347  0.157958  0.724575  1
  O  O24  1  0.119754  0.081299  0.869189  1
  O  O25  1  0.380246  0.081299  0.369189  1
  O  O26  1  0.880246  0.918701  0.130811  1
  O  O27  1  0.619754  0.918701  0.630811  1
  O  O28  1  0.985965  0.623813  0.728523  1
  O  O29  1  0.514035  0.623813  0.228523  1
  O  O30  1  0.014035  0.376187  0.271477  1
  O  O31  1  0.485965  0.376187  0.771477  1
  O  O32  1  0.865841  0.282029  0.963162  1
  O  O33  1  0.634159  0.282029  0.463162  1
  O  O34  1  0.134159  0.717971  0.036838  1
  O  O35  1  0.365841  0.717971  0.536838  1
