# generated using pymatgen
data_Nd4Zn10GaSi
_symmetry_space_group_name_H-M   'P 1'
_cell_length_a   8.38689976
_cell_length_b   8.38689905
_cell_length_c   8.86832200
_cell_angle_alpha   90.00000000
_cell_angle_beta   90.00000000
_cell_angle_gamma   149.18110909
_symmetry_Int_Tables_number   1
_chemical_formula_structural   Nd4Zn10GaSi
_chemical_formula_sum   'Nd4 Zn10 Ga1 Si1'
_cell_volume   319.58821437
_cell_formula_units_Z   1
loop_
 _symmetry_equiv_pos_site_id
 _symmetry_equiv_pos_as_xyz
  1  'x, y, z'
loop_
 _atom_site_type_symbol
 _atom_site_label
 _atom_site_symmetry_multiplicity
 _atom_site_fract_x
 _atom_site_fract_y
 _atom_site_fract_z
 _atom_site_occupancy
  Nd  Nd0  1  0.202179  0.797821  0.250000  1
  Nd  Nd1  1  0.796750  0.203250  0.750000  1
  Nd  Nd2  1  0.000560  0.999440  0.493057  1
  Nd  Nd3  1  0.000560  0.999440  0.006943  1
  Zn  Zn4  1  0.813605  0.186395  0.393564  1
  Zn  Zn5  1  0.186128  0.813872  0.606816  1
  Zn  Zn6  1  0.813605  0.186395  0.106436  1
  Zn  Zn7  1  0.186128  0.813872  0.893184  1
  Zn  Zn8  1  0.648779  0.351221  0.477761  1
  Zn  Zn9  1  0.351321  0.648679  0.520862  1
  Zn  Zn10  1  0.648779  0.351221  0.022239  1
  Zn  Zn11  1  0.351321  0.648679  0.979138  1
  Zn  Zn12  1  0.404708  0.595292  0.250000  1
  Zn  Zn13  1  0.595170  0.404830  0.750000  1
  Ga  Ga14  1  0.442908  0.557092  0.750000  1
  Si  Si15  1  0.557497  0.442503  0.250000  1
