# generated using pymatgen
data_Ho9ErGa2(SiB8)2
_symmetry_space_group_name_H-M   'P 1'
_cell_length_a   7.22111000
_cell_length_b   7.22111020
_cell_length_c   8.10400100
_cell_angle_alpha   90.00000000
_cell_angle_beta   90.00000000
_cell_angle_gamma   89.66260794
_symmetry_Int_Tables_number   1
_chemical_formula_structural   Ho9ErGa2(SiB8)2
_chemical_formula_sum   'Ho9 Er1 Ga2 Si2 B16'
_cell_volume   422.57119490
_cell_formula_units_Z   1
loop_
 _symmetry_equiv_pos_site_id
 _symmetry_equiv_pos_as_xyz
  1  'x, y, z'
loop_
 _atom_site_type_symbol
 _atom_site_label
 _atom_site_symmetry_multiplicity
 _atom_site_fract_x
 _atom_site_fract_y
 _atom_site_fract_z
 _atom_site_occupancy
  Ho  Ho0  1  0.679381  0.179381  0.223347  1
  Ho  Ho1  1  0.320619  0.820619  0.776653  1
  Ho  Ho2  1  0.320619  0.820619  0.223347  1
  Ho  Ho3  1  0.815808  0.684192  0.219131  1
  Ho  Ho4  1  0.815808  0.684192  0.780869  1
  Ho  Ho5  1  0.679381  0.179381  0.776653  1
  Ho  Ho6  1  0.184192  0.315808  0.780869  1
  Ho  Ho7  1  0.184192  0.315808  0.219131  1
  Ho  Ho8  1  0.500000  0.500000  0.500000  1
  Er  Er9  1  0.000000  0.000000  0.500000  1
  Ga  Ga10  1  0.117765  0.617765  0.500000  1
  Ga  Ga11  1  0.882235  0.382235  0.500000  1
  Si  Si12  1  0.383921  0.116079  0.500000  1
  Si  Si13  1  0.616079  0.883921  0.500000  1
  B  B14  1  0.171945  0.039339  0.000000  1
  B  B15  1  0.828055  0.960661  0.000000  1
  B  B16  1  0.959524  0.172221  0.000000  1
  B  B17  1  0.327779  0.540476  0.000000  1
  B  B18  1  0.040476  0.827779  0.000000  1
  B  B19  1  0.672221  0.459524  0.000000  1
  B  B20  1  0.539339  0.671945  0.000000  1
  B  B21  1  0.460661  0.328055  0.000000  1
  B  B22  1  0.090523  0.590523  0.000000  1
  B  B23  1  0.909477  0.409477  0.000000  1
  B  B24  1  0.408674  0.091326  0.000000  1
  B  B25  1  0.591326  0.908674  0.000000  1
  B  B26  1  0.000000  0.000000  0.162876  1
  B  B27  1  0.000000  0.000000  0.837124  1
  B  B28  1  0.500000  0.500000  0.837124  1
  B  B29  1  0.500000  0.500000  0.162876  1
