# generated using pymatgen
data_DyErPa2(WC2)4
_symmetry_space_group_name_H-M   'P 1'
_cell_length_a   3.35069500
_cell_length_b   5.73772428
_cell_length_c   10.90695453
_cell_angle_alpha   89.96427420
_cell_angle_beta   90.00000000
_cell_angle_gamma   90.00000000
_symmetry_Int_Tables_number   1
_chemical_formula_structural   DyErPa2(WC2)4
_chemical_formula_sum   'Dy1 Er1 Pa2 W4 C8'
_cell_volume   209.69013078
_cell_formula_units_Z   1
loop_
 _symmetry_equiv_pos_site_id
 _symmetry_equiv_pos_as_xyz
  1  'x, y, z'
loop_
 _atom_site_type_symbol
 _atom_site_label
 _atom_site_symmetry_multiplicity
 _atom_site_fract_x
 _atom_site_fract_y
 _atom_site_fract_z
 _atom_site_occupancy
  Dy  Dy0  1  0.750000  0.913277  0.139635  1
  Er  Er1  1  0.750000  0.413912  0.360596  1
  Pa  Pa2  1  0.250000  0.085600  0.861512  1
  Pa  Pa3  1  0.250000  0.585439  0.638070  1
  W  W4  1  0.250000  0.406483  0.113458  1
  W  W5  1  0.250000  0.906471  0.387374  1
  W  W6  1  0.750000  0.587884  0.897136  1
  W  W7  1  0.750000  0.088234  0.602134  1
  C  C8  1  0.250000  0.163786  0.248936  1
  C  C9  1  0.250000  0.661903  0.252687  1
  C  C10  1  0.750000  0.840721  0.754994  1
  C  C11  1  0.750000  0.340380  0.744650  1
  C  C12  1  0.250000  0.733657  0.986613  1
  C  C13  1  0.250000  0.235181  0.512304  1
  C  C14  1  0.750000  0.269163  0.011679  1
  C  C15  1  0.750000  0.767910  0.488222  1
