# generated using pymatgen
data_Li11Au2
_symmetry_space_group_name_H-M   'P 1'
_cell_length_a   8.34598395
_cell_length_b   8.34598351
_cell_length_c   8.34598400
_cell_angle_alpha   109.47122426
_cell_angle_beta   109.47122319
_cell_angle_gamma   109.47121571
_symmetry_Int_Tables_number   1
_chemical_formula_structural   Li11Au2
_chemical_formula_sum   'Li22 Au4'
_cell_volume   447.51821563
_cell_formula_units_Z   2
loop_
 _symmetry_equiv_pos_site_id
 _symmetry_equiv_pos_as_xyz
  1  'x, y, z'
loop_
 _atom_site_type_symbol
 _atom_site_label
 _atom_site_symmetry_multiplicity
 _atom_site_fract_x
 _atom_site_fract_y
 _atom_site_fract_z
 _atom_site_occupancy
  Li  Li0  1  0.792639  0.000000  0.000000  1
  Li  Li1  1  0.650161  0.263354  0.000000  1
  Li  Li2  1  0.348901  0.348901  0.000000  1
  Li  Li3  1  0.651099  0.651099  0.000000  1
  Li  Li4  1  0.263354  0.650161  0.000000  1
  Li  Li5  1  0.000000  0.792639  0.000000  1
  Li  Li6  1  0.207360  0.207360  0.207360  1
  Li  Li7  1  0.650161  0.000000  0.263354  1
  Li  Li8  1  0.000000  0.650161  0.263354  1
  Li  Li9  1  0.349838  0.613194  0.349838  1
  Li  Li10  1  0.613194  0.349838  0.349838  1
  Li  Li11  1  0.348901  0.000000  0.348901  1
  Li  Li12  1  0.000000  0.348901  0.348901  1
  Li  Li13  1  0.736645  0.736645  0.386806  1
  Li  Li14  1  0.349838  0.349838  0.613194  1
  Li  Li15  1  0.651099  0.000000  0.651099  1
  Li  Li16  1  0.000000  0.651099  0.651099  1
  Li  Li17  1  0.263354  0.000000  0.650161  1
  Li  Li18  1  0.000000  0.263354  0.650161  1
  Li  Li19  1  0.736645  0.386806  0.736645  1
  Li  Li20  1  0.386806  0.736645  0.736645  1
  Li  Li21  1  0.000000  0.000000  0.792639  1
  Au  Au22  1  0.338902  0.000000  0.000000  1
  Au  Au23  1  0.000000  0.338902  0.000000  1
  Au  Au24  1  0.000000  0.000000  0.338902  1
  Au  Au25  1  0.661097  0.661097  0.661097  1
