# generated using pymatgen
data_Ta12Si3Os9N4
_symmetry_space_group_name_H-M   'P 1'
_cell_length_a   8.38339100
_cell_length_b   8.38339225
_cell_length_c   8.38339216
_cell_angle_alpha   58.20770031
_cell_angle_beta   58.20770022
_cell_angle_gamma   58.20769607
_symmetry_Int_Tables_number   1
_chemical_formula_structural   Ta12Si3Os9N4
_chemical_formula_sum   'Ta12 Si3 Os9 N4'
_cell_volume   399.51452870
_cell_formula_units_Z   1
loop_
 _symmetry_equiv_pos_site_id
 _symmetry_equiv_pos_as_xyz
  1  'x, y, z'
loop_
 _atom_site_type_symbol
 _atom_site_label
 _atom_site_symmetry_multiplicity
 _atom_site_fract_x
 _atom_site_fract_y
 _atom_site_fract_z
 _atom_site_occupancy
  Ta  Ta0  1  0.804689  0.804689  0.198040  1
  Ta  Ta1  1  0.194035  0.194035  0.806378  1
  Ta  Ta2  1  0.804689  0.198040  0.804689  1
  Ta  Ta3  1  0.194035  0.806378  0.194035  1
  Ta  Ta4  1  0.198040  0.804689  0.804689  1
  Ta  Ta5  1  0.806378  0.194035  0.194035  1
  Ta  Ta6  1  0.445311  0.445311  0.051960  1
  Ta  Ta7  1  0.055965  0.055965  0.443622  1
  Ta  Ta8  1  0.445311  0.051960  0.445311  1
  Ta  Ta9  1  0.055965  0.443622  0.055965  1
  Ta  Ta10  1  0.051960  0.445311  0.445311  1
  Ta  Ta11  1  0.443622  0.055965  0.055965  1
  Si  Si12  1  0.125000  0.625000  0.625000  1
  Si  Si13  1  0.625000  0.125000  0.625000  1
  Si  Si14  1  0.625000  0.625000  0.125000  1
  Os  Os15  1  0.625000  0.625000  0.625000  1
  Os  Os16  1  0.749860  0.410547  0.410547  1
  Os  Os17  1  0.410547  0.749860  0.410547  1
  Os  Os18  1  0.410547  0.410547  0.749860  1
  Os  Os19  1  0.414605  0.414605  0.414605  1
  Os  Os20  1  0.500140  0.839453  0.839453  1
  Os  Os21  1  0.839453  0.500140  0.839453  1
  Os  Os22  1  0.839453  0.839453  0.500140  1
  Os  Os23  1  0.835395  0.835395  0.835395  1
  N  N24  1  0.625000  0.125000  0.125000  1
  N  N25  1  0.125000  0.625000  0.125000  1
  N  N26  1  0.125000  0.125000  0.625000  1
  N  N27  1  0.125000  0.125000  0.125000  1
