# generated using pymatgen
data_Tb2Sm8B2I15
_symmetry_space_group_name_H-M   'P 1'
_cell_length_a   9.76808357
_cell_length_b   10.49642051
_cell_length_c   11.44946562
_cell_angle_alpha   91.75281945
_cell_angle_beta   114.40925485
_cell_angle_gamma   110.43431203
_symmetry_Int_Tables_number   1
_chemical_formula_structural   Tb2Sm8B2I15
_chemical_formula_sum   'Tb2 Sm8 B2 I15'
_cell_volume   980.45758977
_cell_formula_units_Z   1
loop_
 _symmetry_equiv_pos_site_id
 _symmetry_equiv_pos_as_xyz
  1  'x, y, z'
loop_
 _atom_site_type_symbol
 _atom_site_label
 _atom_site_symmetry_multiplicity
 _atom_site_fract_x
 _atom_site_fract_y
 _atom_site_fract_z
 _atom_site_occupancy
  Tb  Tb0  1  0.706846  0.069692  0.045162  1
  Tb  Tb1  1  0.293154  0.930308  0.954838  1
  Sm  Sm2  1  0.787674  0.396769  0.269654  1
  Sm  Sm3  1  0.212326  0.603231  0.730346  1
  Sm  Sm4  1  0.664909  0.750750  0.824099  1
  Sm  Sm5  1  0.335091  0.249250  0.175901  1
  Sm  Sm6  1  0.523764  0.710551  0.087776  1
  Sm  Sm7  1  0.476236  0.289449  0.912224  1
  Sm  Sm8  1  0.582027  0.042064  0.312451  1
  Sm  Sm9  1  0.417973  0.957936  0.687549  1
  B  B10  1  0.468080  0.823211  0.879754  1
  B  B11  1  0.531920  0.176789  0.120246  1
  I  I12  1  0.000000  0.000000  0.000000  1
  I  I13  1  0.639133  0.882551  0.581338  1
  I  I14  1  0.360867  0.117449  0.418662  1
  I  I15  1  0.885793  0.299057  0.532523  1
  I  I16  1  0.114207  0.700943  0.467477  1
  I  I17  1  0.281775  0.760558  0.174938  1
  I  I18  1  0.718225  0.239442  0.825062  1
  I  I19  1  0.052688  0.337846  0.223329  1
  I  I20  1  0.157527  0.054030  0.704367  1
  I  I21  1  0.842473  0.945970  0.295633  1
  I  I22  1  0.225193  0.408550  0.941902  1
  I  I23  1  0.774807  0.591450  0.058098  1
  I  I24  1  0.408385  0.458476  0.656604  1
  I  I25  1  0.591615  0.541524  0.343396  1
  I  I26  1  0.947312  0.662154  0.776671  1
