# generated using pymatgen
data_Tm2V3Co9SiAs6
_symmetry_space_group_name_H-M   'P 1'
_cell_length_a   3.74239200
_cell_length_b   9.35705979
_cell_length_c   9.35706100
_cell_angle_alpha   119.99999367
_cell_angle_beta   90.00000000
_cell_angle_gamma   90.00000000
_symmetry_Int_Tables_number   1
_chemical_formula_structural   Tm2V3Co9SiAs6
_chemical_formula_sum   'Tm2 V3 Co9 Si1 As6'
_cell_volume   283.76498227
_cell_formula_units_Z   1
loop_
 _symmetry_equiv_pos_site_id
 _symmetry_equiv_pos_as_xyz
  1  'x, y, z'
loop_
 _atom_site_type_symbol
 _atom_site_label
 _atom_site_symmetry_multiplicity
 _atom_site_fract_x
 _atom_site_fract_y
 _atom_site_fract_z
 _atom_site_occupancy
  Tm  Tm0  1  0.000000  0.666667  0.333333  1
  Tm  Tm1  1  0.500000  0.333333  0.666667  1
  V  V2  1  0.500000  0.787169  0.901058  1
  V  V3  1  0.500000  0.113890  0.212831  1
  V  V4  1  0.500000  0.098942  0.886110  1
  Co  Co5  1  0.000000  0.569094  0.941350  1
  Co  Co6  1  0.000000  0.372255  0.430906  1
  Co  Co7  1  0.000000  0.058650  0.627745  1
  Co  Co8  1  0.000000  0.880419  0.155851  1
  Co  Co9  1  0.000000  0.275431  0.119581  1
  Co  Co10  1  0.000000  0.844149  0.724569  1
  Co  Co11  1  0.500000  0.949730  0.382953  1
  Co  Co12  1  0.500000  0.433221  0.050270  1
  Co  Co13  1  0.500000  0.617047  0.566779  1
  Si  Si14  1  0.000000  0.000000  0.000000  1
  As  As15  1  0.500000  0.708731  0.119058  1
  As  As16  1  0.500000  0.410327  0.291269  1
  As  As17  1  0.500000  0.880942  0.589673  1
  As  As18  1  0.000000  0.587264  0.703341  1
  As  As19  1  0.000000  0.116078  0.412736  1
  As  As20  1  0.000000  0.296659  0.883922  1
