# generated using pymatgen
data_Nd4Ga5Cl2
_symmetry_space_group_name_H-M   'P 1'
_cell_length_a   11.36300352
_cell_length_b   11.36300355
_cell_length_c   4.19966100
_cell_angle_alpha   90.00000000
_cell_angle_beta   90.00000000
_cell_angle_gamma   93.97480164
_symmetry_Int_Tables_number   1
_chemical_formula_structural   Nd4Ga5Cl2
_chemical_formula_sum   'Nd8 Ga10 Cl4'
_cell_volume   540.94688290
_cell_formula_units_Z   2
loop_
 _symmetry_equiv_pos_site_id
 _symmetry_equiv_pos_as_xyz
  1  'x, y, z'
loop_
 _atom_site_type_symbol
 _atom_site_label
 _atom_site_symmetry_multiplicity
 _atom_site_fract_x
 _atom_site_fract_y
 _atom_site_fract_z
 _atom_site_occupancy
  Nd  Nd0  1  0.680106  0.040852  0.500000  1
  Nd  Nd1  1  0.319894  0.959148  0.500000  1
  Nd  Nd2  1  0.040852  0.680106  0.500000  1
  Nd  Nd3  1  0.959148  0.319894  0.500000  1
  Nd  Nd4  1  0.733780  0.733780  0.000000  1
  Nd  Nd5  1  0.266220  0.266220  0.000000  1
  Nd  Nd6  1  0.366265  0.633735  0.000000  1
  Nd  Nd7  1  0.633735  0.366265  0.000000  1
  Ga  Ga8  1  0.580118  0.580118  0.500000  1
  Ga  Ga9  1  0.419882  0.419882  0.500000  1
  Ga  Ga10  1  0.537229  0.900012  0.000000  1
  Ga  Ga11  1  0.462771  0.099988  0.000000  1
  Ga  Ga12  1  0.900012  0.537229  0.000000  1
  Ga  Ga13  1  0.099988  0.462771  0.000000  1
  Ga  Ga14  1  0.512538  0.783233  0.500000  1
  Ga  Ga15  1  0.487462  0.216767  0.500000  1
  Ga  Ga16  1  0.216767  0.487462  0.500000  1
  Ga  Ga17  1  0.783233  0.512538  0.500000  1
  Cl  Cl18  1  0.128276  0.128276  0.500000  1
  Cl  Cl19  1  0.871724  0.871724  0.500000  1
  Cl  Cl20  1  0.823074  0.176926  0.000000  1
  Cl  Cl21  1  0.176926  0.823074  0.000000  1
