# generated using pymatgen
data_Sr2HoEr(PPd)4
_symmetry_space_group_name_H-M   'P 1'
_cell_length_a   4.12507800
_cell_length_b   8.18413091
_cell_length_c   7.29029908
_cell_angle_alpha   90.13812229
_cell_angle_beta   90.00000000
_cell_angle_gamma   90.00000000
_symmetry_Int_Tables_number   1
_chemical_formula_structural   Sr2HoEr(PPd)4
_chemical_formula_sum   'Sr2 Ho1 Er1 P4 Pd4'
_cell_volume   246.12108212
_cell_formula_units_Z   1
loop_
 _symmetry_equiv_pos_site_id
 _symmetry_equiv_pos_as_xyz
  1  'x, y, z'
loop_
 _atom_site_type_symbol
 _atom_site_label
 _atom_site_symmetry_multiplicity
 _atom_site_fract_x
 _atom_site_fract_y
 _atom_site_fract_z
 _atom_site_occupancy
  Sr  Sr0  1  0.250000  0.499994  0.250149  1
  Sr  Sr1  1  0.750000  0.500002  0.749851  1
  Ho  Ho2  1  0.250000  0.000195  0.248255  1
  Er  Er3  1  0.750000  0.999811  0.751777  1
  P  P4  1  0.250000  0.774851  0.912918  1
  P  P5  1  0.750000  0.225342  0.086709  1
  P  P6  1  0.750000  0.775915  0.413382  1
  P  P7  1  0.250000  0.223888  0.586973  1
  Pd  Pd8  1  0.250000  0.770756  0.583250  1
  Pd  Pd9  1  0.750000  0.229398  0.417090  1
  Pd  Pd10  1  0.750000  0.768891  0.083346  1
  Pd  Pd11  1  0.250000  0.230956  0.916299  1
