# generated using pymatgen
data_Nd2MgPa2Zn3Rh4
_symmetry_space_group_name_H-M   'P 1'
_cell_length_a   3.87837200
_cell_length_b   7.32225704
_cell_length_c   8.60047692
_cell_angle_alpha   92.77848128
_cell_angle_beta   90.00000000
_cell_angle_gamma   90.00000000
_symmetry_Int_Tables_number   1
_chemical_formula_structural   Nd2MgPa2Zn3Rh4
_chemical_formula_sum   'Nd2 Mg1 Pa2 Zn3 Rh4'
_cell_volume   243.95297414
_cell_formula_units_Z   1
loop_
 _symmetry_equiv_pos_site_id
 _symmetry_equiv_pos_as_xyz
  1  'x, y, z'
loop_
 _atom_site_type_symbol
 _atom_site_label
 _atom_site_symmetry_multiplicity
 _atom_site_fract_x
 _atom_site_fract_y
 _atom_site_fract_z
 _atom_site_occupancy
  Nd  Nd0  1  0.250000  0.558511  0.822255  1
  Nd  Nd1  1  0.750000  0.444198  0.183226  1
  Mg  Mg2  1  0.750000  0.377395  0.555794  1
  Pa  Pa3  1  0.750000  0.951808  0.309284  1
  Pa  Pa4  1  0.250000  0.040630  0.693900  1
  Zn  Zn5  1  0.750000  0.875463  0.945658  1
  Zn  Zn6  1  0.250000  0.125584  0.055480  1
  Zn  Zn7  1  0.250000  0.635434  0.437444  1
  Rh  Rh8  1  0.750000  0.786987  0.623395  1
  Rh  Rh9  1  0.250000  0.205764  0.374647  1
  Rh  Rh10  1  0.250000  0.764016  0.149559  1
  Rh  Rh11  1  0.750000  0.234210  0.849360  1
