# generated using pymatgen
data_Er3ZnSn3Rh2
_symmetry_space_group_name_H-M   'P 1'
_cell_length_a   7.55887000
_cell_length_b   7.55886948
_cell_length_c   3.87005100
_cell_angle_alpha   90.00000000
_cell_angle_beta   90.00000000
_cell_angle_gamma   119.99998476
_symmetry_Int_Tables_number   1
_chemical_formula_structural   Er3ZnSn3Rh2
_chemical_formula_sum   'Er3 Zn1 Sn3 Rh2'
_cell_volume   191.49661844
_cell_formula_units_Z   1
loop_
 _symmetry_equiv_pos_site_id
 _symmetry_equiv_pos_as_xyz
  1  'x, y, z'
loop_
 _atom_site_type_symbol
 _atom_site_label
 _atom_site_symmetry_multiplicity
 _atom_site_fract_x
 _atom_site_fract_y
 _atom_site_fract_z
 _atom_site_occupancy
  Er  Er0  1  0.391680  0.407187  0.000000  1
  Er  Er1  1  0.015508  0.608320  0.000000  1
  Er  Er2  1  0.592813  0.984492  0.000000  1
  Zn  Zn3  1  0.666667  0.333333  0.500000  1
  Sn  Sn4  1  0.739673  0.738641  0.500000  1
  Sn  Sn5  1  0.998968  0.260327  0.500000  1
  Sn  Sn6  1  0.261359  0.001032  0.500000  1
  Rh  Rh7  1  0.000000  0.000000  0.000000  1
  Rh  Rh8  1  0.333333  0.666667  0.500000  1
