# generated using pymatgen
data_Hf10ZrTa9Si16
_symmetry_space_group_name_H-M   'P 1'
_cell_length_a   6.90816609
_cell_length_b   6.89816675
_cell_length_c   12.71252023
_cell_angle_alpha   90.11526886
_cell_angle_beta   89.81113369
_cell_angle_gamma   89.98879575
_symmetry_Int_Tables_number   1
_chemical_formula_structural   Hf10ZrTa9Si16
_chemical_formula_sum   'Hf10 Zr1 Ta9 Si16'
_cell_volume   605.79386156
_cell_formula_units_Z   1
loop_
 _symmetry_equiv_pos_site_id
 _symmetry_equiv_pos_as_xyz
  1  'x, y, z'
loop_
 _atom_site_type_symbol
 _atom_site_label
 _atom_site_symmetry_multiplicity
 _atom_site_fract_x
 _atom_site_fract_y
 _atom_site_fract_z
 _atom_site_occupancy
  Hf  Hf0  1  0.500344  0.351679  0.623097  1
  Hf  Hf1  1  0.501888  0.649330  0.123939  1
  Hf  Hf2  1  0.147459  0.998225  0.873939  1
  Hf  Hf3  1  0.001601  0.654969  0.032467  1
  Hf  Hf4  1  0.998502  0.343681  0.529996  1
  Hf  Hf5  1  0.658237  0.000071  0.969545  1
  Hf  Hf6  1  0.154483  0.498907  0.780733  1
  Hf  Hf7  1  0.844148  0.501318  0.280919  1
  Hf  Hf8  1  0.500696  0.158426  0.220314  1
  Hf  Hf9  1  0.502062  0.841558  0.718666  1
  Zr  Zr10  1  0.341512  0.001447  0.468674  1
  Ta  Ta11  1  0.348169  0.507521  0.376258  1
  Ta  Ta12  1  0.851565  0.998886  0.373805  1
  Ta  Ta13  1  0.006676  0.151911  0.126116  1
  Ta  Ta14  1  0.992663  0.849101  0.626796  1
  Ta  Ta15  1  0.651180  0.491835  0.875952  1
  Ta  Ta16  1  0.670567  0.672785  0.499257  1
  Ta  Ta17  1  0.827145  0.169562  0.749798  1
  Ta  Ta18  1  0.171914  0.832194  0.251170  1
  Ta  Ta19  1  0.330610  0.327190  0.000214  1
  Si  Si20  1  0.043188  0.701324  0.436282  1
  Si  Si21  1  0.955638  0.301141  0.936134  1
  Si  Si22  1  0.700987  0.044336  0.563015  1
  Si  Si23  1  0.200495  0.454895  0.186412  1
  Si  Si24  1  0.800747  0.544933  0.685685  1
  Si  Si25  1  0.454996  0.197275  0.814269  1
  Si  Si26  1  0.547734  0.802027  0.314388  1
  Si  Si27  1  0.302435  0.956092  0.064833  1
  Si  Si28  1  0.855337  0.789544  0.822602  1
  Si  Si29  1  0.138099  0.210271  0.323092  1
  Si  Si30  1  0.798819  0.864102  0.178010  1
  Si  Si31  1  0.289170  0.642914  0.573060  1
  Si  Si32  1  0.709872  0.355683  0.072754  1
  Si  Si33  1  0.637937  0.295074  0.424687  1
  Si  Si34  1  0.361919  0.701082  0.926608  1
  Si  Si35  1  0.201207  0.138710  0.676510  1
