# generated using pymatgen
data_DyPa(SiNi)2
_symmetry_space_group_name_H-M   'P 1'
_cell_length_a   4.15744200
_cell_length_b   6.98666447
_cell_length_c   7.05953652
_cell_angle_alpha   89.69130545
_cell_angle_beta   90.00000000
_cell_angle_gamma   90.00000000
_symmetry_Int_Tables_number   1
_chemical_formula_structural   DyPa(SiNi)2
_chemical_formula_sum   'Dy2 Pa2 Si4 Ni4'
_cell_volume   205.05292663
_cell_formula_units_Z   2
loop_
 _symmetry_equiv_pos_site_id
 _symmetry_equiv_pos_as_xyz
  1  'x, y, z'
loop_
 _atom_site_type_symbol
 _atom_site_label
 _atom_site_symmetry_multiplicity
 _atom_site_fract_x
 _atom_site_fract_y
 _atom_site_fract_z
 _atom_site_occupancy
  Dy  Dy0  1  0.250000  0.489540  0.798413  1
  Dy  Dy1  1  0.750000  0.510460  0.201587  1
  Pa  Pa2  1  0.750000  0.012429  0.303365  1
  Pa  Pa3  1  0.250000  0.987571  0.696635  1
  Si  Si4  1  0.750000  0.696054  0.590476  1
  Si  Si5  1  0.250000  0.303946  0.409524  1
  Si  Si6  1  0.250000  0.807832  0.093289  1
  Si  Si7  1  0.750000  0.192168  0.906711  1
  Ni  Ni8  1  0.750000  0.816091  0.917480  1
  Ni  Ni9  1  0.250000  0.183909  0.082520  1
  Ni  Ni10  1  0.250000  0.693636  0.421474  1
  Ni  Ni11  1  0.750000  0.306364  0.578526  1
