# generated using pymatgen
data_Ti10Nb2Sn4N
_symmetry_space_group_name_H-M   'P 1'
_cell_length_a   6.14214400
_cell_length_b   4.79473834
_cell_length_c   9.95729029
_cell_angle_alpha   88.92959543
_cell_angle_beta   90.00000000
_cell_angle_gamma   90.00000000
_symmetry_Int_Tables_number   1
_chemical_formula_structural   Ti10Nb2Sn4N
_chemical_formula_sum   'Ti10 Nb2 Sn4 N1'
_cell_volume   293.19076106
_cell_formula_units_Z   1
loop_
 _symmetry_equiv_pos_site_id
 _symmetry_equiv_pos_as_xyz
  1  'x, y, z'
loop_
 _atom_site_type_symbol
 _atom_site_label
 _atom_site_symmetry_multiplicity
 _atom_site_fract_x
 _atom_site_fract_y
 _atom_site_fract_z
 _atom_site_occupancy
  Ti  Ti0  1  0.000000  0.781882  0.151451  1
  Ti  Ti1  1  0.751378  0.751388  0.405149  1
  Ti  Ti2  1  0.242968  0.739882  0.906221  1
  Ti  Ti3  1  0.248622  0.751388  0.405149  1
  Ti  Ti4  1  0.757032  0.739882  0.906221  1
  Ti  Ti5  1  0.000000  0.218118  0.848549  1
  Ti  Ti6  1  0.757032  0.260118  0.093779  1
  Ti  Ti7  1  0.248622  0.248612  0.594851  1
  Ti  Ti8  1  0.242968  0.260118  0.093779  1
  Ti  Ti9  1  0.751378  0.248612  0.594851  1
  Nb  Nb10  1  0.500000  0.749310  0.633631  1
  Nb  Nb11  1  0.500000  0.250690  0.366369  1
  Sn  Sn12  1  0.500000  0.756267  0.161332  1
  Sn  Sn13  1  0.000000  0.744640  0.660312  1
  Sn  Sn14  1  0.000000  0.255360  0.339688  1
  Sn  Sn15  1  0.500000  0.243733  0.838667  1
  N  N16  1  0.000000  0.500000  0.000000  1
