# generated using pymatgen
data_Hf9Ta3GaRe
_symmetry_space_group_name_H-M   'P 1'
_cell_length_a   8.74613600
_cell_length_b   8.74613603
_cell_length_c   8.81763000
_cell_angle_alpha   90.00000000
_cell_angle_beta   90.00000000
_cell_angle_gamma   119.99999987
_symmetry_Int_Tables_number   1
_chemical_formula_structural   Hf9Ta3GaRe
_chemical_formula_sum   'Hf18 Ta6 Ga2 Re2'
_cell_volume   584.13732517
_cell_formula_units_Z   2
loop_
 _symmetry_equiv_pos_site_id
 _symmetry_equiv_pos_as_xyz
  1  'x, y, z'
loop_
 _atom_site_type_symbol
 _atom_site_label
 _atom_site_symmetry_multiplicity
 _atom_site_fract_x
 _atom_site_fract_y
 _atom_site_fract_z
 _atom_site_occupancy
  Hf  Hf0  1  0.197360  0.802640  0.451706  1
  Hf  Hf1  1  0.197360  0.394721  0.451706  1
  Hf  Hf2  1  0.605279  0.802640  0.451706  1
  Hf  Hf3  1  0.802640  0.197360  0.548294  1
  Hf  Hf4  1  0.802640  0.605279  0.548294  1
  Hf  Hf5  1  0.394721  0.197360  0.548294  1
  Hf  Hf6  1  0.802640  0.197360  0.951706  1
  Hf  Hf7  1  0.802640  0.605279  0.951706  1
  Hf  Hf8  1  0.394721  0.197360  0.951706  1
  Hf  Hf9  1  0.197360  0.802640  0.048294  1
  Hf  Hf10  1  0.197360  0.394721  0.048294  1
  Hf  Hf11  1  0.605279  0.802640  0.048294  1
  Hf  Hf12  1  0.537969  0.462031  0.250000  1
  Hf  Hf13  1  0.537969  0.075937  0.250000  1
  Hf  Hf14  1  0.924063  0.462031  0.250000  1
  Hf  Hf15  1  0.462031  0.537969  0.750000  1
  Hf  Hf16  1  0.462031  0.924063  0.750000  1
  Hf  Hf17  1  0.075937  0.537969  0.750000  1
  Ta  Ta18  1  0.889120  0.110880  0.250000  1
  Ta  Ta19  1  0.889120  0.778242  0.250000  1
  Ta  Ta20  1  0.221758  0.110880  0.250000  1
  Ta  Ta21  1  0.110880  0.889120  0.750000  1
  Ta  Ta22  1  0.110880  0.221758  0.750000  1
  Ta  Ta23  1  0.778242  0.889120  0.750000  1
  Ga  Ga24  1  0.333333  0.666667  0.250000  1
  Ga  Ga25  1  0.666667  0.333333  0.750000  1
  Re  Re26  1  0.000000  0.000000  0.500000  1
  Re  Re27  1  0.000000  0.000000  0.000000  1
