# generated using pymatgen
data_Ho8Tm2Os3Ru
_symmetry_space_group_name_H-M   'P 1'
_cell_length_a   6.30932784
_cell_length_b   7.31821631
_cell_length_c   8.38267091
_cell_angle_alpha   96.81490749
_cell_angle_beta   112.20168683
_cell_angle_gamma   90.03240707
_symmetry_Int_Tables_number   1
_chemical_formula_structural   Ho8Tm2Os3Ru
_chemical_formula_sum   'Ho8 Tm2 Os3 Ru1'
_cell_volume   355.39078682
_cell_formula_units_Z   1
loop_
 _symmetry_equiv_pos_site_id
 _symmetry_equiv_pos_as_xyz
  1  'x, y, z'
loop_
 _atom_site_type_symbol
 _atom_site_label
 _atom_site_symmetry_multiplicity
 _atom_site_fract_x
 _atom_site_fract_y
 _atom_site_fract_z
 _atom_site_occupancy
  Ho  Ho0  1  0.793615  0.083834  0.817031  1
  Ho  Ho1  1  0.974842  0.416436  0.182661  1
  Ho  Ho2  1  0.208347  0.916688  0.185520  1
  Ho  Ho3  1  0.025121  0.584670  0.817648  1
  Ho  Ho4  1  0.203891  0.183269  0.565177  1
  Ho  Ho5  1  0.640294  0.316986  0.435670  1
  Ho  Ho6  1  0.794421  0.815971  0.434089  1
  Ho  Ho7  1  0.360570  0.682337  0.563939  1
  Tm  Tm8  1  0.421441  0.249802  0.000087  1
  Tm  Tm9  1  0.579665  0.750127  0.000553  1
  Os  Os10  1  0.602707  0.422833  0.781901  1
  Os  Os11  1  0.820494  0.077149  0.218181  1
  Os  Os12  1  0.397030  0.577272  0.217330  1
  Ru  Ru13  1  0.177563  0.922627  0.780214  1
