# generated using pymatgen
data_K7RbSb8S4(O2F3)8
_symmetry_space_group_name_H-M   'P 1'
_cell_length_a   5.72118700
_cell_length_b   9.41348980
_cell_length_c   19.79859900
_cell_angle_alpha   76.25538708
_cell_angle_beta   90.00000000
_cell_angle_gamma   90.00000000
_symmetry_Int_Tables_number   1
_chemical_formula_structural   K7RbSb8S4(O2F3)8
_chemical_formula_sum   'K7 Rb1 Sb8 S4 O16 F24'
_cell_volume   1035.74643684
_cell_formula_units_Z   1
loop_
 _symmetry_equiv_pos_site_id
 _symmetry_equiv_pos_as_xyz
  1  'x, y, z'
loop_
 _atom_site_type_symbol
 _atom_site_label
 _atom_site_symmetry_multiplicity
 _atom_site_fract_x
 _atom_site_fract_y
 _atom_site_fract_z
 _atom_site_occupancy
  K  K0  1  0.242504  0.137825  0.672756  1
  K  K1  1  0.756099  0.862821  0.326857  1
  K  K2  1  0.752289  0.518156  0.574585  1
  K  K3  1  0.256262  0.137497  0.172964  1
  K  K4  1  0.748847  0.516705  0.076224  1
  K  K5  1  0.247736  0.481967  0.424458  1
  K  K6  1  0.251650  0.481236  0.925310  1
  Rb  Rb7  1  0.742967  0.859775  0.826467  1
  Sb  Sb8  1  0.774165  0.187424  0.500711  1
  Sb  Sb9  1  0.725382  0.188571  0.000482  1
  Sb  Sb10  1  0.226405  0.812871  0.498705  1
  Sb  Sb11  1  0.259234  0.672847  0.719336  1
  Sb  Sb12  1  0.274637  0.811081  0.002422  1
  Sb  Sb13  1  0.739912  0.323369  0.278764  1
  Sb  Sb14  1  0.239955  0.676166  0.221618  1
  Sb  Sb15  1  0.759512  0.327830  0.777891  1
  S  S16  1  0.740532  0.868766  0.618636  1
  S  S17  1  0.760595  0.869484  0.120213  1
  S  S18  1  0.237133  0.133024  0.880802  1
  S  S19  1  0.260235  0.130583  0.379867  1
  O  O20  1  0.118910  0.991889  0.393045  1
  O  O21  1  0.880441  0.007883  0.606579  1
  O  O22  1  0.402855  0.259001  0.861300  1
  O  O23  1  0.932776  0.869762  0.177016  1
  O  O24  1  0.882093  0.863414  0.054183  1
  O  O25  1  0.372385  0.992231  0.895121  1
  O  O26  1  0.381253  0.137141  0.445812  1
  O  O27  1  0.113784  0.142937  0.945970  1
  O  O28  1  0.600759  0.740510  0.140017  1
  O  O29  1  0.432314  0.129810  0.323126  1
  O  O30  1  0.566035  0.867490  0.674887  1
  O  O31  1  0.067467  0.134535  0.823163  1
  O  O32  1  0.622657  0.863095  0.552102  1
  O  O33  1  0.619060  0.007756  0.107187  1
  O  O34  1  0.901817  0.740677  0.638687  1
  O  O35  1  0.099864  0.259137  0.359854  1
  F  F36  1  0.054790  0.754119  0.937141  1
  F  F37  1  0.018967  0.566456  0.788031  1
  F  F38  1  0.473788  0.564028  0.290535  1
  F  F39  1  0.949266  0.239807  0.066453  1
  F  F40  1  0.159891  0.850267  0.748857  1
  F  F41  1  0.973759  0.435616  0.209963  1
  F  F42  1  0.528215  0.439418  0.707759  1
  F  F43  1  0.550062  0.239293  0.566324  1
  F  F44  1  0.207569  0.607069  0.059809  1
  F  F45  1  0.973011  0.362282  0.695696  1
  F  F46  1  0.792697  0.393979  0.944520  1
  F  F47  1  0.520169  0.704069  0.961830  1
  F  F48  1  0.980697  0.706017  0.458136  1
  F  F49  1  0.449618  0.760353  0.433042  1
  F  F50  1  0.019744  0.293893  0.541638  1
  F  F51  1  0.294837  0.607827  0.555377  1
  F  F52  1  0.705906  0.392604  0.444348  1
  F  F53  1  0.466047  0.629342  0.803037  1
  F  F54  1  0.029513  0.641106  0.304468  1
  F  F55  1  0.645493  0.154072  0.748033  1
  F  F56  1  0.479762  0.294718  0.041801  1
  F  F57  1  0.853019  0.147949  0.250030  1
  F  F58  1  0.353168  0.851903  0.250117  1
  F  F59  1  0.529492  0.358547  0.195940  1
