# generated using pymatgen
data_Ho17Lu3(Ga2Bi)4
_symmetry_space_group_name_H-M   'P 1'
_cell_length_a   7.96609300
_cell_length_b   7.96609300
_cell_length_c   13.31876800
_cell_angle_alpha   90.00000000
_cell_angle_beta   90.00000000
_cell_angle_gamma   90.00000000
_symmetry_Int_Tables_number   1
_chemical_formula_structural   Ho17Lu3(Ga2Bi)4
_chemical_formula_sum   'Ho17 Lu3 Ga8 Bi4'
_cell_volume   845.19087292
_cell_formula_units_Z   1
loop_
 _symmetry_equiv_pos_site_id
 _symmetry_equiv_pos_as_xyz
  1  'x, y, z'
loop_
 _atom_site_type_symbol
 _atom_site_label
 _atom_site_symmetry_multiplicity
 _atom_site_fract_x
 _atom_site_fract_y
 _atom_site_fract_z
 _atom_site_occupancy
  Ho  Ho0  1  0.500000  0.000000  0.748689  1
  Ho  Ho1  1  0.654228  0.653258  0.608956  1
  Ho  Ho2  1  0.653956  0.346301  0.108994  1
  Ho  Ho3  1  0.846015  0.846315  0.391008  1
  Ho  Ho4  1  0.153564  0.846064  0.891051  1
  Ho  Ho5  1  0.345772  0.346742  0.608956  1
  Ho  Ho6  1  0.346044  0.653699  0.108994  1
  Ho  Ho7  1  0.153985  0.153685  0.391008  1
  Ho  Ho8  1  0.846436  0.153936  0.891051  1
  Ho  Ho9  1  0.653685  0.346015  0.391008  1
  Ho  Ho10  1  0.346064  0.346436  0.891051  1
  Ho  Ho11  1  0.153258  0.845772  0.608956  1
  Ho  Ho12  1  0.846301  0.846044  0.108994  1
  Ho  Ho13  1  0.346315  0.653985  0.391008  1
  Ho  Ho14  1  0.653936  0.653564  0.891051  1
  Ho  Ho15  1  0.846742  0.154228  0.608956  1
  Ho  Ho16  1  0.153699  0.153956  0.108994  1
  Lu  Lu17  1  0.000000  0.500000  0.751313  1
  Lu  Lu18  1  0.000000  0.500000  0.251264  1
  Lu  Lu19  1  0.500000  0.000000  0.248691  1
  Ga  Ga20  1  0.854939  0.854451  0.750011  1
  Ga  Ga21  1  0.854549  0.145606  0.250000  1
  Ga  Ga22  1  0.645606  0.645451  0.250000  1
  Ga  Ga23  1  0.354451  0.645061  0.750011  1
  Ga  Ga24  1  0.145061  0.145549  0.750011  1
  Ga  Ga25  1  0.145451  0.854394  0.250000  1
  Ga  Ga26  1  0.354394  0.354549  0.250000  1
  Ga  Ga27  1  0.645549  0.354939  0.750011  1
  Bi  Bi28  1  0.000000  0.500000  0.500785  1
  Bi  Bi29  1  0.000000  0.500000  0.000707  1
  Bi  Bi30  1  0.500000  0.000000  0.498713  1
  Bi  Bi31  1  0.500000  0.000000  0.999763  1
