# generated using pymatgen
data_Tb8Dy2Si5Sn
_symmetry_space_group_name_H-M   'P 1'
_cell_length_a   8.55991100
_cell_length_b   8.58729186
_cell_length_c   6.42889201
_cell_angle_alpha   89.99562496
_cell_angle_beta   90.00000000
_cell_angle_gamma   119.89458396
_symmetry_Int_Tables_number   1
_chemical_formula_structural   Tb8Dy2Si5Sn
_chemical_formula_sum   'Tb8 Dy2 Si5 Sn1'
_cell_volume   409.68737421
_cell_formula_units_Z   1
loop_
 _symmetry_equiv_pos_site_id
 _symmetry_equiv_pos_as_xyz
  1  'x, y, z'
loop_
 _atom_site_type_symbol
 _atom_site_label
 _atom_site_symmetry_multiplicity
 _atom_site_fract_x
 _atom_site_fract_y
 _atom_site_fract_z
 _atom_site_occupancy
  Tb  Tb0  1  0.989393  0.748641  0.749990  1
  Tb  Tb1  1  0.998945  0.242955  0.249995  1
  Tb  Tb2  1  0.755990  0.757045  0.250005  1
  Tb  Tb3  1  0.764722  0.000000  0.750000  1
  Tb  Tb4  1  0.240752  0.251359  0.750010  1
  Tb  Tb5  1  0.241539  0.000000  0.250000  1
  Tb  Tb6  1  0.673370  0.341780  0.003199  1
  Tb  Tb7  1  0.331589  0.658220  0.496801  1
  Dy  Dy8  1  0.331583  0.658211  0.003193  1
  Dy  Dy9  1  0.673373  0.341789  0.496807  1
  Si  Si10  1  0.393591  0.392325  0.249987  1
  Si  Si11  1  0.001265  0.607675  0.250013  1
  Si  Si12  1  0.998744  0.394306  0.749998  1
  Si  Si13  1  0.604439  0.605694  0.750002  1
  Si  Si14  1  0.605744  0.000000  0.250000  1
  Sn  Sn15  1  0.394960  0.000000  0.750000  1
