# generated using pymatgen
data_Dy3HfSn2Ir3
_symmetry_space_group_name_H-M   'P 1'
_cell_length_a   7.37696439
_cell_length_b   7.26110253
_cell_length_c   4.19265800
_cell_angle_alpha   90.00000000
_cell_angle_beta   90.00000000
_cell_angle_gamma   119.48177864
_symmetry_Int_Tables_number   1
_chemical_formula_structural   Dy3HfSn2Ir3
_chemical_formula_sum   'Dy3 Hf1 Sn2 Ir3'
_cell_volume   195.49901925
_cell_formula_units_Z   1
loop_
 _symmetry_equiv_pos_site_id
 _symmetry_equiv_pos_as_xyz
  1  'x, y, z'
loop_
 _atom_site_type_symbol
 _atom_site_label
 _atom_site_symmetry_multiplicity
 _atom_site_fract_x
 _atom_site_fract_y
 _atom_site_fract_z
 _atom_site_occupancy
  Dy  Dy0  1  0.584850  0.589171  0.000000  1
  Dy  Dy1  1  0.415150  0.004321  0.000000  1
  Dy  Dy2  1  0.000000  0.396088  0.000000  1
  Hf  Hf3  1  0.000000  0.750450  0.500000  1
  Sn  Sn4  1  0.255233  0.253211  0.500000  1
  Sn  Sn5  1  0.744767  0.997979  0.500000  1
  Ir  Ir6  1  0.000000  0.982390  0.000000  1
  Ir  Ir7  1  0.679958  0.353173  0.500000  1
  Ir  Ir8  1  0.320042  0.673216  0.500000  1
