# generated using pymatgen
data_Nd4Ho6Ga3Si5
_symmetry_space_group_name_H-M   'P 1'
_cell_length_a   7.55250400
_cell_length_b   7.89082213
_cell_length_c   15.03320800
_cell_angle_alpha   89.98972559
_cell_angle_beta   90.00000000
_cell_angle_gamma   90.00000000
_symmetry_Int_Tables_number   1
_chemical_formula_structural   Nd4Ho6Ga3Si5
_chemical_formula_sum   'Nd8 Ho12 Ga6 Si10'
_cell_volume   895.91101697
_cell_formula_units_Z   2
loop_
 _symmetry_equiv_pos_site_id
 _symmetry_equiv_pos_as_xyz
  1  'x, y, z'
loop_
 _atom_site_type_symbol
 _atom_site_label
 _atom_site_symmetry_multiplicity
 _atom_site_fract_x
 _atom_site_fract_y
 _atom_site_fract_z
 _atom_site_occupancy
  Nd  Nd0  1  0.980695  0.822924  0.093627  1
  Nd  Nd1  1  0.480695  0.677076  0.406373  1
  Nd  Nd2  1  0.520736  0.318501  0.898123  1
  Nd  Nd3  1  0.020736  0.181499  0.601877  1
  Nd  Nd4  1  0.024312  0.178508  0.897441  1
  Nd  Nd5  1  0.524312  0.321492  0.602559  1
  Nd  Nd6  1  0.476571  0.673737  0.094478  1
  Nd  Nd7  1  0.976571  0.826263  0.405522  1
  Ho  Ho8  1  0.656207  0.990006  0.251484  1
  Ho  Ho9  1  0.156207  0.509994  0.248516  1
  Ho  Ho10  1  0.846803  0.492877  0.748645  1
  Ho  Ho11  1  0.346803  0.007123  0.751355  1
  Ho  Ho12  1  0.680273  0.824798  0.874305  1
  Ho  Ho13  1  0.180273  0.675202  0.625695  1
  Ho  Ho14  1  0.821085  0.322063  0.122836  1
  Ho  Ho15  1  0.321085  0.177937  0.377164  1
  Ho  Ho16  1  0.319037  0.178355  0.121045  1
  Ho  Ho17  1  0.819037  0.321645  0.378955  1
  Ho  Ho18  1  0.181409  0.675201  0.875662  1
  Ho  Ho19  1  0.681409  0.824799  0.624338  1
  Ga  Ga20  1  0.766960  0.621649  0.249775  1
  Ga  Ga21  1  0.266960  0.878351  0.250225  1
  Ga  Ga22  1  0.847857  0.532964  0.958486  1
  Ga  Ga23  1  0.347857  0.967036  0.541514  1
  Ga  Ga24  1  0.649970  0.033808  0.039052  1
  Ga  Ga25  1  0.149970  0.466192  0.460948  1
  Si  Si26  1  0.727870  0.122342  0.750354  1
  Si  Si27  1  0.227870  0.377658  0.749646  1
  Si  Si28  1  0.025787  0.117252  0.249342  1
  Si  Si29  1  0.525787  0.382748  0.250658  1
  Si  Si30  1  0.476971  0.614154  0.750705  1
  Si  Si31  1  0.976971  0.885846  0.749295  1
  Si  Si32  1  0.146066  0.466438  0.038773  1
  Si  Si33  1  0.646066  0.033562  0.461227  1
  Si  Si34  1  0.351389  0.966214  0.959344  1
  Si  Si35  1  0.851389  0.533786  0.540656  1
