# generated using pymatgen
data_Er5GaBiIr
_symmetry_space_group_name_H-M   'P 1'
_cell_length_a   8.65730507
_cell_length_b   8.65730501
_cell_length_c   8.76944174
_cell_angle_alpha   125.95402200
_cell_angle_beta   125.95401194
_cell_angle_gamma   79.07745346
_symmetry_Int_Tables_number   1
_chemical_formula_structural   Er5GaBiIr
_chemical_formula_sum   'Er10 Ga2 Bi2 Ir2'
_cell_volume   418.42210087
_cell_formula_units_Z   2
loop_
 _symmetry_equiv_pos_site_id
 _symmetry_equiv_pos_as_xyz
  1  'x, y, z'
loop_
 _atom_site_type_symbol
 _atom_site_label
 _atom_site_symmetry_multiplicity
 _atom_site_fract_x
 _atom_site_fract_y
 _atom_site_fract_z
 _atom_site_occupancy
  Er  Er0  1  0.000000  0.000000  0.000000  1
  Er  Er1  1  0.500000  0.500000  0.000000  1
  Er  Er2  1  0.782287  0.282287  0.793654  1
  Er  Er3  1  0.217713  0.717713  0.206346  1
  Er  Er4  1  0.488632  0.988632  0.206346  1
  Er  Er5  1  0.306202  0.462521  0.500000  1
  Er  Er6  1  0.037479  0.193798  0.500000  1
  Er  Er7  1  0.511368  0.011368  0.793654  1
  Er  Er8  1  0.693798  0.537479  0.500000  1
  Er  Er9  1  0.962521  0.806202  0.500000  1
  Ga  Ga10  1  0.137525  0.637525  0.775051  1
  Ga  Ga11  1  0.862475  0.362475  0.224949  1
  Bi  Bi12  1  0.250000  0.250000  0.000000  1
  Bi  Bi13  1  0.750000  0.750000  0.000000  1
  Ir  Ir14  1  0.636614  0.863386  0.500000  1
  Ir  Ir15  1  0.363386  0.136614  0.500000  1
