# generated using pymatgen
data_TmU(SnRh)2
_symmetry_space_group_name_H-M   'P 1'
_cell_length_a   7.42562300
_cell_length_b   7.42562335
_cell_length_c   7.93803700
_cell_angle_alpha   90.00000000
_cell_angle_beta   90.00000000
_cell_angle_gamma   120.00000705
_symmetry_Int_Tables_number   1
_chemical_formula_structural   TmU(SnRh)2
_chemical_formula_sum   'Tm3 U3 Sn6 Rh6'
_cell_volume   379.06137399
_cell_formula_units_Z   3
loop_
 _symmetry_equiv_pos_site_id
 _symmetry_equiv_pos_as_xyz
  1  'x, y, z'
loop_
 _atom_site_type_symbol
 _atom_site_label
 _atom_site_symmetry_multiplicity
 _atom_site_fract_x
 _atom_site_fract_y
 _atom_site_fract_z
 _atom_site_occupancy
  Tm  Tm0  1  0.000259  0.408413  0.750000  1
  Tm  Tm1  1  0.591587  0.591848  0.750000  1
  Tm  Tm2  1  0.408152  0.999741  0.750000  1
  U  U3  1  0.998824  0.413908  0.250000  1
  U  U4  1  0.586092  0.584916  0.250000  1
  U  U5  1  0.415084  0.001176  0.250000  1
  Sn  Sn6  1  0.256358  0.256601  0.505131  1
  Sn  Sn7  1  0.000243  0.743642  0.505131  1
  Sn  Sn8  1  0.000243  0.743642  0.994869  1
  Sn  Sn9  1  0.743399  0.999757  0.505131  1
  Sn  Sn10  1  0.743399  0.999757  0.994869  1
  Sn  Sn11  1  0.256358  0.256601  0.994869  1
  Rh  Rh12  1  0.333333  0.666667  0.477248  1
  Rh  Rh13  1  0.666667  0.333333  0.479700  1
  Rh  Rh14  1  0.333333  0.666667  0.022752  1
  Rh  Rh15  1  0.000000  0.000000  0.750000  1
  Rh  Rh16  1  0.000000  0.000000  0.250000  1
  Rh  Rh17  1  0.666667  0.333333  0.020300  1
