# generated using pymatgen
data_Bi2Os2NO7
_symmetry_space_group_name_H-M   'P 1'
_cell_length_a   7.83022250
_cell_length_b   7.83022245
_cell_length_c   5.60200926
_cell_angle_alpha   91.18181017
_cell_angle_beta   88.81818896
_cell_angle_gamma   151.40029203
_symmetry_Int_Tables_number   1
_chemical_formula_structural   Bi2Os2NO7
_chemical_formula_sum   'Bi2 Os2 N1 O7'
_cell_volume   164.37872597
_cell_formula_units_Z   1
loop_
 _symmetry_equiv_pos_site_id
 _symmetry_equiv_pos_as_xyz
  1  'x, y, z'
loop_
 _atom_site_type_symbol
 _atom_site_label
 _atom_site_symmetry_multiplicity
 _atom_site_fract_x
 _atom_site_fract_y
 _atom_site_fract_z
 _atom_site_occupancy
  Bi  Bi0  1  0.308701  0.691299  0.739829  1
  Bi  Bi1  1  0.691299  0.308701  0.260171  1
  Os  Os2  1  0.080064  0.919936  0.758429  1
  Os  Os3  1  0.919936  0.080064  0.241571  1
  N  N4  1  0.000000  0.000000  0.000000  1
  O  O5  1  0.184187  0.815813  0.977607  1
  O  O6  1  0.815813  0.184187  0.022393  1
  O  O7  1  0.813448  0.186552  0.489672  1
  O  O8  1  0.186552  0.813448  0.510328  1
  O  O9  1  0.000000  0.000000  0.500000  1
  O  O10  1  0.593742  0.406258  0.742763  1
  O  O11  1  0.406258  0.593742  0.257237  1
