# generated using pymatgen
data_AcGa5Pt3
_symmetry_space_group_name_H-M   'P 1'
_cell_length_a   4.23301300
_cell_length_b   7.51207400
_cell_length_c   21.25656300
_cell_angle_alpha   90.00000000
_cell_angle_beta   90.00000000
_cell_angle_gamma   90.00000000
_symmetry_Int_Tables_number   1
_chemical_formula_structural   AcGa5Pt3
_chemical_formula_sum   'Ac4 Ga20 Pt12'
_cell_volume   675.93121652
_cell_formula_units_Z   4
loop_
 _symmetry_equiv_pos_site_id
 _symmetry_equiv_pos_as_xyz
  1  'x, y, z'
loop_
 _atom_site_type_symbol
 _atom_site_label
 _atom_site_symmetry_multiplicity
 _atom_site_fract_x
 _atom_site_fract_y
 _atom_site_fract_z
 _atom_site_occupancy
  Ac  Ac0  1  0.250000  0.116995  0.640271  1
  Ac  Ac1  1  0.750000  0.883005  0.359729  1
  Ac  Ac2  1  0.250000  0.383005  0.140271  1
  Ac  Ac3  1  0.750000  0.616995  0.859729  1
  Ga  Ga4  1  0.750000  0.355607  0.383750  1
  Ga  Ga5  1  0.750000  0.887827  0.982919  1
  Ga  Ga6  1  0.750000  0.685270  0.200669  1
  Ga  Ga7  1  0.250000  0.868211  0.492040  1
  Ga  Ga8  1  0.250000  0.631789  0.992040  1
  Ga  Ga9  1  0.250000  0.314730  0.799331  1
  Ga  Ga10  1  0.750000  0.078028  0.207436  1
  Ga  Ga11  1  0.250000  0.644393  0.616250  1
  Ga  Ga12  1  0.250000  0.578028  0.292564  1
  Ga  Ga13  1  0.250000  0.185270  0.299331  1
  Ga  Ga14  1  0.750000  0.144393  0.883750  1
  Ga  Ga15  1  0.250000  0.921972  0.792564  1
  Ga  Ga16  1  0.750000  0.368211  0.007960  1
  Ga  Ga17  1  0.750000  0.612173  0.482919  1
  Ga  Ga18  1  0.750000  0.131789  0.507960  1
  Ga  Ga19  1  0.250000  0.112173  0.017081  1
  Ga  Ga20  1  0.250000  0.855607  0.116250  1
  Ga  Ga21  1  0.250000  0.387827  0.517081  1
  Ga  Ga22  1  0.750000  0.421972  0.707436  1
  Ga  Ga23  1  0.750000  0.814730  0.700669  1
  Pt  Pt24  1  0.750000  0.384717  0.263979  1
  Pt  Pt25  1  0.250000  0.884717  0.236021  1
  Pt  Pt26  1  0.250000  0.615283  0.736021  1
  Pt  Pt27  1  0.750000  0.115283  0.763979  1
  Pt  Pt28  1  0.250000  0.165214  0.427072  1
  Pt  Pt29  1  0.750000  0.425629  0.585121  1
  Pt  Pt30  1  0.750000  0.074371  0.085121  1
  Pt  Pt31  1  0.250000  0.925629  0.914879  1
  Pt  Pt32  1  0.750000  0.834786  0.572928  1
  Pt  Pt33  1  0.250000  0.334786  0.927072  1
  Pt  Pt34  1  0.750000  0.665214  0.072928  1
  Pt  Pt35  1  0.250000  0.574371  0.414879  1
