# generated using pymatgen
data_Na3Li(SiP)12
_symmetry_space_group_name_H-M   'P 1'
_cell_length_a   3.50427900
_cell_length_b   9.86837906
_cell_length_c   17.72011897
_cell_angle_alpha   88.56515492
_cell_angle_beta   90.00000000
_cell_angle_gamma   90.00000000
_symmetry_Int_Tables_number   1
_chemical_formula_structural   Na3Li(SiP)12
_chemical_formula_sum   'Na3 Li1 Si12 P12'
_cell_volume   612.59709994
_cell_formula_units_Z   1
loop_
 _symmetry_equiv_pos_site_id
 _symmetry_equiv_pos_as_xyz
  1  'x, y, z'
loop_
 _atom_site_type_symbol
 _atom_site_label
 _atom_site_symmetry_multiplicity
 _atom_site_fract_x
 _atom_site_fract_y
 _atom_site_fract_z
 _atom_site_occupancy
  Na  Na0  1  0.000000  0.328954  0.297822  1
  Na  Na1  1  0.000000  0.663604  0.701750  1
  Na  Na2  1  0.000000  0.163784  0.801481  1
  Li  Li3  1  0.000000  0.848276  0.216515  1
  Si  Si4  1  0.500000  0.398894  0.039829  1
  Si  Si5  1  0.500000  0.597931  0.965349  1
  Si  Si6  1  0.500000  0.097737  0.536096  1
  Si  Si7  1  0.500000  0.906605  0.460877  1
  Si  Si8  1  0.000000  0.110290  0.015312  1
  Si  Si9  1  0.000000  0.883225  0.984724  1
  Si  Si10  1  0.000000  0.387231  0.512558  1
  Si  Si11  1  0.000000  0.616709  0.480689  1
  Si  Si12  1  0.000000  0.164605  0.142826  1
  Si  Si13  1  0.000000  0.822744  0.857973  1
  Si  Si14  1  0.000000  0.320230  0.640269  1
  Si  Si15  1  0.000000  0.689233  0.353727  1
  P  P16  1  0.500000  0.097787  0.213540  1
  P  P17  1  0.500000  0.888054  0.787077  1
  P  P18  1  0.500000  0.383931  0.709562  1
  P  P19  1  0.500000  0.632191  0.282199  1
  P  P20  1  0.500000  0.285236  0.454556  1
  P  P21  1  0.500000  0.716360  0.539946  1
  P  P22  1  0.500000  0.218891  0.958089  1
  P  P23  1  0.500000  0.780217  0.044916  1
  P  P24  1  0.000000  0.397092  0.120910  1
  P  P25  1  0.000000  0.591902  0.884294  1
  P  P26  1  0.000000  0.090185  0.617061  1
  P  P27  1  0.000000  0.918101  0.380056  1
