# generated using pymatgen
data_Sr2AgBrO2
_symmetry_space_group_name_H-M   'P 1'
_cell_length_a   10.38988278
_cell_length_b   10.38988322
_cell_length_c   10.38988371
_cell_angle_alpha   22.44764042
_cell_angle_beta   22.44763635
_cell_angle_gamma   22.44763646
_symmetry_Int_Tables_number   1
_chemical_formula_structural   Sr2AgBrO2
_chemical_formula_sum   'Sr2 Ag1 Br1 O2'
_cell_volume   143.43020090
_cell_formula_units_Z   1
loop_
 _symmetry_equiv_pos_site_id
 _symmetry_equiv_pos_as_xyz
  1  'x, y, z'
loop_
 _atom_site_type_symbol
 _atom_site_label
 _atom_site_symmetry_multiplicity
 _atom_site_fract_x
 _atom_site_fract_y
 _atom_site_fract_z
 _atom_site_occupancy
  Sr  Sr0  1  0.256548  0.256548  0.256548  1
  Sr  Sr1  1  0.743452  0.743452  0.743452  1
  Ag  Ag2  1  0.500000  0.500000  0.500000  1
  Br  Br3  1  0.000000  0.000000  0.000000  1
  O  O4  1  0.432026  0.432026  0.432026  1
  O  O5  1  0.567974  0.567974  0.567974  1
