# generated using pymatgen
data_Ta16Cu5Ni3CN3
_symmetry_space_group_name_H-M   'P 1'
_cell_length_a   8.26122070
_cell_length_b   8.25308482
_cell_length_c   8.25308400
_cell_angle_alpha   59.99999529
_cell_angle_beta   60.03256778
_cell_angle_gamma   60.03257453
_symmetry_Int_Tables_number   1
_chemical_formula_structural   Ta16Cu5Ni3CN3
_chemical_formula_sum   'Ta16 Cu5 Ni3 C1 N3'
_cell_volume   398.08463821
_cell_formula_units_Z   1
loop_
 _symmetry_equiv_pos_site_id
 _symmetry_equiv_pos_as_xyz
  1  'x, y, z'
loop_
 _atom_site_type_symbol
 _atom_site_label
 _atom_site_symmetry_multiplicity
 _atom_site_fract_x
 _atom_site_fract_y
 _atom_site_fract_z
 _atom_site_occupancy
  Ta  Ta0  1  0.118248  0.627251  0.627251  1
  Ta  Ta1  1  0.631058  0.120885  0.624028  1
  Ta  Ta2  1  0.631058  0.624028  0.120885  1
  Ta  Ta3  1  0.631058  0.624028  0.624028  1
  Ta  Ta4  1  0.816266  0.815866  0.183934  1
  Ta  Ta5  1  0.182292  0.186454  0.815626  1
  Ta  Ta6  1  0.816266  0.183934  0.815866  1
  Ta  Ta7  1  0.182292  0.815626  0.186454  1
  Ta  Ta8  1  0.182292  0.815626  0.815626  1
  Ta  Ta9  1  0.816266  0.183934  0.183934  1
  Ta  Ta10  1  0.435495  0.435878  0.064313  1
  Ta  Ta11  1  0.066589  0.064873  0.434269  1
  Ta  Ta12  1  0.435495  0.064313  0.435878  1
  Ta  Ta13  1  0.066589  0.434269  0.064873  1
  Ta  Ta14  1  0.066589  0.434269  0.434269  1
  Ta  Ta15  1  0.435495  0.064313  0.064313  1
  Cu  Cu16  1  0.751577  0.416141  0.416141  1
  Cu  Cu17  1  0.416559  0.749786  0.416827  1
  Cu  Cu18  1  0.416559  0.416827  0.749786  1
  Cu  Cu19  1  0.416559  0.416827  0.416827  1
  Cu  Cu20  1  0.498478  0.833840  0.833840  1
  Ni  Ni21  1  0.828802  0.511266  0.829966  1
  Ni  Ni22  1  0.828802  0.829966  0.511266  1
  Ni  Ni23  1  0.828802  0.829966  0.829966  1
  C  C24  1  0.623269  0.125577  0.125577  1
  N  N25  1  0.125747  0.623680  0.125287  1
  N  N26  1  0.125747  0.125287  0.623680  1
  N  N27  1  0.125747  0.125287  0.125287  1
