# generated using pymatgen
data_Na3Yb2PaO6
_symmetry_space_group_name_H-M   'P 1'
_cell_length_a   5.88272466
_cell_length_b   5.98121609
_cell_length_c   5.88272300
_cell_angle_alpha   80.27886597
_cell_angle_beta   119.92810158
_cell_angle_gamma   80.27851933
_symmetry_Int_Tables_number   1
_chemical_formula_structural   Na3Yb2PaO6
_chemical_formula_sum   'Na3 Yb2 Pa1 O6'
_cell_volume   168.87161211
_cell_formula_units_Z   1
loop_
 _symmetry_equiv_pos_site_id
 _symmetry_equiv_pos_as_xyz
  1  'x, y, z'
loop_
 _atom_site_type_symbol
 _atom_site_label
 _atom_site_symmetry_multiplicity
 _atom_site_fract_x
 _atom_site_fract_y
 _atom_site_fract_z
 _atom_site_occupancy
  Na  Na0  1  0.500058  0.500039  0.500050  1
  Na  Na1  1  0.829577  0.500002  0.170516  1
  Na  Na2  1  0.170525  0.500003  0.829573  1
  Yb  Yb3  1  0.333350  0.000023  0.666561  1
  Yb  Yb4  1  0.666559  0.000021  0.333355  1
  Pa  Pa5  1  0.000005  0.999950  0.000009  1
  O  O6  1  0.242119  0.209602  0.242120  1
  O  O7  1  0.757793  0.790277  0.757789  1
  O  O8  1  0.387408  0.786882  0.072403  1
  O  O9  1  0.072415  0.786869  0.387418  1
  O  O10  1  0.927613  0.213160  0.612594  1
  O  O11  1  0.612579  0.213171  0.927611  1
