# generated using pymatgen
data_BrCl26
_symmetry_space_group_name_H-M   'P 1'
_cell_length_a   10.39974547
_cell_length_b   13.67156570
_cell_length_c   8.87404100
_cell_angle_alpha   87.38399975
_cell_angle_beta   57.02700383
_cell_angle_gamma   76.57114338
_symmetry_Int_Tables_number   1
_chemical_formula_structural   BrCl26
_chemical_formula_sum   'Br1 Cl26'
_cell_volume   1024.49577258
_cell_formula_units_Z   1
loop_
 _symmetry_equiv_pos_site_id
 _symmetry_equiv_pos_as_xyz
  1  'x, y, z'
loop_
 _atom_site_type_symbol
 _atom_site_label
 _atom_site_symmetry_multiplicity
 _atom_site_fract_x
 _atom_site_fract_y
 _atom_site_fract_z
 _atom_site_occupancy
  Br  Br0  1  0.000000  0.000000  0.000000  1
  Cl  Cl1  1  0.861519  0.734654  0.516952  1
  Cl  Cl2  1  0.358729  0.681606  0.448838  1
  Cl  Cl3  1  0.641271  0.318394  0.551162  1
  Cl  Cl4  1  0.138481  0.265346  0.483048  1
  Cl  Cl5  1  0.984059  0.360573  0.077534  1
  Cl  Cl6  1  0.276412  0.484130  0.050503  1
  Cl  Cl7  1  0.723588  0.515870  0.949497  1
  Cl  Cl8  1  0.015941  0.639427  0.922466  1
  Cl  Cl9  1  0.500000  0.000000  0.500000  1
  Cl  Cl10  1  0.000000  0.000000  0.500000  1
  Cl  Cl11  1  0.929618  0.059851  0.296108  1
  Cl  Cl12  1  0.305922  0.167853  0.266950  1
  Cl  Cl13  1  0.694078  0.832147  0.733050  1
  Cl  Cl14  1  0.070382  0.940149  0.703892  1
  Cl  Cl15  1  0.078770  0.526362  0.298819  1
  Cl  Cl16  1  0.435183  0.542349  0.327051  1
  Cl  Cl17  1  0.564817  0.457651  0.672949  1
  Cl  Cl18  1  0.921230  0.473638  0.701181  1
  Cl  Cl19  1  0.632210  0.954479  0.203475  1
  Cl  Cl20  1  0.265057  0.822638  0.125803  1
  Cl  Cl21  1  0.734943  0.177362  0.874197  1
  Cl  Cl22  1  0.367790  0.045521  0.796525  1
  Cl  Cl23  1  0.324562  0.745413  0.902630  1
  Cl  Cl24  1  0.845130  0.767920  0.058145  1
  Cl  Cl25  1  0.154870  0.232080  0.941855  1
  Cl  Cl26  1  0.675438  0.254587  0.097370  1
