# generated using pymatgen
data_SmYMn2Co10P7
_symmetry_space_group_name_H-M   'P 1'
_cell_length_a   9.08651253
_cell_length_b   9.07468182
_cell_length_c   3.61742600
_cell_angle_alpha   90.00000000
_cell_angle_beta   90.00000000
_cell_angle_gamma   120.09515873
_symmetry_Int_Tables_number   1
_chemical_formula_structural   SmYMn2Co10P7
_chemical_formula_sum   'Sm1 Y1 Mn2 Co10 P7'
_cell_volume   258.07247512
_cell_formula_units_Z   1
loop_
 _symmetry_equiv_pos_site_id
 _symmetry_equiv_pos_as_xyz
  1  'x, y, z'
loop_
 _atom_site_type_symbol
 _atom_site_label
 _atom_site_symmetry_multiplicity
 _atom_site_fract_x
 _atom_site_fract_y
 _atom_site_fract_z
 _atom_site_occupancy
  Sm  Sm0  1  0.334744  0.668776  0.500000  1
  Y  Y1  1  0.666424  0.333573  0.000000  1
  Mn  Mn2  1  0.900163  0.119562  0.000000  1
  Mn  Mn3  1  0.881269  0.779695  0.000000  1
  Co  Co4  1  0.428651  0.061100  0.500000  1
  Co  Co5  1  0.938865  0.369649  0.500000  1
  Co  Co6  1  0.629994  0.568881  0.500000  1
  Co  Co7  1  0.156384  0.273197  0.500000  1
  Co  Co8  1  0.727005  0.884144  0.500000  1
  Co  Co9  1  0.118431  0.844894  0.500000  1
  Co  Co10  1  0.385025  0.432232  0.000000  1
  Co  Co11  1  0.565079  0.952017  0.000000  1
  Co  Co12  1  0.049896  0.615482  0.000000  1
  Co  Co13  1  0.217793  0.093859  0.000000  1
  P  P14  1  0.113926  0.404615  0.000000  1
  P  P15  1  0.599452  0.710147  0.000000  1
  P  P16  1  0.288982  0.889864  0.000000  1
  P  P17  1  0.001214  0.999548  0.500000  1
  P  P18  1  0.409286  0.298149  0.500000  1
  P  P19  1  0.698706  0.111504  0.500000  1
  P  P20  1  0.888711  0.589113  0.500000  1
