# generated using pymatgen
data_Nd10Sn3Bi3S
_symmetry_space_group_name_H-M   'P 1'
_cell_length_a   6.49970900
_cell_length_b   9.56766095
_cell_length_c   9.56768700
_cell_angle_alpha   119.99965789
_cell_angle_beta   90.00014986
_cell_angle_gamma   89.99977536
_symmetry_Int_Tables_number   1
_chemical_formula_structural   Nd10Sn3Bi3S
_chemical_formula_sum   'Nd10 Sn3 Bi3 S1'
_cell_volume   515.27465120
_cell_formula_units_Z   1
loop_
 _symmetry_equiv_pos_site_id
 _symmetry_equiv_pos_as_xyz
  1  'x, y, z'
loop_
 _atom_site_type_symbol
 _atom_site_label
 _atom_site_symmetry_multiplicity
 _atom_site_fract_x
 _atom_site_fract_y
 _atom_site_fract_z
 _atom_site_occupancy
  Nd  Nd0  1  0.496923  0.333333  0.666662  1
  Nd  Nd1  1  0.496918  0.666670  0.333340  1
  Nd  Nd2  1  0.003916  0.666668  0.333334  1
  Nd  Nd3  1  0.003912  0.333334  0.666669  1
  Nd  Nd4  1  0.750773  0.247330  0.000012  1
  Nd  Nd5  1  0.750764  0.752680  0.752667  1
  Nd  Nd6  1  0.750770  0.000003  0.247325  1
  Nd  Nd7  1  0.249378  0.752736  0.000001  1
  Nd  Nd8  1  0.249383  0.247268  0.247267  1
  Nd  Nd9  1  0.249377  0.999989  0.752728  1
  Sn  Sn10  1  0.249557  0.389594  0.000009  1
  Sn  Sn11  1  0.249551  0.610419  0.610405  1
  Sn  Sn12  1  0.249549  0.999971  0.389575  1
  Bi  Bi13  1  0.749418  0.608997  0.000010  1
  Bi  Bi14  1  0.749416  0.391015  0.391006  1
  Bi  Bi15  1  0.749418  0.999993  0.608987  1
  S  S16  1  0.500974  0.000001  0.999999  1
