# generated using pymatgen
data_Pa4Co3NiPd2
_symmetry_space_group_name_H-M   'P 1'
_cell_length_a   7.26352100
_cell_length_b   7.26352131
_cell_length_c   3.43168700
_cell_angle_alpha   90.00000000
_cell_angle_beta   90.00000000
_cell_angle_gamma   90.12140668
_symmetry_Int_Tables_number   1
_chemical_formula_structural   Pa4Co3NiPd2
_chemical_formula_sum   'Pa4 Co3 Ni1 Pd2'
_cell_volume   181.05107417
_cell_formula_units_Z   1
loop_
 _symmetry_equiv_pos_site_id
 _symmetry_equiv_pos_as_xyz
  1  'x, y, z'
loop_
 _atom_site_type_symbol
 _atom_site_label
 _atom_site_symmetry_multiplicity
 _atom_site_fract_x
 _atom_site_fract_y
 _atom_site_fract_z
 _atom_site_occupancy
  Pa  Pa0  1  0.681504  0.172055  0.500000  1
  Pa  Pa1  1  0.327945  0.818496  0.500000  1
  Pa  Pa2  1  0.823516  0.676484  0.500000  1
  Pa  Pa3  1  0.167975  0.332025  0.500000  1
  Co  Co4  1  0.627260  0.872740  0.000000  1
  Co  Co5  1  0.129803  0.631544  0.000000  1
  Co  Co6  1  0.868456  0.370197  0.000000  1
  Ni  Ni7  1  0.371343  0.128657  0.000000  1
  Pd  Pd8  1  0.499203  0.497006  0.000000  1
  Pd  Pd9  1  0.002994  0.000797  0.000000  1
