# generated using pymatgen
data_UIF34
_symmetry_space_group_name_H-M   'P 1'
_cell_length_a   8.97546615
_cell_length_b   8.61395455
_cell_length_c   10.33470224
_cell_angle_alpha   82.39500983
_cell_angle_beta   87.88458626
_cell_angle_gamma   66.07657228
_symmetry_Int_Tables_number   1
_chemical_formula_structural   UIF34
_chemical_formula_sum   'U1 I1 F34'
_cell_volume   723.82646506
_cell_formula_units_Z   1
loop_
 _symmetry_equiv_pos_site_id
 _symmetry_equiv_pos_as_xyz
  1  'x, y, z'
loop_
 _atom_site_type_symbol
 _atom_site_label
 _atom_site_symmetry_multiplicity
 _atom_site_fract_x
 _atom_site_fract_y
 _atom_site_fract_z
 _atom_site_occupancy
  U  U0  1  0.868318  0.250311  0.762656  1
  I  I1  1  0.132190  0.747481  0.244567  1
  F  F2  1  0.603349  0.213669  0.473471  1
  F  F3  1  0.396207  0.785800  0.527363  1
  F  F4  1  0.823785  0.723844  0.728678  1
  F  F5  1  0.180683  0.294193  0.286352  1
  F  F6  1  0.100809  0.741354  0.864126  1
  F  F7  1  0.917891  0.239557  0.144215  1
  F  F8  1  0.567691  0.142452  0.367406  1
  F  F9  1  0.436123  0.859932  0.629670  1
  F  F10  1  0.637221  0.336802  0.691798  1
  F  F11  1  0.351639  0.668973  0.311756  1
  F  F12  1  0.942375  0.059481  0.649249  1
  F  F13  1  0.058877  0.931072  0.349328  1
  F  F14  1  0.917564  0.398874  0.614496  1
  F  F15  1  0.083952  0.611185  0.387560  1
  F  F16  1  0.855612  0.783950  0.599971  1
  F  F17  1  0.164785  0.173496  0.388378  1
  F  F18  1  0.800950  0.443393  0.874179  1
  F  F19  1  0.199655  0.558730  0.142768  1
  F  F20  1  0.217568  0.689404  0.764121  1
  F  F21  1  0.779243  0.317556  0.221492  1
  F  F22  1  0.915795  0.824964  0.174007  1
  F  F23  1  0.097020  0.164428  0.837098  1
  F  F24  1  0.815581  0.098889  0.907687  1
  F  F25  1  0.181079  0.889974  0.104328  1
  F  F26  1  0.479522  0.589092  0.990770  1
  F  F27  1  0.508539  0.412337  0.003071  1
  F  F28  1  0.445615  0.102747  0.867835  1
  F  F29  1  0.540519  0.916742  0.125125  1
  F  F30  1  0.289390  0.257779  0.603603  1
  F  F31  1  0.698107  0.749608  0.381438  1
  F  F32  1  0.260546  0.402111  0.670174  1
  F  F33  1  0.742205  0.598519  0.319867  1
  F  F34  1  0.545500  0.938276  0.832016  1
  F  F35  1  0.444095  0.083022  0.159384  1
