# generated using pymatgen
data_Pr6Mn(SiSe7)2
_symmetry_space_group_name_H-M   'P 1'
_cell_length_a   10.74740200
_cell_length_b   10.74740236
_cell_length_c   6.03753500
_cell_angle_alpha   90.00000000
_cell_angle_beta   90.00000000
_cell_angle_gamma   120.00000503
_symmetry_Int_Tables_number   1
_chemical_formula_structural   Pr6Mn(SiSe7)2
_chemical_formula_sum   'Pr6 Mn1 Si2 Se14'
_cell_volume   603.94483736
_cell_formula_units_Z   1
loop_
 _symmetry_equiv_pos_site_id
 _symmetry_equiv_pos_as_xyz
  1  'x, y, z'
loop_
 _atom_site_type_symbol
 _atom_site_label
 _atom_site_symmetry_multiplicity
 _atom_site_fract_x
 _atom_site_fract_y
 _atom_site_fract_z
 _atom_site_occupancy
  Pr  Pr0  1  0.876614  0.232330  0.249775  1
  Pr  Pr1  1  0.767670  0.644286  0.249775  1
  Pr  Pr2  1  0.355714  0.123386  0.249775  1
  Pr  Pr3  1  0.123098  0.767759  0.749923  1
  Pr  Pr4  1  0.232241  0.355339  0.749923  1
  Pr  Pr5  1  0.644661  0.876902  0.749923  1
  Mn  Mn6  1  0.000000  0.000000  0.488497  1
  Si  Si7  1  0.666667  0.333333  0.834884  1
  Si  Si8  1  0.333333  0.666667  0.337352  1
  Se  Se9  1  0.666667  0.333333  0.460439  1
  Se  Se10  1  0.333333  0.666667  0.962659  1
  Se  Se11  1  0.914329  0.161035  0.726588  1
  Se  Se12  1  0.838965  0.753293  0.726588  1
  Se  Se13  1  0.246707  0.085671  0.726588  1
  Se  Se14  1  0.083455  0.836875  0.246939  1
  Se  Se15  1  0.163125  0.246579  0.246939  1
  Se  Se16  1  0.753421  0.916545  0.246939  1
  Se  Se17  1  0.588942  0.108718  0.984145  1
  Se  Se18  1  0.891282  0.480225  0.984145  1
  Se  Se19  1  0.519775  0.411058  0.984145  1
  Se  Se20  1  0.411328  0.891267  0.486572  1
  Se  Se21  1  0.108733  0.520061  0.486572  1
  Se  Se22  1  0.479939  0.588672  0.486572  1
