# generated using pymatgen
data_Dy12ErTmRh6
_symmetry_space_group_name_H-M   'P 1'
_cell_length_a   9.78518900
_cell_length_b   9.78518990
_cell_length_c   6.16862900
_cell_angle_alpha   90.00000000
_cell_angle_beta   90.00000000
_cell_angle_gamma   120.00000035
_symmetry_Int_Tables_number   1
_chemical_formula_structural   Dy12ErTmRh6
_chemical_formula_sum   'Dy12 Er1 Tm1 Rh6'
_cell_volume   511.51427474
_cell_formula_units_Z   1
loop_
 _symmetry_equiv_pos_site_id
 _symmetry_equiv_pos_as_xyz
  1  'x, y, z'
loop_
 _atom_site_type_symbol
 _atom_site_label
 _atom_site_symmetry_multiplicity
 _atom_site_fract_x
 _atom_site_fract_y
 _atom_site_fract_z
 _atom_site_occupancy
  Dy  Dy0  1  0.752194  0.876097  0.990975  1
  Dy  Dy1  1  0.875917  0.124083  0.490897  1
  Dy  Dy2  1  0.541075  0.458925  0.797813  1
  Dy  Dy3  1  0.081723  0.540862  0.297844  1
  Dy  Dy4  1  0.459138  0.918277  0.297844  1
  Dy  Dy5  1  0.541075  0.082149  0.797813  1
  Dy  Dy6  1  0.917851  0.458925  0.797813  1
  Dy  Dy7  1  0.459138  0.540862  0.297844  1
  Dy  Dy8  1  0.123903  0.247806  0.990975  1
  Dy  Dy9  1  0.875917  0.751834  0.490897  1
  Dy  Dy10  1  0.248166  0.124083  0.490897  1
  Dy  Dy11  1  0.123903  0.876097  0.990975  1
  Er  Er12  1  0.333333  0.666667  0.784606  1
  Tm  Tm13  1  0.666667  0.333333  0.283592  1
  Rh  Rh14  1  0.190223  0.809777  0.563606  1
  Rh  Rh15  1  0.381004  0.190501  0.064135  1
  Rh  Rh16  1  0.809499  0.618996  0.064135  1
  Rh  Rh17  1  0.190223  0.380448  0.563606  1
  Rh  Rh18  1  0.619552  0.809777  0.563606  1
  Rh  Rh19  1  0.809499  0.190501  0.064135  1
