# generated using pymatgen
data_Y2Lu2Al18(NiRh)3
_symmetry_space_group_name_H-M   'P 1'
_cell_length_a   7.50159404
_cell_length_b   7.48561472
_cell_length_c   9.34088556
_cell_angle_alpha   89.91590864
_cell_angle_beta   89.95837510
_cell_angle_gamma   119.10495341
_symmetry_Int_Tables_number   1
_chemical_formula_structural   Y2Lu2Al18(NiRh)3
_chemical_formula_sum   'Y2 Lu2 Al18 Ni3 Rh3'
_cell_volume   458.29524985
_cell_formula_units_Z   1
loop_
 _symmetry_equiv_pos_site_id
 _symmetry_equiv_pos_as_xyz
  1  'x, y, z'
loop_
 _atom_site_type_symbol
 _atom_site_label
 _atom_site_symmetry_multiplicity
 _atom_site_fract_x
 _atom_site_fract_y
 _atom_site_fract_z
 _atom_site_occupancy
  Y  Y0  1  0.675471  0.996812  0.249402  1
  Y  Y1  1  0.325841  0.004877  0.750084  1
  Lu  Lu2  1  0.993432  0.674379  0.249960  1
  Lu  Lu3  1  0.004441  0.324115  0.749901  1
  Al  Al4  1  0.132300  0.132456  0.249593  1
  Al  Al5  1  0.867583  0.867640  0.750179  1
  Al  Al6  1  0.998858  0.340024  0.073566  1
  Al  Al7  1  0.002915  0.661907  0.925893  1
  Al  Al8  1  0.003017  0.661495  0.574231  1
  Al  Al9  1  0.336111  0.995508  0.424513  1
  Al  Al10  1  0.003393  0.339868  0.425676  1
  Al  Al11  1  0.661970  0.997159  0.575258  1
  Al  Al12  1  0.662732  0.002891  0.924874  1
  Al  Al13  1  0.335674  0.996127  0.075325  1
  Al  Al14  1  0.332593  0.334219  0.548852  1
  Al  Al15  1  0.665909  0.666502  0.450893  1
  Al  Al16  1  0.665461  0.665523  0.048285  1
  Al  Al17  1  0.333815  0.335506  0.951263  1
  Al  Al18  1  0.339588  0.557651  0.249670  1
  Al  Al19  1  0.659954  0.446455  0.753021  1
  Al  Al20  1  0.553545  0.343703  0.247233  1
  Al  Al21  1  0.442300  0.656712  0.750540  1
  Ni  Ni22  1  0.672547  0.328041  0.002256  1
  Ni  Ni23  1  0.330128  0.674619  0.999450  1
  Ni  Ni24  1  0.326878  0.670229  0.501992  1
  Rh  Rh25  1  0.672627  0.327161  0.499352  1
  Rh  Rh26  1  0.999850  0.999838  0.999424  1
  Rh  Rh27  1  0.001067  0.998584  0.499316  1
