# generated using pymatgen
data_Tb2HoHf3(SnRh)6
_symmetry_space_group_name_H-M   'P 1'
_cell_length_a   7.48127200
_cell_length_b   7.47851145
_cell_length_c   7.52447600
_cell_angle_alpha   90.00000000
_cell_angle_beta   90.00000000
_cell_angle_gamma   120.01489660
_symmetry_Int_Tables_number   1
_chemical_formula_structural   Tb2HoHf3(SnRh)6
_chemical_formula_sum   'Tb2 Ho1 Hf3 Sn6 Rh6'
_cell_volume   364.52917308
_cell_formula_units_Z   1
loop_
 _symmetry_equiv_pos_site_id
 _symmetry_equiv_pos_as_xyz
  1  'x, y, z'
loop_
 _atom_site_type_symbol
 _atom_site_label
 _atom_site_symmetry_multiplicity
 _atom_site_fract_x
 _atom_site_fract_y
 _atom_site_fract_z
 _atom_site_occupancy
  Tb  Tb0  1  0.999692  0.405942  0.750000  1
  Tb  Tb1  1  0.594023  0.593771  0.750000  1
  Ho  Ho2  1  0.405870  0.000296  0.750000  1
  Hf  Hf3  1  0.998298  0.392668  0.250000  1
  Hf  Hf4  1  0.607338  0.605641  0.250000  1
  Hf  Hf5  1  0.394419  0.001720  0.250000  1
  Sn  Sn6  1  0.265971  0.266929  0.492877  1
  Sn  Sn7  1  0.001565  0.734332  0.492909  1
  Sn  Sn8  1  0.001565  0.734332  0.007091  1
  Sn  Sn9  1  0.732541  0.998726  0.493294  1
  Sn  Sn10  1  0.732541  0.998726  0.006706  1
  Sn  Sn11  1  0.265971  0.266929  0.007123  1
  Rh  Rh12  1  0.333401  0.666981  0.458958  1
  Rh  Rh13  1  0.666406  0.333008  0.461957  1
  Rh  Rh14  1  0.333401  0.666981  0.041042  1
  Rh  Rh15  1  0.000634  0.000007  0.750000  1
  Rh  Rh16  1  0.999958  0.000004  0.250000  1
  Rh  Rh17  1  0.666406  0.333008  0.038043  1
