# generated using pymatgen
data_LaNd15(HoPb4)4
_symmetry_space_group_name_H-M   'P 1'
_cell_length_a   8.44100261
_cell_length_b   8.51758390
_cell_length_c   16.10650900
_cell_angle_alpha   90.00769542
_cell_angle_beta   89.74498856
_cell_angle_gamma   89.92237450
_symmetry_Int_Tables_number   1
_chemical_formula_structural   LaNd15(HoPb4)4
_chemical_formula_sum   'La1 Nd15 Ho4 Pb16'
_cell_volume   1157.99629455
_cell_formula_units_Z   1
loop_
 _symmetry_equiv_pos_site_id
 _symmetry_equiv_pos_as_xyz
  1  'x, y, z'
loop_
 _atom_site_type_symbol
 _atom_site_label
 _atom_site_symmetry_multiplicity
 _atom_site_fract_x
 _atom_site_fract_y
 _atom_site_fract_z
 _atom_site_occupancy
  La  La0  1  0.969570  0.821852  0.598395  1
  Nd  Nd1  1  0.623635  0.157644  0.619853  1
  Nd  Nd2  1  0.121775  0.342388  0.881586  1
  Nd  Nd3  1  0.378382  0.842487  0.119188  1
  Nd  Nd4  1  0.875448  0.657574  0.380051  1
  Nd  Nd5  1  0.376458  0.842368  0.380000  1
  Nd  Nd6  1  0.878212  0.657403  0.119095  1
  Nd  Nd7  1  0.621666  0.157337  0.881175  1
  Nd  Nd8  1  0.123692  0.342385  0.619725  1
  Nd  Nd9  1  0.466661  0.676353  0.600325  1
  Nd  Nd10  1  0.964796  0.823017  0.898904  1
  Nd  Nd11  1  0.535141  0.323200  0.101155  1
  Nd  Nd12  1  0.033040  0.178196  0.399322  1
  Nd  Nd13  1  0.531982  0.322280  0.399843  1
  Nd  Nd14  1  0.035268  0.176723  0.101133  1
  Nd  Nd15  1  0.465169  0.676786  0.899758  1
  Ho  Ho16  1  0.790741  0.496179  0.750548  1
  Ho  Ho17  1  0.291094  0.003786  0.750529  1
  Ho  Ho18  1  0.208796  0.503498  0.250121  1
  Ho  Ho19  1  0.708866  0.996563  0.249498  1
  Pb  Pb20  1  0.716341  0.969946  0.452706  1
  Pb  Pb21  1  0.220063  0.530499  0.046449  1
  Pb  Pb22  1  0.279702  0.029963  0.954032  1
  Pb  Pb23  1  0.781300  0.466417  0.545473  1
  Pb  Pb24  1  0.285004  0.034855  0.545054  1
  Pb  Pb25  1  0.779602  0.469355  0.954276  1
  Pb  Pb26  1  0.720302  0.969546  0.046112  1
  Pb  Pb27  1  0.217537  0.532426  0.454047  1
  Pb  Pb28  1  0.428505  0.374171  0.750503  1
  Pb  Pb29  1  0.928408  0.126183  0.750683  1
  Pb  Pb30  1  0.571323  0.625422  0.249562  1
  Pb  Pb31  1  0.071503  0.874216  0.249812  1
  Pb  Pb32  1  0.654979  0.846238  0.750062  1
  Pb  Pb33  1  0.157662  0.652132  0.750843  1
  Pb  Pb34  1  0.343559  0.153563  0.250080  1
  Pb  Pb35  1  0.843813  0.347051  0.250099  1
