# generated using pymatgen
data_ErTm3MnB12Ru
_symmetry_space_group_name_H-M   'P 1'
_cell_length_a   3.57602100
_cell_length_b   9.05134728
_cell_length_c   11.42609601
_cell_angle_alpha   89.98322156
_cell_angle_beta   90.00000000
_cell_angle_gamma   90.00000000
_symmetry_Int_Tables_number   1
_chemical_formula_structural   ErTm3MnB12Ru
_chemical_formula_sum   'Er2 Tm6 Mn2 B24 Ru2'
_cell_volume   369.83766541
_cell_formula_units_Z   2
loop_
 _symmetry_equiv_pos_site_id
 _symmetry_equiv_pos_as_xyz
  1  'x, y, z'
loop_
 _atom_site_type_symbol
 _atom_site_label
 _atom_site_symmetry_multiplicity
 _atom_site_fract_x
 _atom_site_fract_y
 _atom_site_fract_z
 _atom_site_occupancy
  Er  Er0  1  0.000000  0.326503  0.416414  1
  Er  Er1  1  0.000000  0.673497  0.583586  1
  Tm  Tm2  1  0.000000  0.820077  0.087403  1
  Tm  Tm3  1  0.000000  0.179923  0.912597  1
  Tm  Tm4  1  0.000000  0.940146  0.370908  1
  Tm  Tm5  1  0.000000  0.059854  0.629092  1
  Tm  Tm6  1  0.000000  0.445016  0.131116  1
  Tm  Tm7  1  0.000000  0.554984  0.868884  1
  Mn  Mn8  1  0.000000  0.638013  0.320312  1
  Mn  Mn9  1  0.000000  0.361987  0.679688  1
  B  B10  1  0.500000  0.553948  0.432450  1
  B  B11  1  0.500000  0.446052  0.567550  1
  B  B12  1  0.500000  0.053405  0.066637  1
  B  B13  1  0.500000  0.946595  0.933363  1
  B  B14  1  0.500000  0.746685  0.417752  1
  B  B15  1  0.500000  0.253315  0.582248  1
  B  B16  1  0.500000  0.249517  0.080925  1
  B  B17  1  0.500000  0.750483  0.919075  1
  B  B18  1  0.500000  0.789767  0.265589  1
  B  B19  1  0.500000  0.210233  0.734411  1
  B  B20  1  0.500000  0.292066  0.235495  1
  B  B21  1  0.500000  0.707934  0.764505  1
  B  B22  1  0.500000  0.631217  0.186281  1
  B  B23  1  0.500000  0.368783  0.813719  1
  B  B24  1  0.500000  0.130765  0.315368  1
  B  B25  1  0.500000  0.869235  0.684632  1
  B  B26  1  0.500000  0.981313  0.212485  1
  B  B27  1  0.500000  0.018687  0.787515  1
  B  B28  1  0.500000  0.484808  0.288762  1
  B  B29  1  0.500000  0.515192  0.711238  1
  B  B30  1  0.500000  0.603229  0.028575  1
  B  B31  1  0.500000  0.396771  0.971425  1
  B  B32  1  0.500000  0.103439  0.471596  1
  B  B33  1  0.500000  0.896561  0.528404  1
  Ru  Ru34  1  0.000000  0.137980  0.178960  1
  Ru  Ru35  1  0.000000  0.862020  0.821040  1
