# generated using pymatgen
data_Li2YLuPt2
_symmetry_space_group_name_H-M   'P 1'
_cell_length_a   4.00758600
_cell_length_b   6.97389753
_cell_length_c   8.35983354
_cell_angle_alpha   89.11396241
_cell_angle_beta   90.00000000
_cell_angle_gamma   90.00000000
_symmetry_Int_Tables_number   1
_chemical_formula_structural   Li2YLuPt2
_chemical_formula_sum   'Li4 Y2 Lu2 Pt4'
_cell_volume   233.61682167
_cell_formula_units_Z   2
loop_
 _symmetry_equiv_pos_site_id
 _symmetry_equiv_pos_as_xyz
  1  'x, y, z'
loop_
 _atom_site_type_symbol
 _atom_site_label
 _atom_site_symmetry_multiplicity
 _atom_site_fract_x
 _atom_site_fract_y
 _atom_site_fract_z
 _atom_site_occupancy
  Li  Li0  1  0.250000  0.631870  0.559339  1
  Li  Li1  1  0.750000  0.368130  0.440661  1
  Li  Li2  1  0.750000  0.873040  0.059115  1
  Li  Li3  1  0.250000  0.126960  0.940885  1
  Y  Y4  1  0.250000  0.543835  0.182242  1
  Y  Y5  1  0.750000  0.456165  0.817758  1
  Lu  Lu6  1  0.750000  0.956684  0.677528  1
  Lu  Lu7  1  0.250000  0.043316  0.322472  1
  Pt  Pt8  1  0.250000  0.752654  0.872433  1
  Pt  Pt9  1  0.750000  0.247346  0.127567  1
  Pt  Pt10  1  0.750000  0.758933  0.379589  1
  Pt  Pt11  1  0.250000  0.241067  0.620411  1
