# generated using pymatgen
data_Rb5(AgAu2)2
_symmetry_space_group_name_H-M   'P 1'
_cell_length_a   15.79249026
_cell_length_b   15.79249032
_cell_length_c   5.28559100
_cell_angle_alpha   90.00000000
_cell_angle_beta   90.00000000
_cell_angle_gamma   161.47855122
_symmetry_Int_Tables_number   1
_chemical_formula_structural   Rb5(AgAu2)2
_chemical_formula_sum   'Rb5 Ag2 Au4'
_cell_volume   418.75194015
_cell_formula_units_Z   1
loop_
 _symmetry_equiv_pos_site_id
 _symmetry_equiv_pos_as_xyz
  1  'x, y, z'
loop_
 _atom_site_type_symbol
 _atom_site_label
 _atom_site_symmetry_multiplicity
 _atom_site_fract_x
 _atom_site_fract_y
 _atom_site_fract_z
 _atom_site_occupancy
  Rb  Rb0  1  0.998344  0.001656  0.000000  1
  Rb  Rb1  1  0.616819  0.383179  0.000000  1
  Rb  Rb2  1  0.381886  0.618112  0.000000  1
  Rb  Rb3  1  0.807081  0.192917  0.500001  1
  Rb  Rb4  1  0.195139  0.804859  0.500001  1
  Ag  Ag5  1  0.455081  0.544917  0.500001  1
  Ag  Ag6  1  0.075192  0.924807  0.500001  1
  Au  Au7  1  0.736479  0.263519  0.000000  1
  Au  Au8  1  0.263710  0.736288  0.000000  1
  Au  Au9  1  0.922287  0.077712  0.500001  1
  Au  Au10  1  0.547975  0.452023  0.500001  1
