# generated using pymatgen
data_MgPaB6Os
_symmetry_space_group_name_H-M   'P 1'
_cell_length_a   3.60917200
_cell_length_b   8.92763500
_cell_length_c   11.29480100
_cell_angle_alpha   90.00000000
_cell_angle_beta   90.00000000
_cell_angle_gamma   90.00000000
_symmetry_Int_Tables_number   1
_chemical_formula_structural   MgPaB6Os
_chemical_formula_sum   'Mg4 Pa4 B24 Os4'
_cell_volume   363.93396513
_cell_formula_units_Z   4
loop_
 _symmetry_equiv_pos_site_id
 _symmetry_equiv_pos_as_xyz
  1  'x, y, z'
loop_
 _atom_site_type_symbol
 _atom_site_label
 _atom_site_symmetry_multiplicity
 _atom_site_fract_x
 _atom_site_fract_y
 _atom_site_fract_z
 _atom_site_occupancy
  Mg  Mg0  1  0.000000  0.948514  0.380733  1
  Mg  Mg1  1  0.000000  0.051486  0.619267  1
  Mg  Mg2  1  0.000000  0.448514  0.119267  1
  Mg  Mg3  1  0.000000  0.551486  0.880733  1
  Pa  Pa4  1  0.000000  0.321138  0.413779  1
  Pa  Pa5  1  0.000000  0.678862  0.586221  1
  Pa  Pa6  1  0.000000  0.821138  0.086221  1
  Pa  Pa7  1  0.000000  0.178862  0.913779  1
  B  B8  1  0.500000  0.554287  0.433865  1
  B  B9  1  0.500000  0.445713  0.566135  1
  B  B10  1  0.500000  0.054287  0.066135  1
  B  B11  1  0.500000  0.945713  0.933865  1
  B  B12  1  0.500000  0.754041  0.419639  1
  B  B13  1  0.500000  0.245959  0.580361  1
  B  B14  1  0.500000  0.254041  0.080361  1
  B  B15  1  0.500000  0.745959  0.919639  1
  B  B16  1  0.500000  0.794900  0.264746  1
  B  B17  1  0.500000  0.205100  0.735253  1
  B  B18  1  0.500000  0.294900  0.235254  1
  B  B19  1  0.500000  0.705100  0.764747  1
  B  B20  1  0.500000  0.630110  0.181818  1
  B  B21  1  0.500000  0.369890  0.818182  1
  B  B22  1  0.500000  0.130110  0.318182  1
  B  B23  1  0.500000  0.869890  0.681818  1
  B  B24  1  0.500000  0.981888  0.215336  1
  B  B25  1  0.500000  0.018112  0.784664  1
  B  B26  1  0.500000  0.481888  0.284664  1
  B  B27  1  0.500000  0.518112  0.715336  1
  B  B28  1  0.500000  0.601808  0.028235  1
  B  B29  1  0.500000  0.398192  0.971765  1
  B  B30  1  0.500000  0.101808  0.471765  1
  B  B31  1  0.500000  0.898192  0.528235  1
  Os  Os32  1  0.000000  0.640684  0.320000  1
  Os  Os33  1  0.000000  0.359316  0.680000  1
  Os  Os34  1  0.000000  0.140684  0.180000  1
  Os  Os35  1  0.000000  0.859316  0.820000  1
