# generated using pymatgen
data_Ta6AlCr2Si3C2
_symmetry_space_group_name_H-M   'P 1'
_cell_length_a   8.13451110
_cell_length_b   8.14297941
_cell_length_c   8.14297844
_cell_angle_alpha   60.11530526
_cell_angle_beta   60.03438740
_cell_angle_gamma   60.03439371
_symmetry_Int_Tables_number   1
_chemical_formula_structural   Ta6AlCr2Si3C2
_chemical_formula_sum   'Ta12 Al2 Cr4 Si6 C4'
_cell_volume   381.93200622
_cell_formula_units_Z   2
loop_
 _symmetry_equiv_pos_site_id
 _symmetry_equiv_pos_as_xyz
  1  'x, y, z'
loop_
 _atom_site_type_symbol
 _atom_site_label
 _atom_site_symmetry_multiplicity
 _atom_site_fract_x
 _atom_site_fract_y
 _atom_site_fract_z
 _atom_site_occupancy
  Ta  Ta0  1  0.552985  0.949442  0.548167  1
  Ta  Ta1  1  0.301741  0.698113  0.698113  1
  Ta  Ta2  1  0.702097  0.300689  0.300689  1
  Ta  Ta3  1  0.300594  0.701833  0.300558  1
  Ta  Ta4  1  0.698074  0.697293  0.302088  1
  Ta  Ta5  1  0.300594  0.300558  0.701833  1
  Ta  Ta6  1  0.552985  0.548167  0.949442  1
  Ta  Ta7  1  0.947967  0.551887  0.551887  1
  Ta  Ta8  1  0.553475  0.949311  0.949311  1
  Ta  Ta9  1  0.947456  0.947912  0.552707  1
  Ta  Ta10  1  0.698074  0.302088  0.697293  1
  Ta  Ta11  1  0.947456  0.552707  0.947912  1
  Al  Al12  1  0.247587  0.917816  0.917816  1
  Al  Al13  1  0.333217  0.332184  0.332184  1
  Cr  Cr14  1  0.123152  0.129359  0.129359  1
  Cr  Cr15  1  0.631870  0.120641  0.120641  1
  Cr  Cr16  1  0.118357  0.625000  0.125000  1
  Cr  Cr17  1  0.118357  0.125000  0.625000  1
  Si  Si18  1  0.918247  0.914205  0.914205  1
  Si  Si19  1  0.996655  0.335795  0.335795  1
  Si  Si20  1  0.336092  0.997463  0.335463  1
  Si  Si21  1  0.336092  0.335463  0.997463  1
  Si  Si22  1  0.919020  0.252537  0.914537  1
  Si  Si23  1  0.919020  0.914537  0.252537  1
  C  C24  1  0.624720  0.624947  0.624947  1
  C  C25  1  0.124613  0.625053  0.625053  1
  C  C26  1  0.624752  0.125000  0.625000  1
  C  C27  1  0.624752  0.625000  0.125000  1
