# generated using pymatgen
data_ErTm7(Hf3Si4)4
_symmetry_space_group_name_H-M   'P 1'
_cell_length_a   7.24323424
_cell_length_b   7.24270801
_cell_length_c   13.29787502
_cell_angle_alpha   89.99763830
_cell_angle_beta   89.98919622
_cell_angle_gamma   89.99781620
_symmetry_Int_Tables_number   1
_chemical_formula_structural   ErTm7(Hf3Si4)4
_chemical_formula_sum   'Er1 Tm7 Hf12 Si16'
_cell_volume   697.61489560
_cell_formula_units_Z   1
loop_
 _symmetry_equiv_pos_site_id
 _symmetry_equiv_pos_as_xyz
  1  'x, y, z'
loop_
 _atom_site_type_symbol
 _atom_site_label
 _atom_site_symmetry_multiplicity
 _atom_site_fract_x
 _atom_site_fract_y
 _atom_site_fract_z
 _atom_site_occupancy
  Er  Er0  1  0.655645  0.004494  0.284847  1
  Tm  Tm1  1  0.996125  0.344596  0.215024  1
  Tm  Tm2  1  0.004091  0.655466  0.715300  1
  Tm  Tm3  1  0.155727  0.496083  0.465484  1
  Tm  Tm4  1  0.503942  0.844204  0.034547  1
  Tm  Tm5  1  0.844454  0.503989  0.965127  1
  Tm  Tm6  1  0.496062  0.155499  0.534956  1
  Tm  Tm7  1  0.344544  0.995891  0.784746  1
  Hf  Hf8  1  0.174659  0.174707  0.999805  1
  Hf  Hf9  1  0.825367  0.825226  0.500112  1
  Hf  Hf10  1  0.325197  0.674750  0.249981  1
  Hf  Hf11  1  0.674850  0.325178  0.750019  1
  Hf  Hf12  1  0.148189  0.996756  0.374605  1
  Hf  Hf13  1  0.852099  0.003241  0.874500  1
  Hf  Hf14  1  0.503281  0.647817  0.624786  1
  Hf  Hf15  1  0.352140  0.496756  0.875347  1
  Hf  Hf16  1  0.496218  0.352108  0.124232  1
  Hf  Hf17  1  0.647921  0.503394  0.375622  1
  Hf  Hf18  1  0.996799  0.147863  0.625660  1
  Hf  Hf19  1  0.003015  0.851841  0.125254  1
  Si  Si20  1  0.360034  0.295721  0.317609  1
  Si  Si21  1  0.639626  0.704893  0.817815  1
  Si  Si22  1  0.204932  0.860402  0.567921  1
  Si  Si23  1  0.139532  0.795000  0.932081  1
  Si  Si24  1  0.795136  0.139582  0.067551  1
  Si  Si25  1  0.861018  0.205276  0.432735  1
  Si  Si26  1  0.295142  0.360370  0.682259  1
  Si  Si27  1  0.705034  0.638959  0.182055  1
  Si  Si28  1  0.296415  0.048673  0.185410  1
  Si  Si29  1  0.703024  0.951397  0.685633  1
  Si  Si30  1  0.451157  0.796779  0.435863  1
  Si  Si31  1  0.202806  0.548676  0.064269  1
  Si  Si32  1  0.548451  0.202871  0.935429  1
  Si  Si33  1  0.797158  0.451626  0.564584  1
  Si  Si34  1  0.048514  0.297062  0.814402  1
  Si  Si35  1  0.951699  0.702853  0.314434  1
