# generated using pymatgen
data_Ho4Al18RePd3Pt2
_symmetry_space_group_name_H-M   'P 1'
_cell_length_a   7.61629472
_cell_length_b   7.61629523
_cell_length_c   9.48644704
_cell_angle_alpha   89.76153464
_cell_angle_beta   89.76153227
_cell_angle_gamma   119.36978812
_symmetry_Int_Tables_number   1
_chemical_formula_structural   Ho4Al18RePd3Pt2
_chemical_formula_sum   'Ho4 Al18 Re1 Pd3 Pt2'
_cell_volume   479.54574519
_cell_formula_units_Z   1
loop_
 _symmetry_equiv_pos_site_id
 _symmetry_equiv_pos_as_xyz
  1  'x, y, z'
loop_
 _atom_site_type_symbol
 _atom_site_label
 _atom_site_symmetry_multiplicity
 _atom_site_fract_x
 _atom_site_fract_y
 _atom_site_fract_z
 _atom_site_occupancy
  Ho  Ho0  1  0.995452  0.673704  0.247935  1
  Ho  Ho1  1  0.004548  0.326296  0.752065  1
  Ho  Ho2  1  0.673704  0.995452  0.247935  1
  Ho  Ho3  1  0.326296  0.004548  0.752065  1
  Al  Al4  1  0.130652  0.130652  0.247388  1
  Al  Al5  1  0.869348  0.869348  0.752612  1
  Al  Al6  1  0.999369  0.330390  0.073710  1
  Al  Al7  1  0.000631  0.669610  0.926290  1
  Al  Al8  1  0.998457  0.662997  0.578624  1
  Al  Al9  1  0.337003  0.001543  0.421376  1
  Al  Al10  1  0.001543  0.337003  0.421376  1
  Al  Al11  1  0.662997  0.998457  0.578624  1
  Al  Al12  1  0.669610  0.000631  0.926290  1
  Al  Al13  1  0.330390  0.999369  0.073710  1
  Al  Al14  1  0.333843  0.333843  0.558021  1
  Al  Al15  1  0.666157  0.666158  0.441979  1
  Al  Al16  1  0.670702  0.670703  0.053026  1
  Al  Al17  1  0.329298  0.329298  0.946974  1
  Al  Al18  1  0.341409  0.548385  0.249326  1
  Al  Al19  1  0.658591  0.451615  0.750674  1
  Al  Al20  1  0.548385  0.341409  0.249326  1
  Al  Al21  1  0.451615  0.658591  0.750674  1
  Re  Re22  1  0.000000  0.000000  0.000000  1
  Pd  Pd23  1  0.327739  0.672261  0.500000  1
  Pd  Pd24  1  0.672261  0.327739  0.500000  1
  Pd  Pd25  1  0.000000  0.000000  0.500000  1
  Pt  Pt26  1  0.671782  0.328218  0.000000  1
  Pt  Pt27  1  0.328218  0.671782  0.000000  1
