# generated using pymatgen
data_HoEr2In3NiRh2
_symmetry_space_group_name_H-M   'P 1'
_cell_length_a   7.58379093
_cell_length_b   7.59315874
_cell_length_c   3.75004600
_cell_angle_alpha   90.00000000
_cell_angle_beta   90.00000000
_cell_angle_gamma   120.04087821
_symmetry_Int_Tables_number   1
_chemical_formula_structural   HoEr2In3NiRh2
_chemical_formula_sum   'Ho1 Er2 In3 Ni1 Rh2'
_cell_volume   186.93775272
_cell_formula_units_Z   1
loop_
 _symmetry_equiv_pos_site_id
 _symmetry_equiv_pos_as_xyz
  1  'x, y, z'
loop_
 _atom_site_type_symbol
 _atom_site_label
 _atom_site_symmetry_multiplicity
 _atom_site_fract_x
 _atom_site_fract_y
 _atom_site_fract_z
 _atom_site_occupancy
  Ho  Ho0  1  0.000000  0.590759  0.500000  1
  Er  Er1  1  0.408414  0.408364  0.500000  1
  Er  Er2  1  0.591586  0.999950  0.500000  1
  In  In3  1  0.253103  0.999693  0.000000  1
  In  In4  1  0.746897  0.746590  0.000000  1
  In  In5  1  0.000000  0.252885  0.000000  1
  Ni  Ni6  1  0.000000  0.001726  0.500000  1
  Rh  Rh7  1  0.334044  0.667038  0.000000  1
  Rh  Rh8  1  0.665956  0.332994  0.000000  1
