# generated using pymatgen
data_Ta3Zn(Pt3Rh)3
_symmetry_space_group_name_H-M   'P 1'
_cell_length_a   5.61243800
_cell_length_b   5.61243760
_cell_length_c   9.10672300
_cell_angle_alpha   90.00000000
_cell_angle_beta   90.00000000
_cell_angle_gamma   119.99999057
_symmetry_Int_Tables_number   1
_chemical_formula_structural   Ta3Zn(Pt3Rh)3
_chemical_formula_sum   'Ta3 Zn1 Pt9 Rh3'
_cell_volume   248.42533356
_cell_formula_units_Z   1
loop_
 _symmetry_equiv_pos_site_id
 _symmetry_equiv_pos_as_xyz
  1  'x, y, z'
loop_
 _atom_site_type_symbol
 _atom_site_label
 _atom_site_symmetry_multiplicity
 _atom_site_fract_x
 _atom_site_fract_y
 _atom_site_fract_z
 _atom_site_occupancy
  Ta  Ta0  1  0.666667  0.333333  0.500000  1
  Ta  Ta1  1  0.000000  0.000000  0.741686  1
  Ta  Ta2  1  0.000000  0.000000  0.258314  1
  Zn  Zn3  1  0.333333  0.666667  0.000000  1
  Pt  Pt4  1  0.832412  0.167588  0.000000  1
  Pt  Pt5  1  0.832412  0.664824  0.000000  1
  Pt  Pt6  1  0.335176  0.167588  0.000000  1
  Pt  Pt7  1  0.998243  0.499122  0.746711  1
  Pt  Pt8  1  0.500878  0.499122  0.746711  1
  Pt  Pt9  1  0.500878  0.001757  0.746711  1
  Pt  Pt10  1  0.998243  0.499122  0.253289  1
  Pt  Pt11  1  0.500878  0.499122  0.253289  1
  Pt  Pt12  1  0.500878  0.001757  0.253289  1
  Rh  Rh13  1  0.168375  0.831625  0.500000  1
  Rh  Rh14  1  0.168375  0.336751  0.500000  1
  Rh  Rh15  1  0.663249  0.831625  0.500000  1
