# generated using pymatgen
data_Dy2Y4ErCoI12
_symmetry_space_group_name_H-M   'P 1'
_cell_length_a   9.74697671
_cell_length_b   9.74805224
_cell_length_c   9.74365403
_cell_angle_alpha   106.81607797
_cell_angle_beta   106.78975037
_cell_angle_gamma   106.85404268
_symmetry_Int_Tables_number   1
_chemical_formula_structural   Dy2Y4ErCoI12
_chemical_formula_sum   'Dy2 Y4 Er1 Co1 I12'
_cell_volume   774.75699991
_cell_formula_units_Z   1
loop_
 _symmetry_equiv_pos_site_id
 _symmetry_equiv_pos_as_xyz
  1  'x, y, z'
loop_
 _atom_site_type_symbol
 _atom_site_label
 _atom_site_symmetry_multiplicity
 _atom_site_fract_x
 _atom_site_fract_y
 _atom_site_fract_z
 _atom_site_occupancy
  Dy  Dy0  1  0.712743  0.908018  0.978260  1
  Dy  Dy1  1  0.978349  0.712805  0.907567  1
  Y  Y2  1  0.500042  0.500102  0.499926  1
  Y  Y3  1  0.287976  0.091918  0.020862  1
  Y  Y4  1  0.021172  0.287973  0.091270  1
  Y  Y5  1  0.091787  0.021296  0.288211  1
  Er  Er6  1  0.909225  0.978781  0.715825  1
  Co  Co7  1  0.999336  0.999242  0.999428  1
  I  I8  1  0.462487  0.160349  0.385653  1
  I  I9  1  0.385697  0.462648  0.160269  1
  I  I10  1  0.160283  0.385604  0.462469  1
  I  I11  1  0.538816  0.839885  0.614153  1
  I  I12  1  0.614263  0.537361  0.839367  1
  I  I13  1  0.839411  0.615363  0.537421  1
  I  I14  1  0.323248  0.776001  0.929645  1
  I  I15  1  0.929405  0.321921  0.775078  1
  I  I16  1  0.776358  0.929922  0.324037  1
  I  I17  1  0.676537  0.224042  0.070466  1
  I  I18  1  0.070492  0.676759  0.223870  1
  I  I19  1  0.222374  0.070012  0.676224  1
