# generated using pymatgen
data_Ac2Dy2Zn4Si3Ge
_symmetry_space_group_name_H-M   'P 1'
_cell_length_a   4.26819800
_cell_length_b   4.26819499
_cell_length_c   16.88794900
_cell_angle_alpha   90.00000000
_cell_angle_beta   90.00000000
_cell_angle_gamma   120.00000781
_symmetry_Int_Tables_number   1
_chemical_formula_structural   Ac2Dy2Zn4Si3Ge
_chemical_formula_sum   'Ac2 Dy2 Zn4 Si3 Ge1'
_cell_volume   266.43809270
_cell_formula_units_Z   1
loop_
 _symmetry_equiv_pos_site_id
 _symmetry_equiv_pos_as_xyz
  1  'x, y, z'
loop_
 _atom_site_type_symbol
 _atom_site_label
 _atom_site_symmetry_multiplicity
 _atom_site_fract_x
 _atom_site_fract_y
 _atom_site_fract_z
 _atom_site_occupancy
  Ac  Ac0  1  0.000000  0.000000  0.001695  1
  Ac  Ac1  1  0.000000  0.000000  0.499661  1
  Dy  Dy2  1  0.000000  0.000000  0.250539  1
  Dy  Dy3  1  0.000000  0.000000  0.748354  1
  Zn  Zn4  1  0.333333  0.666667  0.152346  1
  Zn  Zn5  1  0.666667  0.333333  0.845194  1
  Zn  Zn6  1  0.666667  0.333333  0.650506  1
  Zn  Zn7  1  0.333333  0.666667  0.349077  1
  Si  Si8  1  0.333333  0.666667  0.628296  1
  Si  Si9  1  0.666667  0.333333  0.371012  1
  Si  Si10  1  0.666667  0.333333  0.129782  1
  Ge  Ge11  1  0.333333  0.666667  0.873539  1
