# generated using pymatgen
data_AgBi3Ir2(RhO7)2
_symmetry_space_group_name_H-M   'P 1'
_cell_length_a   7.39868594
_cell_length_b   7.23853206
_cell_length_c   7.38483800
_cell_angle_alpha   59.32909682
_cell_angle_beta   60.06188632
_cell_angle_gamma   59.25646617
_symmetry_Int_Tables_number   1
_chemical_formula_structural   AgBi3Ir2(RhO7)2
_chemical_formula_sum   'Ag1 Bi3 Ir2 Rh2 O14'
_cell_volume   276.75969982
_cell_formula_units_Z   1
loop_
 _symmetry_equiv_pos_site_id
 _symmetry_equiv_pos_as_xyz
  1  'x, y, z'
loop_
 _atom_site_type_symbol
 _atom_site_label
 _atom_site_symmetry_multiplicity
 _atom_site_fract_x
 _atom_site_fract_y
 _atom_site_fract_z
 _atom_site_occupancy
  Ag  Ag0  1  0.125000  0.625000  0.125000  1
  Bi  Bi1  1  0.125000  0.125000  0.125000  1
  Bi  Bi2  1  0.625000  0.125000  0.125000  1
  Bi  Bi3  1  0.125000  0.125000  0.625000  1
  Ir  Ir4  1  0.625000  0.625000  0.625000  1
  Ir  Ir5  1  0.625000  0.625000  0.125000  1
  Rh  Rh6  1  0.125000  0.625000  0.625000  1
  Rh  Rh7  1  0.625000  0.125000  0.625000  1
  O  O8  1  0.246492  0.264217  0.244645  1
  O  O9  1  0.303127  0.705794  0.295713  1
  O  O10  1  0.957750  0.962433  0.539909  1
  O  O11  1  0.544240  0.958553  0.539681  1
  O  O12  1  0.690438  0.705899  0.301832  1
  O  O13  1  0.946873  0.544206  0.554632  1
  O  O14  1  0.705760  0.291447  0.710319  1
  O  O15  1  0.292250  0.287567  0.710091  1
  O  O16  1  0.705760  0.291447  0.292475  1
  O  O17  1  0.303127  0.705794  0.695368  1
  O  O18  1  0.946873  0.544206  0.954287  1
  O  O19  1  0.559562  0.544101  0.948168  1
  O  O20  1  0.003508  0.985783  0.005355  1
  O  O21  1  0.544240  0.958553  0.957525  1
