# generated using pymatgen
data_NaLi3TiO4
_symmetry_space_group_name_H-M   'P 1'
_cell_length_a   5.83540607
_cell_length_b   7.41027368
_cell_length_c   9.87512487
_cell_angle_alpha   83.68522895
_cell_angle_beta   76.89008815
_cell_angle_gamma   79.79328609
_symmetry_Int_Tables_number   1
_chemical_formula_structural   NaLi3TiO4
_chemical_formula_sum   'Na4 Li12 Ti4 O16'
_cell_volume   408.22204425
_cell_formula_units_Z   4
loop_
 _symmetry_equiv_pos_site_id
 _symmetry_equiv_pos_as_xyz
  1  'x, y, z'
loop_
 _atom_site_type_symbol
 _atom_site_label
 _atom_site_symmetry_multiplicity
 _atom_site_fract_x
 _atom_site_fract_y
 _atom_site_fract_z
 _atom_site_occupancy
  Na  Na0  1  0.004283  0.379302  0.886846  1
  Na  Na1  1  0.995717  0.620698  0.113154  1
  Na  Na2  1  0.053889  0.142107  0.625904  1
  Na  Na3  1  0.946111  0.857893  0.374096  1
  Li  Li4  1  0.831037  0.051412  0.104063  1
  Li  Li5  1  0.168963  0.948588  0.895937  1
  Li  Li6  1  0.467108  0.310745  0.615149  1
  Li  Li7  1  0.532892  0.689255  0.384851  1
  Li  Li8  1  0.185576  0.185875  0.143840  1
  Li  Li9  1  0.814424  0.814125  0.856160  1
  Li  Li10  1  0.541807  0.430351  0.121815  1
  Li  Li11  1  0.458193  0.569649  0.878185  1
  Li  Li12  1  0.434043  0.043894  0.380808  1
  Li  Li13  1  0.565957  0.956106  0.619192  1
  Li  Li14  1  0.183925  0.448683  0.399851  1
  Li  Li15  1  0.816075  0.551317  0.600149  1
  Ti  Ti16  1  0.835656  0.299341  0.349401  1
  Ti  Ti17  1  0.164344  0.700659  0.650599  1
  Ti  Ti18  1  0.447071  0.792005  0.135480  1
  Ti  Ti19  1  0.552929  0.207995  0.864520  1
  O  O20  1  0.638933  0.156341  0.467314  1
  O  O21  1  0.361067  0.843659  0.532686  1
  O  O22  1  0.179221  0.939832  0.094774  1
  O  O23  1  0.820779  0.060168  0.905226  1
  O  O24  1  0.339617  0.609888  0.260785  1
  O  O25  1  0.660383  0.390112  0.739215  1
  O  O26  1  0.142346  0.198458  0.354723  1
  O  O27  1  0.857654  0.801542  0.645277  1
  O  O28  1  0.180484  0.468994  0.595509  1
  O  O29  1  0.819516  0.531006  0.404491  1
  O  O30  1  0.363374  0.340065  0.007274  1
  O  O31  1  0.636626  0.659935  0.992726  1
  O  O32  1  0.835651  0.300236  0.162696  1
  O  O33  1  0.164349  0.699764  0.837304  1
  O  O34  1  0.370817  0.109179  0.771343  1
  O  O35  1  0.629183  0.890821  0.228657  1
