# generated using pymatgen
data_Sr4YbLu(RuO6)2
_symmetry_space_group_name_H-M   'P 1'
_cell_length_a   5.74929986
_cell_length_b   5.84690201
_cell_length_c   8.19242698
_cell_angle_alpha   90.13413518
_cell_angle_beta   90.30305453
_cell_angle_gamma   89.99785238
_symmetry_Int_Tables_number   1
_chemical_formula_structural   Sr4YbLu(RuO6)2
_chemical_formula_sum   'Sr4 Yb1 Lu1 Ru2 O12'
_cell_volume   275.38868349
_cell_formula_units_Z   1
loop_
 _symmetry_equiv_pos_site_id
 _symmetry_equiv_pos_as_xyz
  1  'x, y, z'
loop_
 _atom_site_type_symbol
 _atom_site_label
 _atom_site_symmetry_multiplicity
 _atom_site_fract_x
 _atom_site_fract_y
 _atom_site_fract_z
 _atom_site_occupancy
  Sr  Sr0  1  0.008759  0.041226  0.252303  1
  Sr  Sr1  1  0.491296  0.538710  0.252089  1
  Sr  Sr2  1  0.508704  0.461290  0.747911  1
  Sr  Sr3  1  0.991241  0.958774  0.747697  1
  Yb  Yb4  1  0.999999  0.500001  0.500000  1
  Lu  Lu5  1  0.500000  0.000000  0.999999  1
  Ru  Ru6  1  0.000000  0.500001  0.000000  1
  Ru  Ru7  1  0.499999  0.000000  0.500001  1
  O  O8  1  0.271793  0.295318  0.036749  1
  O  O9  1  0.202534  0.772043  0.039201  1
  O  O10  1  0.929382  0.481822  0.229905  1
  O  O11  1  0.570368  0.981762  0.261684  1
  O  O12  1  0.309087  0.269485  0.461879  1
  O  O13  1  0.230369  0.806815  0.464191  1
  O  O14  1  0.769632  0.193184  0.535808  1
  O  O15  1  0.690914  0.730515  0.538123  1
  O  O16  1  0.429630  0.018238  0.738316  1
  O  O17  1  0.070619  0.518178  0.770095  1
  O  O18  1  0.797467  0.227957  0.960799  1
  O  O19  1  0.728206  0.704681  0.963251  1
