# generated using pymatgen
data_Mn4RhSe8
_symmetry_space_group_name_H-M   'P 1'
_cell_length_a   6.85681744
_cell_length_b   6.85681559
_cell_length_c   8.41775635
_cell_angle_alpha   55.04021548
_cell_angle_beta   55.04022764
_cell_angle_gamma   63.82414392
_symmetry_Int_Tables_number   1
_chemical_formula_structural   Mn4RhSe8
_chemical_formula_sum   'Mn4 Rh1 Se8'
_cell_volume   262.05049912
_cell_formula_units_Z   1
loop_
 _symmetry_equiv_pos_site_id
 _symmetry_equiv_pos_as_xyz
  1  'x, y, z'
loop_
 _atom_site_type_symbol
 _atom_site_label
 _atom_site_symmetry_multiplicity
 _atom_site_fract_x
 _atom_site_fract_y
 _atom_site_fract_z
 _atom_site_occupancy
  Mn  Mn0  1  0.003377  0.996623  0.000000  1
  Mn  Mn1  1  0.728063  0.730856  0.028331  1
  Mn  Mn2  1  0.269144  0.271937  0.971669  1
  Mn  Mn3  1  0.719749  0.280251  0.500000  1
  Rh  Rh4  1  0.272134  0.727866  0.500000  1
  Se  Se5  1  0.538467  0.036716  0.171172  1
  Se  Se6  1  0.464290  0.964433  0.830505  1
  Se  Se7  1  0.963284  0.461533  0.828828  1
  Se  Se8  1  0.035567  0.535710  0.169495  1
  Se  Se9  1  0.986967  0.985241  0.318313  1
  Se  Se10  1  0.014759  0.013033  0.681687  1
  Se  Se11  1  0.454655  0.450458  0.328824  1
  Se  Se12  1  0.549542  0.545345  0.671176  1
