# generated using pymatgen
data_Tb16MgAg2Hg(RuPt)2
_symmetry_space_group_name_H-M   'P 1'
_cell_length_a   9.67553442
_cell_length_b   9.67868147
_cell_length_c   9.65879600
_cell_angle_alpha   60.06794118
_cell_angle_beta   60.05721059
_cell_angle_gamma   60.16839759
_symmetry_Int_Tables_number   1
_chemical_formula_structural   Tb16MgAg2Hg(RuPt)2
_chemical_formula_sum   'Tb16 Mg1 Ag2 Hg1 Ru2 Pt2'
_cell_volume   641.00288214
_cell_formula_units_Z   1
loop_
 _symmetry_equiv_pos_site_id
 _symmetry_equiv_pos_as_xyz
  1  'x, y, z'
loop_
 _atom_site_type_symbol
 _atom_site_label
 _atom_site_symmetry_multiplicity
 _atom_site_fract_x
 _atom_site_fract_y
 _atom_site_fract_z
 _atom_site_occupancy
  Tb  Tb0  1  0.599753  0.597936  0.595724  1
  Tb  Tb1  1  0.599753  0.597936  0.206588  1
  Tb  Tb2  1  0.607177  0.198408  0.597207  1
  Tb  Tb3  1  0.184686  0.608936  0.603190  1
  Tb  Tb4  1  0.053857  0.440846  0.441033  1
  Tb  Tb5  1  0.436249  0.058678  0.066722  1
  Tb  Tb6  1  0.436249  0.058678  0.438350  1
  Tb  Tb7  1  0.053857  0.440846  0.064264  1
  Tb  Tb8  1  0.439249  0.438918  0.060916  1
  Tb  Tb9  1  0.060615  0.062481  0.438452  1
  Tb  Tb10  1  0.186425  0.815956  0.810767  1
  Tb  Tb11  1  0.816370  0.185646  0.186360  1
  Tb  Tb12  1  0.816370  0.185646  0.811624  1
  Tb  Tb13  1  0.186425  0.815956  0.186851  1
  Tb  Tb14  1  0.812587  0.812881  0.187266  1
  Tb  Tb15  1  0.185890  0.187632  0.813238  1
  Mg  Mg16  1  0.539660  0.820017  0.820161  1
  Ag  Ag17  1  0.832404  0.837244  0.835258  1
  Ag  Ag18  1  0.832404  0.837244  0.495091  1
  Hg  Hg19  1  0.832600  0.495855  0.835772  1
  Ru  Ru20  1  0.386432  0.826073  0.393747  1
  Ru  Ru21  1  0.824659  0.391028  0.392156  1
  Pt  Pt22  1  0.388162  0.392576  0.397023  1
  Pt  Pt23  1  0.388162  0.392576  0.822238  1
