# generated using pymatgen
data_Sr3EuBe4F16
_symmetry_space_group_name_H-M   'P 1'
_cell_length_a   8.27398502
_cell_length_b   5.48224446
_cell_length_c   8.68900300
_cell_angle_alpha   52.56063372
_cell_angle_beta   90.00301311
_cell_angle_gamma   89.99591128
_symmetry_Int_Tables_number   1
_chemical_formula_structural   Sr3EuBe4F16
_chemical_formula_sum   'Sr3 Eu1 Be4 F16'
_cell_volume   312.94066359
_cell_formula_units_Z   1
loop_
 _symmetry_equiv_pos_site_id
 _symmetry_equiv_pos_as_xyz
  1  'x, y, z'
loop_
 _atom_site_type_symbol
 _atom_site_label
 _atom_site_symmetry_multiplicity
 _atom_site_fract_x
 _atom_site_fract_y
 _atom_site_fract_z
 _atom_site_occupancy
  Sr  Sr0  1  0.806170  0.979782  0.827736  1
  Sr  Sr1  1  0.693759  0.979764  0.327745  1
  Sr  Sr2  1  0.193832  0.020236  0.172255  1
  Eu  Eu3  1  0.306196  0.020323  0.672221  1
  Be  Be4  1  0.956592  0.426308  0.318208  1
  Be  Be5  1  0.456768  0.573609  0.181858  1
  Be  Be6  1  0.043342  0.573561  0.681780  1
  Be  Be7  1  0.543260  0.426367  0.818227  1
  F  F8  1  0.084608  0.219493  0.821322  1
  F  F9  1  0.584775  0.780502  0.678706  1
  F  F10  1  0.915371  0.780515  0.178767  1
  F  F11  1  0.415382  0.219480  0.321112  1
  F  F12  1  0.376127  0.406570  0.906413  1
  F  F13  1  0.876165  0.593319  0.593659  1
  F  F14  1  0.623853  0.593276  0.093678  1
  F  F15  1  0.123815  0.406843  0.406255  1
  F  F16  1  0.180338  0.761336  0.529936  1
  F  F17  1  0.680352  0.238674  0.969934  1
  F  F18  1  0.819659  0.238662  0.469951  1
  F  F19  1  0.319564  0.761234  0.030205  1
  F  F20  1  0.036426  0.709509  0.797611  1
  F  F21  1  0.536685  0.290527  0.702488  1
  F  F22  1  0.963480  0.290354  0.202513  1
  F  F23  1  0.463480  0.709756  0.297420  1
