# generated using pymatgen
data_Cs4Al3GaH8
_symmetry_space_group_name_H-M   'P 1'
_cell_length_a   4.71985500
_cell_length_b   7.96397685
_cell_length_c   10.16160104
_cell_angle_alpha   90.27423671
_cell_angle_beta   90.00000000
_cell_angle_gamma   90.00000000
_symmetry_Int_Tables_number   1
_chemical_formula_structural   Cs4Al3GaH8
_chemical_formula_sum   'Cs4 Al3 Ga1 H8'
_cell_volume   381.95817623
_cell_formula_units_Z   1
loop_
 _symmetry_equiv_pos_site_id
 _symmetry_equiv_pos_as_xyz
  1  'x, y, z'
loop_
 _atom_site_type_symbol
 _atom_site_label
 _atom_site_symmetry_multiplicity
 _atom_site_fract_x
 _atom_site_fract_y
 _atom_site_fract_z
 _atom_site_occupancy
  Cs  Cs0  1  0.750000  0.378607  0.673898  1
  Cs  Cs1  1  0.750000  0.879459  0.825074  1
  Cs  Cs2  1  0.250000  0.120547  0.174361  1
  Cs  Cs3  1  0.250000  0.621367  0.326134  1
  Al  Al4  1  0.250000  0.061327  0.531907  1
  Al  Al5  1  0.250000  0.564091  0.966506  1
  Al  Al6  1  0.750000  0.435813  0.033399  1
  Ga  Ga7  1  0.750000  0.938770  0.468260  1
  H  H8  1  0.750000  0.736683  0.517876  1
  H  H9  1  0.250000  0.099156  0.695550  1
  H  H10  1  0.250000  0.600140  0.802876  1
  H  H11  1  0.750000  0.233089  0.981004  1
  H  H12  1  0.250000  0.766790  0.018828  1
  H  H13  1  0.750000  0.399662  0.196888  1
  H  H14  1  0.750000  0.900097  0.306238  1
  H  H15  1  0.250000  0.264402  0.481202  1
