# generated using pymatgen
data_Zr6Zn20Ni3S
_symmetry_space_group_name_H-M   'P 1'
_cell_length_a   8.69141943
_cell_length_b   8.69139251
_cell_length_c   8.73090103
_cell_angle_alpha   59.84947555
_cell_angle_beta   59.84922126
_cell_angle_gamma   60.30061543
_symmetry_Int_Tables_number   1
_chemical_formula_structural   Zr6Zn20Ni3S
_chemical_formula_sum   'Zr6 Zn20 Ni3 S1'
_cell_volume   466.34128612
_cell_formula_units_Z   1
loop_
 _symmetry_equiv_pos_site_id
 _symmetry_equiv_pos_as_xyz
  1  'x, y, z'
loop_
 _atom_site_type_symbol
 _atom_site_label
 _atom_site_symmetry_multiplicity
 _atom_site_fract_x
 _atom_site_fract_y
 _atom_site_fract_z
 _atom_site_occupancy
  Zr  Zr0  1  0.704048  0.295935  0.295945  1
  Zr  Zr1  1  0.295927  0.704056  0.704059  1
  Zr  Zr2  1  0.295930  0.704052  0.295948  1
  Zr  Zr3  1  0.704054  0.295928  0.704065  1
  Zr  Zr4  1  0.292099  0.292107  0.707887  1
  Zr  Zr5  1  0.707879  0.707888  0.292107  1
  Zn  Zn6  1  0.114028  0.114041  0.127664  1
  Zn  Zn7  1  0.885942  0.885945  0.872344  1
  Zn  Zn8  1  0.114039  0.114045  0.644245  1
  Zn  Zn9  1  0.127661  0.644238  0.114040  1
  Zn  Zn10  1  0.885941  0.885955  0.355751  1
  Zn  Zn11  1  0.872314  0.355758  0.885957  1
  Zn  Zn12  1  0.644226  0.127670  0.114046  1
  Zn  Zn13  1  0.355746  0.872322  0.885954  1
  Zn  Zn14  1  0.499986  0.999992  0.000002  1
  Zn  Zn15  1  0.999987  0.499997  0.499997  1
  Zn  Zn16  1  0.999982  0.499996  0.000003  1
  Zn  Zn17  1  0.499988  0.999997  0.499997  1
  Zn  Zn18  1  0.335908  0.335917  0.325736  1
  Zn  Zn19  1  0.664073  0.664080  0.674251  1
  Zn  Zn20  1  0.335903  0.335910  0.002420  1
  Zn  Zn21  1  0.325721  0.002419  0.335922  1
  Zn  Zn22  1  0.664063  0.664072  0.997580  1
  Zn  Zn23  1  0.674250  0.997572  0.664082  1
  Zn  Zn24  1  0.002410  0.325730  0.335923  1
  Zn  Zn25  1  0.997563  0.674260  0.664080  1
  Ni  Ni26  1  0.000255  0.000124  0.499715  1
  Ni  Ni27  1  0.500135  0.500236  0.000002  1
  Ni  Ni28  1  0.999975  0.999759  0.000288  1
  S  S29  1  0.499969  0.500000  0.499992  1
