# generated using pymatgen
data_Ho4Ti5Nb3Sn10
_symmetry_space_group_name_H-M   'P 1'
_cell_length_a   10.89761821
_cell_length_b   10.89761843
_cell_length_c   10.90392600
_cell_angle_alpha   149.12715243
_cell_angle_beta   131.73008643
_cell_angle_gamma   58.34435772
_symmetry_Int_Tables_number   1
_chemical_formula_structural   Ho4Ti5Nb3Sn10
_chemical_formula_sum   'Ho4 Ti5 Nb3 Sn10'
_cell_volume   492.21994165
_cell_formula_units_Z   1
loop_
 _symmetry_equiv_pos_site_id
 _symmetry_equiv_pos_as_xyz
  1  'x, y, z'
loop_
 _atom_site_type_symbol
 _atom_site_label
 _atom_site_symmetry_multiplicity
 _atom_site_fract_x
 _atom_site_fract_y
 _atom_site_fract_z
 _atom_site_occupancy
  Ho  Ho0  1  0.259818  0.146361  0.116296  1
  Ho  Ho1  1  0.742126  0.854199  0.886011  1
  Ho  Ho2  1  0.030064  0.643521  0.383704  1
  Ho  Ho3  1  0.968188  0.356113  0.613989  1
  Ti  Ti4  1  0.311356  0.061356  0.750000  1
  Ti  Ti5  1  0.675216  0.437308  0.240402  1
  Ti  Ti6  1  0.325845  0.563538  0.760811  1
  Ti  Ti7  1  0.196905  0.934813  0.259598  1
  Ti  Ti8  1  0.802727  0.065035  0.739189  1
  Nb  Nb9  1  0.310951  0.560951  0.250000  1
  Nb  Nb10  1  0.688717  0.438717  0.750000  1
  Nb  Nb11  1  0.689433  0.939433  0.250000  1
  Sn  Sn12  1  0.584237  0.289909  0.294756  1
  Sn  Sn13  1  0.414588  0.711595  0.704636  1
  Sn  Sn14  1  0.995154  0.789481  0.205244  1
  Sn  Sn15  1  0.006959  0.209952  0.795364  1
  Sn  Sn16  1  0.000064  0.250064  0.250000  1
  Sn  Sn17  1  0.000032  0.750032  0.750000  1
  Sn  Sn18  1  0.467722  0.064386  0.401785  1
  Sn  Sn19  1  0.530763  0.936707  0.600171  1
  Sn  Sn20  1  0.662601  0.565937  0.098215  1
  Sn  Sn21  1  0.336536  0.430593  0.899829  1
