# generated using pymatgen
data_RbMn3FeO8
_symmetry_space_group_name_H-M   'P 1'
_cell_length_a   7.24391993
_cell_length_b   7.24392002
_cell_length_c   10.04978790
_cell_angle_alpha   46.46176353
_cell_angle_beta   46.46176215
_cell_angle_gamma   23.78632499
_symmetry_Int_Tables_number   1
_chemical_formula_structural   RbMn3FeO8
_chemical_formula_sum   'Rb1 Mn3 Fe1 O8'
_cell_volume   151.06799494
_cell_formula_units_Z   1
loop_
 _symmetry_equiv_pos_site_id
 _symmetry_equiv_pos_as_xyz
  1  'x, y, z'
loop_
 _atom_site_type_symbol
 _atom_site_label
 _atom_site_symmetry_multiplicity
 _atom_site_fract_x
 _atom_site_fract_y
 _atom_site_fract_z
 _atom_site_occupancy
  Rb  Rb0  1  0.001008  0.001008  0.999882  1
  Mn  Mn1  1  0.847547  0.847547  0.816545  1
  Mn  Mn2  1  0.663595  0.663595  0.487659  1
  Mn  Mn3  1  0.331283  0.331283  0.517593  1
  Fe  Fe4  1  0.150538  0.150538  0.185944  1
  O  O5  1  0.333667  0.333667  0.706929  1
  O  O6  1  0.668032  0.668032  0.297154  1
  O  O7  1  0.951421  0.951421  0.381303  1
  O  O8  1  0.043607  0.043607  0.623741  1
  O  O9  1  0.353012  0.353012  0.936693  1
  O  O10  1  0.660443  0.660443  0.037609  1
  O  O11  1  0.702560  0.702560  0.644170  1
  O  O12  1  0.293285  0.293285  0.364779  1
