# generated using pymatgen
data_KYbVO4
_symmetry_space_group_name_H-M   'P 1'
_cell_length_a   5.72394000
_cell_length_b   7.21411500
_cell_length_c   9.62776800
_cell_angle_alpha   90.00000000
_cell_angle_beta   90.00000000
_cell_angle_gamma   90.00000000
_symmetry_Int_Tables_number   1
_chemical_formula_structural   KYbVO4
_chemical_formula_sum   'K4 Yb4 V4 O16'
_cell_volume   397.56097807
_cell_formula_units_Z   4
loop_
 _symmetry_equiv_pos_site_id
 _symmetry_equiv_pos_as_xyz
  1  'x, y, z'
loop_
 _atom_site_type_symbol
 _atom_site_label
 _atom_site_symmetry_multiplicity
 _atom_site_fract_x
 _atom_site_fract_y
 _atom_site_fract_z
 _atom_site_occupancy
  K  K0  1  0.485630  0.092651  0.578700  1
  K  K1  1  0.514370  0.592651  0.921300  1
  K  K2  1  0.014370  0.907349  0.078700  1
  K  K3  1  0.985630  0.407349  0.421300  1
  Yb  Yb4  1  0.982299  0.248915  0.799654  1
  Yb  Yb5  1  0.482299  0.251085  0.200346  1
  Yb  Yb6  1  0.517701  0.751085  0.299654  1
  Yb  Yb7  1  0.017701  0.748915  0.700346  1
  V  V8  1  0.477308  0.527549  0.582566  1
  V  V9  1  0.022692  0.472451  0.082566  1
  V  V10  1  0.977308  0.972451  0.417434  1
  V  V11  1  0.522692  0.027549  0.917434  1
  O  O12  1  0.510086  0.921988  0.080362  1
  O  O13  1  0.252945  0.560945  0.180543  1
  O  O14  1  0.247055  0.439055  0.680543  1
  O  O15  1  0.108563  0.246916  0.051682  1
  O  O16  1  0.752945  0.939055  0.819457  1
  O  O17  1  0.608563  0.253084  0.948318  1
  O  O18  1  0.759271  0.503103  0.173695  1
  O  O19  1  0.259271  0.996897  0.826305  1
  O  O20  1  0.989914  0.078012  0.580362  1
  O  O21  1  0.747055  0.060945  0.319457  1
  O  O22  1  0.010086  0.578012  0.919638  1
  O  O23  1  0.489914  0.421988  0.419638  1
  O  O24  1  0.240729  0.003103  0.326305  1
  O  O25  1  0.391437  0.753084  0.551682  1
  O  O26  1  0.740729  0.496897  0.673695  1
  O  O27  1  0.891437  0.746916  0.448318  1
