# generated using pymatgen
data_Hf5Sc(AlIr2)2
_symmetry_space_group_name_H-M   'P 1'
_cell_length_a   8.49283194
_cell_length_b   8.49283225
_cell_length_c   8.48386600
_cell_angle_alpha   60.03491756
_cell_angle_beta   60.03491638
_cell_angle_gamma   59.93017178
_symmetry_Int_Tables_number   1
_chemical_formula_structural   Hf5Sc(AlIr2)2
_chemical_formula_sum   'Hf10 Sc2 Al4 Ir8'
_cell_volume   432.69605007
_cell_formula_units_Z   2
loop_
 _symmetry_equiv_pos_site_id
 _symmetry_equiv_pos_as_xyz
  1  'x, y, z'
loop_
 _atom_site_type_symbol
 _atom_site_label
 _atom_site_symmetry_multiplicity
 _atom_site_fract_x
 _atom_site_fract_y
 _atom_site_fract_z
 _atom_site_occupancy
  Hf  Hf0  1  0.806486  0.193514  0.806486  1
  Hf  Hf1  1  0.193514  0.806486  0.193514  1
  Hf  Hf2  1  0.193514  0.806486  0.806486  1
  Hf  Hf3  1  0.806486  0.193514  0.193514  1
  Hf  Hf4  1  0.442331  0.442331  0.057669  1
  Hf  Hf5  1  0.057669  0.057669  0.442331  1
  Hf  Hf6  1  0.443813  0.056187  0.443813  1
  Hf  Hf7  1  0.056187  0.443813  0.056187  1
  Hf  Hf8  1  0.056187  0.443813  0.443813  1
  Hf  Hf9  1  0.443813  0.056187  0.056187  1
  Sc  Sc10  1  0.807230  0.807230  0.192770  1
  Sc  Sc11  1  0.192770  0.192770  0.807230  1
  Al  Al12  1  0.125618  0.622935  0.625724  1
  Al  Al13  1  0.622935  0.125618  0.625724  1
  Al  Al14  1  0.625724  0.625724  0.125618  1
  Al  Al15  1  0.625724  0.625724  0.622935  1
  Ir  Ir16  1  0.765094  0.410081  0.412412  1
  Ir  Ir17  1  0.410081  0.765094  0.412412  1
  Ir  Ir18  1  0.412412  0.412412  0.765094  1
  Ir  Ir19  1  0.412412  0.412412  0.410081  1
  Ir  Ir20  1  0.485988  0.835315  0.839349  1
  Ir  Ir21  1  0.835315  0.485988  0.839349  1
  Ir  Ir22  1  0.839349  0.839349  0.485988  1
  Ir  Ir23  1  0.839349  0.839349  0.835315  1
