# generated using pymatgen
data_Ce11Mg(SiRh)8
_symmetry_space_group_name_H-M   'P 1'
_cell_length_a   5.50347081
_cell_length_b   7.95335345
_cell_length_c   13.16894100
_cell_angle_alpha   90.00000000
_cell_angle_beta   90.00000000
_cell_angle_gamma   89.68013841
_symmetry_Int_Tables_number   1
_chemical_formula_structural   Ce11Mg(SiRh)8
_chemical_formula_sum   'Ce11 Mg1 Si8 Rh8'
_cell_volume   576.40937395
_cell_formula_units_Z   1
loop_
 _symmetry_equiv_pos_site_id
 _symmetry_equiv_pos_as_xyz
  1  'x, y, z'
loop_
 _atom_site_type_symbol
 _atom_site_label
 _atom_site_symmetry_multiplicity
 _atom_site_fract_x
 _atom_site_fract_y
 _atom_site_fract_z
 _atom_site_occupancy
  Ce  Ce0  1  0.852857  0.750993  0.250000  1
  Ce  Ce1  1  0.150958  0.254927  0.250000  1
  Ce  Ce2  1  0.839644  0.747600  0.750000  1
  Ce  Ce3  1  0.650633  0.390169  0.600600  1
  Ce  Ce4  1  0.352945  0.610105  0.098423  1
  Ce  Ce5  1  0.648054  0.105252  0.400666  1
  Ce  Ce6  1  0.350083  0.892537  0.896891  1
  Ce  Ce7  1  0.352945  0.610105  0.401577  1
  Ce  Ce8  1  0.650633  0.390169  0.899400  1
  Ce  Ce9  1  0.350083  0.892537  0.603109  1
  Ce  Ce10  1  0.648054  0.105252  0.099334  1
  Mg  Mg11  1  0.146784  0.251800  0.750000  1
  Si  Si12  1  0.159695  0.250226  0.501444  1
  Si  Si13  1  0.843184  0.750766  0.998850  1
  Si  Si14  1  0.843184  0.750766  0.501150  1
  Si  Si15  1  0.159695  0.250226  0.998556  1
  Si  Si16  1  0.652108  0.105594  0.750000  1
  Si  Si17  1  0.352781  0.899950  0.250000  1
  Si  Si18  1  0.643996  0.400513  0.250000  1
  Si  Si19  1  0.343787  0.591226  0.750000  1
  Rh  Rh20  1  0.885729  0.041744  0.595405  1
  Rh  Rh21  1  0.120534  0.963022  0.092899  1
  Rh  Rh22  1  0.881994  0.461213  0.405574  1
  Rh  Rh23  1  0.115692  0.533664  0.905162  1
  Rh  Rh24  1  0.120534  0.963022  0.407101  1
  Rh  Rh25  1  0.885729  0.041744  0.904595  1
  Rh  Rh26  1  0.115692  0.533664  0.594838  1
  Rh  Rh27  1  0.881994  0.461213  0.094426  1
