# generated using pymatgen
data_ThMg2Cu9
_symmetry_space_group_name_H-M   'P 1'
_cell_length_a   5.08014000
_cell_length_b   5.07972922
_cell_length_c   16.05795900
_cell_angle_alpha   90.00000000
_cell_angle_beta   90.00000000
_cell_angle_gamma   120.00248241
_symmetry_Int_Tables_number   1
_chemical_formula_structural   ThMg2Cu9
_chemical_formula_sum   'Th2 Mg4 Cu18'
_cell_volume   358.86107629
_cell_formula_units_Z   2
loop_
 _symmetry_equiv_pos_site_id
 _symmetry_equiv_pos_as_xyz
  1  'x, y, z'
loop_
 _atom_site_type_symbol
 _atom_site_label
 _atom_site_symmetry_multiplicity
 _atom_site_fract_x
 _atom_site_fract_y
 _atom_site_fract_z
 _atom_site_occupancy
  Th  Th0  1  0.666671  0.333340  0.250000  1
  Th  Th1  1  0.333329  0.666660  0.750000  1
  Mg  Mg2  1  0.666678  0.333346  0.468775  1
  Mg  Mg3  1  0.333322  0.666654  0.968775  1
  Mg  Mg4  1  0.666678  0.333346  0.031225  1
  Mg  Mg5  1  0.333322  0.666654  0.531225  1
  Cu  Cu6  1  0.333332  0.666673  0.250000  1
  Cu  Cu7  1  0.666668  0.333327  0.750000  1
  Cu  Cu8  1  0.167908  0.832113  0.377799  1
  Cu  Cu9  1  0.167902  0.335799  0.377798  1
  Cu  Cu10  1  0.999990  0.999999  0.750000  1
  Cu  Cu11  1  0.000010  0.000001  0.250000  1
  Cu  Cu12  1  0.000000  0.000000  0.000000  1
  Cu  Cu13  1  0.000000  0.000000  0.500000  1
  Cu  Cu14  1  0.167902  0.335799  0.122202  1
  Cu  Cu15  1  0.832092  0.167887  0.622201  1
  Cu  Cu16  1  0.335789  0.167887  0.622203  1
  Cu  Cu17  1  0.664211  0.832113  0.122203  1
  Cu  Cu18  1  0.167908  0.832113  0.122201  1
  Cu  Cu19  1  0.832098  0.664201  0.877798  1
  Cu  Cu20  1  0.832092  0.167887  0.877799  1
  Cu  Cu21  1  0.832098  0.664201  0.622202  1
  Cu  Cu22  1  0.335789  0.167887  0.877797  1
  Cu  Cu23  1  0.664211  0.832113  0.377797  1
