# generated using pymatgen
data_YbSmB5Os3
_symmetry_space_group_name_H-M   'P 1'
_cell_length_a   5.64678277
_cell_length_b   5.61553149
_cell_length_c   8.13134343
_cell_angle_alpha   56.94270483
_cell_angle_beta   57.23941716
_cell_angle_gamma   42.24593889
_symmetry_Int_Tables_number   1
_chemical_formula_structural   YbSmB5Os3
_chemical_formula_sum   'Yb1 Sm1 B5 Os3'
_cell_volume   140.90890883
_cell_formula_units_Z   1
loop_
 _symmetry_equiv_pos_site_id
 _symmetry_equiv_pos_as_xyz
  1  'x, y, z'
loop_
 _atom_site_type_symbol
 _atom_site_label
 _atom_site_symmetry_multiplicity
 _atom_site_fract_x
 _atom_site_fract_y
 _atom_site_fract_z
 _atom_site_occupancy
  Yb  Yb0  1  0.068759  0.603221  0.260656  1
  Sm  Sm1  1  0.387114  0.933662  0.746660  1
  B  B2  1  0.733351  0.263711  0.003667  1
  B  B3  1  0.529755  0.515500  0.381789  1
  B  B4  1  0.484067  0.477092  0.615571  1
  B  B5  1  0.083824  0.624338  0.808644  1
  B  B6  1  0.375943  0.916576  0.188298  1
  Os  Os7  1  0.012253  0.986351  0.497087  1
  Os  Os8  1  0.615805  0.125407  0.899229  1
  Os  Os9  1  0.875400  0.387871  0.098399  1
