# generated using pymatgen
data_Lu2ZrSc(Al3Rh)6
_symmetry_space_group_name_H-M   'P 1'
_cell_length_a   7.49413304
_cell_length_b   7.49215891
_cell_length_c   9.33984100
_cell_angle_alpha   90.00000000
_cell_angle_beta   90.00000000
_cell_angle_gamma   119.54909293
_symmetry_Int_Tables_number   1
_chemical_formula_structural   Lu2ZrSc(Al3Rh)6
_chemical_formula_sum   'Lu2 Zr1 Sc1 Al18 Rh6'
_cell_volume   456.19854221
_cell_formula_units_Z   1
loop_
 _symmetry_equiv_pos_site_id
 _symmetry_equiv_pos_as_xyz
  1  'x, y, z'
loop_
 _atom_site_type_symbol
 _atom_site_label
 _atom_site_symmetry_multiplicity
 _atom_site_fract_x
 _atom_site_fract_y
 _atom_site_fract_z
 _atom_site_occupancy
  Lu  Lu0  1  0.006442  0.325861  0.750000  1
  Lu  Lu1  1  0.327559  0.007476  0.750000  1
  Zr  Zr2  1  0.995904  0.672042  0.250000  1
  Sc  Sc3  1  0.672804  0.996164  0.250000  1
  Al  Al4  1  0.121195  0.120201  0.250000  1
  Al  Al5  1  0.870030  0.869638  0.750000  1
  Al  Al6  1  0.996758  0.334944  0.081371  1
  Al  Al7  1  0.000193  0.664397  0.926704  1
  Al  Al8  1  0.000193  0.664397  0.573296  1
  Al  Al9  1  0.335736  0.997541  0.418492  1
  Al  Al10  1  0.996758  0.334944  0.418629  1
  Al  Al11  1  0.664092  0.999408  0.573573  1
  Al  Al12  1  0.664092  0.999408  0.926427  1
  Al  Al13  1  0.335736  0.997541  0.081508  1
  Al  Al14  1  0.333570  0.333693  0.549219  1
  Al  Al15  1  0.670115  0.670437  0.441079  1
  Al  Al16  1  0.670115  0.670437  0.058921  1
  Al  Al17  1  0.333570  0.333693  0.950781  1
  Al  Al18  1  0.339051  0.556536  0.250000  1
  Al  Al19  1  0.659810  0.449132  0.750000  1
  Al  Al20  1  0.558235  0.342571  0.250000  1
  Al  Al21  1  0.448200  0.659271  0.750000  1
  Rh  Rh22  1  0.673132  0.327780  0.000868  1
  Rh  Rh23  1  0.327127  0.672909  0.001714  1
  Rh  Rh24  1  0.327127  0.672909  0.498286  1
  Rh  Rh25  1  0.673132  0.327780  0.499132  1
  Rh  Rh26  1  0.999662  0.999446  0.000578  1
  Rh  Rh27  1  0.999662  0.999446  0.499422  1
