# generated using pymatgen
data_TbYb5(DyRu)4
_symmetry_space_group_name_H-M   'P 1'
_cell_length_a   8.52208442
_cell_length_b   8.49160499
_cell_length_c   7.39069764
_cell_angle_alpha   83.36693861
_cell_angle_beta   83.58281195
_cell_angle_gamma   43.72395413
_symmetry_Int_Tables_number   1
_chemical_formula_structural   TbYb5(DyRu)4
_chemical_formula_sum   'Tb1 Yb5 Dy4 Ru4'
_cell_volume   366.88442528
_cell_formula_units_Z   1
loop_
 _symmetry_equiv_pos_site_id
 _symmetry_equiv_pos_as_xyz
  1  'x, y, z'
loop_
 _atom_site_type_symbol
 _atom_site_label
 _atom_site_symmetry_multiplicity
 _atom_site_fract_x
 _atom_site_fract_y
 _atom_site_fract_z
 _atom_site_occupancy
  Tb  Tb0  1  0.196128  0.974267  0.587294  1
  Yb  Yb1  1  0.021749  0.796267  0.918413  1
  Yb  Yb2  1  0.203233  0.365011  0.317249  1
  Yb  Yb3  1  0.633028  0.799841  0.184255  1
  Yb  Yb4  1  0.803697  0.627608  0.679166  1
  Yb  Yb5  1  0.370404  0.196655  0.820625  1
  Dy  Dy6  1  0.971441  0.196993  0.081081  1
  Dy  Dy7  1  0.796254  0.030015  0.418214  1
  Dy  Dy8  1  0.567782  0.430514  0.752449  1
  Dy  Dy9  1  0.420967  0.579944  0.247550  1
  Ru  Ru10  1  0.178702  0.618119  0.570777  1
  Ru  Ru11  1  0.393334  0.827065  0.918999  1
  Ru  Ru12  1  0.824110  0.376449  0.422601  1
  Ru  Ru13  1  0.619169  0.181254  0.081327  1
