# generated using pymatgen
data_Zr2BeB3
_symmetry_space_group_name_H-M   'P 1'
_cell_length_a   3.28552400
_cell_length_b   3.51626800
_cell_length_c   5.72399900
_cell_angle_alpha   90.00000000
_cell_angle_beta   90.00000000
_cell_angle_gamma   90.00000000
_symmetry_Int_Tables_number   1
_chemical_formula_structural   Zr2BeB3
_chemical_formula_sum   'Zr2 Be1 B3'
_cell_volume   66.12811779
_cell_formula_units_Z   1
loop_
 _symmetry_equiv_pos_site_id
 _symmetry_equiv_pos_as_xyz
  1  'x, y, z'
loop_
 _atom_site_type_symbol
 _atom_site_label
 _atom_site_symmetry_multiplicity
 _atom_site_fract_x
 _atom_site_fract_y
 _atom_site_fract_z
 _atom_site_occupancy
  Zr  Zr0  1  0.000000  0.000000  0.004331  1
  Zr  Zr1  1  0.500000  0.000000  0.494393  1
  Be  Be2  1  0.000000  0.500000  0.668465  1
  B  B3  1  0.500000  0.500000  0.162853  1
  B  B4  1  0.500000  0.500000  0.846318  1
  B  B5  1  0.000000  0.500000  0.323639  1
