# generated using pymatgen
data_Sc2(Ga3Rh)3
_symmetry_space_group_name_H-M   'P 1'
_cell_length_a   7.48210597
_cell_length_b   7.48210619
_cell_length_c   9.41366600
_cell_angle_alpha   90.00000000
_cell_angle_beta   90.00000000
_cell_angle_gamma   120.03034245
_symmetry_Int_Tables_number   1
_chemical_formula_structural   Sc2(Ga3Rh)3
_chemical_formula_sum   'Sc4 Ga18 Rh6'
_cell_volume   456.25146562
_cell_formula_units_Z   2
loop_
 _symmetry_equiv_pos_site_id
 _symmetry_equiv_pos_as_xyz
  1  'x, y, z'
loop_
 _atom_site_type_symbol
 _atom_site_label
 _atom_site_symmetry_multiplicity
 _atom_site_fract_x
 _atom_site_fract_y
 _atom_site_fract_z
 _atom_site_occupancy
  Sc  Sc0  1  0.998751  0.667762  0.250000  1
  Sc  Sc1  1  0.001249  0.332238  0.750000  1
  Sc  Sc2  1  0.667762  0.998751  0.250000  1
  Sc  Sc3  1  0.332238  0.001249  0.750000  1
  Ga  Ga4  1  0.329387  0.329388  0.569998  1
  Ga  Ga5  1  0.670612  0.670613  0.430002  1
  Ga  Ga6  1  0.670612  0.670613  0.069998  1
  Ga  Ga7  1  0.329387  0.329388  0.930002  1
  Ga  Ga8  1  0.340489  0.552436  0.250000  1
  Ga  Ga9  1  0.659511  0.447564  0.750000  1
  Ga  Ga10  1  0.552436  0.340489  0.250000  1
  Ga  Ga11  1  0.447564  0.659511  0.750000  1
  Ga  Ga12  1  0.996965  0.334370  0.083786  1
  Ga  Ga13  1  0.003035  0.665630  0.916214  1
  Ga  Ga14  1  0.003035  0.665630  0.583786  1
  Ga  Ga15  1  0.334370  0.996965  0.416214  1
  Ga  Ga16  1  0.996965  0.334370  0.416214  1
  Ga  Ga17  1  0.665630  0.003035  0.583786  1
  Ga  Ga18  1  0.665630  0.003035  0.916214  1
  Ga  Ga19  1  0.334370  0.996965  0.083786  1
  Ga  Ga20  1  0.118428  0.118428  0.250000  1
  Ga  Ga21  1  0.881572  0.881572  0.750000  1
  Rh  Rh22  1  0.000000  0.000000  0.000000  1
  Rh  Rh23  1  0.000000  0.000000  0.500000  1
  Rh  Rh24  1  0.671545  0.328455  0.000000  1
  Rh  Rh25  1  0.328455  0.671545  0.000000  1
  Rh  Rh26  1  0.328455  0.671545  0.500000  1
  Rh  Rh27  1  0.671545  0.328455  0.500000  1
