# generated using pymatgen
data_Dy3Er7Pb8
_symmetry_space_group_name_H-M   'P 1'
_cell_length_a   8.17249700
_cell_length_b   8.23653779
_cell_length_c   15.56193346
_cell_angle_alpha   90.04988740
_cell_angle_beta   90.00000000
_cell_angle_gamma   90.00000000
_symmetry_Int_Tables_number   1
_chemical_formula_structural   Dy3Er7Pb8
_chemical_formula_sum   'Dy6 Er14 Pb16'
_cell_volume   1047.52128057
_cell_formula_units_Z   2
loop_
 _symmetry_equiv_pos_site_id
 _symmetry_equiv_pos_as_xyz
  1  'x, y, z'
loop_
 _atom_site_type_symbol
 _atom_site_label
 _atom_site_symmetry_multiplicity
 _atom_site_fract_x
 _atom_site_fract_y
 _atom_site_fract_z
 _atom_site_occupancy
  Dy  Dy0  1  0.463288  0.676208  0.400228  1
  Dy  Dy1  1  0.963288  0.823792  0.099772  1
  Dy  Dy2  1  0.462995  0.675851  0.099484  1
  Dy  Dy3  1  0.962995  0.824149  0.400516  1
  Dy  Dy4  1  0.536439  0.323760  0.599531  1
  Dy  Dy5  1  0.036439  0.176240  0.900469  1
  Er  Er6  1  0.376823  0.842142  0.878321  1
  Er  Er7  1  0.876823  0.657858  0.621679  1
  Er  Er8  1  0.622788  0.158016  0.378746  1
  Er  Er9  1  0.122788  0.341984  0.121254  1
  Er  Er10  1  0.622712  0.158169  0.121057  1
  Er  Er11  1  0.122712  0.341831  0.378943  1
  Er  Er12  1  0.377068  0.842296  0.621746  1
  Er  Er13  1  0.877068  0.657704  0.878254  1
  Er  Er14  1  0.538055  0.324256  0.899666  1
  Er  Er15  1  0.038055  0.175744  0.600334  1
  Er  Er16  1  0.209192  0.504766  0.750035  1
  Er  Er17  1  0.709192  0.995234  0.749965  1
  Er  Er18  1  0.790934  0.495197  0.249867  1
  Er  Er19  1  0.290934  0.004803  0.250133  1
  Pb  Pb20  1  0.281508  0.034071  0.042841  1
  Pb  Pb21  1  0.781508  0.465929  0.457159  1
  Pb  Pb22  1  0.718702  0.966574  0.543020  1
  Pb  Pb23  1  0.218702  0.533426  0.956980  1
  Pb  Pb24  1  0.717212  0.965556  0.957152  1
  Pb  Pb25  1  0.217212  0.534444  0.542848  1
  Pb  Pb26  1  0.281557  0.034908  0.457921  1
  Pb  Pb27  1  0.781557  0.465092  0.042079  1
  Pb  Pb28  1  0.572062  0.625957  0.749822  1
  Pb  Pb29  1  0.072062  0.874043  0.750178  1
  Pb  Pb30  1  0.428098  0.373118  0.250002  1
  Pb  Pb31  1  0.928098  0.126882  0.249998  1
  Pb  Pb32  1  0.348910  0.154667  0.750121  1
  Pb  Pb33  1  0.848910  0.345333  0.749879  1
  Pb  Pb34  1  0.651657  0.845819  0.249579  1
  Pb  Pb35  1  0.151657  0.654181  0.250421  1
