# generated using pymatgen
data_Tm20FeBi8Sb3
_symmetry_space_group_name_H-M   'P 1'
_cell_length_a   8.08744602
_cell_length_b   9.32412500
_cell_length_c   11.84638706
_cell_angle_alpha   90.00000000
_cell_angle_beta   90.00976747
_cell_angle_gamma   90.00000000
_symmetry_Int_Tables_number   1
_chemical_formula_structural   Tm20FeBi8Sb3
_chemical_formula_sum   'Tm20 Fe1 Bi8 Sb3'
_cell_volume   893.31657887
_cell_formula_units_Z   1
loop_
 _symmetry_equiv_pos_site_id
 _symmetry_equiv_pos_as_xyz
  1  'x, y, z'
loop_
 _atom_site_type_symbol
 _atom_site_label
 _atom_site_symmetry_multiplicity
 _atom_site_fract_x
 _atom_site_fract_y
 _atom_site_fract_z
 _atom_site_occupancy
  Tm  Tm0  1  0.820202  0.978337  0.058644  1
  Tm  Tm1  1  0.311034  0.063240  0.435047  1
  Tm  Tm2  1  0.169719  0.426928  0.941729  1
  Tm  Tm3  1  0.685168  0.562937  0.563545  1
  Tm  Tm4  1  0.169719  0.073072  0.941729  1
  Tm  Tm5  1  0.685168  0.937063  0.563545  1
  Tm  Tm6  1  0.820202  0.521663  0.058644  1
  Tm  Tm7  1  0.311034  0.436760  0.435047  1
  Tm  Tm8  1  0.544752  0.250000  0.996070  1
  Tm  Tm9  1  0.021577  0.750000  0.506611  1
  Tm  Tm10  1  0.487218  0.750000  0.006468  1
  Tm  Tm11  1  0.973326  0.250000  0.498520  1
  Tm  Tm12  1  0.184874  0.750000  0.227431  1
  Tm  Tm13  1  0.687590  0.250000  0.267339  1
  Tm  Tm14  1  0.842893  0.250000  0.802356  1
  Tm  Tm15  1  0.324316  0.750000  0.724369  1
  Tm  Tm16  1  0.659803  0.750000  0.288481  1
  Tm  Tm17  1  0.120580  0.250000  0.198324  1
  Tm  Tm18  1  0.342473  0.250000  0.707435  1
  Tm  Tm19  1  0.844783  0.750000  0.789052  1
  Fe  Fe20  1  0.911085  0.250000  0.020365  1
  Bi  Bi21  1  0.936629  0.987509  0.327988  1
  Bi  Bi22  1  0.432248  0.012394  0.175991  1
  Bi  Bi23  1  0.064104  0.492565  0.675045  1
  Bi  Bi24  1  0.558939  0.508190  0.822076  1
  Bi  Bi25  1  0.064104  0.007435  0.675045  1
  Bi  Bi26  1  0.558939  0.991810  0.822076  1
  Bi  Bi27  1  0.936629  0.512491  0.327988  1
  Bi  Bi28  1  0.432248  0.487606  0.175991  1
  Sb  Sb29  1  0.397696  0.750000  0.469360  1
  Sb  Sb30  1  0.102552  0.750000  0.975503  1
  Sb  Sb31  1  0.598394  0.250000  0.522189  1
