# generated using pymatgen
data_Dy2Er4TaCo17P12
_symmetry_space_group_name_H-M   'P 1'
_cell_length_a   3.69066400
_cell_length_b   10.55087800
_cell_length_c   12.23947500
_cell_angle_alpha   90.00000000
_cell_angle_beta   90.00000000
_cell_angle_gamma   90.00000000
_symmetry_Int_Tables_number   1
_chemical_formula_structural   Dy2Er4TaCo17P12
_chemical_formula_sum   'Dy2 Er4 Ta1 Co17 P12'
_cell_volume   476.60204281
_cell_formula_units_Z   1
loop_
 _symmetry_equiv_pos_site_id
 _symmetry_equiv_pos_as_xyz
  1  'x, y, z'
loop_
 _atom_site_type_symbol
 _atom_site_label
 _atom_site_symmetry_multiplicity
 _atom_site_fract_x
 _atom_site_fract_y
 _atom_site_fract_z
 _atom_site_occupancy
  Dy  Dy0  1  0.000000  0.500000  0.526820  1
  Dy  Dy1  1  0.500000  0.000000  0.477629  1
  Er  Er2  1  0.500000  0.819967  0.207117  1
  Er  Er3  1  0.500000  0.180033  0.207117  1
  Er  Er4  1  0.000000  0.682724  0.795996  1
  Er  Er5  1  0.000000  0.317276  0.795996  1
  Ta  Ta6  1  0.500000  0.500000  0.154363  1
  Co  Co7  1  0.000000  0.000000  0.838741  1
  Co  Co8  1  0.500000  0.500000  0.702346  1
  Co  Co9  1  0.000000  0.000000  0.296299  1
  Co  Co10  1  0.000000  0.500000  0.984963  1
  Co  Co11  1  0.500000  0.000000  0.014568  1
  Co  Co12  1  0.500000  0.330089  0.989886  1
  Co  Co13  1  0.500000  0.669911  0.989886  1
  Co  Co14  1  0.000000  0.164017  0.004079  1
  Co  Co15  1  0.000000  0.835983  0.004079  1
  Co  Co16  1  0.500000  0.295301  0.432398  1
  Co  Co17  1  0.500000  0.704699  0.432398  1
  Co  Co18  1  0.000000  0.202472  0.569933  1
  Co  Co19  1  0.000000  0.797528  0.569933  1
  Co  Co20  1  0.500000  0.879363  0.708568  1
  Co  Co21  1  0.500000  0.120637  0.708568  1
  Co  Co22  1  0.000000  0.622715  0.293037  1
  Co  Co23  1  0.000000  0.377285  0.293037  1
  P  P24  1  0.500000  0.500000  0.880081  1
  P  P25  1  0.000000  0.000000  0.117713  1
  P  P26  1  0.500000  0.500000  0.356148  1
  P  P27  1  0.000000  0.000000  0.655899  1
  P  P28  1  0.500000  0.309845  0.617567  1
  P  P29  1  0.500000  0.690155  0.617567  1
  P  P30  1  0.000000  0.188306  0.385210  1
  P  P31  1  0.000000  0.811694  0.385210  1
  P  P32  1  0.500000  0.850808  0.889743  1
  P  P33  1  0.500000  0.149192  0.889743  1
  P  P34  1  0.000000  0.661672  0.103681  1
  P  P35  1  0.000000  0.338328  0.103681  1
