# generated using pymatgen
data_La12Nd2TcNi5
_symmetry_space_group_name_H-M   'P 1'
_cell_length_a   10.07644188
_cell_length_b   9.92676170
_cell_length_c   6.52839061
_cell_angle_alpha   89.88921626
_cell_angle_beta   90.94014954
_cell_angle_gamma   119.67903523
_symmetry_Int_Tables_number   1
_chemical_formula_structural   La12Nd2TcNi5
_chemical_formula_sum   'La12 Nd2 Tc1 Ni5'
_cell_volume   567.25406793
_cell_formula_units_Z   1
loop_
 _symmetry_equiv_pos_site_id
 _symmetry_equiv_pos_as_xyz
  1  'x, y, z'
loop_
 _atom_site_type_symbol
 _atom_site_label
 _atom_site_symmetry_multiplicity
 _atom_site_fract_x
 _atom_site_fract_y
 _atom_site_fract_z
 _atom_site_occupancy
  La  La0  1  0.870922  0.128234  0.497992  1
  La  La1  1  0.743029  0.870365  0.001836  1
  La  La2  1  0.869091  0.746532  0.502393  1
  La  La3  1  0.077431  0.538661  0.316873  1
  La  La4  1  0.130477  0.879962  0.005447  1
  La  La5  1  0.543205  0.077651  0.815508  1
  La  La6  1  0.928169  0.462895  0.817282  1
  La  La7  1  0.668443  0.335039  0.276355  1
  La  La8  1  0.459926  0.923996  0.313285  1
  La  La9  1  0.246410  0.124273  0.503334  1
  La  La10  1  0.538460  0.460509  0.813465  1
  La  La11  1  0.132578  0.251782  0.003922  1
  Nd  Nd12  1  0.458541  0.535164  0.309110  1
  Nd  Nd13  1  0.332685  0.666328  0.778552  1
  Tc  Tc14  1  0.367457  0.183280  0.048393  1
  Ni  Ni15  1  0.183547  0.808025  0.548160  1
  Ni  Ni16  1  0.816364  0.628478  0.047834  1
  Ni  Ni17  1  0.187406  0.376175  0.547362  1
  Ni  Ni18  1  0.820002  0.190844  0.048837  1
  Ni  Ni19  1  0.625860  0.811806  0.546061  1
