# generated using pymatgen
data_LiLa7TbRh6
_symmetry_space_group_name_H-M   'P 1'
_cell_length_a   7.63416319
_cell_length_b   7.63416403
_cell_length_c   7.63416506
_cell_angle_alpha   71.17884465
_cell_angle_beta   71.17883810
_cell_angle_gamma   71.17884751
_symmetry_Int_Tables_number   1
_chemical_formula_structural   LiLa7TbRh6
_chemical_formula_sum   'Li1 La7 Tb1 Rh6'
_cell_volume   386.57456206
_cell_formula_units_Z   1
loop_
 _symmetry_equiv_pos_site_id
 _symmetry_equiv_pos_as_xyz
  1  'x, y, z'
loop_
 _atom_site_type_symbol
 _atom_site_label
 _atom_site_symmetry_multiplicity
 _atom_site_fract_x
 _atom_site_fract_y
 _atom_site_fract_z
 _atom_site_occupancy
  Li  Li0  1  0.998553  0.998553  0.998553  1
  La  La1  1  0.192887  0.192887  0.192887  1
  La  La2  1  0.151189  0.382824  0.678603  1
  La  La3  1  0.678603  0.151189  0.382824  1
  La  La4  1  0.382824  0.678603  0.151189  1
  La  La5  1  0.844977  0.623078  0.320959  1
  La  La6  1  0.320959  0.844977  0.623078  1
  La  La7  1  0.623078  0.320959  0.844977  1
  Tb  Tb8  1  0.809612  0.809612  0.809612  1
  Rh  Rh9  1  0.955030  0.170983  0.581987  1
  Rh  Rh10  1  0.581987  0.955030  0.170983  1
  Rh  Rh11  1  0.170983  0.581987  0.955030  1
  Rh  Rh12  1  0.043485  0.821053  0.424778  1
  Rh  Rh13  1  0.424778  0.043485  0.821053  1
  Rh  Rh14  1  0.821053  0.424778  0.043485  1
