# generated using pymatgen
data_YMn4CoP3
_symmetry_space_group_name_H-M   'P 1'
_cell_length_a   3.60262100
_cell_length_b   10.54607200
_cell_length_c   12.18175400
_cell_angle_alpha   90.00000000
_cell_angle_beta   90.00000000
_cell_angle_gamma   90.00000000
_symmetry_Int_Tables_number   1
_chemical_formula_structural   YMn4CoP3
_chemical_formula_sum   'Y4 Mn16 Co4 P12'
_cell_volume   462.82747614
_cell_formula_units_Z   4
loop_
 _symmetry_equiv_pos_site_id
 _symmetry_equiv_pos_as_xyz
  1  'x, y, z'
loop_
 _atom_site_type_symbol
 _atom_site_label
 _atom_site_symmetry_multiplicity
 _atom_site_fract_x
 _atom_site_fract_y
 _atom_site_fract_z
 _atom_site_occupancy
  Y  Y0  1  0.250000  0.916007  0.207835  1
  Y  Y1  1  0.750000  0.083993  0.792165  1
  Y  Y2  1  0.750000  0.416007  0.292165  1
  Y  Y3  1  0.250000  0.583993  0.707835  1
  Mn  Mn4  1  0.250000  0.787761  0.488867  1
  Mn  Mn5  1  0.750000  0.212239  0.511133  1
  Mn  Mn6  1  0.750000  0.287761  0.011133  1
  Mn  Mn7  1  0.250000  0.712239  0.988867  1
  Mn  Mn8  1  0.250000  0.092888  0.992856  1
  Mn  Mn9  1  0.750000  0.907112  0.007144  1
  Mn  Mn10  1  0.750000  0.592888  0.507144  1
  Mn  Mn11  1  0.250000  0.407112  0.492856  1
  Mn  Mn12  1  0.250000  0.283440  0.676300  1
  Mn  Mn13  1  0.750000  0.716560  0.323700  1
  Mn  Mn14  1  0.750000  0.783440  0.823700  1
  Mn  Mn15  1  0.250000  0.216560  0.176300  1
  Mn  Mn16  1  0.250000  0.621679  0.197896  1
  Mn  Mn17  1  0.750000  0.378321  0.802104  1
  Mn  Mn18  1  0.750000  0.121679  0.302104  1
  Mn  Mn19  1  0.250000  0.878321  0.697896  1
  Co  Co20  1  0.250000  0.035301  0.433904  1
  Co  Co21  1  0.750000  0.964699  0.566096  1
  Co  Co22  1  0.750000  0.535301  0.066096  1
  Co  Co23  1  0.250000  0.464699  0.933904  1
  P  P24  1  0.250000  0.079583  0.611323  1
  P  P25  1  0.750000  0.920417  0.388677  1
  P  P26  1  0.750000  0.579583  0.888677  1
  P  P27  1  0.250000  0.420417  0.111323  1
  P  P28  1  0.250000  0.233283  0.371812  1
  P  P29  1  0.750000  0.766717  0.628188  1
  P  P30  1  0.750000  0.733283  0.128188  1
  P  P31  1  0.250000  0.266717  0.871812  1
  P  P32  1  0.250000  0.906108  0.886926  1
  P  P33  1  0.750000  0.093892  0.113074  1
  P  P34  1  0.750000  0.406108  0.613074  1
  P  P35  1  0.250000  0.593892  0.386926  1
