# generated using pymatgen
data_Sc12AlTcNi4
_symmetry_space_group_name_H-M   'P 1'
_cell_length_a   7.72898501
_cell_length_b   7.72898463
_cell_length_c   7.72898379
_cell_angle_alpha   111.25015757
_cell_angle_beta   110.29796597
_cell_angle_gamma   106.89729273
_symmetry_Int_Tables_number   1
_chemical_formula_structural   Sc12AlTcNi4
_chemical_formula_sum   'Sc12 Al1 Tc1 Ni4'
_cell_volume   354.86227811
_cell_formula_units_Z   1
loop_
 _symmetry_equiv_pos_site_id
 _symmetry_equiv_pos_as_xyz
  1  'x, y, z'
loop_
 _atom_site_type_symbol
 _atom_site_label
 _atom_site_symmetry_multiplicity
 _atom_site_fract_x
 _atom_site_fract_y
 _atom_site_fract_z
 _atom_site_occupancy
  Sc  Sc0  1  0.424156  0.230649  0.193507  1
  Sc  Sc1  1  0.575844  0.769351  0.806493  1
  Sc  Sc2  1  0.037142  0.230649  0.806493  1
  Sc  Sc3  1  0.962858  0.769351  0.193507  1
  Sc  Sc4  1  0.183032  0.276217  0.459249  1
  Sc  Sc5  1  0.816968  0.723783  0.540751  1
  Sc  Sc6  1  0.183032  0.723783  0.906815  1
  Sc  Sc7  1  0.816968  0.276217  0.093185  1
  Sc  Sc8  1  0.322345  0.619538  0.297193  1
  Sc  Sc9  1  0.677655  0.380462  0.702807  1
  Sc  Sc10  1  0.322345  0.025153  0.702807  1
  Sc  Sc11  1  0.677655  0.974847  0.297193  1
  Al  Al12  1  0.500000  0.500000  0.000000  1
  Tc  Tc13  1  0.000000  0.000000  0.000000  1
  Ni  Ni14  1  0.354427  0.000000  0.354427  1
  Ni  Ni15  1  0.645573  0.000000  0.645573  1
  Ni  Ni16  1  0.124639  0.624639  0.500000  1
  Ni  Ni17  1  0.875361  0.375361  0.500000  1
