# generated using pymatgen
data_Mn2Si3Pb4SO15
_symmetry_space_group_name_H-M   'P 1'
_cell_length_a   11.63507054
_cell_length_b   5.37414400
_cell_length_c   12.88713886
_cell_angle_alpha   90.00000000
_cell_angle_beta   108.75811313
_cell_angle_gamma   90.00000000
_symmetry_Int_Tables_number   1
_chemical_formula_structural   Mn2Si3Pb4SO15
_chemical_formula_sum   'Mn4 Si6 Pb8 S2 O30'
_cell_volume   763.01290431
_cell_formula_units_Z   2
loop_
 _symmetry_equiv_pos_site_id
 _symmetry_equiv_pos_as_xyz
  1  'x, y, z'
loop_
 _atom_site_type_symbol
 _atom_site_label
 _atom_site_symmetry_multiplicity
 _atom_site_fract_x
 _atom_site_fract_y
 _atom_site_fract_z
 _atom_site_occupancy
  Mn  Mn0  1  0.136680  0.978371  0.112891  1
  Mn  Mn1  1  0.578838  0.504305  0.143888  1
  Mn  Mn2  1  0.421162  0.004305  0.856112  1
  Mn  Mn3  1  0.863319  0.478370  0.887108  1
  Si  Si4  1  0.420666  0.017535  0.128100  1
  Si  Si5  1  0.012862  0.480971  0.159879  1
  Si  Si6  1  0.864362  0.562329  0.318289  1
  Si  Si7  1  0.135637  0.062328  0.681711  1
  Si  Si8  1  0.987138  0.980972  0.840121  1
  Si  Si9  1  0.579334  0.517536  0.871900  1
  Pb  Pb10  1  0.769335  0.892193  0.066890  1
  Pb  Pb11  1  0.347166  0.501632  0.284382  1
  Pb  Pb12  1  0.688222  0.024786  0.374298  1
  Pb  Pb13  1  0.042761  0.049827  0.387772  1
  Pb  Pb14  1  0.957239  0.549828  0.612227  1
  Pb  Pb15  1  0.311778  0.524787  0.625701  1
  Pb  Pb16  1  0.652834  0.001632  0.715618  1
  Pb  Pb17  1  0.230665  0.392193  0.933110  1
  S  S18  1  0.351753  0.991437  0.468482  1
  S  S19  1  0.648247  0.491436  0.531518  1
  O  O20  1  0.614586  0.600316  0.002531  1
  O  O21  1  0.902474  0.583977  0.051979  1
  O  O22  1  0.429345  0.713648  0.144101  1
  O  O23  1  0.141933  0.606824  0.160169  1
  O  O24  1  0.017547  0.178448  0.167894  1
  O  O25  1  0.310427  0.130481  0.169492  1
  O  O26  1  0.551628  0.152943  0.193688  1
  O  O27  1  0.744588  0.690888  0.227670  1
  O  O28  1  0.981208  0.589316  0.269717  1
  O  O29  1  0.845772  0.269205  0.340848  1
  O  O30  1  0.606174  0.486382  0.408133  1
  O  O31  1  0.452336  0.965393  0.423611  1
  O  O32  1  0.283246  0.229885  0.429810  1
  O  O33  1  0.262394  0.779304  0.429870  1
  O  O34  1  0.905980  0.735311  0.429475  1
  O  O35  1  0.094021  0.235311  0.570525  1
  O  O36  1  0.737606  0.279303  0.570131  1
  O  O37  1  0.716754  0.729886  0.570190  1
  O  O38  1  0.547664  0.465392  0.576389  1
  O  O39  1  0.393827  0.986383  0.591866  1
  O  O40  1  0.154227  0.769206  0.659152  1
  O  O41  1  0.018792  0.089315  0.730283  1
  O  O42  1  0.255412  0.190887  0.772330  1
  O  O43  1  0.448371  0.652944  0.806312  1
  O  O44  1  0.689573  0.630482  0.830508  1
  O  O45  1  0.982453  0.678449  0.832105  1
  O  O46  1  0.858067  0.106824  0.839831  1
  O  O47  1  0.570655  0.213647  0.855899  1
  O  O48  1  0.097526  0.083977  0.948021  1
  O  O49  1  0.385414  0.100315  0.997469  1
