# generated using pymatgen
data_HoLu5Pa2(ReB6)4
_symmetry_space_group_name_H-M   'P 1'
_cell_length_a   3.66304700
_cell_length_b   9.08838082
_cell_length_c   11.45705400
_cell_angle_alpha   90.28299526
_cell_angle_beta   90.00000000
_cell_angle_gamma   90.00000000
_symmetry_Int_Tables_number   1
_chemical_formula_structural   HoLu5Pa2(ReB6)4
_chemical_formula_sum   'Ho1 Lu5 Pa2 Re4 B24'
_cell_volume   381.41403536
_cell_formula_units_Z   1
loop_
 _symmetry_equiv_pos_site_id
 _symmetry_equiv_pos_as_xyz
  1  'x, y, z'
loop_
 _atom_site_type_symbol
 _atom_site_label
 _atom_site_symmetry_multiplicity
 _atom_site_fract_x
 _atom_site_fract_y
 _atom_site_fract_z
 _atom_site_occupancy
  Ho  Ho0  1  0.000000  0.823188  0.085455  1
  Lu  Lu1  1  0.000000  0.176819  0.914556  1
  Lu  Lu2  1  0.000000  0.945069  0.372213  1
  Lu  Lu3  1  0.000000  0.055152  0.627841  1
  Lu  Lu4  1  0.000000  0.443692  0.126011  1
  Lu  Lu5  1  0.000000  0.555974  0.873752  1
  Pa  Pa6  1  0.000000  0.320735  0.413291  1
  Pa  Pa7  1  0.000000  0.679286  0.586860  1
  Re  Re8  1  0.000000  0.636251  0.323594  1
  Re  Re9  1  0.000000  0.363308  0.676933  1
  Re  Re10  1  0.000000  0.140957  0.181305  1
  Re  Re11  1  0.000000  0.859851  0.818220  1
  B  B12  1  0.500000  0.554015  0.432811  1
  B  B13  1  0.500000  0.445782  0.567439  1
  B  B14  1  0.500000  0.053910  0.066522  1
  B  B15  1  0.500000  0.947088  0.932851  1
  B  B16  1  0.500000  0.750340  0.419161  1
  B  B17  1  0.500000  0.249555  0.581137  1
  B  B18  1  0.500000  0.249305  0.079287  1
  B  B19  1  0.500000  0.750752  0.919698  1
  B  B20  1  0.500000  0.792513  0.264855  1
  B  B21  1  0.500000  0.207247  0.735840  1
  B  B22  1  0.500000  0.292675  0.233577  1
  B  B23  1  0.500000  0.707331  0.766132  1
  B  B24  1  0.500000  0.630621  0.184316  1
  B  B25  1  0.500000  0.368582  0.816146  1
  B  B26  1  0.500000  0.131108  0.314630  1
  B  B27  1  0.500000  0.869284  0.685351  1
  B  B28  1  0.500000  0.981708  0.212194  1
  B  B29  1  0.500000  0.019177  0.788043  1
  B  B30  1  0.500000  0.482444  0.285792  1
  B  B31  1  0.500000  0.517254  0.714456  1
  B  B32  1  0.500000  0.601925  0.028296  1
  B  B33  1  0.500000  0.396948  0.971338  1
  B  B34  1  0.500000  0.105511  0.470951  1
  B  B35  1  0.500000  0.894643  0.529147  1
