# generated using pymatgen
data_La8Al3Si12Pd
_symmetry_space_group_name_H-M   'P 1'
_cell_length_a   8.33575600
_cell_length_b   8.33575511
_cell_length_c   8.80988200
_cell_angle_alpha   90.00000000
_cell_angle_beta   90.00000000
_cell_angle_gamma   119.99999561
_symmetry_Int_Tables_number   1
_chemical_formula_structural   La8Al3Si12Pd
_chemical_formula_sum   'La8 Al3 Si12 Pd1'
_cell_volume   530.14013355
_cell_formula_units_Z   1
loop_
 _symmetry_equiv_pos_site_id
 _symmetry_equiv_pos_as_xyz
  1  'x, y, z'
loop_
 _atom_site_type_symbol
 _atom_site_label
 _atom_site_symmetry_multiplicity
 _atom_site_fract_x
 _atom_site_fract_y
 _atom_site_fract_z
 _atom_site_occupancy
  La  La0  1  0.000000  0.000000  0.249849  1
  La  La1  1  0.000000  0.000000  0.750208  1
  La  La2  1  0.499876  0.500124  0.250107  1
  La  La3  1  0.499876  0.999754  0.250107  1
  La  La4  1  0.000246  0.500124  0.250107  1
  La  La5  1  0.498490  0.501510  0.749897  1
  La  La6  1  0.498490  0.996979  0.749897  1
  La  La7  1  0.003021  0.501510  0.749897  1
  Al  Al8  1  0.333333  0.666667  0.496965  1
  Al  Al9  1  0.666667  0.333333  0.503525  1
  Al  Al10  1  0.666667  0.333333  0.996602  1
  Si  Si11  1  0.164358  0.835642  0.500692  1
  Si  Si12  1  0.164358  0.328718  0.500692  1
  Si  Si13  1  0.671282  0.835642  0.500692  1
  Si  Si14  1  0.835524  0.164476  0.499340  1
  Si  Si15  1  0.835524  0.671048  0.499340  1
  Si  Si16  1  0.328952  0.164476  0.499340  1
  Si  Si17  1  0.837506  0.162494  0.000663  1
  Si  Si18  1  0.837506  0.675012  0.000663  1
  Si  Si19  1  0.324988  0.162494  0.000663  1
  Si  Si20  1  0.167342  0.832658  0.999749  1
  Si  Si21  1  0.167342  0.334686  0.999749  1
  Si  Si22  1  0.665314  0.832658  0.999749  1
  Pd  Pd23  1  0.333333  0.666667  0.001501  1
