# generated using pymatgen
data_Sc3UMnCo4
_symmetry_space_group_name_H-M   'P 1'
_cell_length_a   4.91569625
_cell_length_b   4.88729946
_cell_length_c   12.62633836
_cell_angle_alpha   93.34306160
_cell_angle_beta   86.80343940
_cell_angle_gamma   116.01636357
_symmetry_Int_Tables_number   1
_chemical_formula_structural   Sc3UMnCo4
_chemical_formula_sum   'Sc6 U2 Mn2 Co8'
_cell_volume   271.98532386
_cell_formula_units_Z   2
loop_
 _symmetry_equiv_pos_site_id
 _symmetry_equiv_pos_as_xyz
  1  'x, y, z'
loop_
 _atom_site_type_symbol
 _atom_site_label
 _atom_site_symmetry_multiplicity
 _atom_site_fract_x
 _atom_site_fract_y
 _atom_site_fract_z
 _atom_site_occupancy
  Sc  Sc0  1  0.329185  0.669996  0.907124  1
  Sc  Sc1  1  0.991929  0.000490  0.248101  1
  Sc  Sc2  1  0.678929  0.323368  0.600709  1
  Sc  Sc3  1  0.340450  0.660025  0.675810  1
  Sc  Sc4  1  0.982437  0.001430  0.984547  1
  Sc  Sc5  1  0.665448  0.335419  0.337414  1
  U  U6  1  0.494397  0.476788  0.121707  1
  U  U7  1  0.162610  0.839252  0.463148  1
  Mn  Mn8  1  0.836554  0.163417  0.790972  1
  Mn  Mn9  1  0.497116  0.018995  0.122906  1
  Co  Co10  1  0.165636  0.339341  0.461366  1
  Co  Co11  1  0.837058  0.665160  0.790338  1
  Co  Co12  1  0.332866  0.674512  0.294085  1
  Co  Co13  1  0.014959  0.987528  0.626651  1
  Co  Co14  1  0.657626  0.339599  0.951025  1
  Co  Co15  1  0.014162  0.504937  0.121999  1
  Co  Co16  1  0.662792  0.835497  0.461530  1
  Co  Co17  1  0.335846  0.164245  0.790568  1
