# generated using pymatgen
data_Tb2SiNi12(AsP2)2
_symmetry_space_group_name_H-M   'P 1'
_cell_length_a   9.15548084
_cell_length_b   9.14922162
_cell_length_c   3.72698000
_cell_angle_alpha   90.00000000
_cell_angle_beta   90.00000000
_cell_angle_gamma   119.73477490
_symmetry_Int_Tables_number   1
_chemical_formula_structural   Tb2SiNi12(AsP2)2
_chemical_formula_sum   'Tb2 Si1 Ni12 As2 P4'
_cell_volume   271.08625311
_cell_formula_units_Z   1
loop_
 _symmetry_equiv_pos_site_id
 _symmetry_equiv_pos_as_xyz
  1  'x, y, z'
loop_
 _atom_site_type_symbol
 _atom_site_label
 _atom_site_symmetry_multiplicity
 _atom_site_fract_x
 _atom_site_fract_y
 _atom_site_fract_z
 _atom_site_occupancy
  Tb  Tb0  1  0.666605  0.333093  0.000000  1
  Tb  Tb1  1  0.992772  0.998735  0.500000  1
  Si  Si2  1  0.334673  0.668071  0.000000  1
  Ni  Ni3  1  0.710635  0.094369  0.500000  1
  Ni  Ni4  1  0.897294  0.605370  0.500000  1
  Ni  Ni5  1  0.392664  0.291113  0.500000  1
  Ni  Ni6  1  0.762976  0.727917  0.000000  1
  Ni  Ni7  1  0.284194  0.048459  0.000000  1
  Ni  Ni8  1  0.939454  0.223946  0.000000  1
  Ni  Ni9  1  0.547392  0.758714  0.500000  1
  Ni  Ni10  1  0.252583  0.787059  0.500000  1
  Ni  Ni11  1  0.216799  0.466638  0.500000  1
  Ni  Ni12  1  0.489441  0.947536  0.000000  1
  Ni  Ni13  1  0.052615  0.531652  0.000000  1
  Ni  Ni14  1  0.464557  0.517644  0.000000  1
  As  As15  1  0.045464  0.781218  0.000000  1
  As  As16  1  0.215041  0.265032  0.000000  1
  P  P17  1  0.443572  0.071816  0.500000  1
  P  P18  1  0.928428  0.368072  0.500000  1
  P  P19  1  0.629910  0.558498  0.500000  1
  P  P20  1  0.732930  0.955048  0.000000  1
