# generated using pymatgen
data_YbSm2Tm3(CoSn6)2
_symmetry_space_group_name_H-M   'P 1'
_cell_length_a   8.42586084
_cell_length_b   8.42586207
_cell_length_c   13.17544217
_cell_angle_alpha   90.06242462
_cell_angle_beta   89.93758164
_cell_angle_gamma   148.36621229
_symmetry_Int_Tables_number   1
_chemical_formula_structural   YbSm2Tm3(CoSn6)2
_chemical_formula_sum   'Yb1 Sm2 Tm3 Co2 Sn12'
_cell_volume   490.60184177
_cell_formula_units_Z   1
loop_
 _symmetry_equiv_pos_site_id
 _symmetry_equiv_pos_as_xyz
  1  'x, y, z'
loop_
 _atom_site_type_symbol
 _atom_site_label
 _atom_site_symmetry_multiplicity
 _atom_site_fract_x
 _atom_site_fract_y
 _atom_site_fract_z
 _atom_site_occupancy
  Yb  Yb0  1  0.899736  0.100264  0.403336  1
  Sm  Sm1  1  0.899645  0.100355  0.093988  1
  Sm  Sm2  1  0.100461  0.899539  0.595478  1
  Tm  Tm3  1  0.900588  0.099412  0.752531  1
  Tm  Tm4  1  0.101608  0.898392  0.905320  1
  Tm  Tm5  1  0.099907  0.900093  0.249122  1
  Co  Co6  1  0.298021  0.701979  0.249712  1
  Co  Co7  1  0.700540  0.299460  0.750110  1
  Sn  Sn8  1  0.758486  0.241514  0.572441  1
  Sn  Sn9  1  0.427538  0.572462  0.577645  1
  Sn  Sn10  1  0.573496  0.426504  0.421911  1
  Sn  Sn11  1  0.732436  0.267564  0.249267  1
  Sn  Sn12  1  0.266715  0.733285  0.750722  1
  Sn  Sn13  1  0.241677  0.758323  0.071244  1
  Sn  Sn14  1  0.244080  0.755920  0.428432  1
  Sn  Sn15  1  0.573253  0.426747  0.074413  1
  Sn  Sn16  1  0.454959  0.545041  0.249288  1
  Sn  Sn17  1  0.545175  0.454825  0.753274  1
  Sn  Sn18  1  0.755281  0.244719  0.927994  1
  Sn  Sn19  1  0.426395  0.573605  0.923773  1
