# generated using pymatgen
data_AlV(PtRh)3
_symmetry_space_group_name_H-M   'P 1'
_cell_length_a   3.84091100
_cell_length_b   3.89285000
_cell_length_c   7.75178800
_cell_angle_alpha   90.00000000
_cell_angle_beta   90.00000000
_cell_angle_gamma   90.00000000
_symmetry_Int_Tables_number   1
_chemical_formula_structural   AlV(PtRh)3
_chemical_formula_sum   'Al1 V1 Pt3 Rh3'
_cell_volume   115.90543483
_cell_formula_units_Z   1
loop_
 _symmetry_equiv_pos_site_id
 _symmetry_equiv_pos_as_xyz
  1  'x, y, z'
loop_
 _atom_site_type_symbol
 _atom_site_label
 _atom_site_symmetry_multiplicity
 _atom_site_fract_x
 _atom_site_fract_y
 _atom_site_fract_z
 _atom_site_occupancy
  Al  Al0  1  0.000000  0.000000  0.000000  1
  V  V1  1  0.000000  0.000000  0.500000  1
  Pt  Pt2  1  0.500000  0.500000  0.500000  1
  Pt  Pt3  1  0.000000  0.500000  0.250457  1
  Pt  Pt4  1  0.000000  0.500000  0.749543  1
  Rh  Rh5  1  0.500000  0.500000  0.000000  1
  Rh  Rh6  1  0.500000  0.000000  0.254383  1
  Rh  Rh7  1  0.500000  0.000000  0.745617  1
