# generated using pymatgen
data_Ac2PrSm(Zn5Sn)2
_symmetry_space_group_name_H-M   'P 1'
_cell_length_a   8.69178700
_cell_length_b   8.69178822
_cell_length_c   9.22428500
_cell_angle_alpha   90.00000000
_cell_angle_beta   90.00000000
_cell_angle_gamma   149.30511514
_symmetry_Int_Tables_number   1
_chemical_formula_structural   Ac2PrSm(Zn5Sn)2
_chemical_formula_sum   'Ac2 Pr1 Sm1 Zn10 Sn2'
_cell_volume   355.72785521
_cell_formula_units_Z   1
loop_
 _symmetry_equiv_pos_site_id
 _symmetry_equiv_pos_as_xyz
  1  'x, y, z'
loop_
 _atom_site_type_symbol
 _atom_site_label
 _atom_site_symmetry_multiplicity
 _atom_site_fract_x
 _atom_site_fract_y
 _atom_site_fract_z
 _atom_site_occupancy
  Ac  Ac0  1  0.000193  0.999807  0.499747  1
  Ac  Ac1  1  0.000193  0.999807  0.000253  1
  Pr  Pr2  1  0.792356  0.207644  0.750000  1
  Sm  Sm3  1  0.208005  0.791995  0.250000  1
  Zn  Zn4  1  0.811578  0.188422  0.389100  1
  Zn  Zn5  1  0.187997  0.812003  0.609607  1
  Zn  Zn6  1  0.811578  0.188422  0.110900  1
  Zn  Zn7  1  0.187997  0.812003  0.890393  1
  Zn  Zn8  1  0.659852  0.340148  0.485270  1
  Zn  Zn9  1  0.340053  0.659947  0.513487  1
  Zn  Zn10  1  0.659852  0.340148  0.014730  1
  Zn  Zn11  1  0.340053  0.659947  0.986513  1
  Zn  Zn12  1  0.396318  0.603682  0.250000  1
  Zn  Zn13  1  0.603294  0.396706  0.750000  1
  Sn  Sn14  1  0.562288  0.437712  0.250000  1
  Sn  Sn15  1  0.438395  0.561605  0.750000  1
