# generated using pymatgen
data_CsAc(SeO4)2
_symmetry_space_group_name_H-M   'P 1'
_cell_length_a   5.28971207
_cell_length_b   5.28971249
_cell_length_c   10.15372503
_cell_angle_alpha   102.80732850
_cell_angle_beta   102.80733086
_cell_angle_gamma   63.41967514
_symmetry_Int_Tables_number   1
_chemical_formula_structural   CsAc(SeO4)2
_chemical_formula_sum   'Cs1 Ac1 Se2 O8'
_cell_volume   245.30617179
_cell_formula_units_Z   1
loop_
 _symmetry_equiv_pos_site_id
 _symmetry_equiv_pos_as_xyz
  1  'x, y, z'
loop_
 _atom_site_type_symbol
 _atom_site_label
 _atom_site_symmetry_multiplicity
 _atom_site_fract_x
 _atom_site_fract_y
 _atom_site_fract_z
 _atom_site_occupancy
  Cs  Cs0  1  0.038459  0.961542  0.000000  1
  Ac  Ac1  1  0.501689  0.498310  0.500000  1
  Se  Se2  1  0.740654  0.743590  0.280794  1
  Se  Se3  1  0.256410  0.259345  0.719206  1
  O  O4  1  0.824985  0.613717  0.125716  1
  O  O5  1  0.429803  0.742093  0.294218  1
  O  O6  1  0.712731  0.079477  0.323482  1
  O  O7  1  0.979841  0.549375  0.402758  1
  O  O8  1  0.450624  0.020158  0.597242  1
  O  O9  1  0.920522  0.287268  0.676518  1
  O  O10  1  0.257907  0.570198  0.705782  1
  O  O11  1  0.386283  0.175015  0.874284  1
