# generated using pymatgen
data_Tb2Ir2O7
_symmetry_space_group_name_H-M   'P 1'
_cell_length_a   7.26516436
_cell_length_b   7.26516459
_cell_length_c   7.26516400
_cell_angle_alpha   60.00000267
_cell_angle_beta   60.00000163
_cell_angle_gamma   59.99999687
_symmetry_Int_Tables_number   1
_chemical_formula_structural   Tb2Ir2O7
_chemical_formula_sum   'Tb4 Ir4 O14'
_cell_volume   271.15731778
_cell_formula_units_Z   2
loop_
 _symmetry_equiv_pos_site_id
 _symmetry_equiv_pos_as_xyz
  1  'x, y, z'
loop_
 _atom_site_type_symbol
 _atom_site_label
 _atom_site_symmetry_multiplicity
 _atom_site_fract_x
 _atom_site_fract_y
 _atom_site_fract_z
 _atom_site_occupancy
  Tb  Tb0  1  0.125000  0.125000  0.125000  1
  Tb  Tb1  1  0.625000  0.125000  0.125000  1
  Tb  Tb2  1  0.125000  0.125000  0.625000  1
  Tb  Tb3  1  0.125000  0.625000  0.125000  1
  Ir  Ir4  1  0.625000  0.625000  0.625000  1
  Ir  Ir5  1  0.125000  0.625000  0.625000  1
  Ir  Ir6  1  0.625000  0.625000  0.125000  1
  Ir  Ir7  1  0.625000  0.125000  0.625000  1
  O  O8  1  0.000000  0.000000  0.000000  1
  O  O9  1  0.250000  0.250000  0.250000  1
  O  O10  1  0.288175  0.288175  0.711825  1
  O  O11  1  0.538175  0.538175  0.961825  1
  O  O12  1  0.711825  0.288175  0.711825  1
  O  O13  1  0.711825  0.288175  0.288175  1
  O  O14  1  0.288175  0.711825  0.711825  1
  O  O15  1  0.288175  0.711825  0.288175  1
  O  O16  1  0.711825  0.711825  0.288175  1
  O  O17  1  0.961825  0.538175  0.538175  1
  O  O18  1  0.538175  0.961825  0.961825  1
  O  O19  1  0.961825  0.961825  0.538175  1
  O  O20  1  0.961825  0.538175  0.961825  1
  O  O21  1  0.538175  0.961825  0.538175  1
