# generated using pymatgen
data_Er10Al(RuO8)3
_symmetry_space_group_name_H-M   'P 1'
_cell_length_a   5.74142201
_cell_length_b   7.29174413
_cell_length_c   12.24764000
_cell_angle_alpha   107.09428797
_cell_angle_beta   90.00322334
_cell_angle_gamma   89.97244660
_symmetry_Int_Tables_number   1
_chemical_formula_structural   Er10Al(RuO8)3
_chemical_formula_sum   'Er10 Al1 Ru3 O24'
_cell_volume   490.09516808
_cell_formula_units_Z   1
loop_
 _symmetry_equiv_pos_site_id
 _symmetry_equiv_pos_as_xyz
  1  'x, y, z'
loop_
 _atom_site_type_symbol
 _atom_site_label
 _atom_site_symmetry_multiplicity
 _atom_site_fract_x
 _atom_site_fract_y
 _atom_site_fract_z
 _atom_site_occupancy
  Er  Er0  1  0.258062  0.614346  0.445364  1
  Er  Er1  1  0.744039  0.392656  0.564703  1
  Er  Er2  1  0.246067  0.086683  0.449415  1
  Er  Er3  1  0.744846  0.910406  0.554152  1
  Er  Er4  1  0.258001  0.885666  0.054649  1
  Er  Er5  1  0.744064  0.107316  0.935291  1
  Er  Er6  1  0.246078  0.413321  0.050558  1
  Er  Er7  1  0.744836  0.589557  0.945872  1
  Er  Er8  1  0.245888  0.249980  0.749999  1
  Er  Er9  1  0.753117  0.750050  0.250005  1
  Al  Al10  1  0.501307  0.749982  0.750024  1
  Ru  Ru11  1  0.980350  0.250057  0.249987  1
  Ru  Ru12  1  0.519209  0.250039  0.249978  1
  Ru  Ru13  1  0.014934  0.749948  0.750021  1
  O  O14  1  0.257046  0.932382  0.750445  1
  O  O15  1  0.749513  0.049899  0.248312  1
  O  O16  1  0.496861  0.329518  0.902821  1
  O  O17  1  0.001301  0.671224  0.096230  1
  O  O18  1  0.498177  0.670177  0.097752  1
  O  O19  1  0.997975  0.328547  0.902147  1
  O  O20  1  0.257271  0.567576  0.749636  1
  O  O21  1  0.749255  0.450174  0.251604  1
  O  O22  1  0.250024  0.069571  0.249584  1
  O  O23  1  0.750324  0.931673  0.749009  1
  O  O24  1  0.511582  0.829346  0.911370  1
  O  O25  1  0.005079  0.169815  0.084541  1
  O  O26  1  0.491666  0.170397  0.084810  1
  O  O27  1  0.990004  0.832292  0.915840  1
  O  O28  1  0.496853  0.170511  0.597141  1
  O  O29  1  0.001315  0.828816  0.403773  1
  O  O30  1  0.498192  0.829793  0.402276  1
  O  O31  1  0.997976  0.171361  0.597844  1
  O  O32  1  0.511610  0.670638  0.588665  1
  O  O33  1  0.005034  0.330290  0.415430  1
  O  O34  1  0.491674  0.329591  0.415152  1
  O  O35  1  0.990107  0.667623  0.584201  1
  O  O36  1  0.249828  0.430527  0.250391  1
  O  O37  1  0.750535  0.568251  0.751007  1
