# generated using pymatgen
data_Ho6Zn16PPt7
_symmetry_space_group_name_H-M   'P 1'
_cell_length_a   9.01657388
_cell_length_b   9.01657474
_cell_length_c   9.01657500
_cell_angle_alpha   60.00000271
_cell_angle_beta   59.99999956
_cell_angle_gamma   60.00000710
_symmetry_Int_Tables_number   1
_chemical_formula_structural   Ho6Zn16PPt7
_chemical_formula_sum   'Ho6 Zn16 P1 Pt7'
_cell_volume   518.33408077
_cell_formula_units_Z   1
loop_
 _symmetry_equiv_pos_site_id
 _symmetry_equiv_pos_as_xyz
  1  'x, y, z'
loop_
 _atom_site_type_symbol
 _atom_site_label
 _atom_site_symmetry_multiplicity
 _atom_site_fract_x
 _atom_site_fract_y
 _atom_site_fract_z
 _atom_site_occupancy
  Ho  Ho0  1  0.715720  0.284274  0.284373  1
  Ho  Ho1  1  0.715722  0.284272  0.715635  1
  Ho  Ho2  1  0.715694  0.715707  0.284300  1
  Ho  Ho3  1  0.284280  0.715726  0.715627  1
  Ho  Ho4  1  0.284278  0.715728  0.284365  1
  Ho  Ho5  1  0.284306  0.284293  0.715700  1
  Zn  Zn6  1  0.632342  0.122578  0.122540  1
  Zn  Zn7  1  0.122571  0.632349  0.122543  1
  Zn  Zn8  1  0.122546  0.122553  0.632358  1
  Zn  Zn9  1  0.122548  0.122553  0.122542  1
  Zn  Zn10  1  0.367658  0.877422  0.877460  1
  Zn  Zn11  1  0.877429  0.367651  0.877457  1
  Zn  Zn12  1  0.877454  0.877447  0.367642  1
  Zn  Zn13  1  0.877452  0.877447  0.877458  1
  Zn  Zn14  1  0.000919  0.333023  0.333028  1
  Zn  Zn15  1  0.333024  0.000916  0.333025  1
  Zn  Zn16  1  0.333050  0.333047  0.000910  1
  Zn  Zn17  1  0.333046  0.333054  0.332992  1
  Zn  Zn18  1  0.999081  0.666977  0.666972  1
  Zn  Zn19  1  0.666976  0.999084  0.666975  1
  Zn  Zn20  1  0.666950  0.666953  0.999090  1
  Zn  Zn21  1  0.666954  0.666946  0.667008  1
  P  P22  1  0.500000  0.500000  0.500000  1
  Pt  Pt23  1  0.500000  0.000000  0.000000  1
  Pt  Pt24  1  0.500000  0.000000  0.500000  1
  Pt  Pt25  1  0.500000  0.500000  0.000000  1
  Pt  Pt26  1  0.000000  0.500000  0.500000  1
  Pt  Pt27  1  0.000000  0.500000  0.000000  1
  Pt  Pt28  1  0.000000  0.000000  0.500000  1
  Pt  Pt29  1  0.000000  0.000000  0.000000  1
