# generated using pymatgen
data_PrSmY2(SiO5)2
_symmetry_space_group_name_H-M   'P 1'
_cell_length_a   8.13005218
_cell_length_b   8.13005109
_cell_length_c   10.76405254
_cell_angle_alpha   61.10943065
_cell_angle_beta   61.10943678
_cell_angle_gamma   50.26489223
_symmetry_Int_Tables_number   1
_chemical_formula_structural   PrSmY2(SiO5)2
_chemical_formula_sum   'Pr2 Sm2 Y4 Si4 O20'
_cell_volume   462.71003875
_cell_formula_units_Z   2
loop_
 _symmetry_equiv_pos_site_id
 _symmetry_equiv_pos_as_xyz
  1  'x, y, z'
loop_
 _atom_site_type_symbol
 _atom_site_label
 _atom_site_symmetry_multiplicity
 _atom_site_fract_x
 _atom_site_fract_y
 _atom_site_fract_z
 _atom_site_occupancy
  Pr  Pr0  1  0.215764  0.710335  0.964338  1
  Pr  Pr1  1  0.289665  0.784236  0.535662  1
  Sm  Sm2  1  0.780521  0.294135  0.033936  1
  Sm  Sm3  1  0.705865  0.219479  0.466064  1
  Y  Y4  1  0.238938  0.475614  0.336969  1
  Y  Y5  1  0.524386  0.761062  0.163031  1
  Y  Y6  1  0.764623  0.520404  0.663380  1
  Y  Y7  1  0.479596  0.235377  0.836620  1
  Si  Si8  1  0.729072  0.905992  0.306569  1
  Si  Si9  1  0.094008  0.270928  0.193431  1
  Si  Si10  1  0.271979  0.097163  0.693306  1
  Si  Si11  1  0.902837  0.728021  0.806694  1
  O  O12  1  0.425836  0.607363  0.107944  1
  O  O13  1  0.392637  0.574164  0.392056  1
  O  O14  1  0.581492  0.384432  0.892642  1
  O  O15  1  0.615568  0.418508  0.607358  1
  O  O16  1  0.869104  0.723328  0.432315  1
  O  O17  1  0.276672  0.130896  0.067685  1
  O  O18  1  0.133402  0.273544  0.566567  1
  O  O19  1  0.726456  0.866598  0.933433  1
  O  O20  1  0.564503  0.846932  0.316473  1
  O  O21  1  0.153068  0.435497  0.183527  1
  O  O22  1  0.437013  0.158430  0.679114  1
  O  O23  1  0.841570  0.562987  0.820886  1
  O  O24  1  0.159804  0.589100  0.820395  1
  O  O25  1  0.410900  0.840196  0.679605  1
  O  O26  1  0.840611  0.409448  0.174333  1
  O  O27  1  0.590552  0.159389  0.325667  1
  O  O28  1  0.903899  0.907433  0.644802  1
  O  O29  1  0.092567  0.096101  0.855198  1
  O  O30  1  0.083199  0.096106  0.356510  1
  O  O31  1  0.903894  0.916801  0.143490  1
