# generated using pymatgen
data_La14Nd2Cd4Pd3Ru
_symmetry_space_group_name_H-M   'P 1'
_cell_length_a   10.19648937
_cell_length_b   10.19648879
_cell_length_c   10.20589190
_cell_angle_alpha   59.60790353
_cell_angle_beta   59.60790270
_cell_angle_gamma   59.64186937
_symmetry_Int_Tables_number   1
_chemical_formula_structural   La14Nd2Cd4Pd3Ru
_chemical_formula_sum   'La14 Nd2 Cd4 Pd3 Ru1'
_cell_volume   743.81106681
_cell_formula_units_Z   1
loop_
 _symmetry_equiv_pos_site_id
 _symmetry_equiv_pos_as_xyz
  1  'x, y, z'
loop_
 _atom_site_type_symbol
 _atom_site_label
 _atom_site_symmetry_multiplicity
 _atom_site_fract_x
 _atom_site_fract_y
 _atom_site_fract_z
 _atom_site_occupancy
  La  La0  1  0.352138  0.352138  0.351442  1
  La  La1  1  0.345539  0.345539  0.955346  1
  La  La2  1  0.344938  0.954989  0.345470  1
  La  La3  1  0.954989  0.344938  0.345470  1
  La  La4  1  0.817860  0.189753  0.189502  1
  La  La5  1  0.192958  0.805588  0.805571  1
  La  La6  1  0.189753  0.817860  0.189502  1
  La  La7  1  0.805588  0.192958  0.805571  1
  La  La8  1  0.189594  0.189594  0.817691  1
  La  La9  1  0.806149  0.806149  0.192199  1
  La  La10  1  0.933340  0.565763  0.565519  1
  La  La11  1  0.559204  0.936011  0.935693  1
  La  La12  1  0.565763  0.933340  0.565519  1
  La  La13  1  0.936011  0.559204  0.935693  1
  Nd  Nd14  1  0.562939  0.562939  0.936349  1
  Nd  Nd15  1  0.937478  0.937478  0.558478  1
  Cd  Cd16  1  0.578833  0.578833  0.580225  1
  Cd  Cd17  1  0.579892  0.579892  0.259754  1
  Cd  Cd18  1  0.581140  0.260215  0.579651  1
  Cd  Cd19  1  0.260215  0.581140  0.579651  1
  Pd  Pd20  1  0.144582  0.144582  0.573410  1
  Pd  Pd21  1  0.145377  0.573485  0.144718  1
  Pd  Pd22  1  0.573485  0.145377  0.144718  1
  Ru  Ru23  1  0.142236  0.142236  0.142858  1
