# generated using pymatgen
data_PrEu4Al4Ga
_symmetry_space_group_name_H-M   'P 1'
_cell_length_a   5.72581900
_cell_length_b   9.34448800
_cell_length_c   9.92730700
_cell_angle_alpha   90.00000000
_cell_angle_beta   90.00000000
_cell_angle_gamma   90.00000000
_symmetry_Int_Tables_number   1
_chemical_formula_structural   PrEu4Al4Ga
_chemical_formula_sum   'Pr2 Eu8 Al8 Ga2'
_cell_volume   531.15904152
_cell_formula_units_Z   2
loop_
 _symmetry_equiv_pos_site_id
 _symmetry_equiv_pos_as_xyz
  1  'x, y, z'
loop_
 _atom_site_type_symbol
 _atom_site_label
 _atom_site_symmetry_multiplicity
 _atom_site_fract_x
 _atom_site_fract_y
 _atom_site_fract_z
 _atom_site_occupancy
  Pr  Pr0  1  0.500000  0.818671  0.917922  1
  Pr  Pr1  1  0.500000  0.181329  0.917922  1
  Eu  Eu2  1  0.000000  0.680719  0.085161  1
  Eu  Eu3  1  0.000000  0.319281  0.085161  1
  Eu  Eu4  1  0.500000  0.698883  0.306508  1
  Eu  Eu5  1  0.500000  0.301117  0.306508  1
  Eu  Eu6  1  0.000000  0.800260  0.691693  1
  Eu  Eu7  1  0.000000  0.199740  0.691693  1
  Eu  Eu8  1  0.500000  0.000000  0.511342  1
  Eu  Eu9  1  0.000000  0.500000  0.491987  1
  Al  Al10  1  0.740805  0.000000  0.181610  1
  Al  Al11  1  0.259195  0.000000  0.181610  1
  Al  Al12  1  0.757940  0.500000  0.818262  1
  Al  Al13  1  0.242060  0.500000  0.818262  1
  Al  Al14  1  0.500000  0.648069  0.627865  1
  Al  Al15  1  0.500000  0.351931  0.627865  1
  Al  Al16  1  0.000000  0.853481  0.372502  1
  Al  Al17  1  0.000000  0.146519  0.372502  1
  Ga  Ga18  1  0.500000  0.500000  0.044647  1
  Ga  Ga19  1  0.000000  0.000000  0.948979  1
