# generated using pymatgen
data_Hf3Ga3OsPdPt
_symmetry_space_group_name_H-M   'P 1'
_cell_length_a   7.37633800
_cell_length_b   7.37633742
_cell_length_c   6.61782900
_cell_angle_alpha   90.00000000
_cell_angle_beta   90.00000000
_cell_angle_gamma   119.99999364
_symmetry_Int_Tables_number   1
_chemical_formula_structural   Hf3Ga3OsPdPt
_chemical_formula_sum   'Hf6 Ga6 Os2 Pd2 Pt2'
_cell_volume   311.83710074
_cell_formula_units_Z   2
loop_
 _symmetry_equiv_pos_site_id
 _symmetry_equiv_pos_as_xyz
  1  'x, y, z'
loop_
 _atom_site_type_symbol
 _atom_site_label
 _atom_site_symmetry_multiplicity
 _atom_site_fract_x
 _atom_site_fract_y
 _atom_site_fract_z
 _atom_site_occupancy
  Hf  Hf0  1  0.601160  0.610823  0.250000  1
  Hf  Hf1  1  0.011984  0.398919  0.750000  1
  Hf  Hf2  1  0.389177  0.990337  0.250000  1
  Hf  Hf3  1  0.009663  0.398840  0.250000  1
  Hf  Hf4  1  0.386935  0.988016  0.750000  1
  Hf  Hf5  1  0.601081  0.613065  0.750000  1
  Ga  Ga6  1  0.275069  0.272839  0.499948  1
  Ga  Ga7  1  0.727161  0.002231  0.499948  1
  Ga  Ga8  1  0.997769  0.724931  0.499948  1
  Ga  Ga9  1  0.727161  0.002231  0.000052  1
  Ga  Ga10  1  0.275069  0.272839  0.000052  1
  Ga  Ga11  1  0.997769  0.724931  0.000052  1
  Os  Os12  1  0.333333  0.666667  0.499208  1
  Os  Os13  1  0.333333  0.666667  0.000792  1
  Pd  Pd14  1  0.000000  0.000000  0.750000  1
  Pd  Pd15  1  0.000000  0.000000  0.250000  1
  Pt  Pt16  1  0.666667  0.333333  0.502499  1
  Pt  Pt17  1  0.666667  0.333333  0.997501  1
