# generated using pymatgen
data_Lu2Ga10Os3
_symmetry_space_group_name_H-M   'P 1'
_cell_length_a   8.91388300
_cell_length_b   8.91388300
_cell_length_c   6.32563600
_cell_angle_alpha   90.00000000
_cell_angle_beta   90.00000000
_cell_angle_gamma   90.00000000
_symmetry_Int_Tables_number   1
_chemical_formula_structural   Lu2Ga10Os3
_chemical_formula_sum   'Lu4 Ga20 Os6'
_cell_volume   502.61802147
_cell_formula_units_Z   2
loop_
 _symmetry_equiv_pos_site_id
 _symmetry_equiv_pos_as_xyz
  1  'x, y, z'
loop_
 _atom_site_type_symbol
 _atom_site_label
 _atom_site_symmetry_multiplicity
 _atom_site_fract_x
 _atom_site_fract_y
 _atom_site_fract_z
 _atom_site_occupancy
  Lu  Lu0  1  0.183408  0.316592  0.000000  1
  Lu  Lu1  1  0.683408  0.183408  0.000000  1
  Lu  Lu2  1  0.816592  0.683408  0.000000  1
  Lu  Lu3  1  0.316592  0.816592  0.000000  1
  Ga  Ga4  1  0.500000  0.000000  0.280881  1
  Ga  Ga5  1  0.500000  0.000000  0.719119  1
  Ga  Ga6  1  0.292649  0.561530  0.708771  1
  Ga  Ga7  1  0.000000  0.500000  0.280881  1
  Ga  Ga8  1  0.000000  0.500000  0.719119  1
  Ga  Ga9  1  0.061530  0.792649  0.708771  1
  Ga  Ga10  1  0.207351  0.061530  0.291229  1
  Ga  Ga11  1  0.061530  0.792649  0.291229  1
  Ga  Ga12  1  0.707351  0.438470  0.708771  1
  Ga  Ga13  1  0.207351  0.061530  0.708771  1
  Ga  Ga14  1  0.938470  0.207351  0.708771  1
  Ga  Ga15  1  0.707351  0.438470  0.291229  1
  Ga  Ga16  1  0.561530  0.707351  0.291229  1
  Ga  Ga17  1  0.938470  0.207351  0.291229  1
  Ga  Ga18  1  0.561530  0.707351  0.708771  1
  Ga  Ga19  1  0.792649  0.938470  0.291229  1
  Ga  Ga20  1  0.438470  0.292649  0.708771  1
  Ga  Ga21  1  0.792649  0.938470  0.708771  1
  Ga  Ga22  1  0.438470  0.292649  0.291229  1
  Ga  Ga23  1  0.292649  0.561530  0.291229  1
  Os  Os24  1  0.178002  0.321998  0.500000  1
  Os  Os25  1  0.321998  0.821998  0.500000  1
  Os  Os26  1  0.821998  0.678002  0.500000  1
  Os  Os27  1  0.000000  0.000000  0.000000  1
  Os  Os28  1  0.678002  0.178002  0.500000  1
  Os  Os29  1  0.500000  0.500000  0.000000  1
