# generated using pymatgen
data_Sr15Ca(ThPt4)4
_symmetry_space_group_name_H-M   'P 1'
_cell_length_a   7.97370858
_cell_length_b   8.09381535
_cell_length_c   15.53189600
_cell_angle_alpha   90.05034556
_cell_angle_beta   90.37696582
_cell_angle_gamma   90.19330276
_symmetry_Int_Tables_number   1
_chemical_formula_structural   Sr15Ca(ThPt4)4
_chemical_formula_sum   'Sr15 Ca1 Th4 Pt16'
_cell_volume   1002.36542411
_cell_formula_units_Z   1
loop_
 _symmetry_equiv_pos_site_id
 _symmetry_equiv_pos_as_xyz
  1  'x, y, z'
loop_
 _atom_site_type_symbol
 _atom_site_label
 _atom_site_symmetry_multiplicity
 _atom_site_fract_x
 _atom_site_fract_y
 _atom_site_fract_z
 _atom_site_occupancy
  Sr  Sr0  1  0.160785  0.331342  0.380827  1
  Sr  Sr1  1  0.339806  0.832720  0.619462  1
  Sr  Sr2  1  0.840576  0.668843  0.882974  1
  Sr  Sr3  1  0.493697  0.323385  0.903321  1
  Sr  Sr4  1  0.991704  0.177287  0.599755  1
  Sr  Sr5  1  0.507483  0.678143  0.402811  1
  Sr  Sr6  1  0.008178  0.821676  0.093295  1
  Sr  Sr7  1  0.504013  0.679952  0.091793  1
  Sr  Sr8  1  0.008310  0.818176  0.409671  1
  Sr  Sr9  1  0.491047  0.319380  0.595127  1
  Sr  Sr10  1  0.998193  0.179178  0.904552  1
  Sr  Sr11  1  0.183200  0.490500  0.753134  1
  Sr  Sr12  1  0.672822  0.014660  0.753361  1
  Sr  Sr13  1  0.823590  0.522436  0.251243  1
  Sr  Sr14  1  0.310625  0.980208  0.249945  1
  Ca  Ca15  1  0.340607  0.839343  0.879469  1
  Th  Th16  1  0.836110  0.665118  0.625353  1
  Th  Th17  1  0.663494  0.161549  0.375322  1
  Th  Th18  1  0.160206  0.338254  0.121610  1
  Th  Th19  1  0.659495  0.165203  0.121873  1
  Pt  Pt20  1  0.331617  0.061661  0.043810  1
  Pt  Pt21  1  0.803514  0.447445  0.464028  1
  Pt  Pt22  1  0.695013  0.948345  0.532479  1
  Pt  Pt23  1  0.184284  0.534862  0.969225  1
  Pt  Pt24  1  0.664771  0.980322  0.967187  1
  Pt  Pt25  1  0.129370  0.538257  0.547317  1
  Pt  Pt26  1  0.366830  0.036898  0.452450  1
  Pt  Pt27  1  0.836665  0.442235  0.047462  1
  Pt  Pt28  1  0.555787  0.630362  0.746625  1
  Pt  Pt29  1  0.038098  0.872135  0.743000  1
  Pt  Pt30  1  0.463950  0.358397  0.244627  1
  Pt  Pt31  1  0.947077  0.138561  0.240643  1
  Pt  Pt32  1  0.282567  0.118964  0.754065  1
  Pt  Pt33  1  0.794963  0.383755  0.741575  1
  Pt  Pt34  1  0.696958  0.893637  0.250412  1
  Pt  Pt35  1  0.214595  0.606804  0.240198  1
