# generated using pymatgen
data_ScIr6W
_symmetry_space_group_name_H-M   'P 1'
_cell_length_a   5.56377900
_cell_length_b   5.56377929
_cell_length_c   4.48824700
_cell_angle_alpha   90.00000000
_cell_angle_beta   90.00000000
_cell_angle_gamma   120.00000423
_symmetry_Int_Tables_number   1
_chemical_formula_structural   ScIr6W
_chemical_formula_sum   'Sc1 Ir6 W1'
_cell_volume   120.32257759
_cell_formula_units_Z   1
loop_
 _symmetry_equiv_pos_site_id
 _symmetry_equiv_pos_as_xyz
  1  'x, y, z'
loop_
 _atom_site_type_symbol
 _atom_site_label
 _atom_site_symmetry_multiplicity
 _atom_site_fract_x
 _atom_site_fract_y
 _atom_site_fract_z
 _atom_site_occupancy
  Sc  Sc0  1  0.666667  0.333333  0.750000  1
  Ir  Ir1  1  0.668433  0.834216  0.750000  1
  Ir  Ir2  1  0.322796  0.161398  0.250000  1
  Ir  Ir3  1  0.838602  0.161398  0.250000  1
  Ir  Ir4  1  0.165784  0.331567  0.750000  1
  Ir  Ir5  1  0.165784  0.834216  0.750000  1
  Ir  Ir6  1  0.838602  0.677204  0.250000  1
  W  W7  1  0.333333  0.666667  0.250000  1
