# generated using pymatgen
data_NdGaNi2P
_symmetry_space_group_name_H-M   'P 1'
_cell_length_a   4.03245600
_cell_length_b   4.03245600
_cell_length_c   9.70119100
_cell_angle_alpha   90.00000000
_cell_angle_beta   90.00000000
_cell_angle_gamma   90.00000000
_symmetry_Int_Tables_number   1
_chemical_formula_structural   NdGaNi2P
_chemical_formula_sum   'Nd2 Ga2 Ni4 P2'
_cell_volume   157.74817000
_cell_formula_units_Z   2
loop_
 _symmetry_equiv_pos_site_id
 _symmetry_equiv_pos_as_xyz
  1  'x, y, z'
loop_
 _atom_site_type_symbol
 _atom_site_label
 _atom_site_symmetry_multiplicity
 _atom_site_fract_x
 _atom_site_fract_y
 _atom_site_fract_z
 _atom_site_occupancy
  Nd  Nd0  1  0.000000  0.500000  0.761387  1
  Nd  Nd1  1  0.500000  0.000000  0.238613  1
  Ga  Ga2  1  0.000000  0.000000  0.500000  1
  Ga  Ga3  1  0.500000  0.500000  0.500000  1
  Ni  Ni4  1  0.000000  0.500000  0.356054  1
  Ni  Ni5  1  0.500000  0.000000  0.643946  1
  Ni  Ni6  1  0.500000  0.500000  0.000000  1
  Ni  Ni7  1  0.000000  0.000000  0.000000  1
  P  P8  1  0.500000  0.000000  0.873768  1
  P  P9  1  0.000000  0.500000  0.126232  1
