# generated using pymatgen
data_Tb3Al3SiPd2
_symmetry_space_group_name_H-M   'P 1'
_cell_length_a   7.05788500
_cell_length_b   7.05788600
_cell_length_c   4.18650300
_cell_angle_alpha   90.00000000
_cell_angle_beta   90.00000000
_cell_angle_gamma   120.00000936
_symmetry_Int_Tables_number   1
_chemical_formula_structural   Tb3Al3SiPd2
_chemical_formula_sum   'Tb3 Al3 Si1 Pd2'
_cell_volume   180.60560105
_cell_formula_units_Z   1
loop_
 _symmetry_equiv_pos_site_id
 _symmetry_equiv_pos_as_xyz
  1  'x, y, z'
loop_
 _atom_site_type_symbol
 _atom_site_label
 _atom_site_symmetry_multiplicity
 _atom_site_fract_x
 _atom_site_fract_y
 _atom_site_fract_z
 _atom_site_occupancy
  Tb  Tb0  1  0.997041  0.580461  0.500000  1
  Tb  Tb1  1  0.419539  0.416581  0.500000  1
  Tb  Tb2  1  0.583419  0.002959  0.500000  1
  Al  Al3  1  0.764547  0.757065  0.000000  1
  Al  Al4  1  0.242935  0.007482  0.000000  1
  Al  Al5  1  0.992518  0.235453  0.000000  1
  Si  Si6  1  0.333333  0.666667  0.000000  1
  Pd  Pd7  1  0.666667  0.333333  0.000000  1
  Pd  Pd8  1  0.000000  0.000000  0.500000  1
