# generated using pymatgen
data_Sm8Sc12Ga11Si4As
_symmetry_space_group_name_H-M   'P 1'
_cell_length_a   7.32026896
_cell_length_b   7.57990786
_cell_length_c   14.40751703
_cell_angle_alpha   90.00104209
_cell_angle_beta   89.89514799
_cell_angle_gamma   90.28605680
_symmetry_Int_Tables_number   1
_chemical_formula_structural   Sm8Sc12Ga11Si4As
_chemical_formula_sum   'Sm8 Sc12 Ga11 Si4 As1'
_cell_volume   799.41808033
_cell_formula_units_Z   1
loop_
 _symmetry_equiv_pos_site_id
 _symmetry_equiv_pos_as_xyz
  1  'x, y, z'
loop_
 _atom_site_type_symbol
 _atom_site_label
 _atom_site_symmetry_multiplicity
 _atom_site_fract_x
 _atom_site_fract_y
 _atom_site_fract_z
 _atom_site_occupancy
  Sm  Sm0  1  0.013723  0.175829  0.095918  1
  Sm  Sm1  1  0.987906  0.821426  0.903806  1
  Sm  Sm2  1  0.489863  0.677033  0.904643  1
  Sm  Sm3  1  0.987226  0.822811  0.597595  1
  Sm  Sm4  1  0.511876  0.321094  0.096928  1
  Sm  Sm5  1  0.011187  0.177740  0.402678  1
  Sm  Sm6  1  0.511208  0.321929  0.402072  1
  Sm  Sm7  1  0.491123  0.675836  0.596720  1
  Sc  Sc8  1  0.163090  0.501135  0.749662  1
  Sc  Sc9  1  0.837340  0.494277  0.249782  1
  Sc  Sc10  1  0.336293  0.005844  0.248584  1
  Sc  Sc11  1  0.666773  0.994701  0.749916  1
  Sc  Sc12  1  0.327740  0.171863  0.623970  1
  Sc  Sc13  1  0.670136  0.829458  0.375566  1
  Sc  Sc14  1  0.170265  0.670786  0.375787  1
  Sc  Sc15  1  0.667399  0.828447  0.124016  1
  Sc  Sc16  1  0.827474  0.330339  0.624015  1
  Sc  Sc17  1  0.327090  0.172235  0.877680  1
  Sc  Sc18  1  0.827428  0.331985  0.876937  1
  Sc  Sc19  1  0.174773  0.672882  0.122436  1
  Ga  Ga20  1  0.026105  0.125863  0.751169  1
  Ga  Ga21  1  0.968128  0.880068  0.249304  1
  Ga  Ga22  1  0.467453  0.617161  0.249352  1
  Ga  Ga23  1  0.530996  0.380576  0.750674  1
  Ga  Ga24  1  0.158640  0.463947  0.541918  1
  Ga  Ga25  1  0.841060  0.537402  0.458410  1
  Ga  Ga26  1  0.340810  0.962560  0.458496  1
  Ga  Ga27  1  0.841593  0.537296  0.042611  1
  Ga  Ga28  1  0.657497  0.036767  0.541673  1
  Ga  Ga29  1  0.158191  0.464520  0.958268  1
  Ga  Ga30  1  0.656939  0.036723  0.958645  1
  Si  Si31  1  0.715191  0.121014  0.248971  1
  Si  Si32  1  0.214183  0.378961  0.249202  1
  Si  Si33  1  0.786364  0.622380  0.750718  1
  Si  Si34  1  0.345167  0.964436  0.041015  1
  As  As35  1  0.291772  0.872680  0.750865  1
