# generated using pymatgen
data_LaPrTiVO6
_symmetry_space_group_name_H-M   'P 1'
_cell_length_a   5.57443416
_cell_length_b   5.74333300
_cell_length_c   7.95054595
_cell_angle_alpha   90.00000000
_cell_angle_beta   90.03567704
_cell_angle_gamma   90.00000000
_symmetry_Int_Tables_number   1
_chemical_formula_structural   LaPrTiVO6
_chemical_formula_sum   'La2 Pr2 Ti2 V2 O12'
_cell_volume   254.54329140
_cell_formula_units_Z   2
loop_
 _symmetry_equiv_pos_site_id
 _symmetry_equiv_pos_as_xyz
  1  'x, y, z'
loop_
 _atom_site_type_symbol
 _atom_site_label
 _atom_site_symmetry_multiplicity
 _atom_site_fract_x
 _atom_site_fract_y
 _atom_site_fract_z
 _atom_site_occupancy
  La  La0  1  0.510056  0.548381  0.249417  1
  La  La1  1  0.989944  0.048381  0.250583  1
  Pr  Pr2  1  0.012575  0.945633  0.749041  1
  Pr  Pr3  1  0.487425  0.445633  0.750959  1
  Ti  Ti4  1  0.500880  0.999642  0.502033  1
  Ti  Ti5  1  0.999120  0.499642  0.997967  1
  V  V6  1  0.999939  0.499441  0.500104  1
  V  V7  1  0.500061  0.999441  0.999896  1
  O  O8  1  0.692002  0.286348  0.452380  1
  O  O9  1  0.807998  0.786348  0.047620  1
  O  O10  1  0.214933  0.196047  0.547947  1
  O  O11  1  0.285067  0.696047  0.952053  1
  O  O12  1  0.306087  0.715918  0.551940  1
  O  O13  1  0.193913  0.215918  0.948060  1
  O  O14  1  0.788191  0.805924  0.456820  1
  O  O15  1  0.711809  0.305924  0.043180  1
  O  O16  1  0.087853  0.472968  0.239387  1
  O  O17  1  0.412147  0.972968  0.260613  1
  O  O18  1  0.593585  0.029698  0.741406  1
  O  O19  1  0.906415  0.529698  0.758594  1
