# generated using pymatgen
data_Pr4Ho12Cd4OsPt3
_symmetry_space_group_name_H-M   'P 1'
_cell_length_a   9.74909359
_cell_length_b   9.75267716
_cell_length_c   9.75267673
_cell_angle_alpha   59.82821309
_cell_angle_beta   59.60409051
_cell_angle_gamma   59.60409399
_symmetry_Int_Tables_number   1
_chemical_formula_structural   Pr4Ho12Cd4OsPt3
_chemical_formula_sum   'Pr4 Ho12 Cd4 Os1 Pt3'
_cell_volume   650.89625889
_cell_formula_units_Z   1
loop_
 _symmetry_equiv_pos_site_id
 _symmetry_equiv_pos_as_xyz
  1  'x, y, z'
loop_
 _atom_site_type_symbol
 _atom_site_label
 _atom_site_symmetry_multiplicity
 _atom_site_fract_x
 _atom_site_fract_y
 _atom_site_fract_z
 _atom_site_occupancy
  Pr  Pr0  1  0.566083  0.934878  0.566171  1
  Pr  Pr1  1  0.938129  0.559727  0.934977  1
  Pr  Pr2  1  0.566083  0.566171  0.934878  1
  Pr  Pr3  1  0.938129  0.934977  0.559727  1
  Ho  Ho4  1  0.353127  0.350706  0.350706  1
  Ho  Ho5  1  0.346695  0.350573  0.953861  1
  Ho  Ho6  1  0.346695  0.953861  0.350573  1
  Ho  Ho7  1  0.951530  0.347457  0.347457  1
  Ho  Ho8  1  0.818522  0.185101  0.185101  1
  Ho  Ho9  1  0.187183  0.811764  0.811764  1
  Ho  Ho10  1  0.188162  0.815788  0.187999  1
  Ho  Ho11  1  0.810499  0.184479  0.810369  1
  Ho  Ho12  1  0.188162  0.187999  0.815788  1
  Ho  Ho13  1  0.810499  0.810369  0.184479  1
  Ho  Ho14  1  0.943268  0.555476  0.555476  1
  Ho  Ho15  1  0.548097  0.946745  0.946745  1
  Cd  Cd16  1  0.583714  0.577333  0.577333  1
  Cd  Cd17  1  0.577268  0.584017  0.259022  1
  Cd  Cd18  1  0.577268  0.259022  0.584017  1
  Cd  Cd19  1  0.259203  0.578156  0.578156  1
  Os  Os20  1  0.146665  0.140814  0.140814  1
  Pt  Pt21  1  0.141051  0.147665  0.574509  1
  Pt  Pt22  1  0.141051  0.574509  0.147665  1
  Pt  Pt23  1  0.572921  0.142413  0.142413  1
