# generated using pymatgen
data_Y7ErTa10(TiSi8)2
_symmetry_space_group_name_H-M   'P 1'
_cell_length_a   7.06551975
_cell_length_b   7.05995937
_cell_length_c   12.99991725
_cell_angle_alpha   90.01392571
_cell_angle_beta   89.99716629
_cell_angle_gamma   89.95970012
_symmetry_Int_Tables_number   1
_chemical_formula_structural   Y7ErTa10(TiSi8)2
_chemical_formula_sum   'Y7 Er1 Ta10 Ti2 Si16'
_cell_volume   648.46536292
_cell_formula_units_Z   1
loop_
 _symmetry_equiv_pos_site_id
 _symmetry_equiv_pos_as_xyz
  1  'x, y, z'
loop_
 _atom_site_type_symbol
 _atom_site_label
 _atom_site_symmetry_multiplicity
 _atom_site_fract_x
 _atom_site_fract_y
 _atom_site_fract_z
 _atom_site_occupancy
  Y  Y0  1  0.341825  0.002305  0.467664  1
  Y  Y1  1  0.498323  0.841920  0.718054  1
  Y  Y2  1  0.501751  0.157974  0.217649  1
  Y  Y3  1  0.841823  0.498234  0.282297  1
  Y  Y4  1  0.158062  0.501917  0.782507  1
  Y  Y5  1  0.658334  0.997544  0.967854  1
  Y  Y6  1  0.002694  0.340729  0.531983  1
  Er  Er7  1  0.997969  0.659094  0.031840  1
  Ta  Ta8  1  0.328952  0.329760  0.999642  1
  Ta  Ta9  1  0.172830  0.826134  0.249779  1
  Ta  Ta10  1  0.827058  0.173568  0.750259  1
  Ta  Ta11  1  0.670863  0.670584  0.499613  1
  Ta  Ta12  1  0.152327  0.008128  0.874386  1
  Ta  Ta13  1  0.492295  0.652321  0.124182  1
  Ta  Ta14  1  0.507690  0.347486  0.624458  1
  Ta  Ta15  1  0.652524  0.492067  0.876312  1
  Ta  Ta16  1  0.347594  0.508484  0.375775  1
  Ta  Ta17  1  0.847195  0.991749  0.373852  1
  Ti  Ti18  1  0.008389  0.153105  0.125795  1
  Ti  Ti19  1  0.991498  0.846541  0.626044  1
  Si  Si20  1  0.201675  0.131638  0.682411  1
  Si  Si21  1  0.365347  0.704558  0.932399  1
  Si  Si22  1  0.633772  0.295374  0.432170  1
  Si  Si23  1  0.705251  0.365974  0.068274  1
  Si  Si24  1  0.295782  0.634727  0.568096  1
  Si  Si25  1  0.798983  0.867378  0.181543  1
  Si  Si26  1  0.133675  0.202305  0.317079  1
  Si  Si27  1  0.866413  0.797408  0.817751  1
  Si  Si28  1  0.291029  0.954228  0.064364  1
  Si  Si29  1  0.546864  0.793609  0.313379  1
  Si  Si30  1  0.453342  0.206365  0.813683  1
  Si  Si31  1  0.795138  0.547570  0.685438  1
  Si  Si32  1  0.204106  0.452882  0.184865  1
  Si  Si33  1  0.708439  0.045221  0.564390  1
  Si  Si34  1  0.954173  0.294537  0.937250  1
  Si  Si35  1  0.046016  0.706589  0.436963  1
