# generated using pymatgen
data_YBi3Ru2O11
_symmetry_space_group_name_H-M   'P 1'
_cell_length_a   6.52385295
_cell_length_b   7.51651229
_cell_length_c   9.79376400
_cell_angle_alpha   100.95591054
_cell_angle_beta   91.20925646
_cell_angle_gamma   90.15220184
_symmetry_Int_Tables_number   1
_chemical_formula_structural   YBi3Ru2O11
_chemical_formula_sum   'Y2 Bi6 Ru4 O22'
_cell_volume   471.38398127
_cell_formula_units_Z   2
loop_
 _symmetry_equiv_pos_site_id
 _symmetry_equiv_pos_as_xyz
  1  'x, y, z'
loop_
 _atom_site_type_symbol
 _atom_site_label
 _atom_site_symmetry_multiplicity
 _atom_site_fract_x
 _atom_site_fract_y
 _atom_site_fract_z
 _atom_site_occupancy
  Y  Y0  1  0.748399  0.371346  0.478967  1
  Y  Y1  1  0.251601  0.628654  0.521033  1
  Bi  Bi2  1  0.757850  0.870367  0.492130  1
  Bi  Bi3  1  0.242150  0.129633  0.507870  1
  Bi  Bi4  1  0.469342  0.953097  0.821009  1
  Bi  Bi5  1  0.530658  0.046903  0.178991  1
  Bi  Bi6  1  0.396376  0.452965  0.826147  1
  Bi  Bi7  1  0.603624  0.547035  0.173853  1
  Ru  Ru8  1  0.932339  0.702841  0.810914  1
  Ru  Ru9  1  0.067661  0.297159  0.189086  1
  Ru  Ru10  1  0.929789  0.203068  0.811992  1
  Ru  Ru11  1  0.070211  0.796932  0.188008  1
  O  O12  1  0.228144  0.720462  0.761348  1
  O  O13  1  0.771856  0.279538  0.238652  1
  O  O14  1  0.636097  0.674012  0.834703  1
  O  O15  1  0.363903  0.325988  0.165297  1
  O  O16  1  0.634825  0.243383  0.847918  1
  O  O17  1  0.365175  0.756617  0.152082  1
  O  O18  1  0.883359  0.182649  0.607696  1
  O  O19  1  0.116641  0.817351  0.392304  1
  O  O20  1  0.224160  0.157741  0.760555  1
  O  O21  1  0.775840  0.842259  0.239445  1
  O  O22  1  0.902115  0.627819  0.601866  1
  O  O23  1  0.097885  0.372181  0.398134  1
  O  O24  1  0.007246  0.542582  0.170761  1
  O  O25  1  0.992754  0.457418  0.829239  1
  O  O26  1  0.997556  0.787625  0.999382  1
  O  O27  1  0.002444  0.212375  0.000618  1
  O  O28  1  0.570065  0.601559  0.396549  1
  O  O29  1  0.429935  0.398441  0.603451  1
  O  O30  1  0.157923  0.055784  0.223232  1
  O  O31  1  0.842077  0.944216  0.776768  1
  O  O32  1  0.548554  0.102888  0.400842  1
  O  O33  1  0.451446  0.897112  0.599158  1
