# generated using pymatgen
data_TbSm9(SiHg)4
_symmetry_space_group_name_H-M   'P 1'
_cell_length_a   8.98798188
_cell_length_b   8.98798190
_cell_length_c   7.71532596
_cell_angle_alpha   89.96501549
_cell_angle_beta   89.96502179
_cell_angle_gamma   129.30520926
_symmetry_Int_Tables_number   1
_chemical_formula_structural   TbSm9(SiHg)4
_chemical_formula_sum   'Tb1 Sm9 Si4 Hg4'
_cell_volume   482.27770490
_cell_formula_units_Z   1
loop_
 _symmetry_equiv_pos_site_id
 _symmetry_equiv_pos_as_xyz
  1  'x, y, z'
loop_
 _atom_site_type_symbol
 _atom_site_label
 _atom_site_symmetry_multiplicity
 _atom_site_fract_x
 _atom_site_fract_y
 _atom_site_fract_z
 _atom_site_occupancy
  Tb  Tb0  1  0.500000  0.500000  0.500000  1
  Sm  Sm1  1  0.056949  0.311775  0.323734  1
  Sm  Sm2  1  0.943051  0.688225  0.676266  1
  Sm  Sm3  1  0.444026  0.189047  0.822828  1
  Sm  Sm4  1  0.810953  0.555974  0.177172  1
  Sm  Sm5  1  0.555974  0.810953  0.177172  1
  Sm  Sm6  1  0.189047  0.444026  0.822828  1
  Sm  Sm7  1  0.688225  0.943051  0.676266  1
  Sm  Sm8  1  0.311775  0.056949  0.323734  1
  Sm  Sm9  1  0.000000  0.000000  0.000000  1
  Si  Si10  1  0.385528  0.385528  0.119644  1
  Si  Si11  1  0.614472  0.614472  0.880356  1
  Si  Si12  1  0.117105  0.117105  0.617118  1
  Si  Si13  1  0.882895  0.882895  0.382882  1
  Hg  Hg14  1  0.782018  0.217982  0.000000  1
  Hg  Hg15  1  0.217982  0.782018  0.000000  1
  Hg  Hg16  1  0.717597  0.282403  0.500000  1
  Hg  Hg17  1  0.282403  0.717597  0.500000  1
