# generated using pymatgen
data_Tb4Ga18(CoPd)3
_symmetry_space_group_name_H-M   'P 1'
_cell_length_a   7.52912748
_cell_length_b   7.52912799
_cell_length_c   9.48872975
_cell_angle_alpha   89.97739564
_cell_angle_beta   89.97739641
_cell_angle_gamma   119.63986274
_symmetry_Int_Tables_number   1
_chemical_formula_structural   Tb4Ga18(CoPd)3
_chemical_formula_sum   'Tb4 Ga18 Co3 Pd3'
_cell_volume   467.51176151
_cell_formula_units_Z   1
loop_
 _symmetry_equiv_pos_site_id
 _symmetry_equiv_pos_as_xyz
  1  'x, y, z'
loop_
 _atom_site_type_symbol
 _atom_site_label
 _atom_site_symmetry_multiplicity
 _atom_site_fract_x
 _atom_site_fract_y
 _atom_site_fract_z
 _atom_site_occupancy
  Tb  Tb0  1  0.323642  0.999139  0.249746  1
  Tb  Tb1  1  0.000861  0.676358  0.750254  1
  Tb  Tb2  1  0.671233  0.993194  0.749649  1
  Tb  Tb3  1  0.006806  0.328767  0.250351  1
  Ga  Ga4  1  0.346128  0.013180  0.922379  1
  Ga  Ga5  1  0.986820  0.653872  0.077621  1
  Ga  Ga6  1  0.344180  0.998332  0.573585  1
  Ga  Ga7  1  0.001668  0.655820  0.426415  1
  Ga  Ga8  1  0.664668  0.012698  0.077453  1
  Ga  Ga9  1  0.987302  0.335332  0.922547  1
  Ga  Ga10  1  0.657080  0.004436  0.426892  1
  Ga  Ga11  1  0.995564  0.342920  0.573108  1
  Ga  Ga12  1  0.663362  0.655066  0.932769  1
  Ga  Ga13  1  0.344934  0.336638  0.067231  1
  Ga  Ga14  1  0.660020  0.657982  0.560873  1
  Ga  Ga15  1  0.342018  0.339980  0.439127  1
  Ga  Ga16  1  0.135868  0.138212  0.749015  1
  Ga  Ga17  1  0.861788  0.864132  0.250985  1
  Ga  Ga18  1  0.453417  0.665789  0.258749  1
  Ga  Ga19  1  0.334211  0.546583  0.741251  1
  Ga  Ga20  1  0.557916  0.335810  0.747562  1
  Ga  Ga21  1  0.664190  0.442084  0.252438  1
  Co  Co22  1  0.329159  0.670841  0.500000  1
  Co  Co23  1  0.668799  0.331201  0.000000  1
  Co  Co24  1  0.670381  0.329619  0.500000  1
  Pd  Pd25  1  0.999315  0.000685  0.000000  1
  Pd  Pd26  1  0.000199  0.999801  0.500000  1
  Pd  Pd27  1  0.328473  0.671527  0.000000  1
