# generated using pymatgen
data_Ho6Si6OsRh3
_symmetry_space_group_name_H-M   'P 1'
_cell_length_a   5.73521061
_cell_length_b   5.73521015
_cell_length_c   13.68203782
_cell_angle_alpha   90.05559394
_cell_angle_beta   89.94440726
_cell_angle_gamma   137.33915385
_symmetry_Int_Tables_number   1
_chemical_formula_structural   Ho6Si6OsRh3
_chemical_formula_sum   'Ho6 Si6 Os1 Rh3'
_cell_volume   304.97158531
_cell_formula_units_Z   1
loop_
 _symmetry_equiv_pos_site_id
 _symmetry_equiv_pos_as_xyz
  1  'x, y, z'
loop_
 _atom_site_type_symbol
 _atom_site_label
 _atom_site_symmetry_multiplicity
 _atom_site_fract_x
 _atom_site_fract_y
 _atom_site_fract_z
 _atom_site_occupancy
  Ho  Ho0  1  0.643354  0.356646  0.249237  1
  Ho  Ho1  1  0.356641  0.643359  0.749734  1
  Ho  Ho2  1  0.923227  0.076773  0.114814  1
  Ho  Ho3  1  0.078380  0.921620  0.885960  1
  Ho  Ho4  1  0.080164  0.919836  0.615156  1
  Ho  Ho5  1  0.920398  0.079602  0.384943  1
  Si  Si6  1  0.335059  0.664941  0.249621  1
  Si  Si7  1  0.668721  0.331279  0.752407  1
  Si  Si8  1  0.612378  0.387622  0.039283  1
  Si  Si9  1  0.385479  0.614521  0.959252  1
  Si  Si10  1  0.390641  0.609359  0.539397  1
  Si  Si11  1  0.608735  0.391265  0.460100  1
  Os  Os12  1  0.784731  0.215269  0.918971  1
  Rh  Rh13  1  0.783382  0.216618  0.579417  1
  Rh  Rh14  1  0.214322  0.785678  0.421648  1
  Rh  Rh15  1  0.214387  0.785613  0.080062  1
