# generated using pymatgen
data_Pr3ThAgAs8Au3
_symmetry_space_group_name_H-M   'P 1'
_cell_length_a   5.85533200
_cell_length_b   5.88163751
_cell_length_c   20.64512815
_cell_angle_alpha   89.79191972
_cell_angle_beta   90.00000000
_cell_angle_gamma   90.00000000
_symmetry_Int_Tables_number   1
_chemical_formula_structural   Pr3ThAgAs8Au3
_chemical_formula_sum   'Pr6 Th2 Ag2 As16 Au6'
_cell_volume   710.99164709
_cell_formula_units_Z   2
loop_
 _symmetry_equiv_pos_site_id
 _symmetry_equiv_pos_as_xyz
  1  'x, y, z'
loop_
 _atom_site_type_symbol
 _atom_site_label
 _atom_site_symmetry_multiplicity
 _atom_site_fract_x
 _atom_site_fract_y
 _atom_site_fract_z
 _atom_site_occupancy
  Pr  Pr0  1  0.751529  0.987937  0.881529  1
  Pr  Pr1  1  0.251529  0.012063  0.118471  1
  Pr  Pr2  1  0.751234  0.489383  0.612961  1
  Pr  Pr3  1  0.251234  0.510617  0.387039  1
  Pr  Pr4  1  0.248317  0.485749  0.885742  1
  Pr  Pr5  1  0.748317  0.514251  0.114258  1
  Th  Th6  1  0.248413  0.992231  0.616622  1
  Th  Th7  1  0.748413  0.007769  0.383378  1
  Ag  Ag8  1  0.500088  0.732095  0.749297  1
  Ag  Ag9  1  0.000088  0.267905  0.250703  1
  As  As10  1  0.749005  0.989264  0.656332  1
  As  As11  1  0.249005  0.010736  0.343668  1
  As  As12  1  0.250201  0.986894  0.838893  1
  As  As13  1  0.750201  0.013106  0.161107  1
  As  As14  1  0.250529  0.490877  0.655229  1
  As  As15  1  0.750529  0.509123  0.344771  1
  As  As16  1  0.750017  0.486955  0.838997  1
  As  As17  1  0.250017  0.513045  0.161003  1
  As  As18  1  0.003254  0.229126  0.499979  1
  As  As19  1  0.503254  0.770874  0.500021  1
  As  As20  1  0.982215  0.223304  0.999548  1
  As  As21  1  0.482215  0.776696  0.000452  1
  As  As22  1  0.996337  0.770843  0.499863  1
  As  As23  1  0.496337  0.229157  0.500137  1
  As  As24  1  0.017838  0.776680  0.000632  1
  As  As25  1  0.517838  0.223320  0.999368  1
  Au  Au26  1  0.501004  0.267160  0.250574  1
  Au  Au27  1  0.001004  0.732840  0.749426  1
  Au  Au28  1  0.499698  0.233996  0.749398  1
  Au  Au29  1  0.999698  0.766004  0.250602  1
  Au  Au30  1  0.500318  0.765473  0.250796  1
  Au  Au31  1  0.000318  0.234527  0.749204  1
