# generated using pymatgen
data_Sm2TeS
_symmetry_space_group_name_H-M   'P 1'
_cell_length_a   4.13926500
_cell_length_b   4.13925293
_cell_length_c   14.15911000
_cell_angle_alpha   90.00000000
_cell_angle_beta   90.00000000
_cell_angle_gamma   120.00008843
_symmetry_Int_Tables_number   1
_chemical_formula_structural   Sm2TeS
_chemical_formula_sum   'Sm4 Te2 S2'
_cell_volume   210.09291027
_cell_formula_units_Z   2
loop_
 _symmetry_equiv_pos_site_id
 _symmetry_equiv_pos_as_xyz
  1  'x, y, z'
loop_
 _atom_site_type_symbol
 _atom_site_label
 _atom_site_symmetry_multiplicity
 _atom_site_fract_x
 _atom_site_fract_y
 _atom_site_fract_z
 _atom_site_occupancy
  Sm  Sm0  1  0.666668  0.333337  0.102546  1
  Sm  Sm1  1  0.666668  0.333337  0.397455  1
  Sm  Sm2  1  0.333331  0.666663  0.602545  1
  Sm  Sm3  1  0.333331  0.666663  0.897454  1
  Te  Te4  1  0.333339  0.666679  0.250000  1
  Te  Te5  1  0.666661  0.333321  0.750000  1
  S  S6  1  0.000000  0.000000  0.000000  1
  S  S7  1  0.000000  0.000000  0.500000  1
