# generated using pymatgen
data_LaDy2Y(NiAs)4
_symmetry_space_group_name_H-M   'P 1'
_cell_length_a   4.07050600
_cell_length_b   4.07050684
_cell_length_c   15.78479100
_cell_angle_alpha   90.00000000
_cell_angle_beta   90.00000000
_cell_angle_gamma   120.00000939
_symmetry_Int_Tables_number   1
_chemical_formula_structural   LaDy2Y(NiAs)4
_chemical_formula_sum   'La1 Dy2 Y1 Ni4 As4'
_cell_volume   226.49901366
_cell_formula_units_Z   1
loop_
 _symmetry_equiv_pos_site_id
 _symmetry_equiv_pos_as_xyz
  1  'x, y, z'
loop_
 _atom_site_type_symbol
 _atom_site_label
 _atom_site_symmetry_multiplicity
 _atom_site_fract_x
 _atom_site_fract_y
 _atom_site_fract_z
 _atom_site_occupancy
  La  La0  1  0.000000  0.000000  0.500000  1
  Dy  Dy1  1  0.000000  0.000000  0.244981  1
  Dy  Dy2  1  0.000000  0.000000  0.755019  1
  Y  Y3  1  0.000000  0.000000  0.000000  1
  Ni  Ni4  1  0.333333  0.666667  0.131167  1
  Ni  Ni5  1  0.666667  0.333333  0.868833  1
  Ni  Ni6  1  0.666667  0.333333  0.640962  1
  Ni  Ni7  1  0.333333  0.666667  0.359038  1
  As  As8  1  0.333333  0.666667  0.630499  1
  As  As9  1  0.666667  0.333333  0.369501  1
  As  As10  1  0.666667  0.333333  0.118948  1
  As  As11  1  0.333333  0.666667  0.881052  1
