# generated using pymatgen
data_Er3Tm9Co4BiRu
_symmetry_space_group_name_H-M   'P 1'
_cell_length_a   8.20126616
_cell_length_b   8.20126544
_cell_length_c   8.19997359
_cell_angle_alpha   110.75722908
_cell_angle_beta   111.37267653
_cell_angle_gamma   106.33611021
_symmetry_Int_Tables_number   1
_chemical_formula_structural   Er3Tm9Co4BiRu
_chemical_formula_sum   'Er3 Tm9 Co4 Bi1 Ru1'
_cell_volume   423.57578226
_cell_formula_units_Z   1
loop_
 _symmetry_equiv_pos_site_id
 _symmetry_equiv_pos_as_xyz
  1  'x, y, z'
loop_
 _atom_site_type_symbol
 _atom_site_label
 _atom_site_symmetry_multiplicity
 _atom_site_fract_x
 _atom_site_fract_y
 _atom_site_fract_z
 _atom_site_occupancy
  Er  Er0  1  0.283629  0.183103  0.466733  1
  Er  Er1  1  0.716410  0.817164  0.533573  1
  Er  Er2  1  0.283944  0.816746  0.100689  1
  Tm  Tm3  1  0.716834  0.182845  0.899680  1
  Tm  Tm4  1  0.620193  0.311162  0.308694  1
  Tm  Tm5  1  0.379975  0.688959  0.691177  1
  Tm  Tm6  1  0.002218  0.311201  0.691177  1
  Tm  Tm7  1  0.997532  0.688501  0.308694  1
  Tm  Tm8  1  0.212999  0.409145  0.195982  1
  Tm  Tm9  1  0.786782  0.590498  0.803931  1
  Tm  Tm10  1  0.213434  0.017150  0.803931  1
  Tm  Tm11  1  0.786836  0.982983  0.195982  1
  Co  Co12  1  0.999825  0.374728  0.374554  1
  Co  Co13  1  0.999879  0.625105  0.624983  1
  Co  Co14  1  0.388556  0.888782  0.500551  1
  Co  Co15  1  0.611769  0.111994  0.500551  1
  Bi  Bi16  1  0.499970  0.500028  0.999998  1
  Ru  Ru17  1  0.999214  0.999908  0.999121  1
