# generated using pymatgen
data_Zr5SiPb2
_symmetry_space_group_name_H-M   'P 1'
_cell_length_a   8.46961078
_cell_length_b   8.46970491
_cell_length_c   8.46960938
_cell_angle_alpha   96.08923438
_cell_angle_beta   96.06802940
_cell_angle_gamma   142.01793774
_symmetry_Int_Tables_number   1
_chemical_formula_structural   Zr5SiPb2
_chemical_formula_sum   'Zr10 Si2 Pb4'
_cell_volume   353.55657144
_cell_formula_units_Z   2
loop_
 _symmetry_equiv_pos_site_id
 _symmetry_equiv_pos_as_xyz
  1  'x, y, z'
loop_
 _atom_site_type_symbol
 _atom_site_label
 _atom_site_symmetry_multiplicity
 _atom_site_fract_x
 _atom_site_fract_y
 _atom_site_fract_z
 _atom_site_occupancy
  Zr  Zr0  1  0.426828  0.296320  0.723043  1
  Zr  Zr1  1  0.203819  0.073143  0.276810  1
  Zr  Zr2  1  0.573172  0.703680  0.276956  1
  Zr  Zr3  1  0.250010  0.750000  0.500010  1
  Zr  Zr4  1  0.296334  0.573143  0.869325  1
  Zr  Zr5  1  0.703666  0.426857  0.130675  1
  Zr  Zr6  1  0.749990  0.250000  0.499990  1
  Zr  Zr7  1  0.926724  0.203680  0.130508  1
  Zr  Zr8  1  0.796181  0.926857  0.723190  1
  Zr  Zr9  1  0.073276  0.796320  0.869492  1
  Si  Si10  1  0.250014  0.250000  0.000014  1
  Si  Si11  1  0.749986  0.750000  0.999986  1
  Pb  Pb12  1  0.165101  0.334735  0.499888  1
  Pb  Pb13  1  0.665154  0.165265  0.830367  1
  Pb  Pb14  1  0.834899  0.665265  0.500112  1
  Pb  Pb15  1  0.334846  0.834735  0.169633  1
