# generated using pymatgen
data_Tb2HoPaPt4
_symmetry_space_group_name_H-M   'P 1'
_cell_length_a   4.55566800
_cell_length_b   5.62313883
_cell_length_c   7.01345039
_cell_angle_alpha   91.04072615
_cell_angle_beta   90.00000000
_cell_angle_gamma   90.00000000
_symmetry_Int_Tables_number   1
_chemical_formula_structural   Tb2HoPaPt4
_chemical_formula_sum   'Tb2 Ho1 Pa1 Pt4'
_cell_volume   179.63499817
_cell_formula_units_Z   1
loop_
 _symmetry_equiv_pos_site_id
 _symmetry_equiv_pos_as_xyz
  1  'x, y, z'
loop_
 _atom_site_type_symbol
 _atom_site_label
 _atom_site_symmetry_multiplicity
 _atom_site_fract_x
 _atom_site_fract_y
 _atom_site_fract_z
 _atom_site_occupancy
  Tb  Tb0  1  0.250000  0.140991  0.184006  1
  Tb  Tb1  1  0.750000  0.644446  0.315534  1
  Ho  Ho2  1  0.750000  0.855635  0.820069  1
  Pa  Pa3  1  0.250000  0.356750  0.682961  1
  Pt  Pt4  1  0.250000  0.839171  0.553096  1
  Pt  Pt5  1  0.250000  0.652047  0.035126  1
  Pt  Pt6  1  0.750000  0.168346  0.465948  1
  Pt  Pt7  1  0.750000  0.342614  0.943260  1
