# generated using pymatgen
data_HoEr3Sc6(In2Pt)4
_symmetry_space_group_name_H-M   'P 1'
_cell_length_a   3.55112900
_cell_length_b   7.86650537
_cell_length_c   17.71737883
_cell_angle_alpha   90.03497650
_cell_angle_beta   90.00000000
_cell_angle_gamma   90.00000000
_symmetry_Int_Tables_number   1
_chemical_formula_structural   HoEr3Sc6(In2Pt)4
_chemical_formula_sum   'Ho1 Er3 Sc6 In8 Pt4'
_cell_volume   494.93444827
_cell_formula_units_Z   1
loop_
 _symmetry_equiv_pos_site_id
 _symmetry_equiv_pos_as_xyz
  1  'x, y, z'
loop_
 _atom_site_type_symbol
 _atom_site_label
 _atom_site_symmetry_multiplicity
 _atom_site_fract_x
 _atom_site_fract_y
 _atom_site_fract_z
 _atom_site_occupancy
  Ho  Ho0  1  0.000000  0.243231  0.219648  1
  Er  Er1  1  0.000000  0.756670  0.780292  1
  Er  Er2  1  0.000000  0.256677  0.719745  1
  Er  Er3  1  0.000000  0.743297  0.280282  1
  Sc  Sc4  1  0.000000  0.116553  0.415999  1
  Sc  Sc5  1  0.000000  0.883416  0.584026  1
  Sc  Sc6  1  0.000000  0.383430  0.915971  1
  Sc  Sc7  1  0.000000  0.616610  0.083999  1
  Sc  Sc8  1  0.000000  0.000023  0.000003  1
  Sc  Sc9  1  0.000000  0.500021  0.500000  1
  In  In10  1  0.500000  0.419339  0.355552  1
  In  In11  1  0.500000  0.580714  0.644511  1
  In  In12  1  0.500000  0.080731  0.855480  1
  In  In13  1  0.500000  0.919115  0.144494  1
  In  In14  1  0.500000  0.294273  0.061150  1
  In  In15  1  0.500000  0.705818  0.938760  1
  In  In16  1  0.500000  0.205842  0.561228  1
  In  In17  1  0.500000  0.794136  0.438771  1
  Pt  Pt18  1  0.500000  0.029448  0.308165  1
  Pt  Pt19  1  0.500000  0.970172  0.691973  1
  Pt  Pt20  1  0.500000  0.470188  0.808016  1
  Pt  Pt21  1  0.500000  0.530298  0.191935  1
