# generated using pymatgen
data_DyLuBe23Cu3
_symmetry_space_group_name_H-M   'P 1'
_cell_length_a   7.28845950
_cell_length_b   7.26866293
_cell_length_c   7.33812909
_cell_angle_alpha   59.86705856
_cell_angle_beta   59.59152713
_cell_angle_gamma   60.04165067
_symmetry_Int_Tables_number   1
_chemical_formula_structural   DyLuBe23Cu3
_chemical_formula_sum   'Dy1 Lu1 Be23 Cu3'
_cell_volume   273.84310154
_cell_formula_units_Z   1
loop_
 _symmetry_equiv_pos_site_id
 _symmetry_equiv_pos_as_xyz
  1  'x, y, z'
loop_
 _atom_site_type_symbol
 _atom_site_label
 _atom_site_symmetry_multiplicity
 _atom_site_fract_x
 _atom_site_fract_y
 _atom_site_fract_z
 _atom_site_occupancy
  Dy  Dy0  1  0.247802  0.248537  0.251521  1
  Lu  Lu1  1  0.751510  0.752301  0.747806  1
  Be  Be2  1  0.062951  0.935765  0.295962  1
  Be  Be3  1  0.705828  0.933306  0.067722  1
  Be  Be4  1  0.705115  0.058154  0.301162  1
  Be  Be5  1  0.066220  0.294581  0.707285  1
  Be  Be6  1  0.941220  0.295609  0.063869  1
  Be  Be7  1  0.933569  0.708851  0.294294  1
  Be  Be8  1  0.298806  0.939350  0.700028  1
  Be  Be9  1  0.291940  0.065870  0.935975  1
  Be  Be10  1  0.059939  0.701689  0.937556  1
  Be  Be11  1  0.789343  0.441350  0.560191  1
  Be  Be12  1  0.559532  0.209970  0.789994  1
  Be  Be13  1  0.208192  0.564108  0.439659  1
  Be  Be14  1  0.436454  0.790941  0.211742  1
  Be  Be15  1  0.785224  0.214025  0.430486  1
  Be  Be16  1  0.787986  0.564399  0.214928  1
  Be  Be17  1  0.430085  0.570487  0.777956  1
  Be  Be18  1  0.566018  0.786760  0.432838  1
  Be  Be19  1  0.568552  0.432011  0.221564  1
  Be  Be20  1  0.212944  0.434164  0.785455  1
  Be  Be21  1  0.214813  0.784177  0.563388  1
  Be  Be22  1  0.436061  0.211389  0.567506  1
  Be  Be23  1  0.999956  0.999969  0.000074  1
  Be  Be24  1  0.500820  0.499078  0.500468  1
  Cu  Cu25  1  0.693927  0.308323  0.944365  1
  Cu  Cu26  1  0.939849  0.058363  0.699134  1
  Cu  Cu27  1  0.305342  0.696472  0.057072  1
