# generated using pymatgen
data_Y3Ho7Si5Pb
_symmetry_space_group_name_H-M   'P 1'
_cell_length_a   8.49966800
_cell_length_b   8.53110373
_cell_length_c   6.38554800
_cell_angle_alpha   90.00000000
_cell_angle_beta   90.00000000
_cell_angle_gamma   119.87818124
_symmetry_Int_Tables_number   1
_chemical_formula_structural   Y3Ho7Si5Pb
_chemical_formula_sum   'Y3 Ho7 Si5 Pb1'
_cell_volume   401.48358245
_cell_formula_units_Z   1
loop_
 _symmetry_equiv_pos_site_id
 _symmetry_equiv_pos_as_xyz
  1  'x, y, z'
loop_
 _atom_site_type_symbol
 _atom_site_label
 _atom_site_symmetry_multiplicity
 _atom_site_fract_x
 _atom_site_fract_y
 _atom_site_fract_z
 _atom_site_occupancy
  Y  Y0  1  0.998372  0.242791  0.250000  1
  Y  Y1  1  0.755581  0.757209  0.250000  1
  Y  Y2  1  0.240718  0.000000  0.250000  1
  Ho  Ho3  1  0.987635  0.747441  0.750000  1
  Ho  Ho4  1  0.766894  0.000000  0.750000  1
  Ho  Ho5  1  0.240194  0.252559  0.750000  1
  Ho  Ho6  1  0.331186  0.656208  0.496362  1
  Ho  Ho7  1  0.674978  0.343792  0.003638  1
  Ho  Ho8  1  0.674978  0.343792  0.496362  1
  Ho  Ho9  1  0.331186  0.656208  0.003638  1
  Si  Si10  1  0.393894  0.392426  0.250000  1
  Si  Si11  1  0.001467  0.607574  0.250000  1
  Si  Si12  1  0.998430  0.394480  0.750000  1
  Si  Si13  1  0.603950  0.605520  0.750000  1
  Si  Si14  1  0.605542  0.000000  0.250000  1
  Pb  Pb15  1  0.394996  0.000000  0.750000  1
