# generated using pymatgen
data_Pr6C2SCl5
_symmetry_space_group_name_H-M   'P 1'
_cell_length_a   3.91893964
_cell_length_b   8.97922211
_cell_length_c   10.74094300
_cell_angle_alpha   87.02029458
_cell_angle_beta   79.42942303
_cell_angle_gamma   77.10151138
_symmetry_Int_Tables_number   1
_chemical_formula_structural   Pr6C2SCl5
_chemical_formula_sum   'Pr6 C2 S1 Cl5'
_cell_volume   362.14992661
_cell_formula_units_Z   1
loop_
 _symmetry_equiv_pos_site_id
 _symmetry_equiv_pos_as_xyz
  1  'x, y, z'
loop_
 _atom_site_type_symbol
 _atom_site_label
 _atom_site_symmetry_multiplicity
 _atom_site_fract_x
 _atom_site_fract_y
 _atom_site_fract_z
 _atom_site_occupancy
  Pr  Pr0  1  0.576933  0.066392  0.784043  1
  Pr  Pr1  1  0.957982  0.408141  0.678410  1
  Pr  Pr2  1  0.691244  0.164701  0.454359  1
  Pr  Pr3  1  0.047201  0.589554  0.320067  1
  Pr  Pr4  1  0.314024  0.833069  0.544174  1
  Pr  Pr5  1  0.428263  0.931326  0.214513  1
  C  C6  1  0.124678  0.123867  0.630017  1
  C  C7  1  0.880686  0.873867  0.368575  1
  S  S8  1  0.502570  0.498847  0.499205  1
  Cl  Cl9  1  0.755388  0.745773  0.748094  1
  Cl  Cl10  1  0.376745  0.372125  0.876139  1
  Cl  Cl11  1  0.250064  0.251947  0.250259  1
  Cl  Cl12  1  0.628440  0.625574  0.122325  1
  Cl  Cl13  1  0.003006  0.998408  0.999136  1
