# generated using pymatgen
data_NdTh2(InPd)3
_symmetry_space_group_name_H-M   'P 1'
_cell_length_a   7.70218900
_cell_length_b   7.74112811
_cell_length_c   4.12872100
_cell_angle_alpha   90.00000000
_cell_angle_beta   90.00000000
_cell_angle_gamma   119.83373844
_symmetry_Int_Tables_number   1
_chemical_formula_structural   NdTh2(InPd)3
_chemical_formula_sum   'Nd1 Th2 In3 Pd3'
_cell_volume   213.54517293
_cell_formula_units_Z   1
loop_
 _symmetry_equiv_pos_site_id
 _symmetry_equiv_pos_as_xyz
  1  'x, y, z'
loop_
 _atom_site_type_symbol
 _atom_site_label
 _atom_site_symmetry_multiplicity
 _atom_site_fract_x
 _atom_site_fract_y
 _atom_site_fract_z
 _atom_site_occupancy
  Nd  Nd0  1  0.587015  0.000000  0.000000  1
  Th  Th1  1  0.999672  0.584685  0.000000  1
  Th  Th2  1  0.414986  0.415315  0.000000  1
  In  In3  1  0.749645  0.755699  0.500000  1
  In  In4  1  0.993946  0.244301  0.500000  1
  In  In5  1  0.255524  0.000000  0.500000  1
  Pd  Pd6  1  0.322998  0.654934  0.500000  1
  Pd  Pd7  1  0.008150  0.000000  0.000000  1
  Pd  Pd8  1  0.668065  0.345066  0.500000  1
