# generated using pymatgen
data_Nd2ReP2RhO2
_symmetry_space_group_name_H-M   'P 1'
_cell_length_a   4.06789700
_cell_length_b   4.06789700
_cell_length_c   8.32743600
_cell_angle_alpha   90.00000000
_cell_angle_beta   90.00000000
_cell_angle_gamma   90.00000000
_symmetry_Int_Tables_number   1
_chemical_formula_structural   Nd2ReP2RhO2
_chemical_formula_sum   'Nd2 Re1 P2 Rh1 O2'
_cell_volume   137.80062888
_cell_formula_units_Z   1
loop_
 _symmetry_equiv_pos_site_id
 _symmetry_equiv_pos_as_xyz
  1  'x, y, z'
loop_
 _atom_site_type_symbol
 _atom_site_label
 _atom_site_symmetry_multiplicity
 _atom_site_fract_x
 _atom_site_fract_y
 _atom_site_fract_z
 _atom_site_occupancy
  Nd  Nd0  1  0.000000  0.000000  0.140070  1
  Nd  Nd1  1  0.500002  0.500002  0.859932  1
  Re  Re2  1  0.500000  0.000000  0.499999  1
  P  P3  1  0.500002  0.500002  0.354448  1
  P  P4  1  0.000000  0.000000  0.645550  1
  Rh  Rh5  1  0.000000  0.500000  0.499999  1
  O  O6  1  0.500000  0.000000  0.000000  1
  O  O7  1  0.000000  0.500000  0.000000  1
