# generated using pymatgen
data_Er8SnPd19Pt5
_symmetry_space_group_name_H-M   'P 1'
_cell_length_a   8.37536300
_cell_length_b   8.38473100
_cell_length_c   8.37267800
_cell_angle_alpha   90.00000000
_cell_angle_beta   90.00000000
_cell_angle_gamma   90.00000000
_symmetry_Int_Tables_number   1
_chemical_formula_structural   Er8SnPd19Pt5
_chemical_formula_sum   'Er8 Sn1 Pd19 Pt5'
_cell_volume   587.97270059
_cell_formula_units_Z   1
loop_
 _symmetry_equiv_pos_site_id
 _symmetry_equiv_pos_as_xyz
  1  'x, y, z'
loop_
 _atom_site_type_symbol
 _atom_site_label
 _atom_site_symmetry_multiplicity
 _atom_site_fract_x
 _atom_site_fract_y
 _atom_site_fract_z
 _atom_site_occupancy
  Er  Er0  1  0.252293  0.253531  0.253168  1
  Er  Er1  1  0.747167  0.746454  0.747102  1
  Er  Er2  1  0.747167  0.746454  0.252898  1
  Er  Er3  1  0.747707  0.253531  0.746832  1
  Er  Er4  1  0.252293  0.253531  0.746832  1
  Er  Er5  1  0.252833  0.746454  0.252898  1
  Er  Er6  1  0.252833  0.746454  0.747102  1
  Er  Er7  1  0.747707  0.253531  0.253168  1
  Sn  Sn8  1  0.000000  0.000133  0.000000  1
  Pd  Pd9  1  0.500000  0.264624  0.000000  1
  Pd  Pd10  1  0.000000  0.735324  0.500000  1
  Pd  Pd11  1  0.500000  0.735462  0.000000  1
  Pd  Pd12  1  0.500000  0.999967  0.265086  1
  Pd  Pd13  1  0.265265  0.000034  0.500000  1
  Pd  Pd14  1  0.500000  0.999967  0.734914  1
  Pd  Pd15  1  0.734735  0.000034  0.500000  1
  Pd  Pd16  1  0.000000  0.500235  0.264786  1
  Pd  Pd17  1  0.000000  0.500235  0.735214  1
  Pd  Pd18  1  0.500000  0.254496  0.500000  1
  Pd  Pd19  1  0.500000  0.745388  0.500000  1
  Pd  Pd20  1  0.500000  0.500082  0.254601  1
  Pd  Pd21  1  0.500000  0.500082  0.745399  1
  Pd  Pd22  1  0.307783  0.999969  0.000000  1
  Pd  Pd23  1  0.692217  0.999969  0.000000  1
  Pd  Pd24  1  0.000000  0.307515  0.000000  1
  Pd  Pd25  1  0.000000  0.692678  0.000000  1
  Pd  Pd26  1  0.000000  0.999749  0.307816  1
  Pd  Pd27  1  0.000000  0.999749  0.692184  1
  Pt  Pt28  1  0.264737  0.500042  0.000000  1
  Pt  Pt29  1  0.735263  0.500042  0.000000  1
  Pt  Pt30  1  0.000000  0.264394  0.500000  1
  Pt  Pt31  1  0.254420  0.499945  0.500000  1
  Pt  Pt32  1  0.745580  0.499945  0.500000  1
