# generated using pymatgen
data_EuTcPF
_symmetry_space_group_name_H-M   'P 1'
_cell_length_a   4.06656300
_cell_length_b   4.06656300
_cell_length_c   8.49968900
_cell_angle_alpha   90.00000000
_cell_angle_beta   90.00000000
_cell_angle_gamma   90.00000000
_symmetry_Int_Tables_number   1
_chemical_formula_structural   EuTcPF
_chemical_formula_sum   'Eu2 Tc2 P2 F2'
_cell_volume   140.55880139
_cell_formula_units_Z   2
loop_
 _symmetry_equiv_pos_site_id
 _symmetry_equiv_pos_as_xyz
  1  'x, y, z'
loop_
 _atom_site_type_symbol
 _atom_site_label
 _atom_site_symmetry_multiplicity
 _atom_site_fract_x
 _atom_site_fract_y
 _atom_site_fract_z
 _atom_site_occupancy
  Eu  Eu0  1  0.000000  0.000000  0.173265  1
  Eu  Eu1  1  0.500001  0.500001  0.826643  1
  Tc  Tc2  1  0.500001  0.000000  0.499990  1
  Tc  Tc3  1  0.000000  0.500001  0.499990  1
  P  P4  1  0.500001  0.500001  0.352584  1
  P  P5  1  0.000000  0.000000  0.647398  1
  F  F6  1  0.500001  0.000000  0.000065  1
  F  F7  1  0.000000  0.500001  0.000065  1
