# generated using pymatgen
data_NaNd6NiI12
_symmetry_space_group_name_H-M   'P 1'
_cell_length_a   10.02601624
_cell_length_b   10.02601679
_cell_length_c   10.02601662
_cell_angle_alpha   107.31572225
_cell_angle_beta   107.31572604
_cell_angle_gamma   107.31571750
_symmetry_Int_Tables_number   1
_chemical_formula_structural   NaNd6NiI12
_chemical_formula_sum   'Na1 Nd6 Ni1 I12'
_cell_volume   831.99197176
_cell_formula_units_Z   1
loop_
 _symmetry_equiv_pos_site_id
 _symmetry_equiv_pos_as_xyz
  1  'x, y, z'
loop_
 _atom_site_type_symbol
 _atom_site_label
 _atom_site_symmetry_multiplicity
 _atom_site_fract_x
 _atom_site_fract_y
 _atom_site_fract_z
 _atom_site_occupancy
  Na  Na0  1  0.500000  0.500000  0.500000  1
  Nd  Nd1  1  0.898511  0.971423  0.693037  1
  Nd  Nd2  1  0.693037  0.898511  0.971423  1
  Nd  Nd3  1  0.971423  0.693037  0.898511  1
  Nd  Nd4  1  0.101489  0.028577  0.306963  1
  Nd  Nd5  1  0.306963  0.101489  0.028577  1
  Nd  Nd6  1  0.028577  0.306963  0.101489  1
  Ni  Ni7  1  0.000000  0.000000  0.000000  1
  I  I8  1  0.924895  0.317744  0.773856  1
  I  I9  1  0.773856  0.924895  0.317744  1
  I  I10  1  0.317744  0.773856  0.924895  1
  I  I11  1  0.075105  0.682256  0.226144  1
  I  I12  1  0.226144  0.075105  0.682256  1
  I  I13  1  0.682256  0.226144  0.075105  1
  I  I14  1  0.544443  0.852081  0.623684  1
  I  I15  1  0.623684  0.544443  0.852081  1
  I  I16  1  0.852081  0.623684  0.544443  1
  I  I17  1  0.455557  0.147919  0.376316  1
  I  I18  1  0.376316  0.455557  0.147919  1
  I  I19  1  0.147919  0.376316  0.455557  1
