# generated using pymatgen
data_Pr6Pd7Au
_symmetry_space_group_name_H-M   'P 1'
_cell_length_a   8.26009267
_cell_length_b   8.26209095
_cell_length_c   8.29597355
_cell_angle_alpha   114.67069440
_cell_angle_beta   114.66900311
_cell_angle_gamma   114.35650096
_symmetry_Int_Tables_number   1
_chemical_formula_structural   Pr6Pd7Au
_chemical_formula_sum   'Pr6 Pd7 Au1'
_cell_volume   329.05417948
_cell_formula_units_Z   1
loop_
 _symmetry_equiv_pos_site_id
 _symmetry_equiv_pos_as_xyz
  1  'x, y, z'
loop_
 _atom_site_type_symbol
 _atom_site_label
 _atom_site_symmetry_multiplicity
 _atom_site_fract_x
 _atom_site_fract_y
 _atom_site_fract_z
 _atom_site_occupancy
  Pr  Pr0  1  0.407687  0.025482  0.275382  1
  Pr  Pr1  1  0.022755  0.279393  0.401631  1
  Pr  Pr2  1  0.280226  0.406477  0.027862  1
  Pr  Pr3  1  0.595113  0.972679  0.721851  1
  Pr  Pr4  1  0.968412  0.716870  0.598664  1
  Pr  Pr5  1  0.727822  0.603163  0.976156  1
  Pd  Pd6  1  0.002819  0.003889  0.002761  1
  Pd  Pd7  1  0.497861  0.498693  0.498340  1
  Pd  Pd8  1  0.057831  0.553564  0.220806  1
  Pd  Pd9  1  0.556250  0.222103  0.060545  1
  Pd  Pd10  1  0.778036  0.942601  0.446546  1
  Pd  Pd11  1  0.939329  0.442872  0.777511  1
  Pd  Pd12  1  0.444278  0.775440  0.938325  1
  Au  Au13  1  0.221580  0.056774  0.553618  1
