# generated using pymatgen
data_TbHo(Sc3Bi2)6
_symmetry_space_group_name_H-M   'P 1'
_cell_length_a   7.83289101
_cell_length_b   9.03369500
_cell_length_c   11.46425001
_cell_angle_alpha   90.00000000
_cell_angle_beta   89.99543381
_cell_angle_gamma   90.00000000
_symmetry_Int_Tables_number   1
_chemical_formula_structural   TbHo(Sc3Bi2)6
_chemical_formula_sum   'Tb1 Ho1 Sc18 Bi12'
_cell_volume   811.20973558
_cell_formula_units_Z   1
loop_
 _symmetry_equiv_pos_site_id
 _symmetry_equiv_pos_as_xyz
  1  'x, y, z'
loop_
 _atom_site_type_symbol
 _atom_site_label
 _atom_site_symmetry_multiplicity
 _atom_site_fract_x
 _atom_site_fract_y
 _atom_site_fract_z
 _atom_site_occupancy
  Tb  Tb0  1  0.684516  0.750000  0.780608  1
  Ho  Ho1  1  0.184661  0.750000  0.719077  1
  Sc  Sc2  1  0.351598  0.750000  0.221273  1
  Sc  Sc3  1  0.851649  0.750000  0.278732  1
  Sc  Sc4  1  0.649607  0.250000  0.782090  1
  Sc  Sc5  1  0.149675  0.250000  0.717866  1
  Sc  Sc6  1  0.694444  0.566618  0.061967  1
  Sc  Sc7  1  0.194499  0.933379  0.438133  1
  Sc  Sc8  1  0.306592  0.067934  0.940307  1
  Sc  Sc9  1  0.806503  0.432032  0.559634  1
  Sc  Sc10  1  0.306592  0.432066  0.940307  1
  Sc  Sc11  1  0.806503  0.067968  0.559634  1
  Sc  Sc12  1  0.694444  0.933382  0.061967  1
  Sc  Sc13  1  0.194499  0.566621  0.438133  1
  Sc  Sc14  1  0.479453  0.250000  0.486754  1
  Sc  Sc15  1  0.979600  0.250000  0.013272  1
  Sc  Sc16  1  0.518647  0.750000  0.508672  1
  Sc  Sc17  1  0.018907  0.750000  0.991363  1
  Sc  Sc18  1  0.313839  0.250000  0.218247  1
  Sc  Sc19  1  0.813837  0.250000  0.281750  1
  Bi  Bi20  1  0.401529  0.750000  0.966842  1
  Bi  Bi21  1  0.902401  0.750000  0.533346  1
  Bi  Bi22  1  0.594096  0.250000  0.040396  1
  Bi  Bi23  1  0.094041  0.250000  0.459606  1
  Bi  Bi24  1  0.566460  0.996293  0.325679  1
  Bi  Bi25  1  0.066407  0.503688  0.174359  1
  Bi  Bi26  1  0.435078  0.489408  0.671225  1
  Bi  Bi27  1  0.935991  0.010725  0.828748  1
  Bi  Bi28  1  0.435078  0.010592  0.671225  1
  Bi  Bi29  1  0.935991  0.489275  0.828748  1
  Bi  Bi30  1  0.566460  0.503707  0.325679  1
  Bi  Bi31  1  0.066407  0.996312  0.174359  1
