# generated using pymatgen
data_In3HgAsSe4
_symmetry_space_group_name_H-M   'P 1'
_cell_length_a   6.07690351
_cell_length_b   7.45655445
_cell_length_c   7.38628245
_cell_angle_alpha   80.89183772
_cell_angle_beta   65.66706079
_cell_angle_gamma   66.04482157
_symmetry_Int_Tables_number   1
_chemical_formula_structural   In3HgAsSe4
_chemical_formula_sum   'In3 Hg1 As1 Se4'
_cell_volume   278.67635526
_cell_formula_units_Z   1
loop_
 _symmetry_equiv_pos_site_id
 _symmetry_equiv_pos_as_xyz
  1  'x, y, z'
loop_
 _atom_site_type_symbol
 _atom_site_label
 _atom_site_symmetry_multiplicity
 _atom_site_fract_x
 _atom_site_fract_y
 _atom_site_fract_z
 _atom_site_occupancy
  In  In0  1  0.395980  0.396371  0.804827  1
  In  In1  1  0.612720  0.601549  0.198547  1
  In  In2  1  0.806634  0.797896  0.598374  1
  Hg  Hg3  1  0.993542  0.998705  0.995571  1
  As  As4  1  0.450006  0.699753  0.901501  1
  Se  Se5  1  0.615462  0.916238  0.317263  1
  Se  Se6  1  0.862606  0.109868  0.671414  1
  Se  Se7  1  0.057918  0.296358  0.121337  1
  Se  Se8  1  0.255134  0.483263  0.491167  1
