# generated using pymatgen
data_Li3Lu3InSiGe
_symmetry_space_group_name_H-M   'P 1'
_cell_length_a   7.11070600
_cell_length_b   7.11070647
_cell_length_c   4.16000000
_cell_angle_alpha   90.00000000
_cell_angle_beta   90.00000000
_cell_angle_gamma   120.00000712
_symmetry_Int_Tables_number   1
_chemical_formula_structural   Li3Lu3InSiGe
_chemical_formula_sum   'Li3 Lu3 In1 Si1 Ge1'
_cell_volume   182.15848479
_cell_formula_units_Z   1
loop_
 _symmetry_equiv_pos_site_id
 _symmetry_equiv_pos_as_xyz
  1  'x, y, z'
loop_
 _atom_site_type_symbol
 _atom_site_label
 _atom_site_symmetry_multiplicity
 _atom_site_fract_x
 _atom_site_fract_y
 _atom_site_fract_z
 _atom_site_occupancy
  Li  Li0  1  0.252266  0.999110  0.500000  1
  Li  Li1  1  0.000890  0.253156  0.500000  1
  Li  Li2  1  0.746844  0.747734  0.500000  1
  Lu  Lu3  1  0.556054  0.998242  0.000000  1
  Lu  Lu4  1  0.001758  0.557812  0.000000  1
  Lu  Lu5  1  0.442188  0.443946  0.000000  1
  In  In6  1  0.000000  0.000000  0.000000  1
  Si  Si7  1  0.333333  0.666667  0.500000  1
  Ge  Ge8  1  0.666667  0.333333  0.500000  1
