# generated using pymatgen
data_CsGdSiSe4
_symmetry_space_group_name_H-M   'P 1'
_cell_length_a   7.09121300
_cell_length_b   6.73174787
_cell_length_c   9.82504300
_cell_angle_alpha   72.31487404
_cell_angle_beta   90.00000000
_cell_angle_gamma   90.00000000
_symmetry_Int_Tables_number   1
_chemical_formula_structural   CsGdSiSe4
_chemical_formula_sum   'Cs2 Gd2 Si2 Se8'
_cell_volume   446.84551434
_cell_formula_units_Z   2
loop_
 _symmetry_equiv_pos_site_id
 _symmetry_equiv_pos_as_xyz
  1  'x, y, z'
loop_
 _atom_site_type_symbol
 _atom_site_label
 _atom_site_symmetry_multiplicity
 _atom_site_fract_x
 _atom_site_fract_y
 _atom_site_fract_z
 _atom_site_occupancy
  Cs  Cs0  1  0.978423  0.735771  0.063954  1
  Cs  Cs1  1  0.478423  0.264229  0.936046  1
  Gd  Gd2  1  0.500678  0.228689  0.454361  1
  Gd  Gd3  1  0.000678  0.771311  0.545639  1
  Si  Si4  1  0.461642  0.782230  0.336808  1
  Si  Si5  1  0.961642  0.217770  0.663192  1
  Se  Se6  1  0.469576  0.581544  0.188025  1
  Se  Se7  1  0.227669  0.030078  0.291890  1
  Se  Se8  1  0.730840  0.982440  0.311337  1
  Se  Se9  1  0.898172  0.424616  0.435985  1
  Se  Se10  1  0.398172  0.575384  0.564015  1
  Se  Se11  1  0.230840  0.017560  0.688663  1
  Se  Se12  1  0.727669  0.969922  0.708110  1
  Se  Se13  1  0.969576  0.418456  0.811975  1
