# generated using pymatgen
data_LiNd2ZnPt2
_symmetry_space_group_name_H-M   'P 1'
_cell_length_a   4.15676200
_cell_length_b   7.21542700
_cell_length_c   8.48365500
_cell_angle_alpha   90.00000000
_cell_angle_beta   90.00000000
_cell_angle_gamma   90.00000000
_symmetry_Int_Tables_number   1
_chemical_formula_structural   LiNd2ZnPt2
_chemical_formula_sum   'Li2 Nd4 Zn2 Pt4'
_cell_volume   254.44867600
_cell_formula_units_Z   2
loop_
 _symmetry_equiv_pos_site_id
 _symmetry_equiv_pos_as_xyz
  1  'x, y, z'
loop_
 _atom_site_type_symbol
 _atom_site_label
 _atom_site_symmetry_multiplicity
 _atom_site_fract_x
 _atom_site_fract_y
 _atom_site_fract_z
 _atom_site_occupancy
  Li  Li0  1  0.250000  0.630674  0.558841  1
  Li  Li1  1  0.250000  0.130674  0.941159  1
  Nd  Nd2  1  0.750000  0.460553  0.811460  1
  Nd  Nd3  1  0.250000  0.041568  0.312557  1
  Nd  Nd4  1  0.750000  0.960553  0.688540  1
  Nd  Nd5  1  0.250000  0.541568  0.187443  1
  Zn  Zn6  1  0.750000  0.366631  0.438597  1
  Zn  Zn7  1  0.750000  0.866631  0.061403  1
  Pt  Pt8  1  0.250000  0.755065  0.884618  1
  Pt  Pt9  1  0.250000  0.255065  0.615382  1
  Pt  Pt10  1  0.750000  0.745508  0.382732  1
  Pt  Pt11  1  0.750000  0.245508  0.117268  1
