# generated using pymatgen
data_GdTl2Cl5
_symmetry_space_group_name_H-M   'P 1'
_cell_length_a   8.12346100
_cell_length_b   8.68653600
_cell_length_c   13.07364400
_cell_angle_alpha   90.00000000
_cell_angle_beta   90.00000000
_cell_angle_gamma   90.00000000
_symmetry_Int_Tables_number   1
_chemical_formula_structural   GdTl2Cl5
_chemical_formula_sum   'Gd4 Tl8 Cl20'
_cell_volume   922.53824292
_cell_formula_units_Z   4
loop_
 _symmetry_equiv_pos_site_id
 _symmetry_equiv_pos_as_xyz
  1  'x, y, z'
loop_
 _atom_site_type_symbol
 _atom_site_label
 _atom_site_symmetry_multiplicity
 _atom_site_fract_x
 _atom_site_fract_y
 _atom_site_fract_z
 _atom_site_occupancy
  Gd  Gd0  1  0.927497  0.750000  0.503965  1
  Gd  Gd1  1  0.072503  0.250000  0.496035  1
  Gd  Gd2  1  0.427497  0.250000  0.996035  1
  Gd  Gd3  1  0.572503  0.750000  0.003965  1
  Tl  Tl4  1  0.948867  0.004613  0.828043  1
  Tl  Tl5  1  0.051133  0.995387  0.171957  1
  Tl  Tl6  1  0.448867  0.995387  0.671957  1
  Tl  Tl7  1  0.051133  0.504613  0.171957  1
  Tl  Tl8  1  0.551133  0.004613  0.328043  1
  Tl  Tl9  1  0.948867  0.495387  0.828043  1
  Tl  Tl10  1  0.551133  0.495387  0.328043  1
  Tl  Tl11  1  0.448867  0.504613  0.671957  1
  Cl  Cl12  1  0.119480  0.750000  0.673570  1
  Cl  Cl13  1  0.880520  0.250000  0.326430  1
  Cl  Cl14  1  0.619480  0.250000  0.826430  1
  Cl  Cl15  1  0.380520  0.750000  0.173570  1
  Cl  Cl16  1  0.840762  0.041885  0.573884  1
  Cl  Cl17  1  0.159238  0.958115  0.426116  1
  Cl  Cl18  1  0.340762  0.958115  0.926116  1
  Cl  Cl19  1  0.159238  0.541885  0.426116  1
  Cl  Cl20  1  0.659238  0.041885  0.073884  1
  Cl  Cl21  1  0.840762  0.458115  0.573884  1
  Cl  Cl22  1  0.659238  0.458115  0.073884  1
  Cl  Cl23  1  0.340762  0.541885  0.926116  1
  Cl  Cl24  1  0.588813  0.750000  0.509464  1
  Cl  Cl25  1  0.411187  0.250000  0.490536  1
  Cl  Cl26  1  0.088813  0.250000  0.990536  1
  Cl  Cl27  1  0.911187  0.750000  0.009464  1
  Cl  Cl28  1  0.658509  0.750000  0.802974  1
  Cl  Cl29  1  0.341491  0.250000  0.197026  1
  Cl  Cl30  1  0.158509  0.250000  0.697026  1
  Cl  Cl31  1  0.841491  0.750000  0.302974  1
