# generated using pymatgen
data_Zn22OsRh2
_symmetry_space_group_name_H-M   'P 1'
_cell_length_a   7.78433770
_cell_length_b   7.78433829
_cell_length_c   7.80236069
_cell_angle_alpha   72.62343634
_cell_angle_beta   72.62343646
_cell_angle_gamma   58.32665451
_symmetry_Int_Tables_number   1
_chemical_formula_structural   Zn22OsRh2
_chemical_formula_sum   'Zn22 Os1 Rh2'
_cell_volume   378.10779035
_cell_formula_units_Z   1
loop_
 _symmetry_equiv_pos_site_id
 _symmetry_equiv_pos_as_xyz
  1  'x, y, z'
loop_
 _atom_site_type_symbol
 _atom_site_label
 _atom_site_symmetry_multiplicity
 _atom_site_fract_x
 _atom_site_fract_y
 _atom_site_fract_z
 _atom_site_occupancy
  Zn  Zn0  1  0.342454  0.741609  0.313309  1
  Zn  Zn1  1  0.657546  0.258391  0.686691  1
  Zn  Zn2  1  0.258391  0.657546  0.686691  1
  Zn  Zn3  1  0.741609  0.342454  0.313309  1
  Zn  Zn4  1  0.678260  0.321740  0.000000  1
  Zn  Zn5  1  0.321740  0.678260  0.000000  1
  Zn  Zn6  1  0.830219  0.830219  0.783674  1
  Zn  Zn7  1  0.169781  0.169781  0.216326  1
  Zn  Zn8  1  0.973872  0.973872  0.173912  1
  Zn  Zn9  1  0.026128  0.026128  0.826088  1
  Zn  Zn10  1  0.354081  0.354081  0.276219  1
  Zn  Zn11  1  0.645919  0.645919  0.723781  1
  Zn  Zn12  1  0.687691  0.687691  0.376873  1
  Zn  Zn13  1  0.312309  0.312309  0.623127  1
  Zn  Zn14  1  0.658014  0.025835  0.460296  1
  Zn  Zn15  1  0.341986  0.974165  0.539704  1
  Zn  Zn16  1  0.974165  0.341986  0.539704  1
  Zn  Zn17  1  0.025835  0.658014  0.460296  1
  Zn  Zn18  1  0.617724  0.998874  0.104089  1
  Zn  Zn19  1  0.382276  0.001126  0.895911  1
  Zn  Zn20  1  0.001126  0.382276  0.895911  1
  Zn  Zn21  1  0.998874  0.617724  0.104089  1
  Os  Os22  1  0.000000  0.000000  0.500000  1
  Rh  Rh23  1  0.657512  0.657512  0.055663  1
  Rh  Rh24  1  0.342488  0.342488  0.944337  1
