# generated using pymatgen
data_Yb7PaSbPd24
_symmetry_space_group_name_H-M   'P 1'
_cell_length_a   8.36449587
_cell_length_b   8.36449587
_cell_length_c   8.36449587
_cell_angle_alpha   90.29654340
_cell_angle_beta   90.29654340
_cell_angle_gamma   89.70345660
_symmetry_Int_Tables_number   1
_chemical_formula_structural   Yb7PaSbPd24
_chemical_formula_sum   'Yb7 Pa1 Sb1 Pd24'
_cell_volume   585.19677312
_cell_formula_units_Z   1
loop_
 _symmetry_equiv_pos_site_id
 _symmetry_equiv_pos_as_xyz
  1  'x, y, z'
loop_
 _atom_site_type_symbol
 _atom_site_label
 _atom_site_symmetry_multiplicity
 _atom_site_fract_x
 _atom_site_fract_y
 _atom_site_fract_z
 _atom_site_occupancy
  Yb  Yb0  1  0.748240  0.251831  0.748169  1
  Yb  Yb1  1  0.251831  0.748240  0.748169  1
  Yb  Yb2  1  0.747924  0.747924  0.750886  1
  Yb  Yb3  1  0.747924  0.249114  0.252076  1
  Yb  Yb4  1  0.253434  0.253434  0.746566  1
  Yb  Yb5  1  0.249114  0.747924  0.252076  1
  Yb  Yb6  1  0.251831  0.251831  0.251760  1
  Pa  Pa7  1  0.740825  0.740825  0.259175  1
  Sb  Sb8  1  0.003541  0.003541  0.996459  1
  Pd  Pd9  1  0.997758  0.997758  0.306462  1
  Pd  Pd10  1  0.734809  0.993328  0.497211  1
  Pd  Pd11  1  0.734809  0.502789  0.006672  1
  Pd  Pd12  1  0.501473  0.000162  0.733634  1
  Pd  Pd13  1  0.993328  0.734809  0.497211  1
  Pd  Pd14  1  0.502789  0.993328  0.265191  1
  Pd  Pd15  1  0.000162  0.266366  0.498527  1
  Pd  Pd16  1  0.502789  0.734809  0.006672  1
  Pd  Pd17  1  0.254328  0.501074  0.498926  1
  Pd  Pd18  1  0.501074  0.501074  0.745672  1
  Pd  Pd19  1  0.502134  0.502134  0.255792  1
  Pd  Pd20  1  0.501074  0.254328  0.498926  1
  Pd  Pd21  1  0.502134  0.744208  0.497866  1
  Pd  Pd22  1  0.744208  0.502134  0.497866  1
  Pd  Pd23  1  0.311378  0.001050  0.998950  1
  Pd  Pd24  1  0.001050  0.001050  0.688622  1
  Pd  Pd25  1  0.993328  0.502789  0.265191  1
  Pd  Pd26  1  0.001050  0.311378  0.998950  1
  Pd  Pd27  1  0.997758  0.693538  0.002242  1
  Pd  Pd28  1  0.693538  0.997758  0.002242  1
  Pd  Pd29  1  0.266366  0.501473  0.999838  1
  Pd  Pd30  1  0.266366  0.000162  0.498527  1
  Pd  Pd31  1  0.000162  0.501473  0.733634  1
  Pd  Pd32  1  0.501473  0.266366  0.999838  1
