# generated using pymatgen
data_Tm3ZnIn4Ru
_symmetry_space_group_name_H-M   'P 1'
_cell_length_a   7.93094800
_cell_length_b   7.93094898
_cell_length_c   3.77216400
_cell_angle_alpha   90.00000000
_cell_angle_beta   90.00000000
_cell_angle_gamma   120.00000425
_symmetry_Int_Tables_number   1
_chemical_formula_structural   Tm3ZnIn4Ru
_chemical_formula_sum   'Tm3 Zn1 In4 Ru1'
_cell_volume   205.48088978
_cell_formula_units_Z   1
loop_
 _symmetry_equiv_pos_site_id
 _symmetry_equiv_pos_as_xyz
  1  'x, y, z'
loop_
 _atom_site_type_symbol
 _atom_site_label
 _atom_site_symmetry_multiplicity
 _atom_site_fract_x
 _atom_site_fract_y
 _atom_site_fract_z
 _atom_site_occupancy
  Tm  Tm0  1  0.289189  0.247235  0.500000  1
  Tm  Tm1  1  0.752765  0.041954  0.500000  1
  Tm  Tm2  1  0.958046  0.710811  0.500000  1
  Zn  Zn3  1  0.333333  0.666667  0.500000  1
  In  In4  1  0.068920  0.401165  0.000000  1
  In  In5  1  0.598835  0.667755  0.000000  1
  In  In6  1  0.332245  0.931080  0.000000  1
  In  In7  1  0.666667  0.333333  0.000000  1
  Ru  Ru8  1  0.000000  0.000000  0.000000  1
