# generated using pymatgen
data_Tm5LuAl24Os7Au
_symmetry_space_group_name_H-M   'P 1'
_cell_length_a   8.82027974
_cell_length_b   8.82326363
_cell_length_c   9.53481006
_cell_angle_alpha   89.73954487
_cell_angle_beta   90.27353815
_cell_angle_gamma   119.92465370
_symmetry_Int_Tables_number   1
_chemical_formula_structural   Tm5LuAl24Os7Au
_chemical_formula_sum   'Tm5 Lu1 Al24 Os7 Au1'
_cell_volume   643.09809352
_cell_formula_units_Z   1
loop_
 _symmetry_equiv_pos_site_id
 _symmetry_equiv_pos_as_xyz
  1  'x, y, z'
loop_
 _atom_site_type_symbol
 _atom_site_label
 _atom_site_symmetry_multiplicity
 _atom_site_fract_x
 _atom_site_fract_y
 _atom_site_fract_z
 _atom_site_occupancy
  Tm  Tm0  1  0.808782  0.610959  0.748110  1
  Tm  Tm1  1  0.610925  0.808662  0.251849  1
  Tm  Tm2  1  0.389053  0.191247  0.748148  1
  Tm  Tm3  1  0.196101  0.803749  0.254236  1
  Tm  Tm4  1  0.803839  0.196076  0.745775  1
  Lu  Lu5  1  0.191416  0.390001  0.252204  1
  Al  Al6  1  0.328674  0.670929  0.024446  1
  Al  Al7  1  0.671171  0.328739  0.975712  1
  Al  Al8  1  0.666138  0.333754  0.519668  1
  Al  Al9  1  0.333668  0.665887  0.480168  1
  Al  Al10  1  0.162984  0.325670  0.575894  1
  Al  Al11  1  0.837035  0.674377  0.423860  1
  Al  Al12  1  0.674305  0.837024  0.576065  1
  Al  Al13  1  0.848400  0.677771  0.080300  1
  Al  Al14  1  0.325640  0.163128  0.423830  1
  Al  Al15  1  0.151571  0.322254  0.919876  1
  Al  Al16  1  0.163318  0.836713  0.575924  1
  Al  Al17  1  0.322248  0.151686  0.080318  1
  Al  Al18  1  0.836866  0.163405  0.423961  1
  Al  Al19  1  0.677714  0.848395  0.919773  1
  Al  Al20  1  0.836954  0.163342  0.076842  1
  Al  Al21  1  0.163243  0.836793  0.923270  1
  Al  Al22  1  0.561006  0.121572  0.249346  1
  Al  Al23  1  0.439044  0.878515  0.750642  1
  Al  Al24  1  0.878812  0.438917  0.249354  1
  Al  Al25  1  0.121529  0.560968  0.750668  1
  Al  Al26  1  0.563136  0.436454  0.255505  1
  Al  Al27  1  0.436508  0.563464  0.744451  1
  Al  Al28  1  0.999675  0.000840  0.250317  1
  Al  Al29  1  0.000497  0.999517  0.749681  1
  Os  Os30  1  0.499908  0.999856  0.000033  1
  Os  Os31  1  0.000215  0.499868  0.000246  1
  Os  Os32  1  0.499896  0.999801  0.499953  1
  Os  Os33  1  0.000151  0.499889  0.499790  1
  Os  Os34  1  0.499670  0.499889  0.499789  1
  Os  Os35  1  0.999978  0.999944  0.999996  1
  Os  Os36  1  0.000006  0.999989  0.499960  1
  Au  Au37  1  0.499923  0.499956  0.000040  1
