# generated using pymatgen
data_AcZn9Ni2
_symmetry_space_group_name_H-M   'P 1'
_cell_length_a   8.20986671
_cell_length_b   8.20986771
_cell_length_c   8.20986717
_cell_angle_alpha   99.75152483
_cell_angle_beta   99.75152209
_cell_angle_gamma   131.39518015
_symmetry_Int_Tables_number   1
_chemical_formula_structural   AcZn9Ni2
_chemical_formula_sum   'Ac2 Zn18 Ni4'
_cell_volume   378.32798467
_cell_formula_units_Z   2
loop_
 _symmetry_equiv_pos_site_id
 _symmetry_equiv_pos_as_xyz
  1  'x, y, z'
loop_
 _atom_site_type_symbol
 _atom_site_label
 _atom_site_symmetry_multiplicity
 _atom_site_fract_x
 _atom_site_fract_y
 _atom_site_fract_z
 _atom_site_occupancy
  Ac  Ac0  1  0.000000  0.000000  0.000000  1
  Ac  Ac1  1  0.250000  0.750000  0.500000  1
  Zn  Zn2  1  0.056398  0.637021  0.827261  1
  Zn  Zn3  1  0.809760  0.229137  0.172739  1
  Zn  Zn4  1  0.750000  0.250000  0.500000  1
  Zn  Zn5  1  0.500000  0.500000  0.000000  1
  Zn  Zn6  1  0.809760  0.637021  0.580625  1
  Zn  Zn7  1  0.887021  0.806398  0.327261  1
  Zn  Zn8  1  0.479137  0.559760  0.672739  1
  Zn  Zn9  1  0.056398  0.229137  0.419375  1
  Zn  Zn10  1  0.770863  0.943602  0.580625  1
  Zn  Zn11  1  0.362979  0.190240  0.419375  1
  Zn  Zn12  1  0.440240  0.520863  0.327261  1
  Zn  Zn13  1  0.193602  0.112979  0.672739  1
  Zn  Zn14  1  0.440240  0.112979  0.919375  1
  Zn  Zn15  1  0.362979  0.943602  0.172739  1
  Zn  Zn16  1  0.770863  0.190240  0.827261  1
  Zn  Zn17  1  0.193602  0.520863  0.080625  1
  Zn  Zn18  1  0.479137  0.806398  0.919375  1
  Zn  Zn19  1  0.887021  0.559760  0.080625  1
  Ni  Ni20  1  0.625000  0.375000  0.750000  1
  Ni  Ni21  1  0.625000  0.375000  0.250000  1
  Ni  Ni22  1  0.125000  0.375000  0.750000  1
  Ni  Ni23  1  0.625000  0.875000  0.250000  1
