# generated using pymatgen
data_Er2Lu2NiRu7
_symmetry_space_group_name_H-M   'P 1'
_cell_length_a   5.18231800
_cell_length_b   5.22384145
_cell_length_c   8.77657100
_cell_angle_alpha   89.95530486
_cell_angle_beta   90.00000000
_cell_angle_gamma   119.73740122
_symmetry_Int_Tables_number   1
_chemical_formula_structural   Er2Lu2NiRu7
_chemical_formula_sum   'Er2 Lu2 Ni1 Ru7'
_cell_volume   206.30630295
_cell_formula_units_Z   1
loop_
 _symmetry_equiv_pos_site_id
 _symmetry_equiv_pos_as_xyz
  1  'x, y, z'
loop_
 _atom_site_type_symbol
 _atom_site_label
 _atom_site_symmetry_multiplicity
 _atom_site_fract_x
 _atom_site_fract_y
 _atom_site_fract_z
 _atom_site_occupancy
  Er  Er0  1  0.332604  0.665209  0.435075  1
  Er  Er1  1  0.665776  0.331552  0.568667  1
  Lu  Lu2  1  0.665843  0.331685  0.932716  1
  Lu  Lu3  1  0.332791  0.665583  0.064169  1
  Ni  Ni4  1  0.169169  0.338339  0.751260  1
  Ru  Ru5  1  0.175625  0.833923  0.751630  1
  Ru  Ru6  1  0.344090  0.173679  0.248287  1
  Ru  Ru7  1  0.831920  0.663837  0.248257  1
  Ru  Ru8  1  0.658297  0.833923  0.751630  1
  Ru  Ru9  1  0.997454  0.994909  0.997857  1
  Ru  Ru10  1  0.829590  0.173679  0.248287  1
  Ru  Ru11  1  0.996841  0.993682  0.502162  1
