# generated using pymatgen
data_Li5Ni9As2P5
_symmetry_space_group_name_H-M   'P 1'
_cell_length_a   9.16904935
_cell_length_b   9.10400908
_cell_length_c   3.66244400
_cell_angle_alpha   90.00000000
_cell_angle_beta   90.00000000
_cell_angle_gamma   120.11233630
_symmetry_Int_Tables_number   1
_chemical_formula_structural   Li5Ni9As2P5
_chemical_formula_sum   'Li5 Ni9 As2 P5'
_cell_volume   264.46359213
_cell_formula_units_Z   1
loop_
 _symmetry_equiv_pos_site_id
 _symmetry_equiv_pos_as_xyz
  1  'x, y, z'
loop_
 _atom_site_type_symbol
 _atom_site_label
 _atom_site_symmetry_multiplicity
 _atom_site_fract_x
 _atom_site_fract_y
 _atom_site_fract_z
 _atom_site_occupancy
  Li  Li0  1  0.881168  0.779245  0.500000  1
  Li  Li1  1  0.891924  0.117749  0.500000  1
  Li  Li2  1  0.226214  0.107140  0.500000  1
  Li  Li3  1  0.333736  0.667036  0.000000  1
  Li  Li4  1  0.655534  0.320466  0.500000  1
  Ni  Ni5  1  0.702293  0.879226  0.000000  1
  Ni  Ni6  1  0.177336  0.297008  0.000000  1
  Ni  Ni7  1  0.128690  0.830432  0.000000  1
  Ni  Ni8  1  0.614969  0.573021  0.000000  1
  Ni  Ni9  1  0.946627  0.365956  0.000000  1
  Ni  Ni10  1  0.431898  0.059666  0.000000  1
  Ni  Ni11  1  0.560359  0.954546  0.500000  1
  Ni  Ni12  1  0.392284  0.440027  0.500000  1
  Ni  Ni13  1  0.059510  0.609689  0.500000  1
  As  As14  1  0.000580  0.000186  0.000000  1
  As  As15  1  0.872337  0.572114  0.000000  1
  P  P16  1  0.583899  0.714642  0.500000  1
  P  P17  1  0.128927  0.412249  0.500000  1
  P  P18  1  0.290029  0.875198  0.500000  1
  P  P19  1  0.698150  0.121800  0.000000  1
  P  P20  1  0.423537  0.302607  0.000000  1
