# generated using pymatgen
data_CaDy2Lu3(Si3Ru)8
_symmetry_space_group_name_H-M   'P 1'
_cell_length_a   10.11054849
_cell_length_b   10.11054826
_cell_length_c   8.11705811
_cell_angle_alpha   89.93770532
_cell_angle_beta   90.06229888
_cell_angle_gamma   132.64032355
_symmetry_Int_Tables_number   1
_chemical_formula_structural   CaDy2Lu3(Si3Ru)8
_chemical_formula_sum   'Ca1 Dy2 Lu3 Si24 Ru8'
_cell_volume   610.38185615
_cell_formula_units_Z   1
loop_
 _symmetry_equiv_pos_site_id
 _symmetry_equiv_pos_as_xyz
  1  'x, y, z'
loop_
 _atom_site_type_symbol
 _atom_site_label
 _atom_site_symmetry_multiplicity
 _atom_site_fract_x
 _atom_site_fract_y
 _atom_site_fract_z
 _atom_site_occupancy
  Ca  Ca0  1  0.501786  0.001786  0.750000  1
  Dy  Dy1  1  0.496881  0.996881  0.250000  1
  Dy  Dy2  1  0.002698  0.502698  0.750000  1
  Lu  Lu3  1  0.500147  0.500422  0.500615  1
  Lu  Lu4  1  0.000422  0.000147  0.999385  1
  Lu  Lu5  1  0.999071  0.499071  0.250000  1
  Si  Si6  1  0.794694  0.205203  0.499326  1
  Si  Si7  1  0.294364  0.705419  0.999415  1
  Si  Si8  1  0.205419  0.794364  0.500585  1
  Si  Si9  1  0.705203  0.294694  0.000674  1
  Si  Si10  1  0.332028  0.333641  0.832743  1
  Si  Si11  1  0.667250  0.669133  0.167248  1
  Si  Si12  1  0.169133  0.167250  0.332752  1
  Si  Si13  1  0.833641  0.832028  0.667257  1
  Si  Si14  1  0.119475  0.885252  0.728700  1
  Si  Si15  1  0.111124  0.877741  0.272466  1
  Si  Si16  1  0.611820  0.378967  0.228403  1
  Si  Si17  1  0.624254  0.390879  0.771203  1
  Si  Si18  1  0.878967  0.111820  0.271597  1
  Si  Si19  1  0.890879  0.124254  0.728797  1
  Si  Si20  1  0.385252  0.619475  0.771300  1
  Si  Si21  1  0.377741  0.611124  0.227534  1
  Si  Si22  1  0.345099  0.112002  0.501603  1
  Si  Si23  1  0.888185  0.655273  0.495011  1
  Si  Si24  1  0.387402  0.154242  0.006762  1
  Si  Si25  1  0.844116  0.611963  0.995558  1
  Si  Si26  1  0.654242  0.887402  0.493238  1
  Si  Si27  1  0.111963  0.344116  0.504442  1
  Si  Si28  1  0.612002  0.845099  0.998397  1
  Si  Si29  1  0.155273  0.388185  0.004989  1
  Ru  Ru30  1  0.671023  0.332589  0.498008  1
  Ru  Ru31  1  0.166087  0.828591  0.002984  1
  Ru  Ru32  1  0.328591  0.666087  0.497016  1
  Ru  Ru33  1  0.832589  0.171023  0.001992  1
  Ru  Ru34  1  0.127327  0.126466  0.627475  1
  Ru  Ru35  1  0.873577  0.873810  0.372979  1
  Ru  Ru36  1  0.373810  0.373577  0.127021  1
  Ru  Ru37  1  0.626466  0.627327  0.872525  1
