# generated using pymatgen
data_BaHoSi4N7
_symmetry_space_group_name_H-M   'P 1'
_cell_length_a   6.08754200
_cell_length_b   6.08754148
_cell_length_c   9.91873300
_cell_angle_alpha   90.00000000
_cell_angle_beta   90.00000000
_cell_angle_gamma   119.99999194
_symmetry_Int_Tables_number   1
_chemical_formula_structural   BaHoSi4N7
_chemical_formula_sum   'Ba2 Ho2 Si8 N14'
_cell_volume   318.32501709
_cell_formula_units_Z   2
loop_
 _symmetry_equiv_pos_site_id
 _symmetry_equiv_pos_as_xyz
  1  'x, y, z'
loop_
 _atom_site_type_symbol
 _atom_site_label
 _atom_site_symmetry_multiplicity
 _atom_site_fract_x
 _atom_site_fract_y
 _atom_site_fract_z
 _atom_site_occupancy
  Ba  Ba0  1  0.333333  0.666667  0.362813  1
  Ba  Ba1  1  0.666667  0.333333  0.862813  1
  Ho  Ho2  1  0.333333  0.666667  0.736512  1
  Ho  Ho3  1  0.666667  0.333333  0.236512  1
  Si  Si4  1  0.825629  0.651256  0.546076  1
  Si  Si5  1  0.174371  0.825629  0.046076  1
  Si  Si6  1  0.651256  0.825629  0.046076  1
  Si  Si7  1  0.348744  0.174371  0.546076  1
  Si  Si8  1  0.825629  0.174371  0.546076  1
  Si  Si9  1  0.174371  0.348744  0.046076  1
  Si  Si10  1  0.000000  0.000000  0.814534  1
  Si  Si11  1  0.000000  0.000000  0.314534  1
  N  N12  1  0.000000  0.000000  0.623127  1
  N  N13  1  0.000000  0.000000  0.123127  1
  N  N14  1  0.153192  0.306385  0.873646  1
  N  N15  1  0.846808  0.153192  0.373646  1
  N  N16  1  0.306385  0.153192  0.373646  1
  N  N17  1  0.693615  0.846808  0.873646  1
  N  N18  1  0.153192  0.846808  0.873646  1
  N  N19  1  0.846808  0.693615  0.373646  1
  N  N20  1  0.976428  0.488215  0.599250  1
  N  N21  1  0.488215  0.976428  0.099250  1
  N  N22  1  0.488215  0.511785  0.099250  1
  N  N23  1  0.511785  0.488215  0.599250  1
  N  N24  1  0.023572  0.511785  0.099250  1
  N  N25  1  0.511785  0.023572  0.599250  1
