# generated using pymatgen
data_Ho2MoIr3
_symmetry_space_group_name_H-M   'P 1'
_cell_length_a   5.23447798
_cell_length_b   5.54566203
_cell_length_c   5.54566200
_cell_angle_alpha   60.00000017
_cell_angle_beta   58.01316072
_cell_angle_gamma   58.01316494
_symmetry_Int_Tables_number   1
_chemical_formula_structural   Ho2MoIr3
_chemical_formula_sum   'Ho2 Mo1 Ir3'
_cell_volume   110.29302061
_cell_formula_units_Z   1
loop_
 _symmetry_equiv_pos_site_id
 _symmetry_equiv_pos_as_xyz
  1  'x, y, z'
loop_
 _atom_site_type_symbol
 _atom_site_label
 _atom_site_symmetry_multiplicity
 _atom_site_fract_x
 _atom_site_fract_y
 _atom_site_fract_z
 _atom_site_occupancy
  Ho  Ho0  1  0.502137  0.499288  0.499288  1
  Ho  Ho1  1  0.747863  0.750712  0.750712  1
  Mo  Mo2  1  0.625000  0.125000  0.125000  1
  Ir  Ir3  1  0.125000  0.125000  0.125000  1
  Ir  Ir4  1  0.125000  0.625000  0.125000  1
  Ir  Ir5  1  0.125000  0.125000  0.625000  1
