# generated using pymatgen
data_Er5(GaBi)2
_symmetry_space_group_name_H-M   'P 1'
_cell_length_a   8.67809085
_cell_length_b   8.67809120
_cell_length_c   7.94576800
_cell_angle_alpha   90.00000000
_cell_angle_beta   90.00000000
_cell_angle_gamma   125.52606826
_symmetry_Int_Tables_number   1
_chemical_formula_structural   Er5(GaBi)2
_chemical_formula_sum   'Er10 Ga4 Bi4'
_cell_volume   487.00038639
_cell_formula_units_Z   2
loop_
 _symmetry_equiv_pos_site_id
 _symmetry_equiv_pos_as_xyz
  1  'x, y, z'
loop_
 _atom_site_type_symbol
 _atom_site_label
 _atom_site_symmetry_multiplicity
 _atom_site_fract_x
 _atom_site_fract_y
 _atom_site_fract_z
 _atom_site_occupancy
  Er  Er0  1  0.043361  0.293927  0.331893  1
  Er  Er1  1  0.956639  0.706073  0.668107  1
  Er  Er2  1  0.456639  0.206073  0.831893  1
  Er  Er3  1  0.793927  0.543361  0.168107  1
  Er  Er4  1  0.543361  0.793927  0.168107  1
  Er  Er5  1  0.206073  0.456639  0.831893  1
  Er  Er6  1  0.706073  0.956639  0.668107  1
  Er  Er7  1  0.293927  0.043361  0.331893  1
  Er  Er8  1  0.000000  0.000000  0.000000  1
  Er  Er9  1  0.500000  0.500000  0.500000  1
  Ga  Ga10  1  0.372927  0.372927  0.126835  1
  Ga  Ga11  1  0.627073  0.627073  0.873165  1
  Ga  Ga12  1  0.127073  0.127073  0.626835  1
  Ga  Ga13  1  0.872927  0.872927  0.373165  1
  Bi  Bi14  1  0.792012  0.207988  0.000000  1
  Bi  Bi15  1  0.207988  0.792012  0.000000  1
  Bi  Bi16  1  0.707988  0.292012  0.500000  1
  Bi  Bi17  1  0.292012  0.707988  0.500000  1
