# generated using pymatgen
data_La2Tm2CoI5
_symmetry_space_group_name_H-M   'P 1'
_cell_length_a   9.74181542
_cell_length_b   9.74181467
_cell_length_c   9.11506224
_cell_angle_alpha   76.43680021
_cell_angle_beta   76.43680215
_cell_angle_gamma   25.09043507
_symmetry_Int_Tables_number   1
_chemical_formula_structural   La2Tm2CoI5
_chemical_formula_sum   'La2 Tm2 Co1 I5'
_cell_volume   356.07723552
_cell_formula_units_Z   1
loop_
 _symmetry_equiv_pos_site_id
 _symmetry_equiv_pos_as_xyz
  1  'x, y, z'
loop_
 _atom_site_type_symbol
 _atom_site_label
 _atom_site_symmetry_multiplicity
 _atom_site_fract_x
 _atom_site_fract_y
 _atom_site_fract_z
 _atom_site_occupancy
  La  La0  1  0.866608  0.866608  0.068722  1
  La  La1  1  0.133392  0.133392  0.931278  1
  Tm  Tm2  1  0.499788  0.499788  0.206837  1
  Tm  Tm3  1  0.500212  0.500212  0.793163  1
  Co  Co4  1  0.000000  0.000000  0.000000  1
  I  I5  1  0.669452  0.669452  0.184027  1
  I  I6  1  0.330548  0.330548  0.815973  1
  I  I7  1  0.664124  0.664124  0.648637  1
  I  I8  1  0.335876  0.335876  0.351363  1
  I  I9  1  0.000000  0.000000  0.500000  1
