# generated using pymatgen
data_SmLu7(Sc3Pt4)4
_symmetry_space_group_name_H-M   'P 1'
_cell_length_a   7.19961559
_cell_length_b   7.15735934
_cell_length_c   14.30181407
_cell_angle_alpha   90.05843068
_cell_angle_beta   90.55815100
_cell_angle_gamma   89.95952257
_symmetry_Int_Tables_number   1
_chemical_formula_structural   SmLu7(Sc3Pt4)4
_chemical_formula_sum   'Sm1 Lu7 Sc12 Pt16'
_cell_volume   736.94032236
_cell_formula_units_Z   1
loop_
 _symmetry_equiv_pos_site_id
 _symmetry_equiv_pos_as_xyz
  1  'x, y, z'
loop_
 _atom_site_type_symbol
 _atom_site_label
 _atom_site_symmetry_multiplicity
 _atom_site_fract_x
 _atom_site_fract_y
 _atom_site_fract_z
 _atom_site_occupancy
  Sm  Sm0  1  0.486198  0.674327  0.591772  1
  Lu  Lu1  1  0.990896  0.822329  0.910959  1
  Lu  Lu2  1  0.511462  0.323182  0.091301  1
  Lu  Lu3  1  0.011763  0.176296  0.407576  1
  Lu  Lu4  1  0.513063  0.320913  0.405912  1
  Lu  Lu5  1  0.010366  0.178230  0.090943  1
  Lu  Lu6  1  0.489291  0.676146  0.909054  1
  Lu  Lu7  1  0.989241  0.823190  0.590958  1
  Sc  Sc8  1  0.641487  0.168513  0.624909  1
  Sc  Sc9  1  0.142159  0.333036  0.876838  1
  Sc  Sc10  1  0.356791  0.833152  0.123857  1
  Sc  Sc11  1  0.859101  0.669550  0.374610  1
  Sc  Sc12  1  0.356162  0.834091  0.373941  1
  Sc  Sc13  1  0.856908  0.665908  0.124925  1
  Sc  Sc14  1  0.644781  0.166396  0.877254  1
  Sc  Sc15  1  0.136144  0.330105  0.626230  1
  Sc  Sc16  1  0.807498  0.501226  0.752503  1
  Sc  Sc17  1  0.309613  0.997469  0.752857  1
  Sc  Sc18  1  0.192086  0.499546  0.249327  1
  Sc  Sc19  1  0.690512  0.001511  0.248477  1
  Pt  Pt20  1  0.688670  0.963062  0.459331  1
  Pt  Pt21  1  0.187794  0.541408  0.039865  1
  Pt  Pt22  1  0.312463  0.043273  0.962057  1
  Pt  Pt23  1  0.817544  0.453444  0.536318  1
  Pt  Pt24  1  0.311350  0.049467  0.535836  1
  Pt  Pt25  1  0.811580  0.458917  0.961715  1
  Pt  Pt26  1  0.688147  0.956633  0.039123  1
  Pt  Pt27  1  0.186278  0.536031  0.456398  1
  Pt  Pt28  1  0.440896  0.383357  0.752993  1
  Pt  Pt29  1  0.945110  0.112602  0.750919  1
  Pt  Pt30  1  0.557261  0.612549  0.249360  1
  Pt  Pt31  1  0.055911  0.890105  0.248991  1
  Pt  Pt32  1  0.668763  0.852879  0.754540  1
  Pt  Pt33  1  0.158664  0.650900  0.752324  1
  Pt  Pt34  1  0.336218  0.150769  0.247534  1
  Pt  Pt35  1  0.837831  0.349489  0.248494  1
