# generated using pymatgen
data_Hf3ZrAl4ZnMo3
_symmetry_space_group_name_H-M   'P 1'
_cell_length_a   5.28401712
_cell_length_b   5.28401572
_cell_length_c   8.71667600
_cell_angle_alpha   89.99851744
_cell_angle_beta   90.00148446
_cell_angle_gamma   119.51216729
_symmetry_Int_Tables_number   1
_chemical_formula_structural   Hf3ZrAl4ZnMo3
_chemical_formula_sum   'Hf3 Zr1 Al4 Zn1 Mo3'
_cell_volume   211.79895059
_cell_formula_units_Z   1
loop_
 _symmetry_equiv_pos_site_id
 _symmetry_equiv_pos_as_xyz
  1  'x, y, z'
loop_
 _atom_site_type_symbol
 _atom_site_label
 _atom_site_symmetry_multiplicity
 _atom_site_fract_x
 _atom_site_fract_y
 _atom_site_fract_z
 _atom_site_occupancy
  Hf  Hf0  1  0.665223  0.334777  0.317490  1
  Hf  Hf1  1  0.665233  0.334767  0.683025  1
  Hf  Hf2  1  0.333831  0.666169  0.813055  1
  Zr  Zr3  1  0.333980  0.666020  0.185380  1
  Al  Al4  1  0.997723  0.002277  0.247372  1
  Al  Al5  1  0.997733  0.002267  0.752944  1
  Al  Al6  1  0.831175  0.652263  0.999606  1
  Al  Al7  1  0.347737  0.168825  0.999606  1
  Zn  Zn8  1  0.830540  0.169460  0.999690  1
  Mo  Mo9  1  0.169458  0.342201  0.500615  1
  Mo  Mo10  1  0.657799  0.830542  0.500615  1
  Mo  Mo11  1  0.169658  0.830342  0.500601  1
