# generated using pymatgen
data_Tb2DyTm(Si3Ni5)4
_symmetry_space_group_name_H-M   'P 1'
_cell_length_a   3.80536100
_cell_length_b   6.57469819
_cell_length_c   18.79515804
_cell_angle_alpha   89.98212594
_cell_angle_beta   90.00000000
_cell_angle_gamma   90.00000000
_symmetry_Int_Tables_number   1
_chemical_formula_structural   Tb2DyTm(Si3Ni5)4
_chemical_formula_sum   'Tb2 Dy1 Tm1 Si12 Ni20'
_cell_volume   470.23791753
_cell_formula_units_Z   1
loop_
 _symmetry_equiv_pos_site_id
 _symmetry_equiv_pos_as_xyz
  1  'x, y, z'
loop_
 _atom_site_type_symbol
 _atom_site_label
 _atom_site_symmetry_multiplicity
 _atom_site_fract_x
 _atom_site_fract_y
 _atom_site_fract_z
 _atom_site_occupancy
  Tb  Tb0  1  0.750000  0.124630  0.643689  1
  Tb  Tb1  1  0.250000  0.624049  0.856052  1
  Dy  Dy2  1  0.750000  0.375614  0.144218  1
  Tm  Tm3  1  0.250000  0.876350  0.355757  1
  Si  Si4  1  0.250000  0.076914  0.086823  1
  Si  Si5  1  0.750000  0.922969  0.913680  1
  Si  Si6  1  0.750000  0.580219  0.413227  1
  Si  Si7  1  0.250000  0.423035  0.585648  1
  Si  Si8  1  0.250000  0.656621  0.074172  1
  Si  Si9  1  0.750000  0.342974  0.926344  1
  Si  Si10  1  0.750000  0.155141  0.425658  1
  Si  Si11  1  0.250000  0.843020  0.573846  1
  Si  Si12  1  0.250000  0.380322  0.262852  1
  Si  Si13  1  0.750000  0.619415  0.737044  1
  Si  Si14  1  0.750000  0.880113  0.238052  1
  Si  Si15  1  0.250000  0.119784  0.762741  1
  Ni  Ni16  1  0.250000  0.070652  0.207671  1
  Ni  Ni17  1  0.750000  0.928878  0.792911  1
  Ni  Ni18  1  0.750000  0.571432  0.293375  1
  Ni  Ni19  1  0.250000  0.428912  0.706625  1
  Ni  Ni20  1  0.250000  0.616248  0.482870  1
  Ni  Ni21  1  0.750000  0.386695  0.515378  1
  Ni  Ni22  1  0.750000  0.113657  0.016601  1
  Ni  Ni23  1  0.250000  0.886118  0.983854  1
  Ni  Ni24  1  0.250000  0.686321  0.199524  1
  Ni  Ni25  1  0.750000  0.313489  0.800968  1
  Ni  Ni26  1  0.750000  0.185002  0.301331  1
  Ni  Ni27  1  0.250000  0.813577  0.698977  1
  Ni  Ni28  1  0.250000  0.353103  0.384170  1
  Ni  Ni29  1  0.750000  0.645669  0.615657  1
  Ni  Ni30  1  0.750000  0.853596  0.116420  1
  Ni  Ni31  1  0.250000  0.146166  0.884154  1
  Ni  Ni32  1  0.250000  0.364959  0.005739  1
  Ni  Ni33  1  0.750000  0.634811  0.994812  1
  Ni  Ni34  1  0.750000  0.865431  0.494158  1
  Ni  Ni35  1  0.250000  0.134112  0.505002  1
