# generated using pymatgen
data_Pr8Ga3Tc
_symmetry_space_group_name_H-M   'P 1'
_cell_length_a   10.59803400
_cell_length_b   10.59818726
_cell_length_c   7.13005700
_cell_angle_alpha   90.00000000
_cell_angle_beta   90.00000000
_cell_angle_gamma   120.00026382
_symmetry_Int_Tables_number   1
_chemical_formula_structural   Pr8Ga3Tc
_chemical_formula_sum   'Pr16 Ga6 Tc2'
_cell_volume   693.55255520
_cell_formula_units_Z   2
loop_
 _symmetry_equiv_pos_site_id
 _symmetry_equiv_pos_as_xyz
  1  'x, y, z'
loop_
 _atom_site_type_symbol
 _atom_site_label
 _atom_site_symmetry_multiplicity
 _atom_site_fract_x
 _atom_site_fract_y
 _atom_site_fract_z
 _atom_site_occupancy
  Pr  Pr0  1  0.169007  0.830994  0.990956  1
  Pr  Pr1  1  0.338013  0.169006  0.490956  1
  Pr  Pr2  1  0.830993  0.661988  0.490956  1
  Pr  Pr3  1  0.169007  0.338012  0.990956  1
  Pr  Pr4  1  0.661987  0.830994  0.990956  1
  Pr  Pr5  1  0.830993  0.169006  0.490956  1
  Pr  Pr6  1  0.333335  0.666665  0.666318  1
  Pr  Pr7  1  0.666665  0.333335  0.166318  1
  Pr  Pr8  1  0.463631  0.536370  0.296285  1
  Pr  Pr9  1  0.927260  0.463630  0.796285  1
  Pr  Pr10  1  0.536369  0.072738  0.796285  1
  Pr  Pr11  1  0.463631  0.927262  0.296285  1
  Pr  Pr12  1  0.072740  0.536370  0.296285  1
  Pr  Pr13  1  0.536369  0.463630  0.796285  1
  Pr  Pr14  1  0.000000  0.000001  0.274145  1
  Pr  Pr15  1  0.000000  0.999999  0.774145  1
  Ga  Ga16  1  0.164920  0.835080  0.536040  1
  Ga  Ga17  1  0.329834  0.164917  0.036044  1
  Ga  Ga18  1  0.835078  0.670156  0.036045  1
  Ga  Ga19  1  0.164922  0.329844  0.536045  1
  Ga  Ga20  1  0.670166  0.835083  0.536044  1
  Ga  Ga21  1  0.835080  0.164920  0.036040  1
  Tc  Tc22  1  0.333333  0.666667  0.052685  1
  Tc  Tc23  1  0.666667  0.333333  0.552685  1
