# generated using pymatgen
data_Hf16Co4Pd3Ru
_symmetry_space_group_name_H-M   'P 1'
_cell_length_a   8.61936801
_cell_length_b   8.61909820
_cell_length_c   8.61924792
_cell_angle_alpha   60.13818223
_cell_angle_beta   60.13987387
_cell_angle_gamma   60.13815125
_symmetry_Int_Tables_number   1
_chemical_formula_structural   Hf16Co4Pd3Ru
_chemical_formula_sum   'Hf16 Co4 Pd3 Ru1'
_cell_volume   454.20755601
_cell_formula_units_Z   1
loop_
 _symmetry_equiv_pos_site_id
 _symmetry_equiv_pos_as_xyz
  1  'x, y, z'
loop_
 _atom_site_type_symbol
 _atom_site_label
 _atom_site_symmetry_multiplicity
 _atom_site_fract_x
 _atom_site_fract_y
 _atom_site_fract_z
 _atom_site_occupancy
  Hf  Hf0  1  0.064005  0.645465  0.645494  1
  Hf  Hf1  1  0.645544  0.064024  0.645449  1
  Hf  Hf2  1  0.645537  0.645409  0.064073  1
  Hf  Hf3  1  0.642770  0.642678  0.642702  1
  Hf  Hf4  1  0.810280  0.810228  0.189382  1
  Hf  Hf5  1  0.192763  0.192875  0.806328  1
  Hf  Hf6  1  0.810244  0.189417  0.810220  1
  Hf  Hf7  1  0.192771  0.806319  0.192852  1
  Hf  Hf8  1  0.189344  0.810234  0.810259  1
  Hf  Hf9  1  0.806351  0.192823  0.192788  1
  Hf  Hf10  1  0.438170  0.438073  0.068638  1
  Hf  Hf11  1  0.064017  0.064021  0.436289  1
  Hf  Hf12  1  0.438105  0.068696  0.438051  1
  Hf  Hf13  1  0.063979  0.436311  0.063967  1
  Hf  Hf14  1  0.068634  0.438109  0.438156  1
  Hf  Hf15  1  0.436306  0.064031  0.064016  1
  Co  Co16  1  0.431757  0.854395  0.854406  1
  Co  Co17  1  0.854376  0.431772  0.854415  1
  Co  Co18  1  0.854370  0.854402  0.431780  1
  Co  Co19  1  0.856792  0.856806  0.856837  1
  Pd  Pd20  1  0.758574  0.411931  0.411936  1
  Pd  Pd21  1  0.411931  0.758556  0.411950  1
  Pd  Pd22  1  0.411934  0.411948  0.758553  1
  Ru  Ru23  1  0.411443  0.411475  0.411460  1
