# generated using pymatgen
data_Lu3ScAu5
_symmetry_space_group_name_H-M   'P 1'
_cell_length_a   7.79774723
_cell_length_b   7.79774701
_cell_length_c   7.79774562
_cell_angle_alpha   66.37721104
_cell_angle_beta   66.37721129
_cell_angle_gamma   66.37720063
_symmetry_Int_Tables_number   1
_chemical_formula_structural   Lu3ScAu5
_chemical_formula_sum   'Lu6 Sc2 Au10'
_cell_volume   381.37319950
_cell_formula_units_Z   2
loop_
 _symmetry_equiv_pos_site_id
 _symmetry_equiv_pos_as_xyz
  1  'x, y, z'
loop_
 _atom_site_type_symbol
 _atom_site_label
 _atom_site_symmetry_multiplicity
 _atom_site_fract_x
 _atom_site_fract_y
 _atom_site_fract_z
 _atom_site_occupancy
  Lu  Lu0  1  0.891099  0.189104  0.617920  1
  Lu  Lu1  1  0.617920  0.891099  0.189104  1
  Lu  Lu2  1  0.189104  0.617920  0.891099  1
  Lu  Lu3  1  0.108901  0.810896  0.382080  1
  Lu  Lu4  1  0.382080  0.108901  0.810896  1
  Lu  Lu5  1  0.810896  0.382080  0.108901  1
  Sc  Sc6  1  0.659723  0.659723  0.659723  1
  Sc  Sc7  1  0.340277  0.340277  0.340277  1
  Au  Au8  1  0.000000  0.000000  0.000000  1
  Au  Au9  1  0.500000  0.500000  0.500000  1
  Au  Au10  1  0.809465  0.809465  0.809465  1
  Au  Au11  1  0.190535  0.190535  0.190535  1
  Au  Au12  1  0.936525  0.551509  0.317188  1
  Au  Au13  1  0.317188  0.936525  0.551509  1
  Au  Au14  1  0.551509  0.317188  0.936525  1
  Au  Au15  1  0.063475  0.448491  0.682812  1
  Au  Au16  1  0.682812  0.063475  0.448491  1
  Au  Au17  1  0.448491  0.682812  0.063475  1
