# generated using pymatgen
data_Na2MgHO11
_symmetry_space_group_name_H-M   'P 1'
_cell_length_a   4.25684347
_cell_length_b   7.63545825
_cell_length_c   7.43618082
_cell_angle_alpha   91.19469285
_cell_angle_beta   91.98674823
_cell_angle_gamma   94.41294220
_symmetry_Int_Tables_number   1
_chemical_formula_structural   Na2MgHO11
_chemical_formula_sum   'Na2 Mg1 H1 O11'
_cell_volume   240.76933333
_cell_formula_units_Z   1
loop_
 _symmetry_equiv_pos_site_id
 _symmetry_equiv_pos_as_xyz
  1  'x, y, z'
loop_
 _atom_site_type_symbol
 _atom_site_label
 _atom_site_symmetry_multiplicity
 _atom_site_fract_x
 _atom_site_fract_y
 _atom_site_fract_z
 _atom_site_occupancy
  Na  Na0  1  0.105452  0.891562  0.399606  1
  Na  Na1  1  0.326241  0.312306  0.263044  1
  Mg  Mg2  1  0.435218  0.034742  0.856786  1
  H  H3  1  0.460079  0.360872  0.913054  1
  O  O4  1  0.917248  0.970178  0.843099  1
  O  O5  1  0.622314  0.640474  0.304910  1
  O  O6  1  0.450461  0.255305  0.983377  1
  O  O7  1  0.938007  0.806848  0.756427  1
  O  O8  1  0.703198  0.831347  0.162069  1
  O  O9  1  0.319902  0.628762  0.311372  1
  O  O10  1  0.424322  0.882761  0.128387  1
  O  O11  1  0.459574  0.114291  0.574611  1
  O  O12  1  0.814570  0.202290  0.365465  1
  O  O13  1  0.775974  0.137165  0.530619  1
  O  O14  1  0.242292  0.783278  0.725676  1
