# generated using pymatgen
data_Ho20Zn3Cd3Ru2
_symmetry_space_group_name_H-M   'P 1'
_cell_length_a   9.47713100
_cell_length_b   9.47713108
_cell_length_c   9.65828800
_cell_angle_alpha   90.00000000
_cell_angle_beta   90.00000000
_cell_angle_gamma   120.00000323
_symmetry_Int_Tables_number   1
_chemical_formula_structural   Ho20Zn3Cd3Ru2
_chemical_formula_sum   'Ho20 Zn3 Cd3 Ru2'
_cell_volume   751.25009537
_cell_formula_units_Z   1
loop_
 _symmetry_equiv_pos_site_id
 _symmetry_equiv_pos_as_xyz
  1  'x, y, z'
loop_
 _atom_site_type_symbol
 _atom_site_label
 _atom_site_symmetry_multiplicity
 _atom_site_fract_x
 _atom_site_fract_y
 _atom_site_fract_z
 _atom_site_occupancy
  Ho  Ho0  1  0.000000  0.000000  0.474577  1
  Ho  Ho1  1  0.000000  0.000000  0.025423  1
  Ho  Ho2  1  0.208048  0.791952  0.438913  1
  Ho  Ho3  1  0.208048  0.416095  0.438913  1
  Ho  Ho4  1  0.583905  0.791952  0.438913  1
  Ho  Ho5  1  0.790979  0.209021  0.556812  1
  Ho  Ho6  1  0.790979  0.581958  0.556812  1
  Ho  Ho7  1  0.418042  0.209021  0.556812  1
  Ho  Ho8  1  0.790979  0.209021  0.943188  1
  Ho  Ho9  1  0.790979  0.581958  0.943188  1
  Ho  Ho10  1  0.418042  0.209021  0.943188  1
  Ho  Ho11  1  0.208048  0.791952  0.061087  1
  Ho  Ho12  1  0.208048  0.416095  0.061087  1
  Ho  Ho13  1  0.583905  0.791952  0.061087  1
  Ho  Ho14  1  0.541542  0.458458  0.250000  1
  Ho  Ho15  1  0.541542  0.083083  0.250000  1
  Ho  Ho16  1  0.916917  0.458458  0.250000  1
  Ho  Ho17  1  0.458824  0.541176  0.750000  1
  Ho  Ho18  1  0.458824  0.917647  0.750000  1
  Ho  Ho19  1  0.082353  0.541176  0.750000  1
  Zn  Zn20  1  0.878305  0.121695  0.250000  1
  Zn  Zn21  1  0.878305  0.756612  0.250000  1
  Zn  Zn22  1  0.243388  0.121695  0.250000  1
  Cd  Cd23  1  0.110520  0.889480  0.750000  1
  Cd  Cd24  1  0.110520  0.221039  0.750000  1
  Cd  Cd25  1  0.778961  0.889480  0.750000  1
  Ru  Ru26  1  0.333333  0.666667  0.250000  1
  Ru  Ru27  1  0.666667  0.333333  0.750000  1
