# generated using pymatgen
data_Tb3Co7(P3Pd)2
_symmetry_space_group_name_H-M   'P 1'
_cell_length_a   3.69492900
_cell_length_b   7.75802094
_cell_length_c   9.41524453
_cell_angle_alpha   105.13127405
_cell_angle_beta   90.00000000
_cell_angle_gamma   103.77655868
_symmetry_Int_Tables_number   1
_chemical_formula_structural   Tb3Co7(P3Pd)2
_chemical_formula_sum   'Tb3 Co7 P6 Pd2'
_cell_volume   252.48223845
_cell_formula_units_Z   1
loop_
 _symmetry_equiv_pos_site_id
 _symmetry_equiv_pos_as_xyz
  1  'x, y, z'
loop_
 _atom_site_type_symbol
 _atom_site_label
 _atom_site_symmetry_multiplicity
 _atom_site_fract_x
 _atom_site_fract_y
 _atom_site_fract_z
 _atom_site_occupancy
  Tb  Tb0  1  0.849653  0.699306  0.311847  1
  Tb  Tb1  1  0.150347  0.300694  0.688153  1
  Tb  Tb2  1  0.000000  0.000000  0.000000  1
  Co  Co3  1  0.950457  0.900914  0.658507  1
  Co  Co4  1  0.049543  0.099086  0.341493  1
  Co  Co5  1  0.780182  0.560364  0.599027  1
  Co  Co6  1  0.219818  0.439636  0.400973  1
  Co  Co7  1  0.370976  0.741951  0.779932  1
  Co  Co8  1  0.629024  0.258049  0.220068  1
  Co  Co9  1  0.500000  0.000000  0.500000  1
  P  P10  1  0.802506  0.605011  0.842819  1
  P  P11  1  0.197494  0.394989  0.157181  1
  P  P12  1  0.522605  0.045211  0.763441  1
  P  P13  1  0.477395  0.954789  0.236559  1
  P  P14  1  0.640514  0.281028  0.455495  1
  P  P15  1  0.359486  0.718972  0.544505  1
  Pd  Pd16  1  0.670504  0.341006  0.956795  1
  Pd  Pd17  1  0.329496  0.658994  0.043205  1
