# generated using pymatgen
data_Tm3Zr(ZnRh2)4
_symmetry_space_group_name_H-M   'P 1'
_cell_length_a   6.07370800
_cell_length_b   6.07340100
_cell_length_c   7.01294400
_cell_angle_alpha   90.00001760
_cell_angle_beta   89.99914122
_cell_angle_gamma   89.99832081
_symmetry_Int_Tables_number   1
_chemical_formula_structural   Tm3Zr(ZnRh2)4
_chemical_formula_sum   'Tm3 Zr1 Zn4 Rh8'
_cell_volume   258.69392872
_cell_formula_units_Z   1
loop_
 _symmetry_equiv_pos_site_id
 _symmetry_equiv_pos_as_xyz
  1  'x, y, z'
loop_
 _atom_site_type_symbol
 _atom_site_label
 _atom_site_symmetry_multiplicity
 _atom_site_fract_x
 _atom_site_fract_y
 _atom_site_fract_z
 _atom_site_occupancy
  Tm  Tm0  1  0.750066  0.250001  0.999977  1
  Tm  Tm1  1  0.249928  0.750000  0.999986  1
  Tm  Tm2  1  0.250062  0.749998  0.500020  1
  Zr  Zr3  1  0.749941  0.249999  0.499999  1
  Zn  Zn4  1  0.250005  0.249999  0.000018  1
  Zn  Zn5  1  0.749993  0.750001  0.000040  1
  Zn  Zn6  1  0.750020  0.750000  0.499933  1
  Zn  Zn7  1  0.249995  0.249999  0.500012  1
  Rh  Rh8  1  0.502311  0.002373  0.253161  1
  Rh  Rh9  1  0.502303  0.497635  0.253156  1
  Rh  Rh10  1  0.997631  0.002332  0.253222  1
  Rh  Rh11  1  0.997616  0.497656  0.253229  1
  Rh  Rh12  1  0.997658  0.002341  0.746781  1
  Rh  Rh13  1  0.997654  0.497656  0.746779  1
  Rh  Rh14  1  0.502411  0.002346  0.746843  1
  Rh  Rh15  1  0.502409  0.497661  0.746845  1
