# generated using pymatgen
data_Sm2Gd7DyRu4
_symmetry_space_group_name_H-M   'P 1'
_cell_length_a   8.66738383
_cell_length_b   8.66738414
_cell_length_c   7.28205900
_cell_angle_alpha   83.51586607
_cell_angle_beta   83.51586584
_cell_angle_gamma   43.72212311
_symmetry_Int_Tables_number   1
_chemical_formula_structural   Sm2Gd7DyRu4
_chemical_formula_sum   'Sm2 Gd7 Dy1 Ru4'
_cell_volume   375.29328651
_cell_formula_units_Z   1
loop_
 _symmetry_equiv_pos_site_id
 _symmetry_equiv_pos_as_xyz
  1  'x, y, z'
loop_
 _atom_site_type_symbol
 _atom_site_label
 _atom_site_symmetry_multiplicity
 _atom_site_fract_x
 _atom_site_fract_y
 _atom_site_fract_z
 _atom_site_occupancy
  Sm  Sm0  1  0.207336  0.980743  0.584377  1
  Sm  Sm1  1  0.019257  0.792664  0.915623  1
  Gd  Gd2  1  0.208648  0.360097  0.312635  1
  Gd  Gd3  1  0.639903  0.791352  0.187365  1
  Gd  Gd4  1  0.795440  0.637635  0.684950  1
  Gd  Gd5  1  0.362365  0.204560  0.815050  1
  Gd  Gd6  1  0.980053  0.206379  0.085675  1
  Gd  Gd7  1  0.793621  0.019947  0.414325  1
  Gd  Gd8  1  0.575810  0.424190  0.750000  1
  Dy  Dy9  1  0.424214  0.575786  0.250000  1
  Ru  Ru10  1  0.173947  0.602066  0.572287  1
  Ru  Ru11  1  0.397934  0.826053  0.927713  1
  Ru  Ru12  1  0.821252  0.399779  0.424254  1
  Ru  Ru13  1  0.600221  0.178748  0.075746  1
