# generated using pymatgen
data_Er2HfGa5
_symmetry_space_group_name_H-M   'P 1'
_cell_length_a   5.92254800
_cell_length_b   9.38390100
_cell_length_c   11.29452100
_cell_angle_alpha   90.00000000
_cell_angle_beta   90.00000000
_cell_angle_gamma   90.00000000
_symmetry_Int_Tables_number   1
_chemical_formula_structural   Er2HfGa5
_chemical_formula_sum   'Er8 Hf4 Ga20'
_cell_volume   627.71112211
_cell_formula_units_Z   4
loop_
 _symmetry_equiv_pos_site_id
 _symmetry_equiv_pos_as_xyz
  1  'x, y, z'
loop_
 _atom_site_type_symbol
 _atom_site_label
 _atom_site_symmetry_multiplicity
 _atom_site_fract_x
 _atom_site_fract_y
 _atom_site_fract_z
 _atom_site_occupancy
  Er  Er0  1  0.885591  0.505198  0.352546  1
  Er  Er1  1  0.614409  0.994802  0.852546  1
  Er  Er2  1  0.114409  0.005198  0.647454  1
  Er  Er3  1  0.385591  0.494802  0.147454  1
  Er  Er4  1  0.114409  0.494802  0.647454  1
  Er  Er5  1  0.385591  0.005198  0.147454  1
  Er  Er6  1  0.885591  0.994802  0.352546  1
  Er  Er7  1  0.614409  0.505198  0.852546  1
  Hf  Hf8  1  0.857080  0.750000  0.073544  1
  Hf  Hf9  1  0.642920  0.750000  0.573544  1
  Hf  Hf10  1  0.142920  0.250000  0.926456  1
  Hf  Hf11  1  0.357080  0.250000  0.426456  1
  Ga  Ga12  1  0.874512  0.052412  0.089065  1
  Ga  Ga13  1  0.625488  0.447588  0.589065  1
  Ga  Ga14  1  0.125488  0.552412  0.910935  1
  Ga  Ga15  1  0.374512  0.947588  0.410935  1
  Ga  Ga16  1  0.125488  0.947588  0.910935  1
  Ga  Ga17  1  0.374512  0.552412  0.410935  1
  Ga  Ga18  1  0.874512  0.447588  0.089065  1
  Ga  Ga19  1  0.625488  0.052412  0.589065  1
  Ga  Ga20  1  0.156864  0.750000  0.254971  1
  Ga  Ga21  1  0.343136  0.750000  0.754971  1
  Ga  Ga22  1  0.843136  0.250000  0.745029  1
  Ga  Ga23  1  0.656864  0.250000  0.245029  1
  Ga  Ga24  1  0.394139  0.750000  0.000072  1
  Ga  Ga25  1  0.105861  0.750000  0.500072  1
  Ga  Ga26  1  0.605861  0.250000  0.999928  1
  Ga  Ga27  1  0.894139  0.250000  0.499928  1
  Ga  Ga28  1  0.606385  0.750000  0.292588  1
  Ga  Ga29  1  0.893615  0.750000  0.792588  1
  Ga  Ga30  1  0.393615  0.250000  0.707412  1
  Ga  Ga31  1  0.106385  0.250000  0.207412  1
