# generated using pymatgen
data_YThFe2Co15
_symmetry_space_group_name_H-M   'P 1'
_cell_length_a   6.30083689
_cell_length_b   6.30083643
_cell_length_c   6.30083700
_cell_angle_alpha   82.87278036
_cell_angle_beta   82.87278088
_cell_angle_gamma   82.87278706
_symmetry_Int_Tables_number   1
_chemical_formula_structural   YThFe2Co15
_chemical_formula_sum   'Y1 Th1 Fe2 Co15'
_cell_volume   244.79092748
_cell_formula_units_Z   1
loop_
 _symmetry_equiv_pos_site_id
 _symmetry_equiv_pos_as_xyz
  1  'x, y, z'
loop_
 _atom_site_type_symbol
 _atom_site_label
 _atom_site_symmetry_multiplicity
 _atom_site_fract_x
 _atom_site_fract_y
 _atom_site_fract_z
 _atom_site_occupancy
  Y  Y0  1  0.343348  0.343348  0.343348  1
  Th  Th1  1  0.653230  0.653230  0.653230  1
  Fe  Fe2  1  0.901718  0.901718  0.901718  1
  Fe  Fe3  1  0.096958  0.096958  0.096958  1
  Co  Co4  1  0.346331  0.846126  0.346331  1
  Co  Co5  1  0.346331  0.346331  0.846126  1
  Co  Co6  1  0.846126  0.346331  0.346331  1
  Co  Co7  1  0.654124  0.145768  0.654124  1
  Co  Co8  1  0.654124  0.654124  0.145768  1
  Co  Co9  1  0.145768  0.654124  0.654124  1
  Co  Co10  1  0.713296  0.288682  0.000446  1
  Co  Co11  1  0.000446  0.713296  0.288682  1
  Co  Co12  1  0.288682  0.000446  0.713296  1
  Co  Co13  1  0.000446  0.288682  0.713296  1
  Co  Co14  1  0.713296  0.000446  0.288682  1
  Co  Co15  1  0.288682  0.713296  0.000446  1
  Co  Co16  1  0.004295  0.004295  0.498502  1
  Co  Co17  1  0.498502  0.004295  0.004295  1
  Co  Co18  1  0.004295  0.498502  0.004295  1
