# generated using pymatgen
data_Tm8Mg2Sc10Si15P
_symmetry_space_group_name_H-M   'P 1'
_cell_length_a   6.97410643
_cell_length_b   7.34019756
_cell_length_c   13.86042600
_cell_angle_alpha   90.00000000
_cell_angle_beta   90.00000000
_cell_angle_gamma   89.68838656
_symmetry_Int_Tables_number   1
_chemical_formula_structural   Tm8Mg2Sc10Si15P
_chemical_formula_sum   'Tm8 Mg2 Sc10 Si15 P1'
_cell_volume   709.52299530
_cell_formula_units_Z   1
loop_
 _symmetry_equiv_pos_site_id
 _symmetry_equiv_pos_as_xyz
  1  'x, y, z'
loop_
 _atom_site_type_symbol
 _atom_site_label
 _atom_site_symmetry_multiplicity
 _atom_site_fract_x
 _atom_site_fract_y
 _atom_site_fract_z
 _atom_site_occupancy
  Tm  Tm0  1  0.007890  0.179967  0.096506  1
  Tm  Tm1  1  0.991914  0.823160  0.901688  1
  Tm  Tm2  1  0.489602  0.675383  0.904710  1
  Tm  Tm3  1  0.991914  0.823160  0.598312  1
  Tm  Tm4  1  0.511603  0.325191  0.094851  1
  Tm  Tm5  1  0.007890  0.179967  0.403494  1
  Tm  Tm6  1  0.511603  0.325191  0.405149  1
  Tm  Tm7  1  0.489602  0.675383  0.595290  1
  Mg  Mg8  1  0.163273  0.514086  0.750000  1
  Mg  Mg9  1  0.838530  0.494162  0.250000  1
  Sc  Sc10  1  0.338544  0.005117  0.250000  1
  Sc  Sc11  1  0.663976  0.995158  0.750000  1
  Sc  Sc12  1  0.324264  0.176853  0.626788  1
  Sc  Sc13  1  0.670480  0.821423  0.375818  1
  Sc  Sc14  1  0.163654  0.679798  0.375132  1
  Sc  Sc15  1  0.670480  0.821423  0.124182  1
  Sc  Sc16  1  0.839534  0.317495  0.627672  1
  Sc  Sc17  1  0.324264  0.176853  0.873212  1
  Sc  Sc18  1  0.839534  0.317495  0.872328  1
  Sc  Sc19  1  0.163654  0.679798  0.124868  1
  Si  Si20  1  0.966242  0.900212  0.250000  1
  Si  Si21  1  0.461024  0.615825  0.250000  1
  Si  Si22  1  0.537482  0.383528  0.750000  1
  Si  Si23  1  0.297763  0.872546  0.750000  1
  Si  Si24  1  0.708373  0.123744  0.250000  1
  Si  Si25  1  0.220659  0.371869  0.250000  1
  Si  Si26  1  0.779230  0.626459  0.750000  1
  Si  Si27  1  0.162088  0.461404  0.534593  1
  Si  Si28  1  0.837382  0.538736  0.468495  1
  Si  Si29  1  0.337571  0.968468  0.460884  1
  Si  Si30  1  0.837382  0.538736  0.031505  1
  Si  Si31  1  0.660991  0.033315  0.541067  1
  Si  Si32  1  0.162088  0.461404  0.965407  1
  Si  Si33  1  0.660991  0.033315  0.958933  1
  Si  Si34  1  0.337571  0.968468  0.039116  1
  P  P35  1  0.030958  0.094904  0.750000  1
