# generated using pymatgen
data_Pr12BIrI17
_symmetry_space_group_name_H-M   'P 1'
_cell_length_a   10.05070487
_cell_length_b   12.01878482
_cell_length_c   11.95170121
_cell_angle_alpha   93.57978529
_cell_angle_beta   104.59526902
_cell_angle_gamma   114.88489764
_symmetry_Int_Tables_number   1
_chemical_formula_structural   Pr12BIrI17
_chemical_formula_sum   'Pr12 B1 Ir1 I17'
_cell_volume   1243.86722592
_cell_formula_units_Z   1
loop_
 _symmetry_equiv_pos_site_id
 _symmetry_equiv_pos_as_xyz
  1  'x, y, z'
loop_
 _atom_site_type_symbol
 _atom_site_label
 _atom_site_symmetry_multiplicity
 _atom_site_fract_x
 _atom_site_fract_y
 _atom_site_fract_z
 _atom_site_occupancy
  Pr  Pr0  1  0.051682  0.504694  0.321598  1
  Pr  Pr1  1  0.989020  0.813031  0.576468  1
  Pr  Pr2  1  0.648629  0.240704  0.278702  1
  Pr  Pr3  1  0.009241  0.192350  0.412800  1
  Pr  Pr4  1  0.223638  0.666247  0.996429  1
  Pr  Pr5  1  0.269237  0.994552  0.898219  1
  Pr  Pr6  1  0.360415  0.760296  0.713848  1
  Pr  Pr7  1  0.937378  0.481758  0.672791  1
  Pr  Pr8  1  0.739847  0.021486  0.106831  1
  Pr  Pr9  1  0.143493  0.286869  0.150726  1
  Pr  Pr10  1  0.782661  0.329510  0.016025  1
  Pr  Pr11  1  0.843006  0.710976  0.851829  1
  B  B12  1  0.897134  0.261989  0.216831  1
  Ir  Ir13  1  0.104470  0.738272  0.785901  1
  I  I14  1  0.779716  0.525843  0.412986  1
  I  I15  1  0.636133  0.415186  0.757994  1
  I  I16  1  0.840824  0.896529  0.321299  1
  I  I17  1  0.322719  0.212511  0.368087  1
  I  I18  1  0.157861  0.108061  0.675450  1
  I  I19  1  0.593585  0.056933  0.842089  1
  I  I20  1  0.750909  0.177296  0.534157  1
  I  I21  1  0.549124  0.705582  0.955503  1
  I  I22  1  0.360910  0.579234  0.247758  1
  I  I23  1  0.218071  0.469057  0.579822  1
  I  I24  1  0.054565  0.362518  0.895933  1
  I  I25  1  0.457235  0.300255  0.048183  1
  I  I26  1  0.999597  0.001437  0.002460  1
  I  I27  1  0.247392  0.818875  0.458234  1
  I  I28  1  0.415908  0.948760  0.163839  1
  I  I29  1  0.672980  0.787485  0.628414  1
  I  I30  1  0.942623  0.631704  0.108796  1
