# generated using pymatgen
data_Nd2ZnH3Pd16
_symmetry_space_group_name_H-M   'P 1'
_cell_length_a   6.98089269
_cell_length_b   7.03001641
_cell_length_c   6.98089240
_cell_angle_alpha   83.22282794
_cell_angle_beta   82.44658282
_cell_angle_gamma   83.22284009
_symmetry_Int_Tables_number   1
_chemical_formula_structural   Nd2ZnH3Pd16
_chemical_formula_sum   'Nd2 Zn1 H3 Pd16'
_cell_volume   335.41393919
_cell_formula_units_Z   1
loop_
 _symmetry_equiv_pos_site_id
 _symmetry_equiv_pos_as_xyz
  1  'x, y, z'
loop_
 _atom_site_type_symbol
 _atom_site_label
 _atom_site_symmetry_multiplicity
 _atom_site_fract_x
 _atom_site_fract_y
 _atom_site_fract_z
 _atom_site_occupancy
  Nd  Nd0  1  0.661383  0.670321  0.661383  1
  Nd  Nd1  1  0.338617  0.329679  0.338617  1
  Zn  Zn2  1  0.000000  0.500000  0.000000  1
  H  H3  1  0.500000  0.500000  0.000000  1
  H  H4  1  0.000000  0.500000  0.500000  1
  H  H5  1  0.500000  0.000000  0.500000  1
  Pd  Pd6  1  0.000000  0.000000  0.500000  1
  Pd  Pd7  1  0.500000  0.000000  0.000000  1
  Pd  Pd8  1  0.705719  0.298911  0.002490  1
  Pd  Pd9  1  0.997510  0.701089  0.294281  1
  Pd  Pd10  1  0.296991  0.000000  0.703009  1
  Pd  Pd11  1  0.002490  0.298911  0.705719  1
  Pd  Pd12  1  0.703009  0.000000  0.296991  1
  Pd  Pd13  1  0.294281  0.701089  0.997510  1
  Pd  Pd14  1  0.347701  0.351309  0.853097  1
  Pd  Pd15  1  0.853097  0.351309  0.347701  1
  Pd  Pd16  1  0.350334  0.843362  0.350334  1
  Pd  Pd17  1  0.652299  0.648691  0.146903  1
  Pd  Pd18  1  0.146903  0.648691  0.652299  1
  Pd  Pd19  1  0.649666  0.156638  0.649666  1
  Pd  Pd20  1  0.900199  0.893274  0.900199  1
  Pd  Pd21  1  0.099801  0.106726  0.099801  1
