# generated using pymatgen
data_YbSmHoGa9Pd2
_symmetry_space_group_name_H-M   'P 1'
_cell_length_a   8.16208008
_cell_length_b   8.16207993
_cell_length_c   8.16208019
_cell_angle_alpha   149.18579916
_cell_angle_beta   109.33093949
_cell_angle_gamma   79.05556292
_symmetry_Int_Tables_number   1
_chemical_formula_structural   YbSmHoGa9Pd2
_chemical_formula_sum   'Yb1 Sm1 Ho1 Ga9 Pd2'
_cell_volume   257.77266066
_cell_formula_units_Z   1
loop_
 _symmetry_equiv_pos_site_id
 _symmetry_equiv_pos_as_xyz
  1  'x, y, z'
loop_
 _atom_site_type_symbol
 _atom_site_label
 _atom_site_symmetry_multiplicity
 _atom_site_fract_x
 _atom_site_fract_y
 _atom_site_fract_z
 _atom_site_occupancy
  Yb  Yb0  1  0.199830  0.199830  0.000000  1
  Sm  Sm1  1  0.499863  0.499863  0.000000  1
  Ho  Ho2  1  0.799532  0.799532  0.000000  1
  Ga  Ga3  1  0.644189  0.361580  0.282610  1
  Ga  Ga4  1  0.356749  0.640300  0.716448  1
  Ga  Ga5  1  0.078971  0.361580  0.717390  1
  Ga  Ga6  1  0.923852  0.640300  0.283552  1
  Ga  Ga7  1  0.522238  0.156011  0.366228  1
  Ga  Ga8  1  0.477250  0.841807  0.635444  1
  Ga  Ga9  1  0.789783  0.156011  0.633772  1
  Ga  Ga10  1  0.206363  0.841807  0.364556  1
  Ga  Ga11  1  0.000136  0.500136  0.500000  1
  Pd  Pd12  1  0.182832  0.000622  0.182209  1
  Pd  Pd13  1  0.818414  0.000622  0.817791  1
