# generated using pymatgen
data_Mg3Mn3(B2Rh5)2
_symmetry_space_group_name_H-M   'P 1'
_cell_length_a   9.42814706
_cell_length_b   9.42814706
_cell_length_c   2.93825800
_cell_angle_alpha   90.00000000
_cell_angle_beta   90.00000000
_cell_angle_gamma   90.24787289
_symmetry_Int_Tables_number   1
_chemical_formula_structural   Mg3Mn3(B2Rh5)2
_chemical_formula_sum   'Mg3 Mn3 B4 Rh10'
_cell_volume   261.17918294
_cell_formula_units_Z   1
loop_
 _symmetry_equiv_pos_site_id
 _symmetry_equiv_pos_as_xyz
  1  'x, y, z'
loop_
 _atom_site_type_symbol
 _atom_site_label
 _atom_site_symmetry_multiplicity
 _atom_site_fract_x
 _atom_site_fract_y
 _atom_site_fract_z
 _atom_site_occupancy
  Mg  Mg0  1  0.323372  0.823372  0.000000  1
  Mg  Mg1  1  0.177284  0.322798  0.000000  1
  Mg  Mg2  1  0.822798  0.677284  0.000000  1
  Mn  Mn3  1  0.676930  0.176930  0.000000  1
  Mn  Mn4  1  0.002242  0.999283  0.000000  1
  Mn  Mn5  1  0.499283  0.502242  0.000000  1
  B  B6  1  0.123618  0.623618  0.000000  1
  B  B7  1  0.872725  0.372725  0.000000  1
  B  B8  1  0.627005  0.875244  0.000000  1
  B  B9  1  0.375244  0.127005  0.000000  1
  Rh  Rh10  1  0.502626  0.002626  0.500000  1
  Rh  Rh11  1  0.998243  0.498243  0.500000  1
  Rh  Rh12  1  0.219361  0.071065  0.500000  1
  Rh  Rh13  1  0.781792  0.935219  0.500000  1
  Rh  Rh14  1  0.070671  0.781490  0.500000  1
  Rh  Rh15  1  0.714997  0.424036  0.500000  1
  Rh  Rh16  1  0.924036  0.214997  0.500000  1
  Rh  Rh17  1  0.281490  0.570671  0.500000  1
  Rh  Rh18  1  0.571065  0.719361  0.500000  1
  Rh  Rh19  1  0.435219  0.281792  0.500000  1
