# generated using pymatgen
data_Eu2DyCoSn6
_symmetry_space_group_name_H-M   'P 1'
_cell_length_a   8.41418145
_cell_length_b   8.41418203
_cell_length_c   13.46915100
_cell_angle_alpha   90.00000000
_cell_angle_beta   90.00000000
_cell_angle_gamma   147.40844554
_symmetry_Int_Tables_number   1
_chemical_formula_structural   Eu2DyCoSn6
_chemical_formula_sum   'Eu4 Dy2 Co2 Sn12'
_cell_volume   513.65074338
_cell_formula_units_Z   2
loop_
 _symmetry_equiv_pos_site_id
 _symmetry_equiv_pos_as_xyz
  1  'x, y, z'
loop_
 _atom_site_type_symbol
 _atom_site_label
 _atom_site_symmetry_multiplicity
 _atom_site_fract_x
 _atom_site_fract_y
 _atom_site_fract_z
 _atom_site_occupancy
  Eu  Eu0  1  0.901837  0.098163  0.094878  1
  Eu  Eu1  1  0.098163  0.901837  0.594878  1
  Eu  Eu2  1  0.098163  0.901837  0.905122  1
  Eu  Eu3  1  0.901837  0.098163  0.405122  1
  Dy  Dy4  1  0.900053  0.099947  0.750000  1
  Dy  Dy5  1  0.099947  0.900053  0.250000  1
  Co  Co6  1  0.293713  0.706287  0.250000  1
  Co  Co7  1  0.706287  0.293713  0.750000  1
  Sn  Sn8  1  0.755635  0.244365  0.571629  1
  Sn  Sn9  1  0.425875  0.574125  0.579879  1
  Sn  Sn10  1  0.574125  0.425875  0.420121  1
  Sn  Sn11  1  0.731287  0.268713  0.250000  1
  Sn  Sn12  1  0.268713  0.731287  0.750000  1
  Sn  Sn13  1  0.244365  0.755635  0.071629  1
  Sn  Sn14  1  0.244365  0.755635  0.428371  1
  Sn  Sn15  1  0.574125  0.425875  0.079879  1
  Sn  Sn16  1  0.454312  0.545688  0.250000  1
  Sn  Sn17  1  0.545688  0.454312  0.750000  1
  Sn  Sn18  1  0.755635  0.244365  0.928371  1
  Sn  Sn19  1  0.425875  0.574125  0.920121  1
