# generated using pymatgen
data_ZnBi3(Rh2O7)2
_symmetry_space_group_name_H-M   'P 1'
_cell_length_a   7.34357345
_cell_length_b   7.14124900
_cell_length_c   7.34357400
_cell_angle_alpha   59.05827849
_cell_angle_beta   59.99999751
_cell_angle_gamma   59.05827936
_symmetry_Int_Tables_number   1
_chemical_formula_structural   ZnBi3(Rh2O7)2
_chemical_formula_sum   'Zn1 Bi3 Rh4 O14'
_cell_volume   268.37580344
_cell_formula_units_Z   1
loop_
 _symmetry_equiv_pos_site_id
 _symmetry_equiv_pos_as_xyz
  1  'x, y, z'
loop_
 _atom_site_type_symbol
 _atom_site_label
 _atom_site_symmetry_multiplicity
 _atom_site_fract_x
 _atom_site_fract_y
 _atom_site_fract_z
 _atom_site_occupancy
  Zn  Zn0  1  0.125000  0.625000  0.125000  1
  Bi  Bi1  1  0.125000  0.125000  0.125000  1
  Bi  Bi2  1  0.625000  0.125000  0.125000  1
  Bi  Bi3  1  0.125000  0.125000  0.625000  1
  Rh  Rh4  1  0.625000  0.625000  0.625000  1
  Rh  Rh5  1  0.625000  0.625000  0.125000  1
  Rh  Rh6  1  0.125000  0.625000  0.625000  1
  Rh  Rh7  1  0.625000  0.125000  0.625000  1
  O  O8  1  0.239665  0.281006  0.239665  1
  O  O9  1  0.293085  0.705556  0.293085  1
  O  O10  1  0.958291  0.963041  0.539334  1
  O  O11  1  0.539334  0.963041  0.539334  1
  O  O12  1  0.708275  0.705556  0.293085  1
  O  O13  1  0.956915  0.544444  0.541725  1
  O  O14  1  0.710666  0.286959  0.710666  1
  O  O15  1  0.291709  0.286959  0.710666  1
  O  O16  1  0.710666  0.286959  0.291709  1
  O  O17  1  0.293085  0.705556  0.708275  1
  O  O18  1  0.956915  0.544444  0.956915  1
  O  O19  1  0.541725  0.544444  0.956915  1
  O  O20  1  0.010335  0.968994  0.010335  1
  O  O21  1  0.539334  0.963041  0.958291  1
