# generated using pymatgen
data_Th6Al24NiRu7
_symmetry_space_group_name_H-M   'P 1'
_cell_length_a   8.94297367
_cell_length_b   8.98481570
_cell_length_c   9.56758799
_cell_angle_alpha   90.00000106
_cell_angle_beta   89.93445356
_cell_angle_gamma   120.15488614
_symmetry_Int_Tables_number   1
_chemical_formula_structural   Th6Al24NiRu7
_chemical_formula_sum   'Th6 Al24 Ni1 Ru7'
_cell_volume   664.72789647
_cell_formula_units_Z   1
loop_
 _symmetry_equiv_pos_site_id
 _symmetry_equiv_pos_as_xyz
  1  'x, y, z'
loop_
 _atom_site_type_symbol
 _atom_site_label
 _atom_site_symmetry_multiplicity
 _atom_site_fract_x
 _atom_site_fract_y
 _atom_site_fract_z
 _atom_site_occupancy
  Th  Th0  1  0.803251  0.612239  0.749791  1
  Th  Th1  1  0.196749  0.808989  0.250209  1
  Th  Th2  1  0.611277  0.805639  0.250251  1
  Th  Th3  1  0.388723  0.194361  0.749749  1
  Th  Th4  1  0.803251  0.191011  0.749791  1
  Th  Th5  1  0.196749  0.387761  0.250209  1
  Al  Al6  1  0.332871  0.666435  0.486630  1
  Al  Al7  1  0.668395  0.334198  0.984419  1
  Al  Al8  1  0.667129  0.333565  0.513370  1
  Al  Al9  1  0.331605  0.665802  0.015581  1
  Al  Al10  1  0.162022  0.325740  0.577732  1
  Al  Al11  1  0.673618  0.836809  0.577172  1
  Al  Al12  1  0.162022  0.836282  0.577732  1
  Al  Al13  1  0.836284  0.161692  0.077686  1
  Al  Al14  1  0.837978  0.163718  0.422268  1
  Al  Al15  1  0.836284  0.674592  0.077686  1
  Al  Al16  1  0.327547  0.163774  0.077557  1
  Al  Al17  1  0.672453  0.836226  0.922443  1
  Al  Al18  1  0.163716  0.325408  0.922314  1
  Al  Al19  1  0.837978  0.674260  0.422268  1
  Al  Al20  1  0.001600  0.000800  0.250207  1
  Al  Al21  1  0.998400  0.999200  0.749793  1
  Al  Al22  1  0.565272  0.128197  0.249201  1
  Al  Al23  1  0.434728  0.562925  0.750799  1
  Al  Al24  1  0.123403  0.561702  0.751964  1
  Al  Al25  1  0.876597  0.438298  0.248036  1
  Al  Al26  1  0.565272  0.437075  0.249201  1
  Al  Al27  1  0.434728  0.871803  0.750799  1
  Al  Al28  1  0.163716  0.838308  0.922314  1
  Al  Al29  1  0.326382  0.163191  0.422828  1
  Ni  Ni30  1  0.000000  0.500000  0.000000  1
  Ru  Ru31  1  0.000000  0.000000  0.500000  1
  Ru  Ru32  1  0.000000  0.000000  0.000000  1
  Ru  Ru33  1  0.500000  0.000000  0.500000  1
  Ru  Ru34  1  0.500000  0.500000  0.000000  1
  Ru  Ru35  1  0.000000  0.500000  0.500000  1
  Ru  Ru36  1  0.500000  0.500000  0.500000  1
  Ru  Ru37  1  0.500000  0.000000  0.000000  1
