# generated using pymatgen
data_Tm2Co9P6Ru
_symmetry_space_group_name_H-M   'P 1'
_cell_length_a   3.65369400
_cell_length_b   10.28992900
_cell_length_c   11.71323800
_cell_angle_alpha   90.00000000
_cell_angle_beta   90.00000000
_cell_angle_gamma   90.00000000
_symmetry_Int_Tables_number   1
_chemical_formula_structural   Tm2Co9P6Ru
_chemical_formula_sum   'Tm4 Co18 P12 Ru2'
_cell_volume   440.37384580
_cell_formula_units_Z   2
loop_
 _symmetry_equiv_pos_site_id
 _symmetry_equiv_pos_as_xyz
  1  'x, y, z'
loop_
 _atom_site_type_symbol
 _atom_site_label
 _atom_site_symmetry_multiplicity
 _atom_site_fract_x
 _atom_site_fract_y
 _atom_site_fract_z
 _atom_site_occupancy
  Tm  Tm0  1  0.250000  0.582078  0.702389  1
  Tm  Tm1  1  0.250000  0.917922  0.202389  1
  Tm  Tm2  1  0.750000  0.414299  0.295364  1
  Tm  Tm3  1  0.750000  0.085701  0.795364  1
  Co  Co4  1  0.750000  0.282963  0.008332  1
  Co  Co5  1  0.750000  0.217037  0.508332  1
  Co  Co6  1  0.250000  0.406515  0.487211  1
  Co  Co7  1  0.250000  0.093485  0.987211  1
  Co  Co8  1  0.750000  0.590572  0.511298  1
  Co  Co9  1  0.750000  0.909428  0.011298  1
  Co  Co10  1  0.250000  0.220835  0.177040  1
  Co  Co11  1  0.250000  0.279165  0.677040  1
  Co  Co12  1  0.750000  0.778243  0.822628  1
  Co  Co13  1  0.750000  0.721757  0.322628  1
  Co  Co14  1  0.250000  0.886710  0.701934  1
  Co  Co15  1  0.250000  0.613290  0.201934  1
  Co  Co16  1  0.750000  0.116334  0.300530  1
  Co  Co17  1  0.750000  0.383666  0.800530  1
  Co  Co18  1  0.250000  0.464290  0.932103  1
  Co  Co19  1  0.250000  0.035710  0.432103  1
  Co  Co20  1  0.750000  0.532866  0.069393  1
  Co  Co21  1  0.750000  0.967134  0.569393  1
  P  P22  1  0.250000  0.417073  0.112774  1
  P  P23  1  0.250000  0.082927  0.612774  1
  P  P24  1  0.750000  0.578670  0.886329  1
  P  P25  1  0.750000  0.921330  0.386329  1
  P  P26  1  0.250000  0.268987  0.869257  1
  P  P27  1  0.250000  0.231013  0.369257  1
  P  P28  1  0.750000  0.730243  0.132720  1
  P  P29  1  0.750000  0.769757  0.632720  1
  P  P30  1  0.250000  0.594113  0.389818  1
  P  P31  1  0.250000  0.905887  0.889818  1
  P  P32  1  0.750000  0.397977  0.609153  1
  P  P33  1  0.750000  0.102023  0.109153  1
  Ru  Ru34  1  0.250000  0.715691  0.991725  1
  Ru  Ru35  1  0.250000  0.784309  0.491725  1
