# generated using pymatgen
data_Rb4Zr(TeSe)2
_symmetry_space_group_name_H-M   'P 1'
_cell_length_a   9.17871300
_cell_length_b   10.88303900
_cell_length_c   15.89214100
_cell_angle_alpha   90.00000000
_cell_angle_beta   90.00000000
_cell_angle_gamma   90.00000000
_symmetry_Int_Tables_number   1
_chemical_formula_structural   Rb4Zr(TeSe)2
_chemical_formula_sum   'Rb16 Zr4 Te8 Se8'
_cell_volume   1587.50238211
_cell_formula_units_Z   4
loop_
 _symmetry_equiv_pos_site_id
 _symmetry_equiv_pos_as_xyz
  1  'x, y, z'
loop_
 _atom_site_type_symbol
 _atom_site_label
 _atom_site_symmetry_multiplicity
 _atom_site_fract_x
 _atom_site_fract_y
 _atom_site_fract_z
 _atom_site_occupancy
  Rb  Rb0  1  0.500000  0.500000  0.500000  1
  Rb  Rb1  1  0.145821  0.454291  0.276154  1
  Rb  Rb2  1  0.145821  0.045709  0.276154  1
  Rb  Rb3  1  0.994312  0.750000  0.436365  1
  Rb  Rb4  1  0.005688  0.250000  0.563635  1
  Rb  Rb5  1  0.645821  0.954291  0.223846  1
  Rb  Rb6  1  0.354179  0.045709  0.776154  1
  Rb  Rb7  1  0.854179  0.954291  0.723846  1
  Rb  Rb8  1  0.354179  0.454291  0.776154  1
  Rb  Rb9  1  0.000000  0.500000  0.000000  1
  Rb  Rb10  1  0.494312  0.250000  0.063635  1
  Rb  Rb11  1  0.645821  0.545709  0.223846  1
  Rb  Rb12  1  0.505688  0.750000  0.936365  1
  Rb  Rb13  1  0.000000  0.000000  0.000000  1
  Rb  Rb14  1  0.854179  0.545709  0.723846  1
  Rb  Rb15  1  0.500000  0.000000  0.500000  1
  Zr  Zr16  1  0.741977  0.250000  0.837471  1
  Zr  Zr17  1  0.758023  0.250000  0.337471  1
  Zr  Zr18  1  0.241977  0.750000  0.662529  1
  Zr  Zr19  1  0.258023  0.750000  0.162529  1
  Te  Te20  1  0.545595  0.750000  0.671443  1
  Te  Te21  1  0.454405  0.250000  0.328557  1
  Te  Te22  1  0.367994  0.750000  0.326874  1
  Te  Te23  1  0.132006  0.750000  0.826874  1
  Te  Te24  1  0.045595  0.250000  0.828557  1
  Te  Te25  1  0.954405  0.750000  0.171443  1
  Te  Te26  1  0.632006  0.250000  0.673126  1
  Te  Te27  1  0.867994  0.250000  0.173126  1
  Se  Se28  1  0.843530  0.443697  0.409685  1
  Se  Se29  1  0.656470  0.056303  0.909685  1
  Se  Se30  1  0.343530  0.943697  0.090315  1
  Se  Se31  1  0.343530  0.556303  0.090315  1
  Se  Se32  1  0.156470  0.556303  0.590315  1
  Se  Se33  1  0.843530  0.056303  0.409685  1
  Se  Se34  1  0.156470  0.943697  0.590315  1
  Se  Se35  1  0.656470  0.443697  0.909685  1
