# generated using pymatgen
data_Lu9Mg(SiB4)4
_symmetry_space_group_name_H-M   'P 1'
_cell_length_a   7.08569800
_cell_length_b   7.08569800
_cell_length_c   7.78732300
_cell_angle_alpha   90.00000000
_cell_angle_beta   90.00000000
_cell_angle_gamma   90.00000000
_symmetry_Int_Tables_number   1
_chemical_formula_structural   Lu9Mg(SiB4)4
_chemical_formula_sum   'Lu9 Mg1 Si4 B16'
_cell_volume   390.97903034
_cell_formula_units_Z   1
loop_
 _symmetry_equiv_pos_site_id
 _symmetry_equiv_pos_as_xyz
  1  'x, y, z'
loop_
 _atom_site_type_symbol
 _atom_site_label
 _atom_site_symmetry_multiplicity
 _atom_site_fract_x
 _atom_site_fract_y
 _atom_site_fract_z
 _atom_site_occupancy
  Lu  Lu0  1  0.681485  0.179870  0.227191  1
  Lu  Lu1  1  0.318515  0.820130  0.772809  1
  Lu  Lu2  1  0.318515  0.820130  0.227191  1
  Lu  Lu3  1  0.820130  0.681485  0.227191  1
  Lu  Lu4  1  0.820130  0.681485  0.772809  1
  Lu  Lu5  1  0.681485  0.179870  0.772809  1
  Lu  Lu6  1  0.179870  0.318515  0.772809  1
  Lu  Lu7  1  0.179870  0.318515  0.227191  1
  Lu  Lu8  1  0.500000  0.500000  0.500000  1
  Mg  Mg9  1  0.000000  0.000000  0.500000  1
  Si  Si10  1  0.117550  0.616642  0.500000  1
  Si  Si11  1  0.882450  0.383358  0.500000  1
  Si  Si12  1  0.383358  0.117550  0.500000  1
  Si  Si13  1  0.616642  0.882450  0.500000  1
  B  B14  1  0.174721  0.038660  0.000000  1
  B  B15  1  0.825279  0.961340  0.000000  1
  B  B16  1  0.961340  0.174721  0.000000  1
  B  B17  1  0.326544  0.539510  0.000000  1
  B  B18  1  0.038660  0.825279  0.000000  1
  B  B19  1  0.673456  0.460490  0.000000  1
  B  B20  1  0.539510  0.673456  0.000000  1
  B  B21  1  0.460490  0.326544  0.000000  1
  B  B22  1  0.088753  0.588072  0.000000  1
  B  B23  1  0.911247  0.411928  0.000000  1
  B  B24  1  0.411928  0.088753  0.000000  1
  B  B25  1  0.588072  0.911247  0.000000  1
  B  B26  1  0.000000  0.000000  0.165658  1
  B  B27  1  0.000000  0.000000  0.834342  1
  B  B28  1  0.500000  0.500000  0.831226  1
  B  B29  1  0.500000  0.500000  0.168774  1
