# generated using pymatgen
data_Ho4SiB4Rh9
_symmetry_space_group_name_H-M   'P 1'
_cell_length_a   5.43892100
_cell_length_b   5.43892315
_cell_length_c   20.21964800
_cell_angle_alpha   90.00000000
_cell_angle_beta   90.00000000
_cell_angle_gamma   119.99723180
_symmetry_Int_Tables_number   1
_chemical_formula_structural   Ho4SiB4Rh9
_chemical_formula_sum   'Ho8 Si2 B8 Rh18'
_cell_volume   518.01461069
_cell_formula_units_Z   2
loop_
 _symmetry_equiv_pos_site_id
 _symmetry_equiv_pos_as_xyz
  1  'x, y, z'
loop_
 _atom_site_type_symbol
 _atom_site_label
 _atom_site_symmetry_multiplicity
 _atom_site_fract_x
 _atom_site_fract_y
 _atom_site_fract_z
 _atom_site_occupancy
  Ho  Ho0  1  0.666665  0.333335  0.523492  1
  Ho  Ho1  1  0.333335  0.666665  0.476508  1
  Ho  Ho2  1  0.333335  0.666665  0.023492  1
  Ho  Ho3  1  0.666665  0.333335  0.976508  1
  Ho  Ho4  1  0.666634  0.333366  0.674211  1
  Ho  Ho5  1  0.333366  0.666634  0.325789  1
  Ho  Ho6  1  0.333366  0.666634  0.174211  1
  Ho  Ho7  1  0.666634  0.333366  0.825789  1
  Si  Si8  1  0.000000  0.000000  0.500000  1
  Si  Si9  1  0.000000  0.000000  0.000000  1
  B  B10  1  0.999984  0.000016  0.673552  1
  B  B11  1  0.000016  0.999984  0.326448  1
  B  B12  1  0.000016  0.999984  0.173552  1
  B  B13  1  0.999984  0.000016  0.826448  1
  B  B14  1  0.666678  0.333322  0.327428  1
  B  B15  1  0.333322  0.666678  0.672572  1
  B  B16  1  0.333322  0.666678  0.827428  1
  B  B17  1  0.666678  0.333322  0.172572  1
  Rh  Rh18  1  0.167015  0.334119  0.750000  1
  Rh  Rh19  1  0.167024  0.832976  0.750000  1
  Rh  Rh20  1  0.665881  0.832985  0.750000  1
  Rh  Rh21  1  0.832985  0.665881  0.250000  1
  Rh  Rh22  1  0.832976  0.167024  0.250000  1
  Rh  Rh23  1  0.334119  0.167015  0.250000  1
  Rh  Rh24  1  0.165213  0.330521  0.601278  1
  Rh  Rh25  1  0.165220  0.834780  0.601278  1
  Rh  Rh26  1  0.669479  0.834787  0.601278  1
  Rh  Rh27  1  0.834787  0.669479  0.398722  1
  Rh  Rh28  1  0.834780  0.165220  0.398722  1
  Rh  Rh29  1  0.330521  0.165213  0.398722  1
  Rh  Rh30  1  0.834787  0.669479  0.101278  1
  Rh  Rh31  1  0.834780  0.165220  0.101278  1
  Rh  Rh32  1  0.330521  0.165213  0.101278  1
  Rh  Rh33  1  0.165213  0.330521  0.898722  1
  Rh  Rh34  1  0.165220  0.834780  0.898722  1
  Rh  Rh35  1  0.669479  0.834787  0.898722  1
