# generated using pymatgen
data_U4Ta(ReP)6
_symmetry_space_group_name_H-M   'P 1'
_cell_length_a   7.10754446
_cell_length_b   7.10754245
_cell_length_c   7.10754400
_cell_angle_alpha   109.47123075
_cell_angle_beta   109.47122502
_cell_angle_gamma   109.47120988
_symmetry_Int_Tables_number   1
_chemical_formula_structural   U4Ta(ReP)6
_chemical_formula_sum   'U4 Ta1 Re6 P6'
_cell_volume   276.39914389
_cell_formula_units_Z   1
loop_
 _symmetry_equiv_pos_site_id
 _symmetry_equiv_pos_as_xyz
  1  'x, y, z'
loop_
 _atom_site_type_symbol
 _atom_site_label
 _atom_site_symmetry_multiplicity
 _atom_site_fract_x
 _atom_site_fract_y
 _atom_site_fract_z
 _atom_site_occupancy
  U  U0  1  0.000000  0.000000  0.500000  1
  U  U1  1  0.500000  0.000000  0.000000  1
  U  U2  1  0.000000  0.500000  0.000000  1
  U  U3  1  0.500000  0.500000  0.500000  1
  Ta  Ta4  1  0.000000  0.000000  0.000000  1
  Re  Re5  1  0.750000  0.500000  0.250000  1
  Re  Re6  1  0.500000  0.750000  0.250000  1
  Re  Re7  1  0.500000  0.250000  0.750000  1
  Re  Re8  1  0.750000  0.250000  0.500000  1
  Re  Re9  1  0.250000  0.750000  0.500000  1
  Re  Re10  1  0.250000  0.500000  0.750000  1
  P  P11  1  0.314895  0.000000  0.314895  1
  P  P12  1  0.000000  0.314895  0.314895  1
  P  P13  1  0.000000  0.685105  0.685105  1
  P  P14  1  0.314895  0.314895  0.000000  1
  P  P15  1  0.685105  0.685105  0.000000  1
  P  P16  1  0.685105  0.000000  0.685105  1
