# generated using pymatgen
data_Hf10Sn6P
_symmetry_space_group_name_H-M   'P 1'
_cell_length_a   5.81007500
_cell_length_b   8.48566076
_cell_length_c   8.48566600
_cell_angle_alpha   119.99999706
_cell_angle_beta   90.00009861
_cell_angle_gamma   89.99981565
_symmetry_Int_Tables_number   1
_chemical_formula_structural   Hf10Sn6P
_chemical_formula_sum   'Hf10 Sn6 P1'
_cell_volume   362.31305432
_cell_formula_units_Z   1
loop_
 _symmetry_equiv_pos_site_id
 _symmetry_equiv_pos_as_xyz
  1  'x, y, z'
loop_
 _atom_site_type_symbol
 _atom_site_label
 _atom_site_symmetry_multiplicity
 _atom_site_fract_x
 _atom_site_fract_y
 _atom_site_fract_z
 _atom_site_occupancy
  Hf  Hf0  1  0.500000  0.333332  0.666666  1
  Hf  Hf1  1  0.500000  0.666667  0.333334  1
  Hf  Hf2  1  0.000000  0.666666  0.333331  1
  Hf  Hf3  1  0.000000  0.333335  0.666669  1
  Hf  Hf4  1  0.757578  0.249874  0.000000  1
  Hf  Hf5  1  0.757578  0.750127  0.750125  1
  Hf  Hf6  1  0.757578  0.000001  0.249875  1
  Hf  Hf7  1  0.242422  0.750126  0.000000  1
  Hf  Hf8  1  0.242422  0.249875  0.249875  1
  Hf  Hf9  1  0.242422  0.000000  0.750125  1
  Sn  Sn10  1  0.749853  0.605628  0.000000  1
  Sn  Sn11  1  0.749855  0.394372  0.394372  1
  Sn  Sn12  1  0.749855  0.000000  0.605628  1
  Sn  Sn13  1  0.250147  0.394372  0.000000  1
  Sn  Sn14  1  0.250145  0.605628  0.605628  1
  Sn  Sn15  1  0.250145  0.000000  0.394372  1
  P  P16  1  0.499999  0.000001  0.000000  1
