# generated using pymatgen
data_BaCa2Al3Ga2
_symmetry_space_group_name_H-M   'P 1'
_cell_length_a   5.72040300
_cell_length_b   5.72040297
_cell_length_c   13.97117300
_cell_angle_alpha   90.00000000
_cell_angle_beta   90.00000000
_cell_angle_gamma   120.00000593
_symmetry_Int_Tables_number   1
_chemical_formula_structural   BaCa2Al3Ga2
_chemical_formula_sum   'Ba2 Ca4 Al6 Ga4'
_cell_volume   395.92846457
_cell_formula_units_Z   2
loop_
 _symmetry_equiv_pos_site_id
 _symmetry_equiv_pos_as_xyz
  1  'x, y, z'
loop_
 _atom_site_type_symbol
 _atom_site_label
 _atom_site_symmetry_multiplicity
 _atom_site_fract_x
 _atom_site_fract_y
 _atom_site_fract_z
 _atom_site_occupancy
  Ba  Ba0  1  0.000000  0.000000  0.000000  1
  Ba  Ba1  1  0.000000  0.000000  0.500000  1
  Ca  Ca2  1  0.333333  0.666667  0.874296  1
  Ca  Ca3  1  0.666667  0.333333  0.374296  1
  Ca  Ca4  1  0.666667  0.333333  0.125704  1
  Ca  Ca5  1  0.333333  0.666667  0.625704  1
  Al  Al6  1  0.838150  0.676300  0.750000  1
  Al  Al7  1  0.676300  0.838150  0.250000  1
  Al  Al8  1  0.838150  0.161850  0.750000  1
  Al  Al9  1  0.161850  0.838150  0.250000  1
  Al  Al10  1  0.323700  0.161850  0.750000  1
  Al  Al11  1  0.161850  0.323700  0.250000  1
  Ga  Ga12  1  0.666667  0.333333  0.898328  1
  Ga  Ga13  1  0.333333  0.666667  0.101672  1
  Ga  Ga14  1  0.333333  0.666667  0.398328  1
  Ga  Ga15  1  0.666667  0.333333  0.601672  1
