# generated using pymatgen
data_Fe2Ge(O2F)2
_symmetry_space_group_name_H-M   'P 1'
_cell_length_a   4.99639800
_cell_length_b   9.05252600
_cell_length_c   9.49099000
_cell_angle_alpha   90.00000000
_cell_angle_beta   90.00000000
_cell_angle_gamma   90.00000000
_symmetry_Int_Tables_number   1
_chemical_formula_structural   Fe2Ge(O2F)2
_chemical_formula_sum   'Fe8 Ge4 O16 F8'
_cell_volume   429.27769411
_cell_formula_units_Z   4
loop_
 _symmetry_equiv_pos_site_id
 _symmetry_equiv_pos_as_xyz
  1  'x, y, z'
loop_
 _atom_site_type_symbol
 _atom_site_label
 _atom_site_symmetry_multiplicity
 _atom_site_fract_x
 _atom_site_fract_y
 _atom_site_fract_z
 _atom_site_occupancy
  Fe  Fe0  1  0.901201  0.084101  0.128998  1
  Fe  Fe1  1  0.901201  0.415899  0.128998  1
  Fe  Fe2  1  0.401199  0.584101  0.371002  1
  Fe  Fe3  1  0.401199  0.915899  0.371002  1
  Fe  Fe4  1  0.598801  0.084101  0.628999  1
  Fe  Fe5  1  0.598801  0.415899  0.628999  1
  Fe  Fe6  1  0.098801  0.584101  0.871003  1
  Fe  Fe7  1  0.098801  0.915899  0.871003  1
  Ge  Ge8  1  0.603810  0.750000  0.061866  1
  Ge  Ge9  1  0.103810  0.250000  0.438134  1
  Ge  Ge10  1  0.896190  0.750000  0.561866  1
  Ge  Ge11  1  0.396190  0.250000  0.938134  1
  O  O12  1  0.789212  0.590402  0.009995  1
  O  O13  1  0.789212  0.909598  0.009995  1
  O  O14  1  0.708868  0.250000  0.029018  1
  O  O15  1  0.543260  0.750000  0.247546  1
  O  O16  1  0.043261  0.250000  0.252454  1
  O  O17  1  0.208868  0.750000  0.470982  1
  O  O18  1  0.289212  0.090402  0.490005  1
  O  O19  1  0.289212  0.409598  0.490005  1
  O  O20  1  0.710787  0.590402  0.509996  1
  O  O21  1  0.710787  0.909598  0.509996  1
  O  O22  1  0.791131  0.250000  0.529017  1
  O  O23  1  0.956739  0.750000  0.747546  1
  O  O24  1  0.456739  0.250000  0.752454  1
  O  O25  1  0.291131  0.750000  0.970983  1
  O  O26  1  0.210788  0.090402  0.990004  1
  O  O27  1  0.210788  0.409598  0.990004  1
  F  F28  1  0.086697  0.559168  0.250058  1
  F  F29  1  0.086697  0.940831  0.250058  1
  F  F30  1  0.586697  0.059169  0.249942  1
  F  F31  1  0.586697  0.440831  0.249942  1
  F  F32  1  0.413303  0.559168  0.750058  1
  F  F33  1  0.413303  0.940831  0.750058  1
  F  F34  1  0.913302  0.059169  0.749942  1
  F  F35  1  0.913302  0.440831  0.749942  1
