# generated using pymatgen
data_YbPr3(BeSi3)2
_symmetry_space_group_name_H-M   'P 1'
_cell_length_a   8.12627556
_cell_length_b   7.93328015
_cell_length_c   5.87482116
_cell_angle_alpha   70.30497386
_cell_angle_beta   66.80064059
_cell_angle_gamma   42.89440608
_symmetry_Int_Tables_number   1
_chemical_formula_structural   YbPr3(BeSi3)2
_chemical_formula_sum   'Yb1 Pr3 Be2 Si6'
_cell_volume   236.23244398
_cell_formula_units_Z   1
loop_
 _symmetry_equiv_pos_site_id
 _symmetry_equiv_pos_as_xyz
  1  'x, y, z'
loop_
 _atom_site_type_symbol
 _atom_site_label
 _atom_site_symmetry_multiplicity
 _atom_site_fract_x
 _atom_site_fract_y
 _atom_site_fract_z
 _atom_site_occupancy
  Yb  Yb0  1  0.750001  0.749999  0.750000  1
  Pr  Pr1  1  0.250000  0.250000  0.250001  1
  Pr  Pr2  1  0.245533  0.754467  0.245534  1
  Pr  Pr3  1  0.754467  0.245534  0.754468  1
  Be  Be4  1  0.666430  0.666431  0.333570  1
  Be  Be5  1  0.333569  0.333570  0.666431  1
  Si  Si6  1  0.822359  0.350031  0.171696  1
  Si  Si7  1  0.827224  0.827224  0.172777  1
  Si  Si8  1  0.655915  0.171696  0.350031  1
  Si  Si9  1  0.350031  0.822359  0.655916  1
  Si  Si10  1  0.172776  0.172777  0.827225  1
  Si  Si11  1  0.171695  0.655916  0.822359  1
