# generated using pymatgen
data_Sm2Tm3Sn4
_symmetry_space_group_name_H-M   'P 1'
_cell_length_a   8.03842100
_cell_length_b   8.18640400
_cell_length_c   15.43959700
_cell_angle_alpha   90.00000000
_cell_angle_beta   90.00000000
_cell_angle_gamma   90.00000000
_symmetry_Int_Tables_number   1
_chemical_formula_structural   Sm2Tm3Sn4
_chemical_formula_sum   'Sm8 Tm12 Sn16'
_cell_volume   1016.01444290
_cell_formula_units_Z   4
loop_
 _symmetry_equiv_pos_site_id
 _symmetry_equiv_pos_as_xyz
  1  'x, y, z'
loop_
 _atom_site_type_symbol
 _atom_site_label
 _atom_site_symmetry_multiplicity
 _atom_site_fract_x
 _atom_site_fract_y
 _atom_site_fract_z
 _atom_site_occupancy
  Sm  Sm0  1  0.519897  0.320581  0.902167  1
  Sm  Sm1  1  0.019897  0.179419  0.597833  1
  Sm  Sm2  1  0.480103  0.679419  0.402167  1
  Sm  Sm3  1  0.980103  0.820581  0.097833  1
  Sm  Sm4  1  0.480103  0.679419  0.097833  1
  Sm  Sm5  1  0.980103  0.820581  0.402167  1
  Sm  Sm6  1  0.519897  0.320581  0.597833  1
  Sm  Sm7  1  0.019897  0.179419  0.902167  1
  Tm  Tm8  1  0.366373  0.835170  0.877613  1
  Tm  Tm9  1  0.866373  0.664830  0.622387  1
  Tm  Tm10  1  0.633627  0.164830  0.377613  1
  Tm  Tm11  1  0.133627  0.335170  0.122387  1
  Tm  Tm12  1  0.633627  0.164830  0.122387  1
  Tm  Tm13  1  0.133627  0.335170  0.377613  1
  Tm  Tm14  1  0.366373  0.835170  0.622387  1
  Tm  Tm15  1  0.866373  0.664830  0.877613  1
  Tm  Tm16  1  0.197296  0.504475  0.750000  1
  Tm  Tm17  1  0.697296  0.995525  0.750000  1
  Tm  Tm18  1  0.802704  0.495525  0.250000  1
  Tm  Tm19  1  0.302704  0.004475  0.250000  1
  Sn  Sn20  1  0.296622  0.037535  0.041949  1
  Sn  Sn21  1  0.796622  0.462465  0.458051  1
  Sn  Sn22  1  0.703378  0.962465  0.541949  1
  Sn  Sn23  1  0.203378  0.537535  0.958051  1
  Sn  Sn24  1  0.703378  0.962465  0.958051  1
  Sn  Sn25  1  0.203378  0.537535  0.541949  1
  Sn  Sn26  1  0.296622  0.037535  0.458051  1
  Sn  Sn27  1  0.796622  0.462465  0.041949  1
  Sn  Sn28  1  0.564184  0.622812  0.750000  1
  Sn  Sn29  1  0.064184  0.877188  0.750000  1
  Sn  Sn30  1  0.435816  0.377188  0.250000  1
  Sn  Sn31  1  0.935816  0.122812  0.250000  1
  Sn  Sn32  1  0.327618  0.144087  0.750000  1
  Sn  Sn33  1  0.827618  0.355913  0.750000  1
  Sn  Sn34  1  0.672382  0.855913  0.250000  1
  Sn  Sn35  1  0.172382  0.644087  0.250000  1
