# generated using pymatgen
data_CeNd3(Cu5Sn)4
_symmetry_space_group_name_H-M   'P 1'
_cell_length_a   5.09101000
_cell_length_b   8.32741614
_cell_length_c   10.61530547
_cell_angle_alpha   90.06020322
_cell_angle_beta   90.00000000
_cell_angle_gamma   90.00000000
_symmetry_Int_Tables_number   1
_chemical_formula_structural   CeNd3(Cu5Sn)4
_chemical_formula_sum   'Ce1 Nd3 Cu20 Sn4'
_cell_volume   450.03519036
_cell_formula_units_Z   1
loop_
 _symmetry_equiv_pos_site_id
 _symmetry_equiv_pos_as_xyz
  1  'x, y, z'
loop_
 _atom_site_type_symbol
 _atom_site_label
 _atom_site_symmetry_multiplicity
 _atom_site_fract_x
 _atom_site_fract_y
 _atom_site_fract_z
 _atom_site_occupancy
  Ce  Ce0  1  0.250000  0.753818  0.059058  1
  Nd  Nd1  1  0.750000  0.246189  0.940374  1
  Nd  Nd2  1  0.750000  0.745731  0.559617  1
  Nd  Nd3  1  0.250000  0.253934  0.440897  1
  Cu  Cu4  1  0.250000  0.816499  0.746068  1
  Cu  Cu5  1  0.750000  0.183417  0.254839  1
  Cu  Cu6  1  0.750000  0.684171  0.244128  1
  Cu  Cu7  1  0.250000  0.316465  0.754658  1
  Cu  Cu8  1  0.500411  0.566673  0.812560  1
  Cu  Cu9  1  0.499363  0.433465  0.187638  1
  Cu  Cu10  1  0.499831  0.933636  0.311928  1
  Cu  Cu11  1  0.000637  0.433465  0.187638  1
  Cu  Cu12  1  0.500385  0.066361  0.688071  1
  Cu  Cu13  1  0.999589  0.566673  0.812560  1
  Cu  Cu14  1  0.999615  0.066361  0.688071  1
  Cu  Cu15  1  0.000169  0.933636  0.311928  1
  Cu  Cu16  1  0.250000  0.915878  0.516943  1
  Cu  Cu17  1  0.750000  0.083366  0.483369  1
  Cu  Cu18  1  0.750000  0.584480  0.017474  1
  Cu  Cu19  1  0.250000  0.418854  0.983346  1
  Cu  Cu20  1  0.250000  0.561284  0.604425  1
  Cu  Cu21  1  0.750000  0.438712  0.395097  1
  Cu  Cu22  1  0.750000  0.936754  0.104269  1
  Cu  Cu23  1  0.250000  0.060453  0.895803  1
  Sn  Sn24  1  0.250000  0.641618  0.359105  1
  Sn  Sn25  1  0.750000  0.359123  0.639906  1
  Sn  Sn26  1  0.750000  0.859226  0.860552  1
  Sn  Sn27  1  0.250000  0.139757  0.139678  1
