# generated using pymatgen
data_DyErLu2(Si3Rh)2
_symmetry_space_group_name_H-M   'P 1'
_cell_length_a   8.13480571
_cell_length_b   8.13480676
_cell_length_c   7.78623800
_cell_angle_alpha   90.00000000
_cell_angle_beta   90.00000000
_cell_angle_gamma   119.95209424
_symmetry_Int_Tables_number   1
_chemical_formula_structural   DyErLu2(Si3Rh)2
_chemical_formula_sum   'Dy2 Er2 Lu4 Si12 Rh4'
_cell_volume   446.43905122
_cell_formula_units_Z   2
loop_
 _symmetry_equiv_pos_site_id
 _symmetry_equiv_pos_as_xyz
  1  'x, y, z'
loop_
 _atom_site_type_symbol
 _atom_site_label
 _atom_site_symmetry_multiplicity
 _atom_site_fract_x
 _atom_site_fract_y
 _atom_site_fract_z
 _atom_site_occupancy
  Dy  Dy0  1  0.999895  0.000105  0.250000  1
  Dy  Dy1  1  0.000152  0.999848  0.750000  1
  Er  Er2  1  0.982477  0.491431  0.750000  1
  Er  Er3  1  0.508569  0.017523  0.750000  1
  Lu  Lu4  1  0.491311  0.508689  0.250000  1
  Lu  Lu5  1  0.491365  0.982603  0.250000  1
  Lu  Lu6  1  0.017397  0.508635  0.250000  1
  Lu  Lu7  1  0.508163  0.491837  0.750000  1
  Si  Si8  1  0.832639  0.167361  0.499598  1
  Si  Si9  1  0.832433  0.665230  0.500468  1
  Si  Si10  1  0.334770  0.167567  0.500468  1
  Si  Si11  1  0.832639  0.167361  0.000402  1
  Si  Si12  1  0.832433  0.665230  0.999532  1
  Si  Si13  1  0.334770  0.167567  0.999532  1
  Si  Si14  1  0.167338  0.832662  0.002126  1
  Si  Si15  1  0.665650  0.832781  0.001954  1
  Si  Si16  1  0.167219  0.334350  0.001954  1
  Si  Si17  1  0.167338  0.832662  0.497874  1
  Si  Si18  1  0.665650  0.832781  0.498046  1
  Si  Si19  1  0.167219  0.334350  0.498046  1
  Rh  Rh20  1  0.666374  0.333626  0.462918  1
  Rh  Rh21  1  0.666374  0.333626  0.037082  1
  Rh  Rh22  1  0.333912  0.666088  0.968822  1
  Rh  Rh23  1  0.333912  0.666088  0.531178  1
