# generated using pymatgen
data_Ca3FeRuO7
_symmetry_space_group_name_H-M   'P 1'
_cell_length_a   5.60044400
_cell_length_b   5.49194092
_cell_length_c   10.14382920
_cell_angle_alpha   105.82435495
_cell_angle_beta   90.00013989
_cell_angle_gamma   89.99919155
_symmetry_Int_Tables_number   1
_chemical_formula_structural   Ca3FeRuO7
_chemical_formula_sum   'Ca6 Fe2 Ru2 O14'
_cell_volume   300.17286943
_cell_formula_units_Z   2
loop_
 _symmetry_equiv_pos_site_id
 _symmetry_equiv_pos_as_xyz
  1  'x, y, z'
loop_
 _atom_site_type_symbol
 _atom_site_label
 _atom_site_symmetry_multiplicity
 _atom_site_fract_x
 _atom_site_fract_y
 _atom_site_fract_z
 _atom_site_occupancy
  Ca  Ca0  1  0.697073  0.759986  0.000878  1
  Ca  Ca1  1  0.197071  0.240022  0.999126  1
  Ca  Ca2  1  0.797725  0.575083  0.625122  1
  Ca  Ca3  1  0.297711  0.424925  0.374888  1
  Ca  Ca4  1  0.803163  0.946544  0.376816  1
  Ca  Ca5  1  0.303174  0.053450  0.623177  1
  Fe  Fe6  1  0.252208  0.852046  0.203296  1
  Fe  Fe7  1  0.752243  0.147947  0.796693  1
  Ru  Ru8  1  0.750584  0.351235  0.197512  1
  Ru  Ru9  1  0.250611  0.648795  0.802486  1
  O  O10  1  0.723795  0.975482  0.600793  1
  O  O11  1  0.223786  0.024502  0.399194  1
  O  O12  1  0.225440  0.624595  0.603497  1
  O  O13  1  0.725430  0.375411  0.396514  1
  O  O14  1  0.047276  0.341874  0.768969  1
  O  O15  1  0.547258  0.658129  0.231033  1
  O  O16  1  0.539272  0.433084  0.767559  1
  O  O17  1  0.039255  0.566906  0.232447  1
  O  O18  1  0.958352  0.868119  0.837706  1
  O  O19  1  0.458327  0.131884  0.162294  1
  O  O20  1  0.773720  0.336935  0.001163  1
  O  O21  1  0.273719  0.663065  0.998845  1
  O  O22  1  0.951396  0.041436  0.162740  1
  O  O23  1  0.451414  0.958545  0.837257  1
