# generated using pymatgen
data_Y7ErTa4(TiSi2)8
_symmetry_space_group_name_H-M   'P 1'
_cell_length_a   7.05611415
_cell_length_b   7.05538021
_cell_length_c   12.98859010
_cell_angle_alpha   90.01194730
_cell_angle_beta   90.00509141
_cell_angle_gamma   90.00924766
_symmetry_Int_Tables_number   1
_chemical_formula_structural   Y7ErTa4(TiSi2)8
_chemical_formula_sum   'Y7 Er1 Ta4 Ti8 Si16'
_cell_volume   646.61833504
_cell_formula_units_Z   1
loop_
 _symmetry_equiv_pos_site_id
 _symmetry_equiv_pos_as_xyz
  1  'x, y, z'
loop_
 _atom_site_type_symbol
 _atom_site_label
 _atom_site_symmetry_multiplicity
 _atom_site_fract_x
 _atom_site_fract_y
 _atom_site_fract_z
 _atom_site_occupancy
  Y  Y0  1  0.340816  0.002335  0.466836  1
  Y  Y1  1  0.497708  0.840851  0.717100  1
  Y  Y2  1  0.502406  0.159038  0.216643  1
  Y  Y3  1  0.840960  0.497554  0.282947  1
  Y  Y4  1  0.159105  0.502497  0.783201  1
  Y  Y5  1  0.659335  0.997658  0.967120  1
  Y  Y6  1  0.002360  0.340830  0.533094  1
  Er  Er7  1  0.998338  0.658846  0.033119  1
  Ta  Ta8  1  0.325867  0.326385  0.000056  1
  Ta  Ta9  1  0.173809  0.825699  0.249750  1
  Ta  Ta10  1  0.826094  0.173969  0.750212  1
  Ta  Ta11  1  0.673986  0.673967  0.499961  1
  Ti  Ti12  1  0.152264  0.009437  0.876076  1
  Ti  Ti13  1  0.490823  0.652680  0.125640  1
  Ti  Ti14  1  0.509243  0.347231  0.625848  1
  Ti  Ti15  1  0.652866  0.491320  0.874557  1
  Ti  Ti16  1  0.347106  0.509208  0.374031  1
  Ti  Ti17  1  0.847181  0.990515  0.375570  1
  Ti  Ti18  1  0.009176  0.152429  0.124098  1
  Ti  Ti19  1  0.990689  0.847139  0.624346  1
  Si  Si20  1  0.201511  0.129762  0.684805  1
  Si  Si21  1  0.369258  0.701485  0.934849  1
  Si  Si22  1  0.629768  0.298430  0.434567  1
  Si  Si23  1  0.702543  0.371080  0.065422  1
  Si  Si24  1  0.298507  0.629860  0.565214  1
  Si  Si25  1  0.798957  0.869238  0.183931  1
  Si  Si26  1  0.129751  0.201510  0.315183  1
  Si  Si27  1  0.870253  0.798158  0.815931  1
  Si  Si28  1  0.291514  0.952358  0.064124  1
  Si  Si29  1  0.547131  0.791946  0.314073  1
  Si  Si30  1  0.453146  0.208058  0.814423  1
  Si  Si31  1  0.792152  0.547084  0.685945  1
  Si  Si32  1  0.207315  0.453374  0.185342  1
  Si  Si33  1  0.707892  0.046943  0.564252  1
  Si  Si34  1  0.953151  0.293297  0.936028  1
  Si  Si35  1  0.047025  0.707828  0.435706  1
