# generated using pymatgen
data_Er3Co7NiP6W
_symmetry_space_group_name_H-M   'P 1'
_cell_length_a   3.71974800
_cell_length_b   10.50441400
_cell_length_c   12.20897100
_cell_angle_alpha   90.00000000
_cell_angle_beta   90.00000000
_cell_angle_gamma   90.00000000
_symmetry_Int_Tables_number   1
_chemical_formula_structural   Er3Co7NiP6W
_chemical_formula_sum   'Er6 Co14 Ni2 P12 W2'
_cell_volume   477.05056102
_cell_formula_units_Z   2
loop_
 _symmetry_equiv_pos_site_id
 _symmetry_equiv_pos_as_xyz
  1  'x, y, z'
loop_
 _atom_site_type_symbol
 _atom_site_label
 _atom_site_symmetry_multiplicity
 _atom_site_fract_x
 _atom_site_fract_y
 _atom_site_fract_z
 _atom_site_occupancy
  Er  Er0  1  0.750000  0.250000  0.476796  1
  Er  Er1  1  0.250000  0.750000  0.523204  1
  Er  Er2  1  0.250000  0.931514  0.795510  1
  Er  Er3  1  0.250000  0.568486  0.795510  1
  Er  Er4  1  0.750000  0.068486  0.204490  1
  Er  Er5  1  0.750000  0.431514  0.204490  1
  Co  Co6  1  0.750000  0.250000  0.012558  1
  Co  Co7  1  0.250000  0.750000  0.987442  1
  Co  Co8  1  0.250000  0.417127  0.010129  1
  Co  Co9  1  0.250000  0.082873  0.010129  1
  Co  Co10  1  0.750000  0.582873  0.989871  1
  Co  Co11  1  0.750000  0.917127  0.989871  1
  Co  Co12  1  0.250000  0.452427  0.567929  1
  Co  Co13  1  0.250000  0.047573  0.567929  1
  Co  Co14  1  0.750000  0.547573  0.432071  1
  Co  Co15  1  0.750000  0.952427  0.432071  1
  Co  Co16  1  0.250000  0.872112  0.291956  1
  Co  Co17  1  0.250000  0.627888  0.291956  1
  Co  Co18  1  0.750000  0.127888  0.708044  1
  Co  Co19  1  0.750000  0.372112  0.708044  1
  Ni  Ni20  1  0.250000  0.250000  0.299358  1
  Ni  Ni21  1  0.750000  0.750000  0.700642  1
  P  P22  1  0.250000  0.250000  0.119629  1
  P  P23  1  0.750000  0.750000  0.880371  1
  P  P24  1  0.250000  0.250000  0.649148  1
  P  P25  1  0.750000  0.750000  0.350852  1
  P  P26  1  0.250000  0.438776  0.384124  1
  P  P27  1  0.250000  0.061224  0.384124  1
  P  P28  1  0.750000  0.561224  0.615876  1
  P  P29  1  0.750000  0.938776  0.615876  1
  P  P30  1  0.250000  0.906391  0.107699  1
  P  P31  1  0.250000  0.593609  0.107699  1
  P  P32  1  0.750000  0.093609  0.892301  1
  P  P33  1  0.750000  0.406391  0.892301  1
  W  W34  1  0.250000  0.250000  0.843989  1
  W  W35  1  0.750000  0.750000  0.156011  1
