# generated using pymatgen
data_Er4MnFeSi4
_symmetry_space_group_name_H-M   'P 1'
_cell_length_a   5.63306991
_cell_length_b   5.63307013
_cell_length_c   9.91407131
_cell_angle_alpha   63.56996607
_cell_angle_beta   63.56996502
_cell_angle_gamma   43.22430326
_symmetry_Int_Tables_number   1
_chemical_formula_structural   Er4MnFeSi4
_chemical_formula_sum   'Er4 Mn1 Fe1 Si4'
_cell_volume   189.15107995
_cell_formula_units_Z   1
loop_
 _symmetry_equiv_pos_site_id
 _symmetry_equiv_pos_as_xyz
  1  'x, y, z'
loop_
 _atom_site_type_symbol
 _atom_site_label
 _atom_site_symmetry_multiplicity
 _atom_site_fract_x
 _atom_site_fract_y
 _atom_site_fract_z
 _atom_site_occupancy
  Er  Er0  1  0.813373  0.813373  0.107715  1
  Er  Er1  1  0.188306  0.188306  0.891623  1
  Er  Er2  1  0.002056  0.002056  0.327063  1
  Er  Er3  1  0.997228  0.997228  0.676036  1
  Mn  Mn4  1  0.273105  0.273105  0.370044  1
  Fe  Fe5  1  0.727988  0.727988  0.625566  1
  Si  Si6  1  0.506720  0.506720  0.121037  1
  Si  Si7  1  0.499603  0.499603  0.873708  1
  Si  Si8  1  0.642261  0.642261  0.441724  1
  Si  Si9  1  0.349358  0.349358  0.565484  1
