# generated using pymatgen
data_CsDy3S5
_symmetry_space_group_name_H-M   'P 1'
_cell_length_a   4.01527900
_cell_length_b   12.02094300
_cell_length_c   21.44534900
_cell_angle_alpha   90.00000000
_cell_angle_beta   90.00000000
_cell_angle_gamma   90.00000000
_symmetry_Int_Tables_number   1
_chemical_formula_structural   CsDy3S5
_chemical_formula_sum   'Cs4 Dy12 S20'
_cell_volume   1035.11209588
_cell_formula_units_Z   4
loop_
 _symmetry_equiv_pos_site_id
 _symmetry_equiv_pos_as_xyz
  1  'x, y, z'
loop_
 _atom_site_type_symbol
 _atom_site_label
 _atom_site_symmetry_multiplicity
 _atom_site_fract_x
 _atom_site_fract_y
 _atom_site_fract_z
 _atom_site_occupancy
  Cs  Cs0  1  0.250000  0.854072  0.092805  1
  Cs  Cs1  1  0.750000  0.145928  0.907195  1
  Cs  Cs2  1  0.750000  0.354072  0.407195  1
  Cs  Cs3  1  0.250000  0.645928  0.592805  1
  Dy  Dy4  1  0.750000  0.797429  0.825482  1
  Dy  Dy5  1  0.250000  0.202571  0.174518  1
  Dy  Dy6  1  0.250000  0.297429  0.674518  1
  Dy  Dy7  1  0.750000  0.702571  0.325482  1
  Dy  Dy8  1  0.250000  0.957768  0.697486  1
  Dy  Dy9  1  0.750000  0.042232  0.302514  1
  Dy  Dy10  1  0.750000  0.457768  0.802514  1
  Dy  Dy11  1  0.250000  0.542232  0.197486  1
  Dy  Dy12  1  0.750000  0.391048  0.053098  1
  Dy  Dy13  1  0.250000  0.608952  0.946902  1
  Dy  Dy14  1  0.250000  0.891048  0.446902  1
  Dy  Dy15  1  0.750000  0.108952  0.553098  1
  S  S16  1  0.250000  0.951076  0.568726  1
  S  S17  1  0.750000  0.048924  0.431274  1
  S  S18  1  0.750000  0.451076  0.931274  1
  S  S19  1  0.250000  0.548924  0.068726  1
  S  S20  1  0.750000  0.761983  0.951447  1
  S  S21  1  0.250000  0.238017  0.048553  1
  S  S22  1  0.250000  0.261983  0.548553  1
  S  S23  1  0.750000  0.738017  0.451447  1
  S  S24  1  0.250000  0.946602  0.824361  1
  S  S25  1  0.750000  0.053398  0.175639  1
  S  S26  1  0.750000  0.446602  0.675639  1
  S  S27  1  0.250000  0.553398  0.324361  1
  S  S28  1  0.750000  0.126014  0.682891  1
  S  S29  1  0.250000  0.873986  0.317109  1
  S  S30  1  0.250000  0.626014  0.817109  1
  S  S31  1  0.750000  0.373986  0.182891  1
  S  S32  1  0.750000  0.690056  0.198777  1
  S  S33  1  0.250000  0.309944  0.801223  1
  S  S34  1  0.250000  0.190056  0.301223  1
  S  S35  1  0.750000  0.809944  0.698777  1
