# generated using pymatgen
data_La3(GaIr)2
_symmetry_space_group_name_H-M   'P 1'
_cell_length_a   5.84321038
_cell_length_b   8.28771877
_cell_length_c   13.74084691
_cell_angle_alpha   90.02845090
_cell_angle_beta   90.00724925
_cell_angle_gamma   89.92089856
_symmetry_Int_Tables_number   1
_chemical_formula_structural   La3(GaIr)2
_chemical_formula_sum   'La12 Ga8 Ir8'
_cell_volume   665.42568236
_cell_formula_units_Z   4
loop_
 _symmetry_equiv_pos_site_id
 _symmetry_equiv_pos_as_xyz
  1  'x, y, z'
loop_
 _atom_site_type_symbol
 _atom_site_label
 _atom_site_symmetry_multiplicity
 _atom_site_fract_x
 _atom_site_fract_y
 _atom_site_fract_z
 _atom_site_occupancy
  La  La0  1  0.629935  0.256762  0.250573  1
  La  La1  1  0.370411  0.743291  0.750335  1
  La  La2  1  0.368684  0.756973  0.250548  1
  La  La3  1  0.630681  0.243775  0.749922  1
  La  La4  1  0.152612  0.396351  0.095935  1
  La  La5  1  0.849368  0.601675  0.904668  1
  La  La6  1  0.849353  0.602122  0.596231  1
  La  La7  1  0.849110  0.897748  0.403774  1
  La  La8  1  0.149460  0.398437  0.403786  1
  La  La9  1  0.150607  0.101366  0.596340  1
  La  La10  1  0.151439  0.102246  0.903434  1
  La  La11  1  0.849039  0.900016  0.096191  1
  Ga  Ga12  1  0.135924  0.105818  0.250379  1
  Ga  Ga13  1  0.864110  0.894390  0.750474  1
  Ga  Ga14  1  0.863392  0.605597  0.248819  1
  Ga  Ga15  1  0.136021  0.395171  0.749748  1
  Ga  Ga16  1  0.627124  0.249544  0.999403  1
  Ga  Ga17  1  0.373508  0.749940  0.000338  1
  Ga  Ga18  1  0.375518  0.750096  0.500217  1
  Ga  Ga19  1  0.624113  0.249987  0.500105  1
  Ir  Ir20  1  0.357688  0.031837  0.091948  1
  Ir  Ir21  1  0.641505  0.967838  0.908378  1
  Ir  Ir22  1  0.643189  0.968730  0.591954  1
  Ir  Ir23  1  0.642929  0.530927  0.407570  1
  Ir  Ir24  1  0.357151  0.030907  0.408424  1
  Ir  Ir25  1  0.357025  0.469334  0.591482  1
  Ir  Ir26  1  0.357280  0.468480  0.907927  1
  Ir  Ir27  1  0.642824  0.530641  0.091101  1
