# generated using pymatgen
data_Sr4GeP3Au4
_symmetry_space_group_name_H-M   'P 1'
_cell_length_a   8.81859604
_cell_length_b   4.33669300
_cell_length_c   7.56326300
_cell_angle_alpha   90.00000000
_cell_angle_beta   90.00526919
_cell_angle_gamma   90.00000000
_symmetry_Int_Tables_number   1
_chemical_formula_structural   Sr4GeP3Au4
_chemical_formula_sum   'Sr4 Ge1 P3 Au4'
_cell_volume   289.24597787
_cell_formula_units_Z   1
loop_
 _symmetry_equiv_pos_site_id
 _symmetry_equiv_pos_as_xyz
  1  'x, y, z'
loop_
 _atom_site_type_symbol
 _atom_site_label
 _atom_site_symmetry_multiplicity
 _atom_site_fract_x
 _atom_site_fract_y
 _atom_site_fract_z
 _atom_site_occupancy
  Sr  Sr0  1  0.506312  0.249999  0.251279  1
  Sr  Sr1  1  0.993890  0.249999  0.251801  1
  Sr  Sr2  1  0.996602  0.749999  0.748384  1
  Sr  Sr3  1  0.503230  0.749999  0.748723  1
  Ge  Ge4  1  0.249844  0.749999  0.085540  1
  P  P5  1  0.749885  0.749999  0.416182  1
  P  P6  1  0.250102  0.249999  0.581778  1
  P  P7  1  0.750080  0.249999  0.914485  1
  Au  Au8  1  0.750258  0.749999  0.083305  1
  Au  Au9  1  0.250178  0.749999  0.422862  1
  Au  Au10  1  0.749795  0.249999  0.585410  1
  Au  Au11  1  0.249825  0.249999  0.910249  1
