# generated using pymatgen
data_Ca12Nd7GdSn16
_symmetry_space_group_name_H-M   'P 1'
_cell_length_a   7.99353706
_cell_length_b   8.52791816
_cell_length_c   16.16315000
_cell_angle_alpha   89.86561418
_cell_angle_beta   90.07057381
_cell_angle_gamma   89.86796337
_symmetry_Int_Tables_number   1
_chemical_formula_structural   Ca12Nd7GdSn16
_chemical_formula_sum   'Ca12 Nd7 Gd1 Sn16'
_cell_volume   1101.80652521
_cell_formula_units_Z   1
loop_
 _symmetry_equiv_pos_site_id
 _symmetry_equiv_pos_as_xyz
  1  'x, y, z'
loop_
 _atom_site_type_symbol
 _atom_site_label
 _atom_site_symmetry_multiplicity
 _atom_site_fract_x
 _atom_site_fract_y
 _atom_site_fract_z
 _atom_site_occupancy
  Ca  Ca0  1  0.991451  0.185507  0.407608  1
  Ca  Ca1  1  0.326269  0.827836  0.122263  1
  Ca  Ca2  1  0.173551  0.331469  0.623814  1
  Ca  Ca3  1  0.507084  0.683372  0.905385  1
  Ca  Ca4  1  0.828014  0.670719  0.122457  1
  Ca  Ca5  1  0.172509  0.331007  0.876073  1
  Ca  Ca6  1  0.155944  0.495969  0.249485  1
  Ca  Ca7  1  0.658041  0.002316  0.249065  1
  Ca  Ca8  1  0.509314  0.685266  0.595358  1
  Ca  Ca9  1  0.344370  0.996692  0.748951  1
  Ca  Ca10  1  0.674275  0.171434  0.622243  1
  Ca  Ca11  1  0.840686  0.502803  0.749033  1
  Nd  Nd12  1  0.988104  0.185791  0.093360  1
  Nd  Nd13  1  0.012705  0.810940  0.903089  1
  Nd  Nd14  1  0.669674  0.171410  0.875167  1
  Nd  Nd15  1  0.486528  0.313211  0.096347  1
  Nd  Nd16  1  0.329392  0.826686  0.376514  1
  Nd  Nd17  1  0.013276  0.812145  0.597772  1
  Nd  Nd18  1  0.491081  0.312569  0.404527  1
  Gd  Gd19  1  0.828508  0.670959  0.377518  1
  Sn  Sn20  1  0.832093  0.472286  0.539151  1
  Sn  Sn21  1  0.670248  0.967719  0.457309  1
  Sn  Sn22  1  0.719393  0.862128  0.750915  1
  Sn  Sn23  1  0.166381  0.536791  0.459884  1
  Sn  Sn24  1  0.329942  0.038068  0.961863  1
  Sn  Sn25  1  0.782782  0.360966  0.251640  1
  Sn  Sn26  1  0.831928  0.464181  0.961201  1
  Sn  Sn27  1  0.528972  0.604081  0.251624  1
  Sn  Sn28  1  0.165958  0.531506  0.040441  1
  Sn  Sn29  1  0.471614  0.394708  0.750613  1
  Sn  Sn30  1  0.215038  0.639169  0.750196  1
  Sn  Sn31  1  0.974482  0.103057  0.750574  1
  Sn  Sn32  1  0.332159  0.037143  0.537321  1
  Sn  Sn33  1  0.668886  0.969457  0.040829  1
  Sn  Sn34  1  0.282925  0.136787  0.248991  1
  Sn  Sn35  1  0.026430  0.893859  0.251416  1
