# generated using pymatgen
data_Dy4Tc3Os4W
_symmetry_space_group_name_H-M   'P 1'
_cell_length_a   5.25306457
_cell_length_b   5.25306554
_cell_length_c   9.02894100
_cell_angle_alpha   90.00000000
_cell_angle_beta   90.00000000
_cell_angle_gamma   117.03146345
_symmetry_Int_Tables_number   1
_chemical_formula_structural   Dy4Tc3Os4W
_chemical_formula_sum   'Dy4 Tc3 Os4 W1'
_cell_volume   221.93288545
_cell_formula_units_Z   1
loop_
 _symmetry_equiv_pos_site_id
 _symmetry_equiv_pos_as_xyz
  1  'x, y, z'
loop_
 _atom_site_type_symbol
 _atom_site_label
 _atom_site_symmetry_multiplicity
 _atom_site_fract_x
 _atom_site_fract_y
 _atom_site_fract_z
 _atom_site_occupancy
  Dy  Dy0  1  0.328852  0.671148  0.435834  1
  Dy  Dy1  1  0.666901  0.333099  0.563086  1
  Dy  Dy2  1  0.666901  0.333099  0.936914  1
  Dy  Dy3  1  0.328852  0.671148  0.064166  1
  Tc  Tc4  1  0.175028  0.824972  0.750000  1
  Tc  Tc5  1  0.169373  0.339453  0.750000  1
  Tc  Tc6  1  0.660547  0.830627  0.750000  1
  Os  Os7  1  0.995285  0.004715  0.501126  1
  Os  Os8  1  0.995285  0.004715  0.998874  1
  Os  Os9  1  0.824522  0.650313  0.250000  1
  Os  Os10  1  0.349687  0.175478  0.250000  1
  W  W11  1  0.838765  0.161235  0.250000  1
