# generated using pymatgen
data_Ho6Pa2GaPd24
_symmetry_space_group_name_H-M   'P 1'
_cell_length_a   8.35321600
_cell_length_b   8.37212625
_cell_length_c   8.37212625
_cell_angle_alpha   89.86003393
_cell_angle_beta   90.00000000
_cell_angle_gamma   90.00000000
_symmetry_Int_Tables_number   1
_chemical_formula_structural   Ho6Pa2GaPd24
_chemical_formula_sum   'Ho6 Pa2 Ga1 Pd24'
_cell_volume   585.49602764
_cell_formula_units_Z   1
loop_
 _symmetry_equiv_pos_site_id
 _symmetry_equiv_pos_as_xyz
  1  'x, y, z'
loop_
 _atom_site_type_symbol
 _atom_site_label
 _atom_site_symmetry_multiplicity
 _atom_site_fract_x
 _atom_site_fract_y
 _atom_site_fract_z
 _atom_site_occupancy
  Ho  Ho0  1  0.746856  0.252872  0.252872  1
  Ho  Ho1  1  0.746856  0.747128  0.747128  1
  Ho  Ho2  1  0.749173  0.747472  0.252528  1
  Ho  Ho3  1  0.749173  0.252528  0.747472  1
  Ho  Ho4  1  0.252824  0.748553  0.748553  1
  Ho  Ho5  1  0.252824  0.251447  0.251447  1
  Pa  Pa6  1  0.252791  0.253362  0.746638  1
  Pa  Pa7  1  0.252791  0.746638  0.253362  1
  Ga  Ga8  1  0.996699  0.000000  0.000000  1
  Pd  Pd9  1  0.497168  0.497901  0.747257  1
  Pd  Pd10  1  0.497168  0.252743  0.502099  1
  Pd  Pd11  1  0.253282  0.500000  0.500000  1
  Pd  Pd12  1  0.497168  0.502099  0.252743  1
  Pd  Pd13  1  0.497168  0.747257  0.497901  1
  Pd  Pd14  1  0.748204  0.500000  0.500000  1
  Pd  Pd15  1  0.001759  0.999958  0.710096  1
  Pd  Pd16  1  0.001759  0.289904  0.000042  1
  Pd  Pd17  1  0.288298  0.000000  0.000000  1
  Pd  Pd18  1  0.001759  0.000042  0.289904  1
  Pd  Pd19  1  0.001759  0.710096  0.999958  1
  Pd  Pd20  1  0.708069  0.000000  0.000000  1
  Pd  Pd21  1  0.004369  0.497695  0.741143  1
  Pd  Pd22  1  0.496984  0.259427  0.996255  1
  Pd  Pd23  1  0.259426  0.000000  0.500000  1
  Pd  Pd24  1  0.004369  0.258857  0.502305  1
  Pd  Pd25  1  0.496984  0.003745  0.740573  1
  Pd  Pd26  1  0.259426  0.500000  0.000000  1
  Pd  Pd27  1  0.004369  0.502305  0.258857  1
  Pd  Pd28  1  0.496984  0.740573  0.003745  1
  Pd  Pd29  1  0.004369  0.741143  0.497695  1
  Pd  Pd30  1  0.496984  0.996255  0.259427  1
  Pd  Pd31  1  0.741094  0.000000  0.500000  1
  Pd  Pd32  1  0.741094  0.500000  0.000000  1
