# generated using pymatgen
data_La9Ga(Co2Pd)2
_symmetry_space_group_name_H-M   'P 1'
_cell_length_a   7.57680138
_cell_length_b   7.57680188
_cell_length_c   8.84126700
_cell_angle_alpha   115.37181307
_cell_angle_beta   115.37181484
_cell_angle_gamma   89.99999937
_symmetry_Int_Tables_number   1
_chemical_formula_structural   La9Ga(Co2Pd)2
_chemical_formula_sum   'La9 Ga1 Co4 Pd2'
_cell_volume   403.75381812
_cell_formula_units_Z   1
loop_
 _symmetry_equiv_pos_site_id
 _symmetry_equiv_pos_as_xyz
  1  'x, y, z'
loop_
 _atom_site_type_symbol
 _atom_site_label
 _atom_site_symmetry_multiplicity
 _atom_site_fract_x
 _atom_site_fract_y
 _atom_site_fract_z
 _atom_site_occupancy
  La  La0  1  0.000000  0.000000  0.000000  1
  La  La1  1  0.472930  0.319020  0.260329  1
  La  La2  1  0.941311  0.472930  0.260329  1
  La  La3  1  0.319020  0.787399  0.260329  1
  La  La4  1  0.787399  0.941311  0.260329  1
  La  La5  1  0.212600  0.058690  0.739670  1
  La  La6  1  0.680979  0.212600  0.739670  1
  La  La7  1  0.058690  0.527069  0.739670  1
  La  La8  1  0.527069  0.680979  0.739670  1
  Ga  Ga9  1  0.500000  0.500000  0.000000  1
  Co  Co10  1  0.625462  0.131193  0.000000  1
  Co  Co11  1  0.131193  0.374539  0.000000  1
  Co  Co12  1  0.868807  0.625462  0.000000  1
  Co  Co13  1  0.374539  0.868807  0.000000  1
  Pd  Pd14  1  0.242170  0.242170  0.484340  1
  Pd  Pd15  1  0.757830  0.757830  0.515660  1
