# generated using pymatgen
data_Dy2Ho4ScFeO12
_symmetry_space_group_name_H-M   'P 1'
_cell_length_a   6.54861028
_cell_length_b   6.54679603
_cell_length_c   6.54824515
_cell_angle_alpha   92.64167204
_cell_angle_beta   92.65266557
_cell_angle_gamma   92.65646500
_symmetry_Int_Tables_number   1
_chemical_formula_structural   Dy2Ho4ScFeO12
_chemical_formula_sum   'Dy2 Ho4 Sc1 Fe1 O12'
_cell_volume   279.80942505
_cell_formula_units_Z   1
loop_
 _symmetry_equiv_pos_site_id
 _symmetry_equiv_pos_as_xyz
  1  'x, y, z'
loop_
 _atom_site_type_symbol
 _atom_site_label
 _atom_site_symmetry_multiplicity
 _atom_site_fract_x
 _atom_site_fract_y
 _atom_site_fract_z
 _atom_site_occupancy
  Dy  Dy0  1  0.743509  0.927488  0.436511  1
  Dy  Dy1  1  0.927642  0.436722  0.743693  1
  Ho  Ho2  1  0.436531  0.743725  0.927512  1
  Ho  Ho3  1  0.256467  0.072532  0.563356  1
  Ho  Ho4  1  0.072881  0.563295  0.256301  1
  Ho  Ho5  1  0.563082  0.256459  0.072563  1
  Sc  Sc6  1  0.000276  0.999981  0.000128  1
  Fe  Fe7  1  0.499584  0.500011  0.499845  1
  O  O8  1  0.588138  0.461130  0.801560  1
  O  O9  1  0.460199  0.801005  0.589666  1
  O  O10  1  0.801076  0.588526  0.460217  1
  O  O11  1  0.410807  0.538938  0.198536  1
  O  O12  1  0.538173  0.199245  0.410702  1
  O  O13  1  0.199192  0.410639  0.538048  1
  O  O14  1  0.069491  0.914079  0.308275  1
  O  O15  1  0.913985  0.308140  0.069639  1
  O  O16  1  0.691604  0.931523  0.084773  1
  O  O17  1  0.086457  0.692310  0.932206  1
  O  O18  1  0.932373  0.085452  0.692338  1
  O  O19  1  0.308534  0.068798  0.914132  1
