# generated using pymatgen
data_CaLa4InPd4
_symmetry_space_group_name_H-M   'P 1'
_cell_length_a   3.96931100
_cell_length_b   8.17851600
_cell_length_c   8.17796700
_cell_angle_alpha   90.00166039
_cell_angle_beta   90.00000000
_cell_angle_gamma   90.00000000
_symmetry_Int_Tables_number   1
_chemical_formula_structural   CaLa4InPd4
_chemical_formula_sum   'Ca1 La4 In1 Pd4'
_cell_volume   265.48194393
_cell_formula_units_Z   1
loop_
 _symmetry_equiv_pos_site_id
 _symmetry_equiv_pos_as_xyz
  1  'x, y, z'
loop_
 _atom_site_type_symbol
 _atom_site_label
 _atom_site_symmetry_multiplicity
 _atom_site_fract_x
 _atom_site_fract_y
 _atom_site_fract_z
 _atom_site_occupancy
  Ca  Ca0  1  0.000000  0.500002  0.500007  1
  La  La1  1  0.500000  0.150973  0.688949  1
  La  La2  1  0.500000  0.849030  0.311030  1
  La  La3  1  0.500000  0.311029  0.150985  1
  La  La4  1  0.500000  0.688972  0.849018  1
  In  In5  1  0.000000  0.999994  0.000001  1
  Pd  Pd6  1  0.000000  0.627969  0.128168  1
  Pd  Pd7  1  0.000000  0.372037  0.871835  1
  Pd  Pd8  1  0.000000  0.871832  0.627969  1
  Pd  Pd9  1  0.000000  0.128161  0.372038  1
