# generated using pymatgen
data_Nd8HoErPb6
_symmetry_space_group_name_H-M   'P 1'
_cell_length_a   9.31947000
_cell_length_b   9.31947020
_cell_length_c   6.83894500
_cell_angle_alpha   90.00000000
_cell_angle_beta   90.00000000
_cell_angle_gamma   119.99999929
_symmetry_Int_Tables_number   1
_chemical_formula_structural   Nd8HoErPb6
_chemical_formula_sum   'Nd8 Ho1 Er1 Pb6'
_cell_volume   514.40145040
_cell_formula_units_Z   1
loop_
 _symmetry_equiv_pos_site_id
 _symmetry_equiv_pos_as_xyz
  1  'x, y, z'
loop_
 _atom_site_type_symbol
 _atom_site_label
 _atom_site_symmetry_multiplicity
 _atom_site_fract_x
 _atom_site_fract_y
 _atom_site_fract_z
 _atom_site_occupancy
  Nd  Nd0  1  0.666667  0.333333  0.000000  1
  Nd  Nd1  1  0.333333  0.666667  0.000000  1
  Nd  Nd2  1  0.759632  0.759586  0.748441  1
  Nd  Nd3  1  0.240414  0.000047  0.748441  1
  Nd  Nd4  1  0.999953  0.240368  0.748441  1
  Nd  Nd5  1  0.240414  0.240368  0.251559  1
  Nd  Nd6  1  0.759632  0.000047  0.251559  1
  Nd  Nd7  1  0.999953  0.759586  0.251559  1
  Ho  Ho8  1  0.333333  0.666667  0.500000  1
  Er  Er9  1  0.666667  0.333333  0.500000  1
  Pb  Pb10  1  0.396172  0.396004  0.743589  1
  Pb  Pb11  1  0.603996  0.000169  0.743589  1
  Pb  Pb12  1  0.999831  0.603828  0.743589  1
  Pb  Pb13  1  0.603996  0.603828  0.256411  1
  Pb  Pb14  1  0.396172  0.000169  0.256411  1
  Pb  Pb15  1  0.999831  0.396004  0.256411  1
