# generated using pymatgen
data_PrNdY4IrI10
_symmetry_space_group_name_H-M   'P 1'
_cell_length_a   7.82341452
_cell_length_b   9.86292773
_cell_length_c   9.88283833
_cell_angle_alpha   106.88477363
_cell_angle_beta   96.39575034
_cell_angle_gamma   104.99847305
_symmetry_Int_Tables_number   1
_chemical_formula_structural   PrNdY4IrI10
_chemical_formula_sum   'Pr1 Nd1 Y4 Ir1 I10'
_cell_volume   690.33715146
_cell_formula_units_Z   1
loop_
 _symmetry_equiv_pos_site_id
 _symmetry_equiv_pos_as_xyz
  1  'x, y, z'
loop_
 _atom_site_type_symbol
 _atom_site_label
 _atom_site_symmetry_multiplicity
 _atom_site_fract_x
 _atom_site_fract_y
 _atom_site_fract_z
 _atom_site_occupancy
  Pr  Pr0  1  0.117037  0.043674  0.761217  1
  Nd  Nd1  1  0.883554  0.956655  0.238011  1
  Y  Y2  1  0.969993  0.286968  0.086575  1
  Y  Y3  1  0.029828  0.712987  0.913846  1
  Y  Y4  1  0.348766  0.125669  0.166019  1
  Y  Y5  1  0.651023  0.874190  0.834285  1
  Ir  Ir6  1  0.999793  0.999945  0.000428  1
  I  I7  1  0.348449  0.447823  0.270456  1
  I  I8  1  0.651571  0.552155  0.729517  1
  I  I9  1  0.265059  0.089262  0.457489  1
  I  I10  1  0.733879  0.910358  0.541507  1
  I  I11  1  0.084035  0.378152  0.824525  1
  I  I12  1  0.915821  0.622715  0.175800  1
  I  I13  1  0.449734  0.817306  0.088877  1
  I  I14  1  0.551194  0.183037  0.911551  1
  I  I15  1  0.775900  0.260224  0.342881  1
  I  I16  1  0.224362  0.738881  0.657016  1
