# generated using pymatgen
data_Tb7Ho(Nb3Si4)4
_symmetry_space_group_name_H-M   'P 1'
_cell_length_a   7.08458990
_cell_length_b   7.08407437
_cell_length_c   13.07655614
_cell_angle_alpha   90.01523144
_cell_angle_beta   90.00125657
_cell_angle_gamma   90.03014275
_symmetry_Int_Tables_number   1
_chemical_formula_structural   Tb7Ho(Nb3Si4)4
_chemical_formula_sum   'Tb7 Ho1 Nb12 Si16'
_cell_volume   656.28296923
_cell_formula_units_Z   1
loop_
 _symmetry_equiv_pos_site_id
 _symmetry_equiv_pos_as_xyz
  1  'x, y, z'
loop_
 _atom_site_type_symbol
 _atom_site_label
 _atom_site_symmetry_multiplicity
 _atom_site_fract_x
 _atom_site_fract_y
 _atom_site_fract_z
 _atom_site_occupancy
  Tb  Tb0  1  0.001253  0.659157  0.717811  1
  Tb  Tb1  1  0.158806  0.498371  0.467573  1
  Tb  Tb2  1  0.501574  0.841170  0.032536  1
  Tb  Tb3  1  0.841164  0.501427  0.967867  1
  Tb  Tb4  1  0.498655  0.158917  0.532100  1
  Tb  Tb5  1  0.341015  0.998812  0.782203  1
  Tb  Tb6  1  0.659185  0.001296  0.282122  1
  Ho  Ho7  1  0.999293  0.341126  0.217852  1
  Nb  Nb8  1  0.170751  0.171109  0.000235  1
  Nb  Nb9  1  0.829131  0.829189  0.499848  1
  Nb  Nb10  1  0.329121  0.670389  0.249976  1
  Nb  Nb11  1  0.670590  0.329437  0.750013  1
  Nb  Nb12  1  0.153698  0.991865  0.375723  1
  Nb  Nb13  1  0.846021  0.008283  0.876212  1
  Nb  Nb14  1  0.507608  0.654148  0.626321  1
  Nb  Nb15  1  0.345855  0.492538  0.873756  1
  Nb  Nb16  1  0.492368  0.345861  0.126595  1
  Nb  Nb17  1  0.654221  0.507054  0.373247  1
  Nb  Nb18  1  0.991975  0.154079  0.623849  1
  Nb  Nb19  1  0.007853  0.846054  0.124180  1
  Si  Si20  1  0.292621  0.045656  0.186672  1
  Si  Si21  1  0.707024  0.954774  0.686638  1
  Si  Si22  1  0.454964  0.792832  0.436472  1
  Si  Si23  1  0.206467  0.544678  0.063768  1
  Si  Si24  1  0.545219  0.207187  0.936766  1
  Si  Si25  1  0.792936  0.454955  0.563229  1
  Si  Si26  1  0.045329  0.293142  0.813324  1
  Si  Si27  1  0.954650  0.705935  0.313196  1
  Si  Si28  1  0.367556  0.295315  0.317516  1
  Si  Si29  1  0.631648  0.704769  0.817819  1
  Si  Si30  1  0.204325  0.868264  0.567559  1
  Si  Si31  1  0.131829  0.795855  0.932443  1
  Si  Si32  1  0.796260  0.132388  0.068195  1
  Si  Si33  1  0.868418  0.204539  0.431921  1
  Si  Si34  1  0.295307  0.368473  0.682231  1
  Si  Si35  1  0.705314  0.630958  0.182230  1
