# generated using pymatgen
data_Th2TlPdRu
_symmetry_space_group_name_H-M   'P 1'
_cell_length_a   7.87358300
_cell_length_b   7.87358306
_cell_length_c   3.82120400
_cell_angle_alpha   90.00000000
_cell_angle_beta   90.00000000
_cell_angle_gamma   90.54105758
_symmetry_Int_Tables_number   1
_chemical_formula_structural   Th2TlPdRu
_chemical_formula_sum   'Th4 Tl2 Pd2 Ru2'
_cell_volume   236.87852092
_cell_formula_units_Z   2
loop_
 _symmetry_equiv_pos_site_id
 _symmetry_equiv_pos_as_xyz
  1  'x, y, z'
loop_
 _atom_site_type_symbol
 _atom_site_label
 _atom_site_symmetry_multiplicity
 _atom_site_fract_x
 _atom_site_fract_y
 _atom_site_fract_z
 _atom_site_occupancy
  Th  Th0  1  0.181726  0.681725  0.500001  1
  Th  Th1  1  0.818274  0.318274  0.500001  1
  Th  Th2  1  0.661576  0.838423  0.500001  1
  Th  Th3  1  0.338423  0.161577  0.500001  1
  Tl  Tl4  1  0.000000  0.000000  0.000000  1
  Tl  Tl5  1  0.499999  0.499999  0.000000  1
  Pd  Pd6  1  0.127731  0.372269  0.000000  1
  Pd  Pd7  1  0.872270  0.627730  0.000000  1
  Ru  Ru8  1  0.631983  0.131984  0.000000  1
  Ru  Ru9  1  0.368016  0.868017  0.000000  1
