# generated using pymatgen
data_TmLu4Co19(As3P)3
_symmetry_space_group_name_H-M   'P 1'
_cell_length_a   12.29438300
_cell_length_b   12.29438311
_cell_length_c   3.74242500
_cell_angle_alpha   90.00000000
_cell_angle_beta   90.00000000
_cell_angle_gamma   119.99999162
_symmetry_Int_Tables_number   1
_chemical_formula_structural   TmLu4Co19(As3P)3
_chemical_formula_sum   'Tm1 Lu4 Co19 As9 P3'
_cell_volume   489.88851135
_cell_formula_units_Z   1
loop_
 _symmetry_equiv_pos_site_id
 _symmetry_equiv_pos_as_xyz
  1  'x, y, z'
loop_
 _atom_site_type_symbol
 _atom_site_label
 _atom_site_symmetry_multiplicity
 _atom_site_fract_x
 _atom_site_fract_y
 _atom_site_fract_z
 _atom_site_occupancy
  Tm  Tm0  1  0.333333  0.666667  0.500000  1
  Lu  Lu1  1  0.666667  0.333333  0.500000  1
  Lu  Lu2  1  0.178908  0.999996  0.000000  1
  Lu  Lu3  1  0.000004  0.178912  0.000000  1
  Lu  Lu4  1  0.821088  0.821092  0.000000  1
  Co  Co5  1  0.197327  0.368308  0.500000  1
  Co  Co6  1  0.631692  0.829020  0.500000  1
  Co  Co7  1  0.170980  0.802673  0.500000  1
  Co  Co8  1  0.828953  0.631591  0.500000  1
  Co  Co9  1  0.802638  0.171047  0.500000  1
  Co  Co10  1  0.368409  0.197362  0.500000  1
  Co  Co11  1  0.553437  0.999976  0.500000  1
  Co  Co12  1  0.000024  0.553461  0.500000  1
  Co  Co13  1  0.446539  0.446563  0.500000  1
  Co  Co14  1  0.126376  0.478451  0.000000  1
  Co  Co15  1  0.521549  0.647925  0.000000  1
  Co  Co16  1  0.352075  0.873624  0.000000  1
  Co  Co17  1  0.647931  0.521302  0.000000  1
  Co  Co18  1  0.873371  0.352069  0.000000  1
  Co  Co19  1  0.478698  0.126629  0.000000  1
  Co  Co20  1  0.725957  0.000029  0.000000  1
  Co  Co21  1  0.999971  0.725928  0.000000  1
  Co  Co22  1  0.274072  0.274043  0.000000  1
  Co  Co23  1  0.000000  0.000000  0.500000  1
  As  As24  1  0.361061  0.999974  0.500000  1
  As  As25  1  0.000026  0.361087  0.500000  1
  As  As26  1  0.638913  0.638939  0.500000  1
  As  As27  1  0.319088  0.480586  0.000000  1
  As  As28  1  0.519414  0.838502  0.000000  1
  As  As29  1  0.161498  0.680912  0.000000  1
  As  As30  1  0.838197  0.519040  0.000000  1
  As  As31  1  0.680844  0.161803  0.000000  1
  As  As32  1  0.480960  0.319156  0.000000  1
  P  P33  1  0.823709  0.999997  0.500000  1
  P  P34  1  0.000003  0.823712  0.500000  1
  P  P35  1  0.176288  0.176291  0.500000  1
