# generated using pymatgen
data_NdZn3AgRh
_symmetry_space_group_name_H-M   'P 1'
_cell_length_a   5.24151381
_cell_length_b   5.24151311
_cell_length_c   5.24151228
_cell_angle_alpha   62.28918835
_cell_angle_beta   62.28919433
_cell_angle_gamma   62.28917825
_symmetry_Int_Tables_number   1
_chemical_formula_structural   NdZn3AgRh
_chemical_formula_sum   'Nd1 Zn3 Ag1 Rh1'
_cell_volume   107.02792282
_cell_formula_units_Z   1
loop_
 _symmetry_equiv_pos_site_id
 _symmetry_equiv_pos_as_xyz
  1  'x, y, z'
loop_
 _atom_site_type_symbol
 _atom_site_label
 _atom_site_symmetry_multiplicity
 _atom_site_fract_x
 _atom_site_fract_y
 _atom_site_fract_z
 _atom_site_occupancy
  Nd  Nd0  1  0.000113  0.000113  0.000113  1
  Zn  Zn1  1  0.870570  0.379174  0.379174  1
  Zn  Zn2  1  0.379174  0.870570  0.379174  1
  Zn  Zn3  1  0.379174  0.379174  0.870570  1
  Ag  Ag4  1  0.744988  0.744988  0.744988  1
  Rh  Rh5  1  0.375981  0.375981  0.375981  1
