# generated using pymatgen
data_Tb2Nd4FeCl10
_symmetry_space_group_name_H-M   'P 1'
_cell_length_a   7.27690661
_cell_length_b   9.08468249
_cell_length_c   9.06089447
_cell_angle_alpha   108.88168458
_cell_angle_beta   95.43869839
_cell_angle_gamma   106.08450749
_symmetry_Int_Tables_number   1
_chemical_formula_structural   Tb2Nd4FeCl10
_chemical_formula_sum   'Tb2 Nd4 Fe1 Cl10'
_cell_volume   533.25724157
_cell_formula_units_Z   1
loop_
 _symmetry_equiv_pos_site_id
 _symmetry_equiv_pos_as_xyz
  1  'x, y, z'
loop_
 _atom_site_type_symbol
 _atom_site_label
 _atom_site_symmetry_multiplicity
 _atom_site_fract_x
 _atom_site_fract_y
 _atom_site_fract_z
 _atom_site_occupancy
  Tb  Tb0  1  0.367203  0.138904  0.685070  1
  Tb  Tb1  1  0.632797  0.861096  0.314930  1
  Nd  Nd2  1  0.030081  0.701950  0.403713  1
  Nd  Nd3  1  0.969919  0.298050  0.596287  1
  Nd  Nd4  1  0.867660  0.950253  0.745586  1
  Nd  Nd5  1  0.132340  0.049747  0.254414  1
  Fe  Fe6  1  0.000000  0.000000  0.500000  1
  Cl  Cl7  1  0.452504  0.832028  0.577521  1
  Cl  Cl8  1  0.547496  0.167972  0.422479  1
  Cl  Cl9  1  0.913390  0.634955  0.671609  1
  Cl  Cl10  1  0.086610  0.365045  0.328391  1
  Cl  Cl11  1  0.249463  0.083004  0.944002  1
  Cl  Cl12  1  0.750537  0.916996  0.055998  1
  Cl  Cl13  1  0.354870  0.442575  0.768258  1
  Cl  Cl14  1  0.645130  0.557425  0.231742  1
  Cl  Cl15  1  0.775341  0.249512  0.843561  1
  Cl  Cl16  1  0.224659  0.750488  0.156439  1
