# generated using pymatgen
data_Sc10(GaAs)3
_symmetry_space_group_name_H-M   'P 1'
_cell_length_a   7.97745000
_cell_length_b   7.96607109
_cell_length_c   5.91736900
_cell_angle_alpha   90.00000000
_cell_angle_beta   90.00000000
_cell_angle_gamma   120.04726305
_symmetry_Int_Tables_number   1
_chemical_formula_structural   Sc10(GaAs)3
_chemical_formula_sum   'Sc10 Ga3 As3'
_cell_volume   325.50714153
_cell_formula_units_Z   1
loop_
 _symmetry_equiv_pos_site_id
 _symmetry_equiv_pos_as_xyz
  1  'x, y, z'
loop_
 _atom_site_type_symbol
 _atom_site_label
 _atom_site_symmetry_multiplicity
 _atom_site_fract_x
 _atom_site_fract_y
 _atom_site_fract_z
 _atom_site_occupancy
  Sc  Sc0  1  0.332148  0.665996  0.001193  1
  Sc  Sc1  1  0.666153  0.334004  0.498807  1
  Sc  Sc2  1  0.666153  0.334004  0.001193  1
  Sc  Sc3  1  0.332148  0.665996  0.498807  1
  Sc  Sc4  1  0.238168  0.000000  0.250000  1
  Sc  Sc5  1  0.239375  0.237916  0.750000  1
  Sc  Sc6  1  0.001459  0.762084  0.750000  1
  Sc  Sc7  1  0.001937  0.240251  0.250000  1
  Sc  Sc8  1  0.761686  0.759749  0.250000  1
  Sc  Sc9  1  0.759216  0.000000  0.750000  1
  Ga  Ga10  1  0.998707  0.604038  0.250000  1
  Ga  Ga11  1  0.394669  0.395962  0.250000  1
  Ga  Ga12  1  0.395663  0.000000  0.750000  1
  As  As13  1  0.607487  0.000000  0.250000  1
  As  As14  1  0.606706  0.608379  0.750000  1
  As  As15  1  0.998327  0.391621  0.750000  1
