# generated using pymatgen
data_Dy10Si16Pd
_symmetry_space_group_name_H-M   'P 1'
_cell_length_a   11.11679101
_cell_length_b   11.10667288
_cell_length_c   11.11679109
_cell_angle_alpha   144.48836735
_cell_angle_beta   136.69522442
_cell_angle_gamma   57.21656305
_symmetry_Int_Tables_number   1
_chemical_formula_structural   Dy10Si16Pd
_chemical_formula_sum   'Dy10 Si16 Pd1'
_cell_volume   542.36954785
_cell_formula_units_Z   1
loop_
 _symmetry_equiv_pos_site_id
 _symmetry_equiv_pos_as_xyz
  1  'x, y, z'
loop_
 _atom_site_type_symbol
 _atom_site_label
 _atom_site_symmetry_multiplicity
 _atom_site_fract_x
 _atom_site_fract_y
 _atom_site_fract_z
 _atom_site_occupancy
  Dy  Dy0  1  0.754935  0.754685  0.500825  1
  Dy  Dy1  1  0.459173  0.959501  0.010837  1
  Dy  Dy2  1  0.854340  0.360935  0.013416  1
  Dy  Dy3  1  0.948664  0.959501  0.500327  1
  Dy  Dy4  1  0.153274  0.168472  0.516636  1
  Dy  Dy5  1  0.347518  0.360935  0.506595  1
  Dy  Dy6  1  0.253860  0.754685  0.999751  1
  Dy  Dy7  1  0.551195  0.565013  0.504905  1
  Dy  Dy8  1  0.060106  0.565013  0.013818  1
  Dy  Dy9  1  0.651836  0.168472  0.015198  1
  Si  Si10  1  0.203153  0.587171  0.384018  1
  Si  Si11  1  0.996387  0.062394  0.066008  1
  Si  Si12  1  0.700445  0.285461  0.585016  1
  Si  Si13  1  0.806295  0.224451  0.418157  1
  Si  Si14  1  0.903743  0.538781  0.635038  1
  Si  Si15  1  0.417338  0.865499  0.448161  1
  Si  Si16  1  0.105856  0.707356  0.601500  1
  Si  Si17  1  0.303877  0.897640  0.593763  1
  Si  Si18  1  0.586646  0.034979  0.448333  1
  Si  Si19  1  0.001462  0.421164  0.419702  1
  Si  Si20  1  0.818690  0.890355  0.071667  1
  Si  Si21  1  0.402625  0.496043  0.093419  1
  Si  Si22  1  0.119029  0.072563  0.953534  1
  Si  Si23  1  0.289698  0.235893  0.946196  1
  Si  Si24  1  0.502448  0.392291  0.889844  1
  Si  Si25  1  0.601233  0.698214  0.096981  1
  Pd  Pd26  1  0.706177  0.634031  0.927854  1
