# generated using pymatgen
data_CeDy3Tm12(CdRu)4
_symmetry_space_group_name_H-M   'P 1'
_cell_length_a   9.55183443
_cell_length_b   9.55183575
_cell_length_c   9.54503575
_cell_angle_alpha   59.52890869
_cell_angle_beta   59.52891183
_cell_angle_gamma   59.57340757
_symmetry_Int_Tables_number   1
_chemical_formula_structural   CeDy3Tm12(CdRu)4
_chemical_formula_sum   'Ce1 Dy3 Tm12 Cd4 Ru4'
_cell_volume   609.40669274
_cell_formula_units_Z   1
loop_
 _symmetry_equiv_pos_site_id
 _symmetry_equiv_pos_as_xyz
  1  'x, y, z'
loop_
 _atom_site_type_symbol
 _atom_site_label
 _atom_site_symmetry_multiplicity
 _atom_site_fract_x
 _atom_site_fract_y
 _atom_site_fract_z
 _atom_site_occupancy
  Ce  Ce0  1  0.342604  0.342604  0.343029  1
  Dy  Dy1  1  0.561919  0.561919  0.937050  1
  Dy  Dy2  1  0.939798  0.561375  0.938159  1
  Dy  Dy3  1  0.561375  0.939798  0.938159  1
  Tm  Tm4  1  0.938959  0.938959  0.560760  1
  Tm  Tm5  1  0.562446  0.937914  0.561270  1
  Tm  Tm6  1  0.937914  0.562446  0.561270  1
  Tm  Tm7  1  0.188801  0.188801  0.812837  1
  Tm  Tm8  1  0.812054  0.187480  0.811038  1
  Tm  Tm9  1  0.187479  0.812055  0.811038  1
  Tm  Tm10  1  0.811454  0.811455  0.188390  1
  Tm  Tm11  1  0.188000  0.813308  0.189627  1
  Tm  Tm12  1  0.813308  0.188001  0.189628  1
  Tm  Tm13  1  0.346923  0.346923  0.957018  1
  Tm  Tm14  1  0.346795  0.956131  0.347917  1
  Tm  Tm15  1  0.956131  0.346795  0.347917  1
  Cd  Cd16  1  0.580200  0.580200  0.258217  1
  Cd  Cd17  1  0.580966  0.256885  0.580015  1
  Cd  Cd18  1  0.256885  0.580966  0.580015  1
  Cd  Cd19  1  0.580514  0.580514  0.579722  1
  Ru  Ru20  1  0.144941  0.144941  0.575763  1
  Ru  Ru21  1  0.144321  0.576269  0.145209  1
  Ru  Ru22  1  0.576269  0.144321  0.145209  1
  Ru  Ru23  1  0.139941  0.139941  0.140744  1
