# generated using pymatgen
data_Cs4K2PrTlBi4
_symmetry_space_group_name_H-M   'P 1'
_cell_length_a   10.77726955
_cell_length_b   10.77726864
_cell_length_c   10.77726929
_cell_angle_alpha   133.79830609
_cell_angle_beta   64.28781453
_cell_angle_gamma   137.87890287
_symmetry_Int_Tables_number   1
_chemical_formula_structural   Cs4K2PrTlBi4
_chemical_formula_sum   'Cs4 K2 Pr1 Tl1 Bi4'
_cell_volume   597.75123152
_cell_formula_units_Z   1
loop_
 _symmetry_equiv_pos_site_id
 _symmetry_equiv_pos_as_xyz
  1  'x, y, z'
loop_
 _atom_site_type_symbol
 _atom_site_label
 _atom_site_symmetry_multiplicity
 _atom_site_fract_x
 _atom_site_fract_y
 _atom_site_fract_z
 _atom_site_occupancy
  Cs  Cs0  1  0.310792  0.751924  0.083644  1
  Cs  Cs1  1  0.189208  0.272851  0.441131  1
  Cs  Cs2  1  0.831720  0.748077  0.558869  1
  Cs  Cs3  1  0.668280  0.227150  0.916357  1
  K  K4  1  0.250000  0.250000  0.000000  1
  K  K5  1  0.750000  0.750000  0.000000  1
  Pr  Pr6  1  0.750000  0.250000  0.500000  1
  Tl  Tl7  1  0.250000  0.749999  0.499999  1
  Bi  Bi8  1  0.904444  0.298034  0.190616  1
  Bi  Bi9  1  0.595556  0.786173  0.393590  1
  Bi  Bi10  1  0.392582  0.201966  0.606410  1
  Bi  Bi11  1  0.107418  0.713828  0.809384  1
