# generated using pymatgen
data_Sr3Li7GaSn4
_symmetry_space_group_name_H-M   'P 1'
_cell_length_a   9.82534100
_cell_length_b   9.82534183
_cell_length_c   8.35935300
_cell_angle_alpha   90.00000000
_cell_angle_beta   90.00000000
_cell_angle_gamma   120.00000730
_symmetry_Int_Tables_number   1
_chemical_formula_structural   Sr3Li7GaSn4
_chemical_formula_sum   'Sr6 Li14 Ga2 Sn8'
_cell_volume   698.87348777
_cell_formula_units_Z   2
loop_
 _symmetry_equiv_pos_site_id
 _symmetry_equiv_pos_as_xyz
  1  'x, y, z'
loop_
 _atom_site_type_symbol
 _atom_site_label
 _atom_site_symmetry_multiplicity
 _atom_site_fract_x
 _atom_site_fract_y
 _atom_site_fract_z
 _atom_site_occupancy
  Sr  Sr0  1  0.479358  0.958716  0.502706  1
  Sr  Sr1  1  0.041284  0.520642  0.502706  1
  Sr  Sr2  1  0.479358  0.520642  0.502706  1
  Sr  Sr3  1  0.520642  0.041284  0.002706  1
  Sr  Sr4  1  0.958716  0.479358  0.002706  1
  Sr  Sr5  1  0.520642  0.479358  0.002706  1
  Li  Li6  1  0.835505  0.671012  0.661539  1
  Li  Li7  1  0.328988  0.164495  0.661539  1
  Li  Li8  1  0.835505  0.164495  0.661539  1
  Li  Li9  1  0.164495  0.328988  0.161539  1
  Li  Li10  1  0.671012  0.835505  0.161539  1
  Li  Li11  1  0.164495  0.835505  0.161539  1
  Li  Li12  1  0.898169  0.796336  0.972409  1
  Li  Li13  1  0.203664  0.101831  0.972409  1
  Li  Li14  1  0.898169  0.101831  0.972409  1
  Li  Li15  1  0.101831  0.203664  0.472409  1
  Li  Li16  1  0.796336  0.898169  0.472409  1
  Li  Li17  1  0.101831  0.898169  0.472409  1
  Li  Li18  1  0.666667  0.333333  0.365558  1
  Li  Li19  1  0.333333  0.666667  0.865558  1
  Ga  Ga20  1  0.000000  0.000000  0.227316  1
  Ga  Ga21  1  0.000000  0.000000  0.727316  1
  Sn  Sn22  1  0.835790  0.671579  0.287757  1
  Sn  Sn23  1  0.328421  0.164210  0.287757  1
  Sn  Sn24  1  0.835790  0.164210  0.287757  1
  Sn  Sn25  1  0.164210  0.328421  0.787757  1
  Sn  Sn26  1  0.671579  0.835790  0.787757  1
  Sn  Sn27  1  0.164210  0.835790  0.787757  1
  Sn  Sn28  1  0.666667  0.333333  0.716613  1
  Sn  Sn29  1  0.333333  0.666667  0.216613  1
