# generated using pymatgen
data_Lu3Sc(Co4P3)2
_symmetry_space_group_name_H-M   'P 1'
_cell_length_a   3.69471000
_cell_length_b   10.60977700
_cell_length_c   12.27386100
_cell_angle_alpha   90.00000000
_cell_angle_beta   90.00000000
_cell_angle_gamma   90.00000000
_symmetry_Int_Tables_number   1
_chemical_formula_structural   Lu3Sc(Co4P3)2
_chemical_formula_sum   'Lu6 Sc2 Co16 P12'
_cell_volume   481.13595482
_cell_formula_units_Z   2
loop_
 _symmetry_equiv_pos_site_id
 _symmetry_equiv_pos_as_xyz
  1  'x, y, z'
loop_
 _atom_site_type_symbol
 _atom_site_label
 _atom_site_symmetry_multiplicity
 _atom_site_fract_x
 _atom_site_fract_y
 _atom_site_fract_z
 _atom_site_occupancy
  Lu  Lu0  1  0.000000  0.500000  0.528256  1
  Lu  Lu1  1  0.500000  0.000000  0.471744  1
  Lu  Lu2  1  0.500000  0.823113  0.205769  1
  Lu  Lu3  1  0.500000  0.176887  0.205769  1
  Lu  Lu4  1  0.000000  0.676887  0.794231  1
  Lu  Lu5  1  0.000000  0.323113  0.794231  1
  Sc  Sc6  1  0.500000  0.500000  0.158121  1
  Sc  Sc7  1  0.000000  0.000000  0.841879  1
  Co  Co8  1  0.500000  0.500000  0.704705  1
  Co  Co9  1  0.000000  0.000000  0.295295  1
  Co  Co10  1  0.000000  0.500000  0.987229  1
  Co  Co11  1  0.500000  0.000000  0.012771  1
  Co  Co12  1  0.500000  0.331141  0.994465  1
  Co  Co13  1  0.500000  0.668859  0.994465  1
  Co  Co14  1  0.000000  0.168859  0.005535  1
  Co  Co15  1  0.000000  0.831141  0.005535  1
  Co  Co16  1  0.500000  0.295573  0.433234  1
  Co  Co17  1  0.500000  0.704427  0.433234  1
  Co  Co18  1  0.000000  0.204427  0.566766  1
  Co  Co19  1  0.000000  0.795573  0.566766  1
  Co  Co20  1  0.500000  0.876819  0.702532  1
  Co  Co21  1  0.500000  0.123181  0.702532  1
  Co  Co22  1  0.000000  0.623181  0.297468  1
  Co  Co23  1  0.000000  0.376819  0.297468  1
  P  P24  1  0.500000  0.500000  0.884348  1
  P  P25  1  0.000000  0.000000  0.115652  1
  P  P26  1  0.500000  0.500000  0.362315  1
  P  P27  1  0.000000  0.000000  0.637685  1
  P  P28  1  0.500000  0.311662  0.616427  1
  P  P29  1  0.500000  0.688338  0.616427  1
  P  P30  1  0.000000  0.188338  0.383573  1
  P  P31  1  0.000000  0.811662  0.383573  1
  P  P32  1  0.500000  0.838327  0.891111  1
  P  P33  1  0.500000  0.161673  0.891111  1
  P  P34  1  0.000000  0.661673  0.108889  1
  P  P35  1  0.000000  0.338327  0.108889  1
