# generated using pymatgen
data_La2DyY5(WO6)4
_symmetry_space_group_name_H-M   'P 1'
_cell_length_a   5.48058700
_cell_length_b   7.81560358
_cell_length_c   11.62256621
_cell_angle_alpha   75.70709674
_cell_angle_beta   90.00307510
_cell_angle_gamma   89.99819143
_symmetry_Int_Tables_number   1
_chemical_formula_structural   La2DyY5(WO6)4
_chemical_formula_sum   'La2 Dy1 Y5 W4 O24'
_cell_volume   482.43206241
_cell_formula_units_Z   1
loop_
 _symmetry_equiv_pos_site_id
 _symmetry_equiv_pos_as_xyz
  1  'x, y, z'
loop_
 _atom_site_type_symbol
 _atom_site_label
 _atom_site_symmetry_multiplicity
 _atom_site_fract_x
 _atom_site_fract_y
 _atom_site_fract_z
 _atom_site_occupancy
  La  La0  1  0.686430  0.499952  0.750015  1
  La  La1  1  0.313628  0.499939  0.250030  1
  Dy  Dy2  1  0.812116  0.201353  0.423749  1
  Y  Y3  1  0.741222  0.000053  0.749958  1
  Y  Y4  1  0.258840  0.000075  0.250060  1
  Y  Y5  1  0.188143  0.798590  0.576294  1
  Y  Y6  1  0.811825  0.798542  0.076319  1
  Y  Y7  1  0.188155  0.201487  0.923656  1
  W  W8  1  0.251889  0.728797  0.883971  1
  W  W9  1  0.748152  0.728786  0.383963  1
  W  W10  1  0.251892  0.271180  0.615944  1
  W  W11  1  0.748112  0.271192  0.116108  1
  O  O12  1  0.040829  0.941372  0.895697  1
  O  O13  1  0.529715  0.846453  0.930607  1
  O  O14  1  0.958770  0.941775  0.395742  1
  O  O15  1  0.453776  0.795423  0.728001  1
  O  O16  1  0.470294  0.846429  0.430611  1
  O  O17  1  0.987063  0.721142  0.769524  1
  O  O18  1  0.546198  0.795368  0.228031  1
  O  O19  1  0.857242  0.643357  0.543675  1
  O  O20  1  0.346483  0.495509  0.887420  1
  O  O21  1  0.012959  0.721193  0.269581  1
  O  O22  1  0.346410  0.504415  0.612531  1
  O  O23  1  0.857183  0.356643  0.956360  1
  O  O24  1  0.142802  0.643310  0.043705  1
  O  O25  1  0.653847  0.495250  0.387430  1
  O  O26  1  0.987162  0.278859  0.730408  1
  O  O27  1  0.653503  0.504492  0.112574  1
  O  O28  1  0.142089  0.356387  0.456219  1
  O  O29  1  0.453786  0.204544  0.771917  1
  O  O30  1  0.012717  0.278787  0.230754  1
  O  O31  1  0.530025  0.153798  0.569090  1
  O  O32  1  0.546670  0.204596  0.272212  1
  O  O33  1  0.040566  0.058767  0.604067  1
  O  O34  1  0.470312  0.153550  0.069459  1
  O  O35  1  0.959192  0.058636  0.104319  1
