# generated using pymatgen
data_Y3HoAl18(IrPd)3
_symmetry_space_group_name_H-M   'P 1'
_cell_length_a   7.60174373
_cell_length_b   7.60306306
_cell_length_c   9.45632100
_cell_angle_alpha   89.97565776
_cell_angle_beta   89.97570073
_cell_angle_gamma   119.64067621
_symmetry_Int_Tables_number   1
_chemical_formula_structural   Y3HoAl18(IrPd)3
_chemical_formula_sum   'Y3 Ho1 Al18 Ir3 Pd3'
_cell_volume   475.02408185
_cell_formula_units_Z   1
loop_
 _symmetry_equiv_pos_site_id
 _symmetry_equiv_pos_as_xyz
  1  'x, y, z'
loop_
 _atom_site_type_symbol
 _atom_site_label
 _atom_site_symmetry_multiplicity
 _atom_site_fract_x
 _atom_site_fract_y
 _atom_site_fract_z
 _atom_site_occupancy
  Y  Y0  1  0.995644  0.670316  0.250433  1
  Y  Y1  1  0.004614  0.329606  0.749592  1
  Y  Y2  1  0.670365  0.995379  0.250414  1
  Ho  Ho3  1  0.329653  0.004429  0.749520  1
  Al  Al4  1  0.127242  0.128027  0.250398  1
  Al  Al5  1  0.872246  0.872832  0.749607  1
  Al  Al6  1  0.000712  0.331683  0.076265  1
  Al  Al7  1  0.999662  0.668926  0.922635  1
  Al  Al8  1  0.997032  0.665141  0.575344  1
  Al  Al9  1  0.335105  0.003234  0.425213  1
  Al  Al10  1  0.996375  0.330870  0.425032  1
  Al  Al11  1  0.668817  0.003593  0.575254  1
  Al  Al12  1  0.668015  0.999314  0.923449  1
  Al  Al13  1  0.331380  0.000658  0.076797  1
  Al  Al14  1  0.333024  0.329568  0.553035  1
  Al  Al15  1  0.670217  0.666981  0.447274  1
  Al  Al16  1  0.669023  0.668970  0.056599  1
  Al  Al17  1  0.331089  0.330745  0.943066  1
  Al  Al18  1  0.340119  0.546805  0.250669  1
  Al  Al19  1  0.658781  0.451827  0.747632  1
  Al  Al20  1  0.547763  0.340799  0.252402  1
  Al  Al21  1  0.453133  0.660181  0.749336  1
  Ir  Ir22  1  0.671829  0.328038  0.500070  1
  Ir  Ir23  1  0.000094  0.000022  0.999916  1
  Ir  Ir24  1  0.000508  0.999617  0.500089  1
  Pd  Pd25  1  0.672312  0.327624  0.999958  1
  Pd  Pd26  1  0.327615  0.672415  0.999967  1
  Pd  Pd27  1  0.327632  0.672397  0.500035  1
