# generated using pymatgen
data_Sr5Pt
_symmetry_space_group_name_H-M   'P 1'
_cell_length_a   7.51499156
_cell_length_b   7.51499199
_cell_length_c   7.51499152
_cell_angle_alpha   99.30241732
_cell_angle_beta   99.30241488
_cell_angle_gamma   132.58701021
_symmetry_Int_Tables_number   1
_chemical_formula_structural   Sr5Pt
_chemical_formula_sum   'Sr5 Pt1'
_cell_volume   286.10470909
_cell_formula_units_Z   1
loop_
 _symmetry_equiv_pos_site_id
 _symmetry_equiv_pos_as_xyz
  1  'x, y, z'
loop_
 _atom_site_type_symbol
 _atom_site_label
 _atom_site_symmetry_multiplicity
 _atom_site_fract_x
 _atom_site_fract_y
 _atom_site_fract_z
 _atom_site_occupancy
  Sr  Sr0  1  0.500000  0.500000  0.000000  1
  Sr  Sr1  1  0.293156  0.908483  0.201639  1
  Sr  Sr2  1  0.091517  0.293156  0.384674  1
  Sr  Sr3  1  0.908483  0.706844  0.615327  1
  Sr  Sr4  1  0.706844  0.091517  0.798361  1
  Pt  Pt5  1  0.000000  0.000000  0.000000  1
