# generated using pymatgen
data_Tm3Th2Ni19
_symmetry_space_group_name_H-M   'P 1'
_cell_length_a   4.91833257
_cell_length_b   4.91833246
_cell_length_c   16.41257007
_cell_angle_alpha   81.38267166
_cell_angle_beta   81.38267204
_cell_angle_gamma   60.00000013
_symmetry_Int_Tables_number   1
_chemical_formula_structural   Tm3Th2Ni19
_chemical_formula_sum   'Tm3 Th2 Ni19'
_cell_volume   338.64423692
_cell_formula_units_Z   1
loop_
 _symmetry_equiv_pos_site_id
 _symmetry_equiv_pos_as_xyz
  1  'x, y, z'
loop_
 _atom_site_type_symbol
 _atom_site_label
 _atom_site_symmetry_multiplicity
 _atom_site_fract_x
 _atom_site_fract_y
 _atom_site_fract_z
 _atom_site_occupancy
  Tm  Tm0  1  0.000000  0.000000  0.000000  1
  Tm  Tm1  1  0.847267  0.847267  0.458200  1
  Tm  Tm2  1  0.152733  0.152733  0.541800  1
  Th  Th3  1  0.920941  0.920941  0.237179  1
  Th  Th4  1  0.079059  0.079059  0.762821  1
  Ni  Ni5  1  0.500000  0.500000  0.500000  1
  Ni  Ni6  1  0.749674  0.749675  0.750978  1
  Ni  Ni7  1  0.250325  0.250325  0.249023  1
  Ni  Ni8  1  0.666667  0.666667  0.000001  1
  Ni  Ni9  1  0.333333  0.333333  0.999999  1
  Ni  Ni10  1  0.583663  0.583663  0.249012  1
  Ni  Ni11  1  0.416337  0.416337  0.750988  1
  Ni  Ni12  1  0.374693  0.374693  0.373993  1
  Ni  Ni13  1  0.876621  0.374693  0.373993  1
  Ni  Ni14  1  0.374693  0.876621  0.373993  1
  Ni  Ni15  1  0.625307  0.625307  0.626007  1
  Ni  Ni16  1  0.123379  0.625307  0.626007  1
  Ni  Ni17  1  0.625307  0.123379  0.626007  1
  Ni  Ni18  1  0.459485  0.459485  0.121519  1
  Ni  Ni19  1  0.959510  0.459485  0.121519  1
  Ni  Ni20  1  0.459485  0.959510  0.121519  1
  Ni  Ni21  1  0.540515  0.540515  0.878481  1
  Ni  Ni22  1  0.040490  0.540515  0.878481  1
  Ni  Ni23  1  0.540515  0.040490  0.878481  1
