# generated using pymatgen
data_LiZr8Tc3Os4
_symmetry_space_group_name_H-M   'P 1'
_cell_length_a   6.57010800
_cell_length_b   4.65049000
_cell_length_c   9.34198600
_cell_angle_alpha   90.00000000
_cell_angle_beta   89.99982952
_cell_angle_gamma   90.00000000
_symmetry_Int_Tables_number   1
_chemical_formula_structural   LiZr8Tc3Os4
_chemical_formula_sum   'Li1 Zr8 Tc3 Os4'
_cell_volume   285.43710999
_cell_formula_units_Z   1
loop_
 _symmetry_equiv_pos_site_id
 _symmetry_equiv_pos_as_xyz
  1  'x, y, z'
loop_
 _atom_site_type_symbol
 _atom_site_label
 _atom_site_symmetry_multiplicity
 _atom_site_fract_x
 _atom_site_fract_y
 _atom_site_fract_z
 _atom_site_occupancy
  Li  Li0  1  0.750051  0.249999  0.124992  1
  Zr  Zr1  1  0.004450  0.749999  0.125008  1
  Zr  Zr2  1  0.495643  0.749999  0.125009  1
  Zr  Zr3  1  0.001559  0.249999  0.377563  1
  Zr  Zr4  1  0.498547  0.249999  0.377570  1
  Zr  Zr5  1  0.500292  0.749999  0.625010  1
  Zr  Zr6  1  0.999598  0.749999  0.625015  1
  Zr  Zr7  1  0.498453  0.249999  0.872420  1
  Zr  Zr8  1  0.001460  0.249999  0.872417  1
  Tc  Tc9  1  0.250043  0.749999  0.374592  1
  Tc  Tc10  1  0.749953  0.249999  0.624998  1
  Tc  Tc11  1  0.249955  0.749999  0.875410  1
  Os  Os12  1  0.250039  0.249999  0.124992  1
  Os  Os13  1  0.750044  0.749999  0.371524  1
  Os  Os14  1  0.249956  0.249999  0.624992  1
  Os  Os15  1  0.749960  0.749999  0.878487  1
