# generated using pymatgen
data_Ho20SiGe3Bi8
_symmetry_space_group_name_H-M   'P 1'
_cell_length_a   8.05317413
_cell_length_b   9.18332000
_cell_length_c   12.02624619
_cell_angle_alpha   90.00000000
_cell_angle_beta   90.02059991
_cell_angle_gamma   90.00000000
_symmetry_Int_Tables_number   1
_chemical_formula_structural   Ho20SiGe3Bi8
_chemical_formula_sum   'Ho20 Si1 Ge3 Bi8'
_cell_volume   889.39947717
_cell_formula_units_Z   1
loop_
 _symmetry_equiv_pos_site_id
 _symmetry_equiv_pos_as_xyz
  1  'x, y, z'
loop_
 _atom_site_type_symbol
 _atom_site_label
 _atom_site_symmetry_multiplicity
 _atom_site_fract_x
 _atom_site_fract_y
 _atom_site_fract_z
 _atom_site_occupancy
  Ho  Ho0  1  0.819722  0.552206  0.062951  1
  Ho  Ho1  1  0.680553  0.946209  0.563140  1
  Ho  Ho2  1  0.179366  0.054856  0.937288  1
  Ho  Ho3  1  0.319417  0.446202  0.436822  1
  Ho  Ho4  1  0.179366  0.445144  0.937288  1
  Ho  Ho5  1  0.319417  0.053798  0.436822  1
  Ho  Ho6  1  0.819722  0.947794  0.062951  1
  Ho  Ho7  1  0.680553  0.553791  0.563140  1
  Ho  Ho8  1  0.166702  0.750000  0.212682  1
  Ho  Ho9  1  0.333338  0.750000  0.712659  1
  Ho  Ho10  1  0.833907  0.250000  0.788775  1
  Ho  Ho11  1  0.666839  0.250000  0.287067  1
  Ho  Ho12  1  0.462926  0.750000  0.001630  1
  Ho  Ho13  1  0.037135  0.750000  0.501719  1
  Ho  Ho14  1  0.538742  0.250000  0.998472  1
  Ho  Ho15  1  0.962844  0.250000  0.498425  1
  Ho  Ho16  1  0.638154  0.750000  0.294398  1
  Ho  Ho17  1  0.861813  0.750000  0.794394  1
  Ho  Ho18  1  0.361923  0.250000  0.705526  1
  Ho  Ho19  1  0.136798  0.250000  0.204507  1
  Si  Si20  1  0.911997  0.250000  0.021107  1
  Ge  Ge21  1  0.411261  0.750000  0.478186  1
  Ge  Ge22  1  0.088879  0.750000  0.978113  1
  Ge  Ge23  1  0.588740  0.250000  0.521724  1
  Bi  Bi24  1  0.932930  0.510994  0.325511  1
  Bi  Bi25  1  0.567004  0.988981  0.825470  1
  Bi  Bi26  1  0.067079  0.010947  0.674553  1
  Bi  Bi27  1  0.432931  0.489077  0.174573  1
  Bi  Bi28  1  0.067079  0.489053  0.674553  1
  Bi  Bi29  1  0.432931  0.010923  0.174573  1
  Bi  Bi30  1  0.932930  0.989006  0.325511  1
  Bi  Bi31  1  0.567004  0.511019  0.825470  1
