# generated using pymatgen
data_Ce5Ho5Tm6(CdRu)4
_symmetry_space_group_name_H-M   'P 1'
_cell_length_a   9.52816364
_cell_length_b   9.58613268
_cell_length_c   9.58613314
_cell_angle_alpha   59.89514161
_cell_angle_beta   60.19984936
_cell_angle_gamma   60.19984476
_symmetry_Int_Tables_number   1
_chemical_formula_structural   Ce5Ho5Tm6(CdRu)4
_chemical_formula_sum   'Ce5 Ho5 Tm6 Cd4 Ru4'
_cell_volume   620.49599326
_cell_formula_units_Z   1
loop_
 _symmetry_equiv_pos_site_id
 _symmetry_equiv_pos_as_xyz
  1  'x, y, z'
loop_
 _atom_site_type_symbol
 _atom_site_label
 _atom_site_symmetry_multiplicity
 _atom_site_fract_x
 _atom_site_fract_y
 _atom_site_fract_z
 _atom_site_occupancy
  Ce  Ce0  1  0.815593  0.184407  0.184407  1
  Ce  Ce1  1  0.346644  0.346884  0.959829  1
  Ce  Ce2  1  0.346644  0.959829  0.346884  1
  Ce  Ce3  1  0.956778  0.350355  0.350355  1
  Ce  Ce4  1  0.342513  0.350355  0.350355  1
  Ho  Ho5  1  0.561550  0.561511  0.936607  1
  Ho  Ho6  1  0.940334  0.561511  0.936607  1
  Ho  Ho7  1  0.564886  0.935114  0.935114  1
  Ho  Ho8  1  0.940334  0.936607  0.561511  1
  Ho  Ho9  1  0.561550  0.936607  0.561511  1
  Tm  Tm10  1  0.935142  0.564858  0.564858  1
  Tm  Tm11  1  0.192530  0.186292  0.808575  1
  Tm  Tm12  1  0.812602  0.186292  0.808575  1
  Tm  Tm13  1  0.186477  0.813523  0.813522  1
  Tm  Tm14  1  0.812602  0.808576  0.186292  1
  Tm  Tm15  1  0.192529  0.808575  0.186291  1
  Cd  Cd16  1  0.580925  0.583446  0.254704  1
  Cd  Cd17  1  0.580925  0.254704  0.583446  1
  Cd  Cd18  1  0.256615  0.580905  0.580905  1
  Cd  Cd19  1  0.581576  0.580905  0.580905  1
  Ru  Ru20  1  0.146033  0.143032  0.564902  1
  Ru  Ru21  1  0.146033  0.564902  0.143032  1
  Ru  Ru22  1  0.583511  0.150408  0.150408  1
  Ru  Ru23  1  0.115673  0.150408  0.150408  1
