# generated using pymatgen
data_YbY4Sc(Si3Ru)8
_symmetry_space_group_name_H-M   'P 1'
_cell_length_a   10.10020048
_cell_length_b   10.09820625
_cell_length_c   8.11336151
_cell_angle_alpha   89.93208382
_cell_angle_beta   90.06486653
_cell_angle_gamma   132.63494485
_symmetry_Int_Tables_number   1
_chemical_formula_structural   YbY4Sc(Si3Ru)8
_chemical_formula_sum   'Yb1 Y4 Sc1 Si24 Ru8'
_cell_volume   608.78801293
_cell_formula_units_Z   1
loop_
 _symmetry_equiv_pos_site_id
 _symmetry_equiv_pos_as_xyz
  1  'x, y, z'
loop_
 _atom_site_type_symbol
 _atom_site_label
 _atom_site_symmetry_multiplicity
 _atom_site_fract_x
 _atom_site_fract_y
 _atom_site_fract_z
 _atom_site_occupancy
  Yb  Yb0  1  0.002144  0.502120  0.249700  1
  Y  Y1  1  0.500206  0.500202  0.499738  1
  Y  Y2  1  0.498245  0.997990  0.750304  1
  Y  Y3  1  0.997530  0.497625  0.750388  1
  Y  Y4  1  0.502403  0.002601  0.249724  1
  Sc  Sc5  1  0.000070  0.000132  0.000165  1
  Si  Si6  1  0.293571  0.704774  0.000465  1
  Si  Si7  1  0.795837  0.205684  0.498995  1
  Si  Si8  1  0.706420  0.295086  0.000907  1
  Si  Si9  1  0.204003  0.794261  0.499530  1
  Si  Si10  1  0.833913  0.834699  0.330517  1
  Si  Si11  1  0.165971  0.166731  0.669335  1
  Si  Si12  1  0.670427  0.669912  0.834619  1
  Si  Si13  1  0.330843  0.330143  0.165520  1
  Si  Si14  1  0.620894  0.386330  0.227337  1
  Si  Si15  1  0.612467  0.378507  0.772646  1
  Si  Si16  1  0.110171  0.879006  0.730389  1
  Si  Si17  1  0.121475  0.889820  0.270142  1
  Si  Si18  1  0.379115  0.613027  0.772376  1
  Si  Si19  1  0.387221  0.621745  0.227154  1
  Si  Si20  1  0.889055  0.120876  0.270021  1
  Si  Si21  1  0.878785  0.109925  0.730046  1
  Si  Si22  1  0.845127  0.613742  0.003861  1
  Si  Si23  1  0.385706  0.154613  0.995211  1
  Si  Si24  1  0.888955  0.655349  0.504993  1
  Si  Si25  1  0.344385  0.111554  0.494826  1
  Si  Si26  1  0.154558  0.386241  0.995443  1
  Si  Si27  1  0.614470  0.845266  0.004443  1
  Si  Si28  1  0.111027  0.344321  0.495711  1
  Si  Si29  1  0.655563  0.888579  0.505346  1
  Ru  Ru30  1  0.168592  0.831479  0.999918  1
  Ru  Ru31  1  0.668732  0.329567  0.500704  1
  Ru  Ru32  1  0.831088  0.167806  0.999406  1
  Ru  Ru33  1  0.330438  0.669953  0.500060  1
  Ru  Ru34  1  0.626189  0.626249  0.127411  1
  Ru  Ru35  1  0.373738  0.374256  0.872784  1
  Ru  Ru36  1  0.873475  0.872807  0.627087  1
  Ru  Ru37  1  0.127191  0.127021  0.372776  1
