# generated using pymatgen
data_Li8Tb3Ho5Sn7Sb
_symmetry_space_group_name_H-M   'P 1'
_cell_length_a   9.37891700
_cell_length_b   9.38058997
_cell_length_c   7.26423300
_cell_angle_alpha   90.06037160
_cell_angle_beta   90.00000000
_cell_angle_gamma   119.99410413
_symmetry_Int_Tables_number   1
_chemical_formula_structural   Li8Tb3Ho5Sn7Sb
_chemical_formula_sum   'Li8 Tb3 Ho5 Sn7 Sb1'
_cell_volume   553.51414092
_cell_formula_units_Z   1
loop_
 _symmetry_equiv_pos_site_id
 _symmetry_equiv_pos_as_xyz
  1  'x, y, z'
loop_
 _atom_site_type_symbol
 _atom_site_label
 _atom_site_symmetry_multiplicity
 _atom_site_fract_x
 _atom_site_fract_y
 _atom_site_fract_z
 _atom_site_occupancy
  Li  Li0  1  0.166649  0.333299  0.287573  1
  Li  Li1  1  0.167027  0.833453  0.287782  1
  Li  Li2  1  0.666425  0.833453  0.287782  1
  Li  Li3  1  0.833365  0.666729  0.788475  1
  Li  Li4  1  0.832441  0.166150  0.789685  1
  Li  Li5  1  0.333711  0.166150  0.789685  1
  Li  Li6  1  0.333646  0.667295  0.671954  1
  Li  Li7  1  0.666708  0.333417  0.172233  1
  Tb  Tb8  1  0.511940  0.023879  0.494128  1
  Tb  Tb9  1  0.514390  0.489968  0.492017  1
  Tb  Tb10  1  0.975578  0.489968  0.492017  1
  Ho  Ho11  1  0.487942  0.975886  0.994380  1
  Ho  Ho12  1  0.490034  0.512295  0.995008  1
  Ho  Ho13  1  0.022260  0.512295  0.995008  1
  Ho  Ho14  1  0.998886  0.997772  0.498321  1
  Ho  Ho15  1  0.999087  0.998175  0.001194  1
  Sn  Sn16  1  0.166276  0.833066  0.730871  1
  Sn  Sn17  1  0.666789  0.833066  0.730871  1
  Sn  Sn18  1  0.833612  0.667224  0.229775  1
  Sn  Sn19  1  0.834426  0.167241  0.229344  1
  Sn  Sn20  1  0.332815  0.167241  0.229344  1
  Sn  Sn21  1  0.332713  0.665427  0.258945  1
  Sn  Sn22  1  0.666830  0.333659  0.762461  1
  Sb  Sb23  1  0.166447  0.332895  0.733114  1
