# generated using pymatgen
data_Yb8Si16RhW11
_symmetry_space_group_name_H-M   'P 1'
_cell_length_a   6.87245814
_cell_length_b   6.87245824
_cell_length_c   12.81472200
_cell_angle_alpha   90.05479086
_cell_angle_beta   89.94520914
_cell_angle_gamma   90.00956492
_symmetry_Int_Tables_number   1
_chemical_formula_structural   Yb8Si16RhW11
_chemical_formula_sum   'Yb8 Si16 Rh1 W11'
_cell_volume   605.24749235
_cell_formula_units_Z   1
loop_
 _symmetry_equiv_pos_site_id
 _symmetry_equiv_pos_as_xyz
  1  'x, y, z'
loop_
 _atom_site_type_symbol
 _atom_site_label
 _atom_site_symmetry_multiplicity
 _atom_site_fract_x
 _atom_site_fract_y
 _atom_site_fract_z
 _atom_site_occupancy
  Yb  Yb0  1  0.331996  0.006195  0.470873  1
  Yb  Yb1  1  0.494319  0.829517  0.719756  1
  Yb  Yb2  1  0.507849  0.169850  0.221143  1
  Yb  Yb3  1  0.829517  0.494319  0.280244  1
  Yb  Yb4  1  0.169850  0.507849  0.778857  1
  Yb  Yb5  1  0.668217  0.993918  0.970356  1
  Yb  Yb6  1  0.006195  0.331996  0.529127  1
  Yb  Yb7  1  0.993918  0.668217  0.029644  1
  Si  Si8  1  0.203525  0.127316  0.686118  1
  Si  Si9  1  0.372259  0.701580  0.935203  1
  Si  Si10  1  0.622327  0.300184  0.436203  1
  Si  Si11  1  0.701580  0.372259  0.064797  1
  Si  Si12  1  0.300184  0.622327  0.563797  1
  Si  Si13  1  0.798787  0.871233  0.185936  1
  Si  Si14  1  0.127316  0.203525  0.313882  1
  Si  Si15  1  0.871233  0.798787  0.814064  1
  Si  Si16  1  0.296030  0.961378  0.065482  1
  Si  Si17  1  0.538286  0.795472  0.315652  1
  Si  Si18  1  0.463239  0.203747  0.815465  1
  Si  Si19  1  0.795472  0.538286  0.684348  1
  Si  Si20  1  0.203747  0.463239  0.184535  1
  Si  Si21  1  0.710215  0.036619  0.562614  1
  Si  Si22  1  0.961378  0.296030  0.934518  1
  Si  Si23  1  0.036619  0.710215  0.437386  1
  Rh  Rh24  1  0.666855  0.666855  0.500000  1
  W  W25  1  0.331001  0.331001  0.000000  1
  W  W26  1  0.167919  0.830556  0.250816  1
  W  W27  1  0.830556  0.167919  0.749184  1
  W  W28  1  0.158864  0.008767  0.874446  1
  W  W29  1  0.492859  0.658455  0.125197  1
  W  W30  1  0.507298  0.333323  0.626057  1
  W  W31  1  0.658455  0.492859  0.874803  1
  W  W32  1  0.333323  0.507298  0.373943  1
  W  W33  1  0.842472  0.997564  0.374445  1
  W  W34  1  0.008767  0.158864  0.125554  1
  W  W35  1  0.997564  0.842472  0.625555  1
