# generated using pymatgen
data_Ta6Al4FeReC2
_symmetry_space_group_name_H-M   'P 1'
_cell_length_a   8.26375289
_cell_length_b   8.24038175
_cell_length_c   8.26375217
_cell_angle_alpha   60.09350443
_cell_angle_beta   60.24547302
_cell_angle_gamma   60.09350947
_symmetry_Int_Tables_number   1
_chemical_formula_structural   Ta6Al4FeReC2
_chemical_formula_sum   'Ta12 Al8 Fe2 Re2 C4'
_cell_volume   399.20944153
_cell_formula_units_Z   2
loop_
 _symmetry_equiv_pos_site_id
 _symmetry_equiv_pos_as_xyz
  1  'x, y, z'
loop_
 _atom_site_type_symbol
 _atom_site_label
 _atom_site_symmetry_multiplicity
 _atom_site_fract_x
 _atom_site_fract_y
 _atom_site_fract_z
 _atom_site_occupancy
  Ta  Ta0  1  0.554518  0.945482  0.554518  1
  Ta  Ta1  1  0.305985  0.696750  0.691040  1
  Ta  Ta2  1  0.691040  0.306226  0.305985  1
  Ta  Ta3  1  0.307560  0.692440  0.307560  1
  Ta  Ta4  1  0.691040  0.696750  0.305985  1
  Ta  Ta5  1  0.305985  0.306226  0.691040  1
  Ta  Ta6  1  0.558960  0.553250  0.944015  1
  Ta  Ta7  1  0.944015  0.553250  0.558960  1
  Ta  Ta8  1  0.558960  0.943774  0.944015  1
  Ta  Ta9  1  0.944015  0.943774  0.558960  1
  Ta  Ta10  1  0.695482  0.304518  0.695482  1
  Ta  Ta11  1  0.942440  0.557560  0.942440  1
  Al  Al12  1  0.922546  0.907090  0.922546  1
  Al  Al13  1  0.000462  0.338012  0.323512  1
  Al  Al14  1  0.327454  0.002180  0.327454  1
  Al  Al15  1  0.323512  0.338012  0.000462  1
  Al  Al16  1  0.922546  0.247820  0.922546  1
  Al  Al17  1  0.926488  0.911988  0.249538  1
  Al  Al18  1  0.249538  0.911988  0.926488  1
  Al  Al19  1  0.327454  0.342910  0.327454  1
  Fe  Fe20  1  0.125000  0.125000  0.125000  1
  Fe  Fe21  1  0.125000  0.625000  0.125000  1
  Re  Re22  1  0.625000  0.125000  0.125000  1
  Re  Re23  1  0.125000  0.125000  0.625000  1
  C  C24  1  0.625000  0.625000  0.625000  1
  C  C25  1  0.125000  0.625000  0.625000  1
  C  C26  1  0.625000  0.125000  0.625000  1
  C  C27  1  0.625000  0.625000  0.125000  1
