# generated using pymatgen
data_NaHo6Sn23Ir6
_symmetry_space_group_name_H-M   'P 1'
_cell_length_a   9.87418500
_cell_length_b   9.87418334
_cell_length_c   10.08124400
_cell_angle_alpha   90.00000000
_cell_angle_beta   90.00000000
_cell_angle_gamma   119.99999551
_symmetry_Int_Tables_number   1
_chemical_formula_structural   NaHo6Sn23Ir6
_chemical_formula_sum   'Na1 Ho6 Sn23 Ir6'
_cell_volume   851.23059387
_cell_formula_units_Z   1
loop_
 _symmetry_equiv_pos_site_id
 _symmetry_equiv_pos_as_xyz
  1  'x, y, z'
loop_
 _atom_site_type_symbol
 _atom_site_label
 _atom_site_symmetry_multiplicity
 _atom_site_fract_x
 _atom_site_fract_y
 _atom_site_fract_z
 _atom_site_occupancy
  Na  Na0  1  0.000000  0.000000  0.000000  1
  Ho  Ho1  1  0.517201  0.482799  0.696063  1
  Ho  Ho2  1  0.517201  0.034401  0.696063  1
  Ho  Ho3  1  0.965599  0.482799  0.696063  1
  Ho  Ho4  1  0.034401  0.517201  0.303937  1
  Ho  Ho5  1  0.482799  0.965599  0.303937  1
  Ho  Ho6  1  0.482799  0.517201  0.303937  1
  Sn  Sn7  1  0.666667  0.333333  0.172484  1
  Sn  Sn8  1  0.666667  0.333333  0.878118  1
  Sn  Sn9  1  0.333333  0.666667  0.121882  1
  Sn  Sn10  1  0.349325  0.349325  0.000000  1
  Sn  Sn11  1  0.000000  0.650675  0.000000  1
  Sn  Sn12  1  0.650675  0.000000  0.000000  1
  Sn  Sn13  1  0.650675  0.650675  0.000000  1
  Sn  Sn14  1  0.333333  0.666667  0.827516  1
  Sn  Sn15  1  0.446143  0.223071  0.461927  1
  Sn  Sn16  1  0.223071  0.776929  0.538073  1
  Sn  Sn17  1  0.223071  0.446143  0.538073  1
  Sn  Sn18  1  0.553857  0.776929  0.538073  1
  Sn  Sn19  1  0.116733  0.883267  0.281617  1
  Sn  Sn20  1  0.776929  0.553857  0.461927  1
  Sn  Sn21  1  0.776929  0.223071  0.461927  1
  Sn  Sn22  1  0.349325  0.000000  0.000000  1
  Sn  Sn23  1  0.116733  0.233467  0.281617  1
  Sn  Sn24  1  0.766533  0.883267  0.281617  1
  Sn  Sn25  1  0.233467  0.116733  0.718383  1
  Sn  Sn26  1  0.883267  0.766533  0.718383  1
  Sn  Sn27  1  0.883267  0.116733  0.718383  1
  Sn  Sn28  1  0.000000  0.000000  0.500000  1
  Sn  Sn29  1  0.000000  0.349325  0.000000  1
  Ir  Ir30  1  0.172311  0.827689  0.795682  1
  Ir  Ir31  1  0.172311  0.344621  0.795682  1
  Ir  Ir32  1  0.655379  0.827689  0.795682  1
  Ir  Ir33  1  0.344621  0.172311  0.204318  1
  Ir  Ir34  1  0.827689  0.655379  0.204318  1
  Ir  Ir35  1  0.827689  0.172311  0.204318  1
