# generated using pymatgen
data_LiPaF6
_symmetry_space_group_name_H-M   'P 1'
_cell_length_a   5.82203898
_cell_length_b   5.82203903
_cell_length_c   5.82203925
_cell_angle_alpha   58.21272299
_cell_angle_beta   58.21271965
_cell_angle_gamma   58.21272212
_symmetry_Int_Tables_number   1
_chemical_formula_structural   LiPaF6
_chemical_formula_sum   'Li1 Pa1 F6'
_cell_volume   133.82931841
_cell_formula_units_Z   1
loop_
 _symmetry_equiv_pos_site_id
 _symmetry_equiv_pos_as_xyz
  1  'x, y, z'
loop_
 _atom_site_type_symbol
 _atom_site_label
 _atom_site_symmetry_multiplicity
 _atom_site_fract_x
 _atom_site_fract_y
 _atom_site_fract_z
 _atom_site_occupancy
  Li  Li0  1  0.500000  0.500000  0.500000  1
  Pa  Pa1  1  0.000000  0.000000  0.000000  1
  F  F2  1  0.833317  0.660132  0.253158  1
  F  F3  1  0.660132  0.253158  0.833317  1
  F  F4  1  0.253158  0.833317  0.660132  1
  F  F5  1  0.166683  0.339868  0.746842  1
  F  F6  1  0.339868  0.746842  0.166683  1
  F  F7  1  0.746842  0.166683  0.339868  1
