# generated using pymatgen
data_Y3Co4P6Ru5
_symmetry_space_group_name_H-M   'P 1'
_cell_length_a   3.85002900
_cell_length_b   10.66110200
_cell_length_c   12.53208500
_cell_angle_alpha   90.00000000
_cell_angle_beta   90.00000000
_cell_angle_gamma   90.00000000
_symmetry_Int_Tables_number   1
_chemical_formula_structural   Y3Co4P6Ru5
_chemical_formula_sum   'Y6 Co8 P12 Ru10'
_cell_volume   514.38634493
_cell_formula_units_Z   2
loop_
 _symmetry_equiv_pos_site_id
 _symmetry_equiv_pos_as_xyz
  1  'x, y, z'
loop_
 _atom_site_type_symbol
 _atom_site_label
 _atom_site_symmetry_multiplicity
 _atom_site_fract_x
 _atom_site_fract_y
 _atom_site_fract_z
 _atom_site_occupancy
  Y  Y0  1  0.000000  0.500000  0.526902  1
  Y  Y1  1  0.500000  0.000000  0.473098  1
  Y  Y2  1  0.500000  0.821505  0.200605  1
  Y  Y3  1  0.500000  0.178495  0.200605  1
  Y  Y4  1  0.000000  0.678495  0.799395  1
  Y  Y5  1  0.000000  0.321505  0.799395  1
  Co  Co6  1  0.000000  0.500000  0.984125  1
  Co  Co7  1  0.500000  0.000000  0.015875  1
  Co  Co8  1  0.500000  0.332386  0.989060  1
  Co  Co9  1  0.500000  0.667614  0.989060  1
  Co  Co10  1  0.000000  0.167614  0.010940  1
  Co  Co11  1  0.000000  0.832386  0.010940  1
  Co  Co12  1  0.500000  0.500000  0.702642  1
  Co  Co13  1  0.000000  0.000000  0.297358  1
  P  P14  1  0.500000  0.314258  0.617956  1
  P  P15  1  0.500000  0.685742  0.617956  1
  P  P16  1  0.000000  0.185742  0.382044  1
  P  P17  1  0.000000  0.814258  0.382044  1
  P  P18  1  0.500000  0.500000  0.881623  1
  P  P19  1  0.000000  0.000000  0.118377  1
  P  P20  1  0.500000  0.846136  0.900992  1
  P  P21  1  0.500000  0.153864  0.900992  1
  P  P22  1  0.000000  0.653864  0.099008  1
  P  P23  1  0.000000  0.346136  0.099008  1
  P  P24  1  0.500000  0.500000  0.336217  1
  P  P25  1  0.000000  0.000000  0.663783  1
  Ru  Ru26  1  0.500000  0.298111  0.427548  1
  Ru  Ru27  1  0.500000  0.701889  0.427548  1
  Ru  Ru28  1  0.000000  0.201889  0.572452  1
  Ru  Ru29  1  0.000000  0.798111  0.572452  1
  Ru  Ru30  1  0.500000  0.875133  0.719029  1
  Ru  Ru31  1  0.500000  0.124867  0.719029  1
  Ru  Ru32  1  0.000000  0.624867  0.280971  1
  Ru  Ru33  1  0.000000  0.375133  0.280971  1
  Ru  Ru34  1  0.500000  0.500000  0.146490  1
  Ru  Ru35  1  0.000000  0.000000  0.853510  1
