# generated using pymatgen
data_Nd3Mg2(Sn2Pd)2
_symmetry_space_group_name_H-M   'P 1'
_cell_length_a   8.80817335
_cell_length_b   9.03458093
_cell_length_c   9.03458200
_cell_angle_alpha   149.72897376
_cell_angle_beta   130.19708567
_cell_angle_gamma   59.63115894
_symmetry_Int_Tables_number   1
_chemical_formula_structural   Nd3Mg2(Sn2Pd)2
_chemical_formula_sum   'Nd3 Mg2 Sn4 Pd2'
_cell_volume   274.30441313
_cell_formula_units_Z   1
loop_
 _symmetry_equiv_pos_site_id
 _symmetry_equiv_pos_as_xyz
  1  'x, y, z'
loop_
 _atom_site_type_symbol
 _atom_site_label
 _atom_site_symmetry_multiplicity
 _atom_site_fract_x
 _atom_site_fract_y
 _atom_site_fract_z
 _atom_site_occupancy
  Nd  Nd0  1  0.347133  0.873160  0.473972  1
  Nd  Nd1  1  0.652867  0.126840  0.526028  1
  Nd  Nd2  1  0.000000  0.000000  0.000000  1
  Mg  Mg3  1  0.644691  0.328783  0.315908  1
  Mg  Mg4  1  0.355309  0.671217  0.684092  1
  Sn  Sn5  1  0.191860  0.219313  0.972547  1
  Sn  Sn6  1  0.808140  0.780687  0.027453  1
  Sn  Sn7  1  0.699187  0.503125  0.196062  1
  Sn  Sn8  1  0.300813  0.496875  0.803938  1
  Pd  Pd9  1  0.010642  0.330605  0.680039  1
  Pd  Pd10  1  0.989358  0.669395  0.319961  1
