# generated using pymatgen
data_Ac2NiN2
_symmetry_space_group_name_H-M   'P 1'
_cell_length_a   3.89622900
_cell_length_b   3.89471400
_cell_length_c   12.55374400
_cell_angle_alpha   90.00000000
_cell_angle_beta   90.00000000
_cell_angle_gamma   90.00000000
_symmetry_Int_Tables_number   1
_chemical_formula_structural   Ac2NiN2
_chemical_formula_sum   'Ac4 Ni2 N4'
_cell_volume   190.49926937
_cell_formula_units_Z   2
loop_
 _symmetry_equiv_pos_site_id
 _symmetry_equiv_pos_as_xyz
  1  'x, y, z'
loop_
 _atom_site_type_symbol
 _atom_site_label
 _atom_site_symmetry_multiplicity
 _atom_site_fract_x
 _atom_site_fract_y
 _atom_site_fract_z
 _atom_site_occupancy
  Ac  Ac0  1  0.750000  0.747511  0.104769  1
  Ac  Ac1  1  0.750000  0.747511  0.395231  1
  Ac  Ac2  1  0.250000  0.252489  0.895231  1
  Ac  Ac3  1  0.250000  0.252489  0.604769  1
  Ni  Ni4  1  0.750000  0.759286  0.750000  1
  Ni  Ni5  1  0.250000  0.240714  0.250000  1
  N  N6  1  0.750000  0.758573  0.599107  1
  N  N7  1  0.750000  0.758573  0.900893  1
  N  N8  1  0.250000  0.241427  0.400893  1
  N  N9  1  0.250000  0.241427  0.099107  1
