# generated using pymatgen
data_Mn7I12O
_symmetry_space_group_name_H-M   'P 1'
_cell_length_a   9.40151210
_cell_length_b   9.40151257
_cell_length_c   9.40151279
_cell_angle_alpha   107.56428308
_cell_angle_beta   107.56429762
_cell_angle_gamma   107.56429324
_symmetry_Int_Tables_number   1
_chemical_formula_structural   Mn7I12O
_chemical_formula_sum   'Mn7 I12 O1'
_cell_volume   681.11858799
_cell_formula_units_Z   1
loop_
 _symmetry_equiv_pos_site_id
 _symmetry_equiv_pos_as_xyz
  1  'x, y, z'
loop_
 _atom_site_type_symbol
 _atom_site_label
 _atom_site_symmetry_multiplicity
 _atom_site_fract_x
 _atom_site_fract_y
 _atom_site_fract_z
 _atom_site_occupancy
  Mn  Mn0  1  0.500000  0.500000  0.500000  1
  Mn  Mn1  1  0.972708  0.910446  0.717137  1
  Mn  Mn2  1  0.717137  0.972708  0.910446  1
  Mn  Mn3  1  0.910446  0.717137  0.972708  1
  Mn  Mn4  1  0.027292  0.089554  0.282863  1
  Mn  Mn5  1  0.282863  0.027292  0.089554  1
  Mn  Mn6  1  0.089554  0.282863  0.027292  1
  I  I7  1  0.073529  0.219179  0.704907  1
  I  I8  1  0.704907  0.073529  0.219179  1
  I  I9  1  0.219179  0.704907  0.073529  1
  I  I10  1  0.926471  0.780821  0.295093  1
  I  I11  1  0.295093  0.926471  0.780821  1
  I  I12  1  0.780821  0.295093  0.926471  1
  I  I13  1  0.625639  0.848549  0.557988  1
  I  I14  1  0.557988  0.625639  0.848549  1
  I  I15  1  0.848549  0.557988  0.625639  1
  I  I16  1  0.374361  0.151451  0.442012  1
  I  I17  1  0.442012  0.374361  0.151451  1
  I  I18  1  0.151451  0.442012  0.374361  1
  O  O19  1  0.000000  0.000000  0.000000  1
