# generated using pymatgen
data_Dy2Ni(B2O5)2
_symmetry_space_group_name_H-M   'P 1'
_cell_length_a   4.55564748
_cell_length_b   7.29384900
_cell_length_c   9.42626591
_cell_angle_alpha   90.00000000
_cell_angle_beta   91.31896944
_cell_angle_gamma   90.00000000
_symmetry_Int_Tables_number   1
_chemical_formula_structural   Dy2Ni(B2O5)2
_chemical_formula_sum   'Dy4 Ni2 B8 O20'
_cell_volume   313.13490480
_cell_formula_units_Z   2
loop_
 _symmetry_equiv_pos_site_id
 _symmetry_equiv_pos_as_xyz
  1  'x, y, z'
loop_
 _atom_site_type_symbol
 _atom_site_label
 _atom_site_symmetry_multiplicity
 _atom_site_fract_x
 _atom_site_fract_y
 _atom_site_fract_z
 _atom_site_occupancy
  Dy  Dy0  1  0.003929  0.398663  0.164961  1
  Dy  Dy1  1  0.996070  0.898663  0.335039  1
  Dy  Dy2  1  0.003930  0.101337  0.664960  1
  Dy  Dy3  1  0.996071  0.601337  0.835039  1
  Ni  Ni4  1  0.000000  0.000000  0.000000  1
  Ni  Ni5  1  0.000000  0.500000  0.500000  1
  B  B6  1  0.471430  0.735633  0.085249  1
  B  B7  1  0.464942  0.095728  0.160527  1
  B  B8  1  0.535059  0.595729  0.339473  1
  B  B9  1  0.528571  0.235633  0.414751  1
  B  B10  1  0.471429  0.764367  0.585248  1
  B  B11  1  0.464941  0.404272  0.660528  1
  B  B12  1  0.535058  0.904272  0.839472  1
  B  B13  1  0.528570  0.264367  0.914752  1
  O  O14  1  0.333116  0.206424  0.036904  1
  O  O15  1  0.250862  0.609110  0.039660  1
  O  O16  1  0.322330  0.908062  0.142373  1
  O  O17  1  0.776622  0.095566  0.166021  1
  O  O18  1  0.671257  0.669976  0.205467  1
  O  O19  1  0.328744  0.169975  0.294533  1
  O  O20  1  0.223380  0.595566  0.333979  1
  O  O21  1  0.677669  0.408062  0.357627  1
  O  O22  1  0.749139  0.109110  0.460340  1
  O  O23  1  0.666885  0.706424  0.463096  1
  O  O24  1  0.333117  0.293576  0.536904  1
  O  O25  1  0.250861  0.890891  0.539660  1
  O  O26  1  0.322331  0.591938  0.642373  1
  O  O27  1  0.776620  0.404434  0.666021  1
  O  O28  1  0.671256  0.830025  0.705467  1
  O  O29  1  0.328743  0.330025  0.794532  1
  O  O30  1  0.223378  0.904434  0.833979  1
  O  O31  1  0.677670  0.091938  0.857627  1
  O  O32  1  0.749138  0.390891  0.960341  1
  O  O33  1  0.666884  0.793576  0.963096  1
