# generated using pymatgen
data_YbY2Al3Ge2Pd
_symmetry_space_group_name_H-M   'P 1'
_cell_length_a   7.03416400
_cell_length_b   6.96682615
_cell_length_c   4.28335400
_cell_angle_alpha   90.00000000
_cell_angle_beta   90.00000000
_cell_angle_gamma   120.32025054
_symmetry_Int_Tables_number   1
_chemical_formula_structural   YbY2Al3Ge2Pd
_chemical_formula_sum   'Yb1 Y2 Al3 Ge2 Pd1'
_cell_volume   181.19720938
_cell_formula_units_Z   1
loop_
 _symmetry_equiv_pos_site_id
 _symmetry_equiv_pos_as_xyz
  1  'x, y, z'
loop_
 _atom_site_type_symbol
 _atom_site_label
 _atom_site_symmetry_multiplicity
 _atom_site_fract_x
 _atom_site_fract_y
 _atom_site_fract_z
 _atom_site_occupancy
  Yb  Yb0  1  0.417498  0.000000  0.000000  1
  Y  Y1  1  0.000281  0.418710  0.000000  1
  Y  Y2  1  0.581572  0.581291  0.000000  1
  Al  Al3  1  0.769408  0.000000  0.500001  1
  Al  Al4  1  0.230819  0.236395  0.500001  1
  Al  Al5  1  0.994423  0.763605  0.500001  1
  Ge  Ge6  1  0.670472  0.336603  0.500001  1
  Ge  Ge7  1  0.333870  0.663397  0.500001  1
  Pd  Pd8  1  0.001658  0.000000  0.000000  1
