# generated using pymatgen
data_YHoTm2(ReN3)4
_symmetry_space_group_name_H-M   'P 1'
_cell_length_a   7.36820746
_cell_length_b   7.36820733
_cell_length_c   6.26901278
_cell_angle_alpha   72.57878306
_cell_angle_beta   72.57877619
_cell_angle_gamma   81.66821363
_symmetry_Int_Tables_number   1
_chemical_formula_structural   YHoTm2(ReN3)4
_chemical_formula_sum   'Y1 Ho1 Tm2 Re4 N12'
_cell_volume   309.26848791
_cell_formula_units_Z   1
loop_
 _symmetry_equiv_pos_site_id
 _symmetry_equiv_pos_as_xyz
  1  'x, y, z'
loop_
 _atom_site_type_symbol
 _atom_site_label
 _atom_site_symmetry_multiplicity
 _atom_site_fract_x
 _atom_site_fract_y
 _atom_site_fract_z
 _atom_site_occupancy
  Y  Y0  1  0.287150  0.712850  0.750000  1
  Ho  Ho1  1  0.713831  0.286169  0.250000  1
  Tm  Tm2  1  0.906578  0.093422  0.750000  1
  Tm  Tm3  1  0.092776  0.907224  0.250000  1
  Re  Re4  1  0.623038  0.795703  0.280947  1
  Re  Re5  1  0.204297  0.376962  0.219053  1
  Re  Re6  1  0.377508  0.204462  0.718471  1
  Re  Re7  1  0.795538  0.622492  0.781529  1
  N  N8  1  0.668372  0.633180  0.086668  1
  N  N9  1  0.372160  0.872542  0.335201  1
  N  N10  1  0.366820  0.331628  0.413332  1
  N  N11  1  0.127458  0.627840  0.164799  1
  N  N12  1  0.006009  0.216263  0.340768  1
  N  N13  1  0.783737  0.993991  0.159232  1
  N  N14  1  0.214959  0.008186  0.840847  1
  N  N15  1  0.628465  0.127722  0.661963  1
  N  N16  1  0.332370  0.365155  0.914901  1
  N  N17  1  0.872278  0.371535  0.838037  1
  N  N18  1  0.634845  0.667630  0.585099  1
  N  N19  1  0.991814  0.785041  0.659153  1
