# generated using pymatgen
data_Tm4As6Ir4Ru3
_symmetry_space_group_name_H-M   'P 1'
_cell_length_a   7.22568264
_cell_length_b   7.22609188
_cell_length_c   7.22609148
_cell_angle_alpha   109.47020289
_cell_angle_beta   109.47288230
_cell_angle_gamma   109.47286671
_symmetry_Int_Tables_number   1
_chemical_formula_structural   Tm4As6Ir4Ru3
_chemical_formula_sum   'Tm4 As6 Ir4 Ru3'
_cell_volume   290.43680624
_cell_formula_units_Z   1
loop_
 _symmetry_equiv_pos_site_id
 _symmetry_equiv_pos_as_xyz
  1  'x, y, z'
loop_
 _atom_site_type_symbol
 _atom_site_label
 _atom_site_symmetry_multiplicity
 _atom_site_fract_x
 _atom_site_fract_y
 _atom_site_fract_z
 _atom_site_occupancy
  Tm  Tm0  1  0.000000  0.999919  0.499848  1
  Tm  Tm1  1  0.500000  0.999967  0.000033  1
  Tm  Tm2  1  0.000000  0.500152  0.000081  1
  Tm  Tm3  1  0.500000  0.499967  0.500033  1
  As  As4  1  0.680355  0.683547  0.996809  1
  As  As5  1  0.313114  0.316127  0.996987  1
  As  As6  1  0.000000  0.678945  0.685292  1
  As  As7  1  0.000000  0.314708  0.321055  1
  As  As8  1  0.686886  0.003013  0.683873  1
  As  As9  1  0.319645  0.003191  0.316453  1
  Ir  Ir10  1  0.500000  0.250824  0.749176  1
  Ir  Ir11  1  0.500000  0.750824  0.249176  1
  Ir  Ir12  1  0.748201  0.498899  0.249302  1
  Ir  Ir13  1  0.251799  0.750698  0.501101  1
  Ru  Ru14  1  0.000000  0.999820  0.000180  1
  Ru  Ru15  1  0.250630  0.500016  0.750616  1
  Ru  Ru16  1  0.749370  0.249384  0.499984  1
