# generated using pymatgen
data_Lu12ZnInNi4
_symmetry_space_group_name_H-M   'P 1'
_cell_length_a   8.16606887
_cell_length_b   8.16606946
_cell_length_c   8.16606948
_cell_angle_alpha   112.36941005
_cell_angle_beta   109.77113355
_cell_angle_gamma   106.32941540
_symmetry_Int_Tables_number   1
_chemical_formula_structural   Lu12ZnInNi4
_chemical_formula_sum   'Lu12 Zn1 In1 Ni4'
_cell_volume   418.02924109
_cell_formula_units_Z   1
loop_
 _symmetry_equiv_pos_site_id
 _symmetry_equiv_pos_as_xyz
  1  'x, y, z'
loop_
 _atom_site_type_symbol
 _atom_site_label
 _atom_site_symmetry_multiplicity
 _atom_site_fract_x
 _atom_site_fract_y
 _atom_site_fract_z
 _atom_site_occupancy
  Lu  Lu0  1  0.674384  0.869597  0.195213  1
  Lu  Lu1  1  0.325616  0.520829  0.195213  1
  Lu  Lu2  1  0.818933  0.788553  0.607487  1
  Lu  Lu3  1  0.181067  0.788553  0.969621  1
  Lu  Lu4  1  0.818933  0.211447  0.030379  1
  Lu  Lu5  1  0.181067  0.211447  0.392513  1
  Lu  Lu6  1  0.674384  0.479171  0.804787  1
  Lu  Lu7  1  0.325616  0.130403  0.804787  1
  Lu  Lu8  1  0.570781  0.270207  0.300573  1
  Lu  Lu9  1  0.429219  0.729793  0.699427  1
  Lu  Lu10  1  0.030367  0.729793  0.300573  1
  Lu  Lu11  1  0.969633  0.270207  0.699427  1
  Zn  Zn12  1  0.000000  0.500000  0.500000  1
  In  In13  1  0.500000  0.000000  0.500000  1
  Ni  Ni14  1  0.352620  0.500000  0.852620  1
  Ni  Ni15  1  0.647380  0.500000  0.147380  1
  Ni  Ni16  1  0.875118  0.875118  0.000000  1
  Ni  Ni17  1  0.124882  0.124882  0.000000  1
