# generated using pymatgen
data_Ba(Ti3S4)4
_symmetry_space_group_name_H-M   'P 1'
_cell_length_a   6.81588373
_cell_length_b   9.48057604
_cell_length_c   10.07266733
_cell_angle_alpha   118.06672881
_cell_angle_beta   109.76344032
_cell_angle_gamma   90.03050739
_symmetry_Int_Tables_number   1
_chemical_formula_structural   Ba(Ti3S4)4
_chemical_formula_sum   'Ba1 Ti12 S16'
_cell_volume   530.42723445
_cell_formula_units_Z   1
loop_
 _symmetry_equiv_pos_site_id
 _symmetry_equiv_pos_as_xyz
  1  'x, y, z'
loop_
 _atom_site_type_symbol
 _atom_site_label
 _atom_site_symmetry_multiplicity
 _atom_site_fract_x
 _atom_site_fract_y
 _atom_site_fract_z
 _atom_site_occupancy
  Ba  Ba0  1  0.000000  0.000000  0.000000  1
  Ti  Ti1  1  0.556832  0.356025  0.866759  1
  Ti  Ti2  1  0.060046  0.357418  0.867556  1
  Ti  Ti3  1  0.371753  0.132151  0.489602  1
  Ti  Ti4  1  0.867672  0.133379  0.488809  1
  Ti  Ti5  1  0.445314  0.511229  0.644599  1
  Ti  Ti6  1  0.947625  0.510323  0.642648  1
  Ti  Ti7  1  0.939954  0.642582  0.132444  1
  Ti  Ti8  1  0.443168  0.643975  0.133241  1
  Ti  Ti9  1  0.132328  0.866621  0.511191  1
  Ti  Ti10  1  0.628247  0.867849  0.510398  1
  Ti  Ti11  1  0.052375  0.489677  0.357352  1
  Ti  Ti12  1  0.554686  0.488771  0.355401  1
  S  S13  1  0.973090  0.051000  0.694840  1
  S  S14  1  0.472882  0.050293  0.695697  1
  S  S15  1  0.802169  0.304350  0.354364  1
  S  S16  1  0.303522  0.305235  0.356008  1
  S  S17  1  0.100759  0.645188  0.949607  1
  S  S18  1  0.600045  0.645278  0.949908  1
  S  S19  1  0.527118  0.949707  0.304303  1
  S  S20  1  0.026910  0.949000  0.305160  1
  S  S21  1  0.696478  0.694765  0.643992  1
  S  S22  1  0.197831  0.695650  0.645636  1
  S  S23  1  0.399955  0.354722  0.050092  1
  S  S24  1  0.899241  0.354812  0.050393  1
  S  S25  1  0.792200  0.667466  0.334252  1
  S  S26  1  0.291562  0.666055  0.333081  1
  S  S27  1  0.708438  0.333945  0.666919  1
  S  S28  1  0.207800  0.332534  0.665748  1
