# generated using pymatgen
data_Nd2Al2PtRh
_symmetry_space_group_name_H-M   'P 1'
_cell_length_a   4.45202700
_cell_length_b   7.02788888
_cell_length_c   7.98449820
_cell_angle_alpha   90.42454113
_cell_angle_beta   90.00000000
_cell_angle_gamma   90.00000000
_symmetry_Int_Tables_number   1
_chemical_formula_structural   Nd2Al2PtRh
_chemical_formula_sum   'Nd4 Al4 Pt2 Rh2'
_cell_volume   249.81492459
_cell_formula_units_Z   2
loop_
 _symmetry_equiv_pos_site_id
 _symmetry_equiv_pos_as_xyz
  1  'x, y, z'
loop_
 _atom_site_type_symbol
 _atom_site_label
 _atom_site_symmetry_multiplicity
 _atom_site_fract_x
 _atom_site_fract_y
 _atom_site_fract_z
 _atom_site_occupancy
  Nd  Nd0  1  0.250000  0.536112  0.182711  1
  Nd  Nd1  1  0.750000  0.463888  0.817289  1
  Nd  Nd2  1  0.750000  0.965262  0.676817  1
  Nd  Nd3  1  0.250000  0.034738  0.323183  1
  Al  Al4  1  0.250000  0.634654  0.562191  1
  Al  Al5  1  0.750000  0.365346  0.437809  1
  Al  Al6  1  0.750000  0.860348  0.062857  1
  Al  Al7  1  0.250000  0.139652  0.937143  1
  Pt  Pt8  1  0.250000  0.776112  0.881740  1
  Pt  Pt9  1  0.750000  0.223888  0.118260  1
  Rh  Rh10  1  0.750000  0.728694  0.383901  1
  Rh  Rh11  1  0.250000  0.271306  0.616099  1
