# generated using pymatgen
data_Ta3Al(GaCo3)2
_symmetry_space_group_name_H-M   'P 1'
_cell_length_a   4.21424800
_cell_length_b   5.95384300
_cell_length_c   12.66158201
_cell_angle_alpha   90.00000000
_cell_angle_beta   89.99616433
_cell_angle_gamma   90.00000000
_symmetry_Int_Tables_number   1
_chemical_formula_structural   Ta3Al(GaCo3)2
_chemical_formula_sum   'Ta6 Al2 Ga4 Co12'
_cell_volume   317.69138585
_cell_formula_units_Z   2
loop_
 _symmetry_equiv_pos_site_id
 _symmetry_equiv_pos_as_xyz
  1  'x, y, z'
loop_
 _atom_site_type_symbol
 _atom_site_label
 _atom_site_symmetry_multiplicity
 _atom_site_fract_x
 _atom_site_fract_y
 _atom_site_fract_z
 _atom_site_occupancy
  Ta  Ta0  1  0.000016  0.499999  0.000276  1
  Ta  Ta1  1  0.500332  0.000000  0.166811  1
  Ta  Ta2  1  0.000373  0.499999  0.333181  1
  Ta  Ta3  1  0.500001  0.000000  0.499722  1
  Ta  Ta4  1  0.999632  0.499999  0.666553  1
  Ta  Ta5  1  0.499679  0.000000  0.833449  1
  Al  Al6  1  0.999650  0.000000  0.666656  1
  Al  Al7  1  0.499655  0.499999  0.833340  1
  Ga  Ga8  1  0.999994  0.000000  0.000068  1
  Ga  Ga9  1  0.500338  0.499999  0.166704  1
  Ga  Ga10  1  0.000358  0.000000  0.333300  1
  Ga  Ga11  1  0.500000  0.499999  0.499934  1
  Co  Co12  1  0.499998  0.250497  0.999723  1
  Co  Co13  1  0.499998  0.749502  0.999723  1
  Co  Co14  1  0.000363  0.249867  0.166733  1
  Co  Co15  1  0.000363  0.750133  0.166733  1
  Co  Co16  1  0.500417  0.250118  0.333273  1
  Co  Co17  1  0.500417  0.749882  0.333273  1
  Co  Co18  1  0.999994  0.249496  0.500276  1
  Co  Co19  1  0.999994  0.750505  0.500276  1
  Co  Co20  1  0.499588  0.249392  0.666984  1
  Co  Co21  1  0.499588  0.750608  0.666984  1
  Co  Co22  1  0.999625  0.250644  0.833015  1
  Co  Co23  1  0.999625  0.749356  0.833015  1
