# generated using pymatgen
data_Y9Er(Ir2Rh)2
_symmetry_space_group_name_H-M   'P 1'
_cell_length_a   10.91600000
_cell_length_b   10.91600000
_cell_length_c   6.40588400
_cell_angle_alpha   90.00000000
_cell_angle_beta   90.00000000
_cell_angle_gamma   90.00000000
_symmetry_Int_Tables_number   1
_chemical_formula_structural   Y9Er(Ir2Rh)2
_chemical_formula_sum   'Y18 Er2 Ir8 Rh4'
_cell_volume   763.31909029
_cell_formula_units_Z   2
loop_
 _symmetry_equiv_pos_site_id
 _symmetry_equiv_pos_as_xyz
  1  'x, y, z'
loop_
 _atom_site_type_symbol
 _atom_site_label
 _atom_site_symmetry_multiplicity
 _atom_site_fract_x
 _atom_site_fract_y
 _atom_site_fract_z
 _atom_site_occupancy
  Y  Y0  1  0.290131  0.088893  0.379770  1
  Y  Y1  1  0.290131  0.911107  0.879770  1
  Y  Y2  1  0.709869  0.088893  0.879770  1
  Y  Y3  1  0.709869  0.911107  0.379770  1
  Y  Y4  1  0.589050  0.790510  0.879687  1
  Y  Y5  1  0.589050  0.209490  0.379687  1
  Y  Y6  1  0.410950  0.790510  0.379687  1
  Y  Y7  1  0.410950  0.209490  0.879687  1
  Y  Y8  1  0.209490  0.410950  0.620313  1
  Y  Y9  1  0.209490  0.589050  0.120313  1
  Y  Y10  1  0.790510  0.410950  0.120313  1
  Y  Y11  1  0.790510  0.589050  0.620313  1
  Y  Y12  1  0.911107  0.709869  0.120230  1
  Y  Y13  1  0.911107  0.290131  0.620230  1
  Y  Y14  1  0.088893  0.709869  0.620230  1
  Y  Y15  1  0.088893  0.290131  0.120230  1
  Y  Y16  1  0.500000  0.500000  0.000000  1
  Y  Y17  1  0.500000  0.500000  0.500000  1
  Er  Er18  1  0.000000  0.000000  0.500000  1
  Er  Er19  1  0.000000  0.000000  0.000000  1
  Ir  Ir20  1  0.847119  0.152881  0.250000  1
  Ir  Ir21  1  0.847119  0.847119  0.750000  1
  Ir  Ir22  1  0.152881  0.152881  0.750000  1
  Ir  Ir23  1  0.152881  0.847119  0.250000  1
  Ir  Ir24  1  0.654113  0.345887  0.750000  1
  Ir  Ir25  1  0.654113  0.654113  0.250000  1
  Ir  Ir26  1  0.345887  0.345887  0.250000  1
  Ir  Ir27  1  0.345887  0.654113  0.750000  1
  Rh  Rh28  1  0.500000  0.000000  0.124893  1
  Rh  Rh29  1  0.500000  0.000000  0.624893  1
  Rh  Rh30  1  0.000000  0.500000  0.875107  1
  Rh  Rh31  1  0.000000  0.500000  0.375107  1
