# generated using pymatgen
data_RbSe(SO4)2
_symmetry_space_group_name_H-M   'P 1'
_cell_length_a   7.23450015
_cell_length_b   7.95291527
_cell_length_c   9.09445860
_cell_angle_alpha   54.38445132
_cell_angle_beta   91.03733136
_cell_angle_gamma   87.92617723
_symmetry_Int_Tables_number   1
_chemical_formula_structural   RbSe(SO4)2
_chemical_formula_sum   'Rb2 Se2 S4 O16'
_cell_volume   424.60156976
_cell_formula_units_Z   2
loop_
 _symmetry_equiv_pos_site_id
 _symmetry_equiv_pos_as_xyz
  1  'x, y, z'
loop_
 _atom_site_type_symbol
 _atom_site_label
 _atom_site_symmetry_multiplicity
 _atom_site_fract_x
 _atom_site_fract_y
 _atom_site_fract_z
 _atom_site_occupancy
  Rb  Rb0  1  0.834703  0.301911  0.801858  1
  Rb  Rb1  1  0.165297  0.698089  0.198142  1
  Se  Se2  1  0.380086  0.860317  0.607529  1
  Se  Se3  1  0.619914  0.139683  0.392471  1
  S  S4  1  0.183626  0.183816  0.222093  1
  S  S5  1  0.816374  0.816184  0.777907  1
  S  S6  1  0.650679  0.769637  0.355510  1
  S  S7  1  0.349321  0.230363  0.644490  1
  O  O8  1  0.061051  0.308913  0.251002  1
  O  O9  1  0.938949  0.691087  0.748998  1
  O  O10  1  0.533905  0.828120  0.200910  1
  O  O11  1  0.466095  0.171880  0.799090  1
  O  O12  1  0.623980  0.744723  0.816607  1
  O  O13  1  0.376020  0.255277  0.183393  1
  O  O14  1  0.175565  0.343715  0.615732  1
  O  O15  1  0.824435  0.656285  0.384268  1
  O  O16  1  0.448967  0.322335  0.472844  1
  O  O17  1  0.551033  0.677665  0.527156  1
  O  O18  1  0.888954  0.868346  0.895183  1
  O  O19  1  0.111046  0.131654  0.104817  1
  O  O20  1  0.282999  0.006095  0.687397  1
  O  O21  1  0.717001  0.993905  0.312603  1
  O  O22  1  0.787545  0.049729  0.580160  1
  O  O23  1  0.212455  0.950271  0.419840  1
