# generated using pymatgen
data_Pr3PdRhAu2
_symmetry_space_group_name_H-M   'P 1'
_cell_length_a   8.26711671
_cell_length_b   8.23988196
_cell_length_c   8.30793102
_cell_angle_alpha   114.22786984
_cell_angle_beta   114.64964198
_cell_angle_gamma   113.90322146
_symmetry_Int_Tables_number   1
_chemical_formula_structural   Pr3PdRhAu2
_chemical_formula_sum   'Pr6 Pd2 Rh2 Au4'
_cell_volume   337.08815237
_cell_formula_units_Z   2
loop_
 _symmetry_equiv_pos_site_id
 _symmetry_equiv_pos_as_xyz
  1  'x, y, z'
loop_
 _atom_site_type_symbol
 _atom_site_label
 _atom_site_symmetry_multiplicity
 _atom_site_fract_x
 _atom_site_fract_y
 _atom_site_fract_z
 _atom_site_occupancy
  Pr  Pr0  1  0.405929  0.036829  0.286316  1
  Pr  Pr1  1  0.045079  0.290538  0.403454  1
  Pr  Pr2  1  0.278687  0.396753  0.032138  1
  Pr  Pr3  1  0.606056  0.955613  0.723902  1
  Pr  Pr4  1  0.960105  0.717862  0.614502  1
  Pr  Pr5  1  0.715439  0.608525  0.950724  1
  Pd  Pd6  1  0.943839  0.441893  0.779383  1
  Pd  Pd7  1  0.436105  0.776017  0.941212  1
  Rh  Rh8  1  0.013982  0.012359  0.012202  1
  Rh  Rh9  1  0.495100  0.493534  0.491874  1
  Au  Au10  1  0.216293  0.048874  0.551702  1
  Au  Au11  1  0.053844  0.556440  0.215018  1
  Au  Au12  1  0.555132  0.218545  0.057532  1
  Au  Au13  1  0.774409  0.946218  0.440039  1
