# generated using pymatgen
data_Ho2P6(PdRh)5
_symmetry_space_group_name_H-M   'P 1'
_cell_length_a   3.89271800
_cell_length_b   10.83630000
_cell_length_c   12.83632500
_cell_angle_alpha   90.00000000
_cell_angle_beta   90.00000000
_cell_angle_gamma   90.00000000
_symmetry_Int_Tables_number   1
_chemical_formula_structural   Ho2P6(PdRh)5
_chemical_formula_sum   'Ho4 P12 Pd10 Rh10'
_cell_volume   541.47033394
_cell_formula_units_Z   2
loop_
 _symmetry_equiv_pos_site_id
 _symmetry_equiv_pos_as_xyz
  1  'x, y, z'
loop_
 _atom_site_type_symbol
 _atom_site_label
 _atom_site_symmetry_multiplicity
 _atom_site_fract_x
 _atom_site_fract_y
 _atom_site_fract_z
 _atom_site_occupancy
  Ho  Ho0  1  0.250000  0.574663  0.709778  1
  Ho  Ho1  1  0.250000  0.925337  0.209778  1
  Ho  Ho2  1  0.750000  0.424821  0.291646  1
  Ho  Ho3  1  0.750000  0.075179  0.791646  1
  P  P4  1  0.250000  0.435128  0.116374  1
  P  P5  1  0.250000  0.064872  0.616374  1
  P  P6  1  0.750000  0.571663  0.883405  1
  P  P7  1  0.750000  0.928337  0.383405  1
  P  P8  1  0.250000  0.262554  0.861550  1
  P  P9  1  0.250000  0.237446  0.361550  1
  P  P10  1  0.750000  0.737402  0.143091  1
  P  P11  1  0.750000  0.762598  0.643091  1
  P  P12  1  0.250000  0.605869  0.381435  1
  P  P13  1  0.250000  0.894131  0.881435  1
  P  P14  1  0.750000  0.401431  0.616938  1
  P  P15  1  0.750000  0.098569  0.116938  1
  Pd  Pd16  1  0.250000  0.719110  0.987034  1
  Pd  Pd17  1  0.250000  0.780890  0.487034  1
  Pd  Pd18  1  0.750000  0.273084  0.008024  1
  Pd  Pd19  1  0.750000  0.226916  0.508024  1
  Pd  Pd20  1  0.250000  0.414668  0.472046  1
  Pd  Pd21  1  0.250000  0.085332  0.972046  1
  Pd  Pd22  1  0.750000  0.592192  0.529187  1
  Pd  Pd23  1  0.750000  0.907808  0.029187  1
  Pd  Pd24  1  0.250000  0.234711  0.173969  1
  Pd  Pd25  1  0.250000  0.265289  0.673969  1
  Rh  Rh26  1  0.750000  0.769704  0.825888  1
  Rh  Rh27  1  0.750000  0.730296  0.325888  1
  Rh  Rh28  1  0.250000  0.871231  0.700049  1
  Rh  Rh29  1  0.250000  0.628769  0.200049  1
  Rh  Rh30  1  0.750000  0.125207  0.298935  1
  Rh  Rh31  1  0.750000  0.374793  0.798935  1
  Rh  Rh32  1  0.250000  0.458820  0.933328  1
  Rh  Rh33  1  0.250000  0.041180  0.433328  1
  Rh  Rh34  1  0.750000  0.541812  0.067323  1
  Rh  Rh35  1  0.750000  0.958188  0.567323  1
