# generated using pymatgen
data_TbY19(Bi2P)4
_symmetry_space_group_name_H-M   'P 1'
_cell_length_a   8.02344003
_cell_length_b   8.99897404
_cell_length_c   12.22974605
_cell_angle_alpha   89.99199237
_cell_angle_beta   90.00656014
_cell_angle_gamma   90.00704323
_symmetry_Int_Tables_number   1
_chemical_formula_structural   TbY19(Bi2P)4
_chemical_formula_sum   'Tb1 Y19 Bi8 P4'
_cell_volume   883.02101280
_cell_formula_units_Z   1
loop_
 _symmetry_equiv_pos_site_id
 _symmetry_equiv_pos_as_xyz
  1  'x, y, z'
loop_
 _atom_site_type_symbol
 _atom_site_label
 _atom_site_symmetry_multiplicity
 _atom_site_fract_x
 _atom_site_fract_y
 _atom_site_fract_z
 _atom_site_occupancy
  Tb  Tb0  1  0.183351  0.548596  0.935151  1
  Y  Y1  1  0.853084  0.749890  0.795118  1
  Y  Y2  1  0.147181  0.250057  0.205213  1
  Y  Y3  1  0.352902  0.249959  0.704944  1
  Y  Y4  1  0.647141  0.750089  0.294914  1
  Y  Y5  1  0.377736  0.749906  0.700266  1
  Y  Y6  1  0.622210  0.250082  0.299599  1
  Y  Y7  1  0.877940  0.250179  0.799655  1
  Y  Y8  1  0.122265  0.749869  0.200440  1
  Y  Y9  1  0.957358  0.750063  0.501449  1
  Y  Y10  1  0.042732  0.250006  0.498464  1
  Y  Y11  1  0.456982  0.250634  0.998500  1
  Y  Y12  1  0.542054  0.749275  0.001556  1
  Y  Y13  1  0.682461  0.048159  0.564693  1
  Y  Y14  1  0.317469  0.951914  0.435226  1
  Y  Y15  1  0.182768  0.952090  0.935236  1
  Y  Y16  1  0.317619  0.548134  0.435363  1
  Y  Y17  1  0.816858  0.047920  0.064596  1
  Y  Y18  1  0.682539  0.451838  0.564595  1
  Y  Y19  1  0.818249  0.451897  0.064474  1
  Bi  Bi20  1  0.578476  0.490094  0.827324  1
  Bi  Bi21  1  0.421472  0.509716  0.172645  1
  Bi  Bi22  1  0.078196  0.509648  0.672175  1
  Bi  Bi23  1  0.421714  0.990421  0.172341  1
  Bi  Bi24  1  0.921696  0.490216  0.327669  1
  Bi  Bi25  1  0.578343  0.009818  0.827731  1
  Bi  Bi26  1  0.921770  0.009841  0.327658  1
  Bi  Bi27  1  0.078219  0.990272  0.672390  1
  P  P28  1  0.571892  0.750067  0.512117  1
  P  P29  1  0.428146  0.249955  0.487810  1
  P  P30  1  0.071361  0.248830  0.988220  1
  P  P31  1  0.927818  0.750567  0.012467  1
