# generated using pymatgen
data_Dy4BBr6
_symmetry_space_group_name_H-M   'P 1'
_cell_length_a   3.96602900
_cell_length_b   13.18046100
_cell_length_c   13.64669800
_cell_angle_alpha   90.00000000
_cell_angle_beta   90.00000000
_cell_angle_gamma   90.00000000
_symmetry_Int_Tables_number   1
_chemical_formula_structural   Dy4BBr6
_chemical_formula_sum   'Dy8 B2 Br12'
_cell_volume   713.36872709
_cell_formula_units_Z   2
loop_
 _symmetry_equiv_pos_site_id
 _symmetry_equiv_pos_as_xyz
  1  'x, y, z'
loop_
 _atom_site_type_symbol
 _atom_site_label
 _atom_site_symmetry_multiplicity
 _atom_site_fract_x
 _atom_site_fract_y
 _atom_site_fract_z
 _atom_site_occupancy
  Dy  Dy0  1  0.000000  0.101798  0.080828  1
  Dy  Dy1  1  0.000000  0.898202  0.919172  1
  Dy  Dy2  1  0.000000  0.601798  0.419172  1
  Dy  Dy3  1  0.000000  0.398202  0.580828  1
  Dy  Dy4  1  0.500000  0.122673  0.855774  1
  Dy  Dy5  1  0.500000  0.877327  0.144226  1
  Dy  Dy6  1  0.500000  0.622673  0.644226  1
  Dy  Dy7  1  0.500000  0.377327  0.355774  1
  B  B8  1  0.500000  0.000000  0.000000  1
  B  B9  1  0.500000  0.500000  0.500000  1
  Br  Br10  1  0.500000  0.267581  0.682114  1
  Br  Br11  1  0.500000  0.732419  0.317886  1
  Br  Br12  1  0.500000  0.767581  0.817886  1
  Br  Br13  1  0.500000  0.232419  0.182114  1
  Br  Br14  1  0.000000  0.260968  0.930781  1
  Br  Br15  1  0.000000  0.739032  0.069219  1
  Br  Br16  1  0.000000  0.480360  0.239359  1
  Br  Br17  1  0.000000  0.519640  0.760641  1
  Br  Br18  1  0.000000  0.980360  0.260641  1
  Br  Br19  1  0.000000  0.019640  0.739359  1
  Br  Br20  1  0.000000  0.239032  0.430781  1
  Br  Br21  1  0.000000  0.760968  0.569219  1
