# generated using pymatgen
data_LaCeAl20(RuRh)2
_symmetry_space_group_name_H-M   'P 1'
_cell_length_a   6.88323553
_cell_length_b   6.89806386
_cell_length_c   9.18694000
_cell_angle_alpha   90.00000000
_cell_angle_beta   90.00000000
_cell_angle_gamma   97.38143339
_symmetry_Int_Tables_number   1
_chemical_formula_structural   LaCeAl20(RuRh)2
_chemical_formula_sum   'La1 Ce1 Al20 Ru2 Rh2'
_cell_volume   432.59018376
_cell_formula_units_Z   1
loop_
 _symmetry_equiv_pos_site_id
 _symmetry_equiv_pos_as_xyz
  1  'x, y, z'
loop_
 _atom_site_type_symbol
 _atom_site_label
 _atom_site_symmetry_multiplicity
 _atom_site_fract_x
 _atom_site_fract_y
 _atom_site_fract_z
 _atom_site_occupancy
  La  La0  1  0.126837  0.877502  0.250000  1
  Ce  Ce1  1  0.874555  0.119558  0.750000  1
  Al  Al2  1  0.620500  0.376174  0.551674  1
  Al  Al3  1  0.380098  0.623792  0.450061  1
  Al  Al4  1  0.380098  0.623792  0.049939  1
  Al  Al5  1  0.620500  0.376174  0.948326  1
  Al  Al6  1  0.225150  0.223660  0.500676  1
  Al  Al7  1  0.774356  0.776545  0.502539  1
  Al  Al8  1  0.774356  0.776545  0.997461  1
  Al  Al9  1  0.225150  0.223660  0.999324  1
  Al  Al10  1  0.839599  0.159887  0.102130  1
  Al  Al11  1  0.159017  0.842260  0.896916  1
  Al  Al12  1  0.159017  0.842260  0.603084  1
  Al  Al13  1  0.839599  0.159887  0.397870  1
  Al  Al14  1  0.858691  0.590344  0.750000  1
  Al  Al15  1  0.141422  0.407467  0.250000  1
  Al  Al16  1  0.407648  0.139327  0.750000  1
  Al  Al17  1  0.593235  0.860660  0.250000  1
  Al  Al18  1  0.224501  0.480251  0.750000  1
  Al  Al19  1  0.773535  0.518727  0.250000  1
  Al  Al20  1  0.518011  0.777919  0.750000  1
  Al  Al21  1  0.482412  0.222857  0.250000  1
  Ru  Ru22  1  0.501210  0.000666  0.998863  1
  Ru  Ru23  1  0.501210  0.000666  0.501137  1
  Rh  Rh24  1  0.999647  0.499710  0.500554  1
  Rh  Rh25  1  0.999647  0.499710  0.999446  1
