# generated using pymatgen
data_CsSb12(RuPt)2
_symmetry_space_group_name_H-M   'P 1'
_cell_length_a   8.23999525
_cell_length_b   8.26588153
_cell_length_c   8.23999645
_cell_angle_alpha   109.43773454
_cell_angle_beta   109.33870823
_cell_angle_gamma   109.50999310
_symmetry_Int_Tables_number   1
_chemical_formula_structural   CsSb12(RuPt)2
_chemical_formula_sum   'Cs1 Sb12 Ru2 Pt2'
_cell_volume   432.71362650
_cell_formula_units_Z   1
loop_
 _symmetry_equiv_pos_site_id
 _symmetry_equiv_pos_as_xyz
  1  'x, y, z'
loop_
 _atom_site_type_symbol
 _atom_site_label
 _atom_site_symmetry_multiplicity
 _atom_site_fract_x
 _atom_site_fract_y
 _atom_site_fract_z
 _atom_site_occupancy
  Cs  Cs0  1  0.000000  0.000000  0.000000  1
  Sb  Sb1  1  0.154442  0.806322  0.651880  1
  Sb  Sb2  1  0.159433  0.500206  0.340772  1
  Sb  Sb3  1  0.498452  0.649911  0.837651  1
  Sb  Sb4  1  0.339502  0.838257  0.187792  1
  Sb  Sb5  1  0.812259  0.649911  0.151458  1
  Sb  Sb6  1  0.650464  0.838257  0.498756  1
  Sb  Sb7  1  0.187741  0.350089  0.848542  1
  Sb  Sb8  1  0.660498  0.161743  0.812208  1
  Sb  Sb9  1  0.349536  0.161743  0.501244  1
  Sb  Sb10  1  0.501548  0.350089  0.162349  1
  Sb  Sb11  1  0.840567  0.499794  0.659228  1
  Sb  Sb12  1  0.845558  0.193678  0.348120  1
  Ru  Ru13  1  0.500000  0.500000  0.500000  1
  Ru  Ru14  1  0.000000  0.500000  0.000000  1
  Pt  Pt15  1  0.000000  0.000000  0.500000  1
  Pt  Pt16  1  0.500000  0.000000  0.000000  1
