# generated using pymatgen
data_Y2Tm2Al13Ga5Ir6
_symmetry_space_group_name_H-M   'P 1'
_cell_length_a   7.52519315
_cell_length_b   7.52701956
_cell_length_c   9.55482100
_cell_angle_alpha   90.00000000
_cell_angle_beta   90.00000000
_cell_angle_gamma   119.57007075
_symmetry_Int_Tables_number   1
_chemical_formula_structural   Y2Tm2Al13Ga5Ir6
_chemical_formula_sum   'Y2 Tm2 Al13 Ga5 Ir6'
_cell_volume   470.71615254
_cell_formula_units_Z   1
loop_
 _symmetry_equiv_pos_site_id
 _symmetry_equiv_pos_as_xyz
  1  'x, y, z'
loop_
 _atom_site_type_symbol
 _atom_site_label
 _atom_site_symmetry_multiplicity
 _atom_site_fract_x
 _atom_site_fract_y
 _atom_site_fract_z
 _atom_site_occupancy
  Y  Y0  1  0.995137  0.670196  0.250000  1
  Y  Y1  1  0.670590  0.996528  0.250000  1
  Tm  Tm2  1  0.000610  0.325783  0.750000  1
  Tm  Tm3  1  0.329669  0.006415  0.750000  1
  Al  Al4  1  0.002754  0.334929  0.071241  1
  Al  Al5  1  0.999621  0.665287  0.925961  1
  Al  Al6  1  0.999621  0.665287  0.574039  1
  Al  Al7  1  0.334869  0.002173  0.428937  1
  Al  Al8  1  0.002754  0.334929  0.428759  1
  Al  Al9  1  0.664693  0.998300  0.574231  1
  Al  Al10  1  0.664693  0.998300  0.925769  1
  Al  Al11  1  0.334869  0.002173  0.071063  1
  Al  Al12  1  0.333473  0.333856  0.558420  1
  Al  Al13  1  0.665723  0.665699  0.447351  1
  Al  Al14  1  0.665723  0.665699  0.052649  1
  Al  Al15  1  0.333473  0.333856  0.941580  1
  Al  Al16  1  0.449692  0.661530  0.750000  1
  Ga  Ga17  1  0.129820  0.129848  0.250000  1
  Ga  Ga18  1  0.870197  0.869519  0.750000  1
  Ga  Ga19  1  0.338666  0.547108  0.250000  1
  Ga  Ga20  1  0.661539  0.453159  0.750000  1
  Ga  Ga21  1  0.546867  0.339141  0.250000  1
  Ir  Ir22  1  0.672348  0.327760  0.999529  1
  Ir  Ir23  1  0.329068  0.671629  0.997058  1
  Ir  Ir24  1  0.329068  0.671629  0.502942  1
  Ir  Ir25  1  0.672348  0.327760  0.500471  1
  Ir  Ir26  1  0.001057  0.000752  0.999145  1
  Ir  Ir27  1  0.001057  0.000752  0.500855  1
