# generated using pymatgen
data_Tb7Th(HgIr)2
_symmetry_space_group_name_H-M   'P 1'
_cell_length_a   9.70059946
_cell_length_b   9.70069176
_cell_length_c   9.69824800
_cell_angle_alpha   60.00856719
_cell_angle_beta   60.00821042
_cell_angle_gamma   60.30329708
_symmetry_Int_Tables_number   1
_chemical_formula_structural   Tb7Th(HgIr)2
_chemical_formula_sum   'Tb14 Th2 Hg4 Ir4'
_cell_volume   646.87515576
_cell_formula_units_Z   2
loop_
 _symmetry_equiv_pos_site_id
 _symmetry_equiv_pos_as_xyz
  1  'x, y, z'
loop_
 _atom_site_type_symbol
 _atom_site_label
 _atom_site_symmetry_multiplicity
 _atom_site_fract_x
 _atom_site_fract_y
 _atom_site_fract_z
 _atom_site_occupancy
  Tb  Tb0  1  0.603632  0.193091  0.601636  1
  Tb  Tb1  1  0.193093  0.603632  0.601638  1
  Tb  Tb2  1  0.061312  0.440234  0.438968  1
  Tb  Tb3  1  0.440234  0.061309  0.059483  1
  Tb  Tb4  1  0.440235  0.061311  0.438969  1
  Tb  Tb5  1  0.061310  0.440234  0.059484  1
  Tb  Tb6  1  0.436894  0.436903  0.063105  1
  Tb  Tb7  1  0.060313  0.060315  0.439684  1
  Tb  Tb8  1  0.188264  0.813726  0.813075  1
  Tb  Tb9  1  0.813725  0.188263  0.184938  1
  Tb  Tb10  1  0.813726  0.188264  0.813077  1
  Tb  Tb11  1  0.188262  0.813726  0.184939  1
  Tb  Tb12  1  0.814012  0.814007  0.185990  1
  Tb  Tb13  1  0.190656  0.190656  0.809344  1
  Th  Th14  1  0.597414  0.597414  0.601322  1
  Th  Th15  1  0.597414  0.597413  0.203854  1
  Hg  Hg16  1  0.835780  0.835780  0.833094  1
  Hg  Hg17  1  0.835780  0.835779  0.495348  1
  Hg  Hg18  1  0.837670  0.491043  0.835642  1
  Hg  Hg19  1  0.491042  0.837670  0.835644  1
  Ir  Ir20  1  0.391889  0.391888  0.394876  1
  Ir  Ir21  1  0.391892  0.391888  0.821348  1
  Ir  Ir22  1  0.394083  0.821372  0.392271  1
  Ir  Ir23  1  0.821372  0.394082  0.392273  1
