# generated using pymatgen
data_Th7Os2Pt
_symmetry_space_group_name_H-M   'P 1'
_cell_length_a   10.10558850
_cell_length_b   10.09952903
_cell_length_c   6.32482073
_cell_angle_alpha   89.99999944
_cell_angle_beta   90.13370822
_cell_angle_gamma   119.98016977
_symmetry_Int_Tables_number   1
_chemical_formula_structural   Th7Os2Pt
_chemical_formula_sum   'Th14 Os4 Pt2'
_cell_volume   559.14797228
_cell_formula_units_Z   2
loop_
 _symmetry_equiv_pos_site_id
 _symmetry_equiv_pos_as_xyz
  1  'x, y, z'
loop_
 _atom_site_type_symbol
 _atom_site_label
 _atom_site_symmetry_multiplicity
 _atom_site_fract_x
 _atom_site_fract_y
 _atom_site_fract_z
 _atom_site_occupancy
  Th  Th0  1  0.455661  0.541877  0.298056  1
  Th  Th1  1  0.085736  0.542868  0.294515  1
  Th  Th2  1  0.922719  0.461360  0.786988  1
  Th  Th3  1  0.252921  0.126460  0.496068  1
  Th  Th4  1  0.536878  0.082697  0.793686  1
  Th  Th5  1  0.738225  0.869112  0.996470  1
  Th  Th6  1  0.661967  0.330983  0.308003  1
  Th  Th7  1  0.133067  0.877108  0.999173  1
  Th  Th8  1  0.455661  0.913783  0.298056  1
  Th  Th9  1  0.536878  0.454180  0.793686  1
  Th  Th10  1  0.875008  0.124913  0.504957  1
  Th  Th11  1  0.133067  0.255960  0.999173  1
  Th  Th12  1  0.875008  0.750095  0.504957  1
  Th  Th13  1  0.333224  0.666613  0.787828  1
  Os  Os14  1  0.627583  0.813792  0.553435  1
  Os  Os15  1  0.378491  0.189245  0.052123  1
  Os  Os16  1  0.184483  0.373714  0.552639  1
  Os  Os17  1  0.184483  0.810770  0.552639  1
  Pt  Pt18  1  0.814470  0.623752  0.055772  1
  Pt  Pt19  1  0.814470  0.190719  0.055772  1
