# generated using pymatgen
data_Hf4Zr5Pa8Si16Mo3
_symmetry_space_group_name_H-M   'P 1'
_cell_length_a   7.21950322
_cell_length_b   7.21431023
_cell_length_c   13.22496158
_cell_angle_alpha   90.08792777
_cell_angle_beta   90.10011653
_cell_angle_gamma   89.89125830
_symmetry_Int_Tables_number   1
_chemical_formula_structural   Hf4Zr5Pa8Si16Mo3
_chemical_formula_sum   'Hf4 Zr5 Pa8 Si16 Mo3'
_cell_volume   688.80230663
_cell_formula_units_Z   1
loop_
 _symmetry_equiv_pos_site_id
 _symmetry_equiv_pos_as_xyz
  1  'x, y, z'
loop_
 _atom_site_type_symbol
 _atom_site_label
 _atom_site_symmetry_multiplicity
 _atom_site_fract_x
 _atom_site_fract_y
 _atom_site_fract_z
 _atom_site_occupancy
  Hf  Hf0  1  0.499172  0.349853  0.125942  1
  Hf  Hf1  1  0.651033  0.501688  0.373938  1
  Hf  Hf2  1  0.000898  0.149286  0.622801  1
  Hf  Hf3  1  0.000041  0.849719  0.126049  1
  Zr  Zr4  1  0.672200  0.327051  0.749828  1
  Zr  Zr5  1  0.150775  0.001200  0.374317  1
  Zr  Zr6  1  0.850286  0.998384  0.877172  1
  Zr  Zr7  1  0.500150  0.650362  0.621641  1
  Zr  Zr8  1  0.348693  0.499364  0.878263  1
  Pa  Pa9  1  0.000686  0.341814  0.216051  1
  Pa  Pa10  1  0.001475  0.660038  0.715761  1
  Pa  Pa11  1  0.158535  0.500981  0.463150  1
  Pa  Pa12  1  0.499818  0.840957  0.037422  1
  Pa  Pa13  1  0.844175  0.502177  0.967907  1
  Pa  Pa14  1  0.496840  0.156362  0.532124  1
  Pa  Pa15  1  0.339933  0.997451  0.783752  1
  Pa  Pa16  1  0.657921  0.999737  0.283810  1
  Si  Si17  1  0.365725  0.297503  0.317367  1
  Si  Si18  1  0.637379  0.705082  0.818024  1
  Si  Si19  1  0.201764  0.863633  0.567425  1
  Si  Si20  1  0.137575  0.798262  0.934005  1
  Si  Si21  1  0.793655  0.135214  0.070237  1
  Si  Si22  1  0.863470  0.206511  0.430923  1
  Si  Si23  1  0.292679  0.361927  0.681396  1
  Si  Si24  1  0.705375  0.634820  0.182301  1
  Si  Si25  1  0.293134  0.049426  0.183110  1
  Si  Si26  1  0.706593  0.950118  0.681759  1
  Si  Si27  1  0.452495  0.793062  0.431442  1
  Si  Si28  1  0.206671  0.548776  0.068757  1
  Si  Si29  1  0.542588  0.202254  0.937711  1
  Si  Si30  1  0.797692  0.455893  0.562536  1
  Si  Si31  1  0.049912  0.293505  0.816992  1
  Si  Si32  1  0.950896  0.707039  0.316265  1
  Mo  Mo33  1  0.172695  0.170855  0.002493  1
  Mo  Mo34  1  0.828915  0.827419  0.497717  1
  Mo  Mo35  1  0.328164  0.672278  0.249612  1
