# generated using pymatgen
data_Li3Ni9As3(P2Rh)2
_symmetry_space_group_name_H-M   'P 1'
_cell_length_a   9.20873893
_cell_length_b   9.33960081
_cell_length_c   3.62441800
_cell_angle_alpha   90.00000000
_cell_angle_beta   90.00000000
_cell_angle_gamma   120.39546271
_symmetry_Int_Tables_number   1
_chemical_formula_structural   Li3Ni9As3(P2Rh)2
_chemical_formula_sum   'Li3 Ni9 As3 P4 Rh2'
_cell_volume   268.87654301
_cell_formula_units_Z   1
loop_
 _symmetry_equiv_pos_site_id
 _symmetry_equiv_pos_as_xyz
  1  'x, y, z'
loop_
 _atom_site_type_symbol
 _atom_site_label
 _atom_site_symmetry_multiplicity
 _atom_site_fract_x
 _atom_site_fract_y
 _atom_site_fract_z
 _atom_site_occupancy
  Li  Li0  1  0.794200  0.233116  0.500000  1
  Li  Li1  1  0.334739  0.671020  0.000000  1
  Li  Li2  1  0.985264  0.965274  0.500000  1
  Ni  Ni3  1  0.286889  0.402953  0.500000  1
  Ni  Ni4  1  0.606794  0.888265  0.500000  1
  Ni  Ni5  1  0.110655  0.721318  0.500000  1
  Ni  Ni6  1  0.500940  0.463235  0.000000  1
  Ni  Ni7  1  0.541604  0.041532  0.000000  1
  Ni  Ni8  1  0.958766  0.503825  0.000000  1
  Ni  Ni9  1  0.728637  0.763412  0.000000  1
  Ni  Ni10  1  0.226777  0.947644  0.000000  1
  Ni  Ni11  1  0.050730  0.298606  0.000000  1
  As  As12  1  0.239286  0.205533  0.000000  1
  As  As13  1  0.798039  0.036770  0.000000  1
  As  As14  1  0.662037  0.333006  0.000000  1
  P  P15  1  0.961333  0.746105  0.000000  1
  P  P16  1  0.546016  0.629089  0.500000  1
  P  P17  1  0.375731  0.918133  0.500000  1
  P  P18  1  0.089378  0.468448  0.500000  1
  Rh  Rh19  1  0.766436  0.565526  0.500000  1
  Rh  Rh20  1  0.435752  0.197189  0.500000  1
