# generated using pymatgen
data_TiBe6Si5Rh12
_symmetry_space_group_name_H-M   'P 1'
_cell_length_a   4.07245900
_cell_length_b   5.78626100
_cell_length_c   12.24949101
_cell_angle_alpha   90.00000000
_cell_angle_beta   90.00387798
_cell_angle_gamma   90.00000000
_symmetry_Int_Tables_number   1
_chemical_formula_structural   TiBe6Si5Rh12
_chemical_formula_sum   'Ti1 Be6 Si5 Rh12'
_cell_volume   288.65081134
_cell_formula_units_Z   1
loop_
 _symmetry_equiv_pos_site_id
 _symmetry_equiv_pos_as_xyz
  1  'x, y, z'
loop_
 _atom_site_type_symbol
 _atom_site_label
 _atom_site_symmetry_multiplicity
 _atom_site_fract_x
 _atom_site_fract_y
 _atom_site_fract_z
 _atom_site_occupancy
  Ti  Ti0  1  0.000000  0.000000  0.000000  1
  Be  Be1  1  0.000000  0.500000  0.000000  1
  Be  Be2  1  0.499692  0.000000  0.163166  1
  Be  Be3  1  0.999604  0.500000  0.336295  1
  Be  Be4  1  0.500000  0.000000  0.500000  1
  Be  Be5  1  0.000394  0.500000  0.663704  1
  Be  Be6  1  0.500308  0.000000  0.836834  1
  Si  Si7  1  0.499732  0.500000  0.168590  1
  Si  Si8  1  0.999753  0.000000  0.334330  1
  Si  Si9  1  0.500000  0.500000  0.500000  1
  Si  Si10  1  0.000247  0.000000  0.665670  1
  Si  Si11  1  0.500268  0.500000  0.831410  1
  Rh  Rh12  1  0.500000  0.260693  0.000000  1
  Rh  Rh13  1  0.500000  0.739307  0.000000  1
  Rh  Rh14  1  0.999779  0.254131  0.172520  1
  Rh  Rh15  1  0.999779  0.745870  0.172520  1
  Rh  Rh16  1  0.499797  0.249555  0.335910  1
  Rh  Rh17  1  0.499797  0.750446  0.335910  1
  Rh  Rh18  1  0.000000  0.250065  0.500000  1
  Rh  Rh19  1  0.000000  0.749936  0.500000  1
  Rh  Rh20  1  0.500203  0.249555  0.664090  1
  Rh  Rh21  1  0.500203  0.750446  0.664090  1
  Rh  Rh22  1  0.000221  0.254131  0.827480  1
  Rh  Rh23  1  0.000221  0.745870  0.827480  1
