# generated using pymatgen
data_Tb7Er9In6FeCo
_symmetry_space_group_name_H-M   'P 1'
_cell_length_a   10.34904600
_cell_length_b   10.33628255
_cell_length_c   7.01266125
_cell_angle_alpha   89.97361362
_cell_angle_beta   90.00000000
_cell_angle_gamma   120.04084954
_symmetry_Int_Tables_number   1
_chemical_formula_structural   Tb7Er9In6FeCo
_chemical_formula_sum   'Tb7 Er9 In6 Fe1 Co1'
_cell_volume   649.38044406
_cell_formula_units_Z   1
loop_
 _symmetry_equiv_pos_site_id
 _symmetry_equiv_pos_as_xyz
  1  'x, y, z'
loop_
 _atom_site_type_symbol
 _atom_site_label
 _atom_site_symmetry_multiplicity
 _atom_site_fract_x
 _atom_site_fract_y
 _atom_site_fract_z
 _atom_site_occupancy
  Tb  Tb0  1  0.535232  0.070464  0.791053  1
  Tb  Tb1  1  0.930094  0.464397  0.792232  1
  Tb  Tb2  1  0.534303  0.464397  0.792232  1
  Tb  Tb3  1  0.465762  0.931525  0.291509  1
  Tb  Tb4  1  0.069145  0.534082  0.291309  1
  Tb  Tb5  1  0.464935  0.534082  0.291309  1
  Tb  Tb6  1  0.821781  0.643563  0.498956  1
  Er  Er7  1  0.356890  0.178631  0.498432  1
  Er  Er8  1  0.821741  0.178631  0.498432  1
  Er  Er9  1  0.178156  0.356312  0.997476  1
  Er  Er10  1  0.643638  0.821861  0.997571  1
  Er  Er11  1  0.178223  0.821861  0.997571  1
  Er  Er12  1  0.666289  0.332577  0.180963  1
  Er  Er13  1  0.333410  0.666820  0.683406  1
  Er  Er14  1  0.000189  0.000378  0.780458  1
  Er  Er15  1  0.000287  0.000574  0.279396  1
  In  In16  1  0.837792  0.675584  0.039301  1
  In  In17  1  0.324526  0.162234  0.039909  1
  In  In18  1  0.837707  0.162234  0.039909  1
  In  In19  1  0.162664  0.325328  0.539889  1
  In  In20  1  0.673984  0.837849  0.540118  1
  In  In21  1  0.163866  0.837849  0.540118  1
  Fe  Fe22  1  0.666070  0.332139  0.568062  1
  Co  Co23  1  0.333315  0.666631  0.066298  1
