# generated using pymatgen
data_KPmO2
_symmetry_space_group_name_H-M   'P 1'
_cell_length_a   4.00665600
_cell_length_b   4.98369500
_cell_length_c   8.16049100
_cell_angle_alpha   90.00000000
_cell_angle_beta   89.99998570
_cell_angle_gamma   90.00000000
_symmetry_Int_Tables_number   1
_chemical_formula_structural   KPmO2
_chemical_formula_sum   'K2 Pm2 O4'
_cell_volume   162.94828829
_cell_formula_units_Z   2
loop_
 _symmetry_equiv_pos_site_id
 _symmetry_equiv_pos_as_xyz
  1  'x, y, z'
loop_
 _atom_site_type_symbol
 _atom_site_label
 _atom_site_symmetry_multiplicity
 _atom_site_fract_x
 _atom_site_fract_y
 _atom_site_fract_z
 _atom_site_occupancy
  K  K0  1  0.500002  0.938383  0.141435  1
  K  K1  1  0.500001  0.438385  0.858564  1
  Pm  Pm2  1  0.000000  0.438376  0.348603  1
  Pm  Pm3  1  0.000000  0.938378  0.651398  1
  O  O4  1  0.000000  0.938697  0.375493  1
  O  O5  1  0.000000  0.438697  0.624506  1
  O  O6  1  0.500001  0.438540  0.213889  1
  O  O7  1  0.499998  0.938541  0.786111  1
