# generated using pymatgen
data_Sr4Co2SnO9
_symmetry_space_group_name_H-M   'P 1'
_cell_length_a   9.74142000
_cell_length_b   9.74141984
_cell_length_c   7.94948400
_cell_angle_alpha   90.00000000
_cell_angle_beta   90.00000000
_cell_angle_gamma   120.00000056
_symmetry_Int_Tables_number   1
_chemical_formula_structural   Sr4Co2SnO9
_chemical_formula_sum   'Sr12 Co6 Sn3 O27'
_cell_volume   653.30216608
_cell_formula_units_Z   3
loop_
 _symmetry_equiv_pos_site_id
 _symmetry_equiv_pos_as_xyz
  1  'x, y, z'
loop_
 _atom_site_type_symbol
 _atom_site_label
 _atom_site_symmetry_multiplicity
 _atom_site_fract_x
 _atom_site_fract_y
 _atom_site_fract_z
 _atom_site_occupancy
  Sr  Sr0  1  0.367442  0.000000  0.000000  1
  Sr  Sr1  1  0.000000  0.367443  0.000000  1
  Sr  Sr2  1  0.632558  0.632558  0.000000  1
  Sr  Sr3  1  0.301378  0.336812  0.257463  1
  Sr  Sr4  1  0.035433  0.698621  0.257463  1
  Sr  Sr5  1  0.663188  0.964566  0.257463  1
  Sr  Sr6  1  0.325015  0.000000  0.499999  1
  Sr  Sr7  1  0.000000  0.325016  0.499999  1
  Sr  Sr8  1  0.674984  0.674984  0.499999  1
  Sr  Sr9  1  0.698621  0.035434  0.742535  1
  Sr  Sr10  1  0.336813  0.301378  0.742535  1
  Sr  Sr11  1  0.964566  0.663187  0.742535  1
  Co  Co12  1  0.333334  0.666667  0.102135  1
  Co  Co13  1  0.000000  0.000000  0.342605  1
  Co  Co14  1  0.333334  0.666667  0.418294  1
  Co  Co15  1  0.666667  0.333334  0.581704  1
  Co  Co16  1  0.000000  0.000000  0.657393  1
  Co  Co17  1  0.666667  0.333334  0.897863  1
  Sn  Sn18  1  0.000000  0.000000  0.000000  1
  Sn  Sn19  1  0.666667  0.333334  0.242029  1
  Sn  Sn20  1  0.333334  0.666667  0.757970  1
  O  O21  1  0.681651  0.183175  0.054102  1
  O  O22  1  0.501524  0.318349  0.054102  1
  O  O23  1  0.816825  0.498476  0.054102  1
  O  O24  1  0.161694  0.007022  0.186623  1
  O  O25  1  0.992977  0.154672  0.186623  1
  O  O26  1  0.845328  0.838305  0.186623  1
  O  O27  1  0.170119  0.520209  0.259993  1
  O  O28  1  0.479791  0.649911  0.259993  1
  O  O29  1  0.350088  0.829880  0.259993  1
  O  O30  1  0.684237  0.186949  0.428049  1
  O  O31  1  0.502711  0.315763  0.428049  1
  O  O32  1  0.813051  0.497289  0.428049  1
  O  O33  1  0.849249  0.000000  0.499999  1
  O  O34  1  0.150750  0.150751  0.499999  1
  O  O35  1  0.000000  0.849250  0.499999  1
  O  O36  1  0.315764  0.502712  0.571950  1
  O  O37  1  0.186950  0.684237  0.571950  1
  O  O38  1  0.497287  0.813050  0.571950  1
  O  O39  1  0.520209  0.170121  0.740005  1
  O  O40  1  0.829879  0.350087  0.740005  1
  O  O41  1  0.649912  0.479791  0.740005  1
  O  O42  1  0.007023  0.161694  0.813376  1
  O  O43  1  0.838305  0.845328  0.813376  1
  O  O44  1  0.154672  0.992977  0.813376  1
  O  O45  1  0.318349  0.501523  0.945896  1
  O  O46  1  0.183175  0.681651  0.945896  1
  O  O47  1  0.498476  0.816825  0.945896  1
