# generated using pymatgen
data_Ce(Nd2Ir)2
_symmetry_space_group_name_H-M   'P 1'
_cell_length_a   6.60630741
_cell_length_b   7.29381100
_cell_length_c   8.98776976
_cell_angle_alpha   97.15319257
_cell_angle_beta   111.56253853
_cell_angle_gamma   90.00000491
_symmetry_Int_Tables_number   1
_chemical_formula_structural   Ce(Nd2Ir)2
_chemical_formula_sum   'Ce2 Nd8 Ir4'
_cell_volume   399.14244455
_cell_formula_units_Z   2
loop_
 _symmetry_equiv_pos_site_id
 _symmetry_equiv_pos_as_xyz
  1  'x, y, z'
loop_
 _atom_site_type_symbol
 _atom_site_label
 _atom_site_symmetry_multiplicity
 _atom_site_fract_x
 _atom_site_fract_y
 _atom_site_fract_z
 _atom_site_occupancy
  Ce  Ce0  1  0.425510  0.250000  0.000000  1
  Ce  Ce1  1  0.574490  0.750000  0.000000  1
  Nd  Nd2  1  0.792125  0.077226  0.816003  1
  Nd  Nd3  1  0.976122  0.422774  0.183997  1
  Nd  Nd4  1  0.207875  0.922774  0.183997  1
  Nd  Nd5  1  0.023878  0.577226  0.816003  1
  Nd  Nd6  1  0.210734  0.185061  0.564347  1
  Nd  Nd7  1  0.646387  0.314939  0.435653  1
  Nd  Nd8  1  0.789266  0.814939  0.435653  1
  Nd  Nd9  1  0.353613  0.685061  0.564347  1
  Ir  Ir10  1  0.588787  0.431146  0.796800  1
  Ir  Ir11  1  0.791988  0.068854  0.203200  1
  Ir  Ir12  1  0.411213  0.568854  0.203200  1
  Ir  Ir13  1  0.208012  0.931146  0.796800  1
