# generated using pymatgen
data_Nd8Hg2PtRh
_symmetry_space_group_name_H-M   'P 1'
_cell_length_a   9.96751576
_cell_length_b   9.96751544
_cell_length_c   9.99326800
_cell_angle_alpha   59.91449006
_cell_angle_beta   59.91449115
_cell_angle_gamma   59.88327924
_symmetry_Int_Tables_number   1
_chemical_formula_structural   Nd8Hg2PtRh
_chemical_formula_sum   'Nd16 Hg4 Pt2 Rh2'
_cell_volume   700.51959442
_cell_formula_units_Z   2
loop_
 _symmetry_equiv_pos_site_id
 _symmetry_equiv_pos_as_xyz
  1  'x, y, z'
loop_
 _atom_site_type_symbol
 _atom_site_label
 _atom_site_symmetry_multiplicity
 _atom_site_fract_x
 _atom_site_fract_y
 _atom_site_fract_z
 _atom_site_occupancy
  Nd  Nd0  1  0.350142  0.350142  0.354027  1
  Nd  Nd1  1  0.350142  0.350142  0.945690  1
  Nd  Nd2  1  0.348434  0.947556  0.352006  1
  Nd  Nd3  1  0.947556  0.348434  0.352006  1
  Nd  Nd4  1  0.813676  0.189582  0.191490  1
  Nd  Nd5  1  0.189582  0.813676  0.805251  1
  Nd  Nd6  1  0.189582  0.813676  0.191490  1
  Nd  Nd7  1  0.813676  0.189582  0.805251  1
  Nd  Nd8  1  0.189727  0.189727  0.810273  1
  Nd  Nd9  1  0.808213  0.808213  0.191787  1
  Nd  Nd10  1  0.937308  0.562017  0.564463  1
  Nd  Nd11  1  0.562017  0.937308  0.936212  1
  Nd  Nd12  1  0.562017  0.937308  0.564463  1
  Nd  Nd13  1  0.937308  0.562017  0.936212  1
  Nd  Nd14  1  0.562110  0.562110  0.937890  1
  Nd  Nd15  1  0.936493  0.936493  0.563507  1
  Hg  Hg16  1  0.584113  0.584113  0.583519  1
  Hg  Hg17  1  0.584113  0.584113  0.248253  1
  Hg  Hg18  1  0.585252  0.246155  0.584296  1
  Hg  Hg19  1  0.246155  0.585252  0.584296  1
  Pt  Pt20  1  0.144946  0.570105  0.142474  1
  Pt  Pt21  1  0.570105  0.144946  0.142474  1
  Rh  Rh22  1  0.143667  0.143667  0.141534  1
  Rh  Rh23  1  0.143667  0.143667  0.571134  1
