# generated using pymatgen
data_Lu2Hf5ReF30
_symmetry_space_group_name_H-M   'P 1'
_cell_length_a   8.04583736
_cell_length_b   8.04583700
_cell_length_c   8.04262860
_cell_angle_alpha   79.87852102
_cell_angle_beta   79.87852656
_cell_angle_gamma   100.18649315
_symmetry_Int_Tables_number   1
_chemical_formula_structural   Lu2Hf5ReF30
_chemical_formula_sum   'Lu2 Hf5 Re1 F30'
_cell_volume   492.83622248
_cell_formula_units_Z   1
loop_
 _symmetry_equiv_pos_site_id
 _symmetry_equiv_pos_as_xyz
  1  'x, y, z'
loop_
 _atom_site_type_symbol
 _atom_site_label
 _atom_site_symmetry_multiplicity
 _atom_site_fract_x
 _atom_site_fract_y
 _atom_site_fract_z
 _atom_site_occupancy
  Lu  Lu0  1  0.677575  0.322425  0.750000  1
  Lu  Lu1  1  0.322502  0.677498  0.250000  1
  Hf  Hf2  1  0.749131  0.250869  0.250000  1
  Hf  Hf3  1  0.822062  0.750128  0.325383  1
  Hf  Hf4  1  0.249872  0.177938  0.174617  1
  Hf  Hf5  1  0.177250  0.249905  0.674013  1
  Hf  Hf6  1  0.750095  0.822750  0.825987  1
  Re  Re7  1  0.249939  0.750061  0.750000  1
  F  F8  1  0.150858  0.185340  0.946325  1
  F  F9  1  0.687442  0.562886  0.848154  1
  F  F10  1  0.041402  0.654667  0.315333  1
  F  F11  1  0.654118  0.040637  0.816595  1
  F  F12  1  0.561815  0.685474  0.348420  1
  F  F13  1  0.183165  0.149987  0.447967  1
  F  F14  1  0.850013  0.816835  0.052033  1
  F  F15  1  0.314526  0.438185  0.151580  1
  F  F16  1  0.959363  0.345882  0.683405  1
  F  F17  1  0.345333  0.958598  0.184667  1
  F  F18  1  0.437114  0.312558  0.651846  1
  F  F19  1  0.814660  0.849142  0.553675  1
  F  F20  1  0.967144  0.032856  0.750000  1
  F  F21  1  0.542920  0.752250  0.029290  1
  F  F22  1  0.247750  0.457080  0.470710  1
  F  F23  1  0.456992  0.247473  0.970622  1
  F  F24  1  0.752527  0.543008  0.529378  1
  F  F25  1  0.033437  0.966563  0.250000  1
  F  F26  1  0.217608  0.725886  0.002317  1
  F  F27  1  0.225678  0.495513  0.783546  1
  F  F28  1  0.994849  0.719832  0.775354  1
  F  F29  1  0.722959  0.992501  0.275697  1
  F  F30  1  0.491753  0.224706  0.281176  1
  F  F31  1  0.726147  0.219563  0.504299  1
  F  F32  1  0.780437  0.273853  0.995701  1
  F  F33  1  0.775294  0.508247  0.218824  1
  F  F34  1  0.007499  0.277041  0.224303  1
  F  F35  1  0.280168  0.005151  0.724646  1
  F  F36  1  0.504487  0.774322  0.716454  1
  F  F37  1  0.274114  0.782392  0.497683  1
