# generated using pymatgen
data_Li6In5Rh12W
_symmetry_space_group_name_H-M   'P 1'
_cell_length_a   4.37581304
_cell_length_b   6.28300800
_cell_length_c   13.15995613
_cell_angle_alpha   90.00000000
_cell_angle_beta   89.98399741
_cell_angle_gamma   90.00000000
_symmetry_Int_Tables_number   1
_chemical_formula_structural   Li6In5Rh12W
_chemical_formula_sum   'Li6 In5 Rh12 W1'
_cell_volume   361.81019125
_cell_formula_units_Z   1
loop_
 _symmetry_equiv_pos_site_id
 _symmetry_equiv_pos_as_xyz
  1  'x, y, z'
loop_
 _atom_site_type_symbol
 _atom_site_label
 _atom_site_symmetry_multiplicity
 _atom_site_fract_x
 _atom_site_fract_y
 _atom_site_fract_z
 _atom_site_occupancy
  Li  Li0  1  0.000000  0.500000  0.000000  1
  Li  Li1  1  0.499892  0.000000  0.167657  1
  Li  Li2  1  0.999822  0.500000  0.332470  1
  Li  Li3  1  0.500000  0.000000  0.500000  1
  Li  Li4  1  0.000178  0.500000  0.667530  1
  Li  Li5  1  0.500108  0.000000  0.832343  1
  In  In6  1  0.499834  0.500000  0.167336  1
  In  In7  1  0.999819  0.000000  0.332314  1
  In  In8  1  0.500000  0.500000  0.500000  1
  In  In9  1  0.000181  0.000000  0.667686  1
  In  In10  1  0.500166  0.500000  0.832663  1
  Rh  Rh11  1  0.500000  0.232291  0.000000  1
  Rh  Rh12  1  0.500000  0.767710  0.000000  1
  Rh  Rh13  1  0.999873  0.237988  0.155888  1
  Rh  Rh14  1  0.999873  0.762012  0.155888  1
  Rh  Rh15  1  0.499844  0.249443  0.331946  1
  Rh  Rh16  1  0.499844  0.750556  0.331946  1
  Rh  Rh17  1  0.000000  0.249687  0.500000  1
  Rh  Rh18  1  0.000000  0.750314  0.500000  1
  Rh  Rh19  1  0.500156  0.249443  0.668054  1
  Rh  Rh20  1  0.500156  0.750556  0.668054  1
  Rh  Rh21  1  0.000127  0.237988  0.844112  1
  Rh  Rh22  1  0.000127  0.762012  0.844112  1
  W  W23  1  0.000000  0.000000  0.000000  1
