# generated using pymatgen
data_LiTa2Nb(CoP)4
_symmetry_space_group_name_H-M   'P 1'
_cell_length_a   3.57107500
_cell_length_b   6.10070648
_cell_length_c   6.92473509
_cell_angle_alpha   90.37140387
_cell_angle_beta   90.00000000
_cell_angle_gamma   90.00000000
_symmetry_Int_Tables_number   1
_chemical_formula_structural   LiTa2Nb(CoP)4
_chemical_formula_sum   'Li1 Ta2 Nb1 Co4 P4'
_cell_volume   150.85966571
_cell_formula_units_Z   1
loop_
 _symmetry_equiv_pos_site_id
 _symmetry_equiv_pos_as_xyz
  1  'x, y, z'
loop_
 _atom_site_type_symbol
 _atom_site_label
 _atom_site_symmetry_multiplicity
 _atom_site_fract_x
 _atom_site_fract_y
 _atom_site_fract_z
 _atom_site_occupancy
  Li  Li0  1  0.250000  0.025459  0.822614  1
  Ta  Ta1  1  0.250000  0.522486  0.676203  1
  Ta  Ta2  1  0.750000  0.471404  0.323143  1
  Nb  Nb3  1  0.750000  0.974427  0.175147  1
  Co  Co4  1  0.250000  0.145712  0.442532  1
  Co  Co5  1  0.250000  0.635090  0.060876  1
  Co  Co6  1  0.750000  0.855197  0.565233  1
  Co  Co7  1  0.750000  0.364881  0.936357  1
  P  P8  1  0.250000  0.267982  0.111701  1
  P  P9  1  0.250000  0.775299  0.378906  1
  P  P10  1  0.750000  0.741431  0.878028  1
  P  P11  1  0.750000  0.220633  0.629260  1
