# generated using pymatgen
data_Ca5Y(Si3Os)8
_symmetry_space_group_name_H-M   'P 1'
_cell_length_a   10.19115928
_cell_length_b   10.19115887
_cell_length_c   8.20801800
_cell_angle_alpha   90.00042065
_cell_angle_beta   90.00041742
_cell_angle_gamma   132.53220107
_symmetry_Int_Tables_number   1
_chemical_formula_structural   Ca5Y(Si3Os)8
_chemical_formula_sum   'Ca5 Y1 Si24 Os8'
_cell_volume   628.19223191
_cell_formula_units_Z   1
loop_
 _symmetry_equiv_pos_site_id
 _symmetry_equiv_pos_as_xyz
  1  'x, y, z'
loop_
 _atom_site_type_symbol
 _atom_site_label
 _atom_site_symmetry_multiplicity
 _atom_site_fract_x
 _atom_site_fract_y
 _atom_site_fract_z
 _atom_site_occupancy
  Ca  Ca0  1  0.000000  0.000000  0.000000  1
  Ca  Ca1  1  0.000516  0.500390  0.249920  1
  Ca  Ca2  1  0.499610  0.999484  0.750080  1
  Ca  Ca3  1  0.999484  0.499610  0.750080  1
  Ca  Ca4  1  0.500390  0.000516  0.249920  1
  Y  Y5  1  0.500000  0.500000  0.500000  1
  Si  Si6  1  0.293905  0.706095  0.000000  1
  Si  Si7  1  0.793730  0.206270  0.500000  1
  Si  Si8  1  0.706095  0.293905  0.000000  1
  Si  Si9  1  0.206270  0.793730  0.500000  1
  Si  Si10  1  0.835092  0.835092  0.330762  1
  Si  Si11  1  0.164908  0.164908  0.669238  1
  Si  Si12  1  0.667666  0.667666  0.833456  1
  Si  Si13  1  0.332334  0.332334  0.166544  1
  Si  Si14  1  0.624336  0.389897  0.228422  1
  Si  Si15  1  0.610103  0.375664  0.771578  1
  Si  Si16  1  0.109454  0.875719  0.729725  1
  Si  Si17  1  0.124281  0.890546  0.270275  1
  Si  Si18  1  0.375664  0.610103  0.771578  1
  Si  Si19  1  0.389897  0.624336  0.228422  1
  Si  Si20  1  0.890546  0.124281  0.270275  1
  Si  Si21  1  0.875719  0.109454  0.729725  1
  Si  Si22  1  0.846849  0.613233  0.007554  1
  Si  Si23  1  0.386767  0.153151  0.992446  1
  Si  Si24  1  0.890168  0.654865  0.506794  1
  Si  Si25  1  0.345135  0.109832  0.493206  1
  Si  Si26  1  0.153151  0.386767  0.992446  1
  Si  Si27  1  0.613233  0.846849  0.007554  1
  Si  Si28  1  0.109832  0.345135  0.493206  1
  Si  Si29  1  0.654865  0.890168  0.506794  1
  Os  Os30  1  0.168981  0.831019  0.000000  1
  Os  Os31  1  0.668141  0.331859  0.500000  1
  Os  Os32  1  0.831019  0.168981  0.000000  1
  Os  Os33  1  0.331859  0.668141  0.500000  1
  Os  Os34  1  0.625452  0.625452  0.127384  1
  Os  Os35  1  0.374548  0.374548  0.872616  1
  Os  Os36  1  0.870678  0.870678  0.623246  1
  Os  Os37  1  0.129322  0.129322  0.376754  1
