# generated using pymatgen
data_Cs3SmNpBr9
_symmetry_space_group_name_H-M   'P 1'
_cell_length_a   10.62594474
_cell_length_b   10.62581098
_cell_length_c   10.62584303
_cell_angle_alpha   83.41398317
_cell_angle_beta   83.41430154
_cell_angle_gamma   83.41398812
_symmetry_Int_Tables_number   1
_chemical_formula_structural   Cs3SmNpBr9
_chemical_formula_sum   'Cs6 Sm2 Np2 Br18'
_cell_volume   1177.69026827
_cell_formula_units_Z   2
loop_
 _symmetry_equiv_pos_site_id
 _symmetry_equiv_pos_as_xyz
  1  'x, y, z'
loop_
 _atom_site_type_symbol
 _atom_site_label
 _atom_site_symmetry_multiplicity
 _atom_site_fract_x
 _atom_site_fract_y
 _atom_site_fract_z
 _atom_site_occupancy
  Cs  Cs0  1  0.751491  0.412196  0.087858  1
  Cs  Cs1  1  0.087858  0.751490  0.412195  1
  Cs  Cs2  1  0.248509  0.587804  0.912142  1
  Cs  Cs3  1  0.412194  0.087859  0.751491  1
  Cs  Cs4  1  0.912142  0.248510  0.587805  1
  Cs  Cs5  1  0.587806  0.912141  0.248509  1
  Sm  Sm6  1  0.848625  0.848625  0.848625  1
  Sm  Sm7  1  0.151375  0.151375  0.151375  1
  Np  Np8  1  0.348400  0.348398  0.348398  1
  Np  Np9  1  0.651600  0.651602  0.651602  1
  Br  Br10  1  0.415225  0.766298  0.580062  1
  Br  Br11  1  0.233704  0.419936  0.584773  1
  Br  Br12  1  0.404704  0.248892  0.093375  1
  Br  Br13  1  0.093375  0.404706  0.248892  1
  Br  Br14  1  0.918329  0.733808  0.082279  1
  Br  Br15  1  0.917721  0.081671  0.266192  1
  Br  Br16  1  0.595296  0.751108  0.906625  1
  Br  Br17  1  0.751108  0.906624  0.595294  1
  Br  Br18  1  0.580063  0.415229  0.766296  1
  Br  Br19  1  0.248892  0.093376  0.404706  1
  Br  Br20  1  0.766296  0.580064  0.415227  1
  Br  Br21  1  0.733807  0.082278  0.918329  1
  Br  Br22  1  0.081671  0.266192  0.917721  1
  Br  Br23  1  0.419937  0.584771  0.233704  1
  Br  Br24  1  0.584775  0.233702  0.419938  1
  Br  Br25  1  0.906625  0.595294  0.751108  1
  Br  Br26  1  0.266193  0.917722  0.081671  1
  Br  Br27  1  0.082279  0.918329  0.733808  1
