# generated using pymatgen
data_K4Sr(BeAs)10
_symmetry_space_group_name_H-M   'P 1'
_cell_length_a   9.19397155
_cell_length_b   9.19422814
_cell_length_c   9.18421048
_cell_angle_alpha   126.78857673
_cell_angle_beta   126.66253279
_cell_angle_gamma   78.77476781
_symmetry_Int_Tables_number   1
_chemical_formula_structural   K4Sr(BeAs)10
_chemical_formula_sum   'K4 Sr1 Be10 As10'
_cell_volume   482.43823497
_cell_formula_units_Z   1
loop_
 _symmetry_equiv_pos_site_id
 _symmetry_equiv_pos_as_xyz
  1  'x, y, z'
loop_
 _atom_site_type_symbol
 _atom_site_label
 _atom_site_symmetry_multiplicity
 _atom_site_fract_x
 _atom_site_fract_y
 _atom_site_fract_z
 _atom_site_occupancy
  K  K0  1  0.406749  0.795830  0.202578  1
  K  K1  1  0.795817  0.593244  0.389062  1
  K  K2  1  0.204180  0.406754  0.610934  1
  K  K3  1  0.593257  0.204172  0.797425  1
  Sr  Sr4  1  0.000000  0.999999  0.999999  1
  Be  Be5  1  0.947218  0.647115  0.098346  1
  Be  Be6  1  0.352482  0.450795  0.300075  1
  Be  Be7  1  0.749807  0.249791  0.499993  1
  Be  Be8  1  0.150725  0.052372  0.699901  1
  Be  Be9  1  0.548778  0.848848  0.901634  1
  Be  Be10  1  0.647518  0.549206  0.699928  1
  Be  Be11  1  0.052780  0.352883  0.901657  1
  Be  Be12  1  0.451225  0.151154  0.098365  1
  Be  Be13  1  0.849271  0.947626  0.300098  1
  Be  Be14  1  0.250195  0.750211  0.500010  1
  As  As15  1  0.945541  0.551090  0.800292  1
  As  As16  1  0.348939  0.348949  0.999999  1
  As  As17  1  0.750801  0.145251  0.199709  1
  As  As18  1  0.145245  0.945454  0.394342  1
  As  As19  1  0.551103  0.750899  0.605645  1
  As  As20  1  0.651054  0.651053  0.999997  1
  As  As21  1  0.054460  0.448909  0.199714  1
  As  As22  1  0.448898  0.249100  0.394352  1
  As  As23  1  0.854754  0.054542  0.605654  1
  As  As24  1  0.249201  0.854752  0.800294  1
