# generated using pymatgen
data_YCo2P3Ru2Rh
_symmetry_space_group_name_H-M   'P 1'
_cell_length_a   3.79680200
_cell_length_b   10.71673000
_cell_length_c   12.01596200
_cell_angle_alpha   90.00000000
_cell_angle_beta   90.00000000
_cell_angle_gamma   90.00000000
_symmetry_Int_Tables_number   1
_chemical_formula_structural   YCo2P3Ru2Rh
_chemical_formula_sum   'Y4 Co8 P12 Ru8 Rh4'
_cell_volume   488.92110541
_cell_formula_units_Z   4
loop_
 _symmetry_equiv_pos_site_id
 _symmetry_equiv_pos_as_xyz
  1  'x, y, z'
loop_
 _atom_site_type_symbol
 _atom_site_label
 _atom_site_symmetry_multiplicity
 _atom_site_fract_x
 _atom_site_fract_y
 _atom_site_fract_z
 _atom_site_occupancy
  Y  Y0  1  0.250000  0.915983  0.206216  1
  Y  Y1  1  0.750000  0.084017  0.793784  1
  Y  Y2  1  0.750000  0.415983  0.293784  1
  Y  Y3  1  0.250000  0.584017  0.706216  1
  Co  Co4  1  0.250000  0.613224  0.199272  1
  Co  Co5  1  0.750000  0.386776  0.800728  1
  Co  Co6  1  0.750000  0.113224  0.300728  1
  Co  Co7  1  0.250000  0.886776  0.699272  1
  Co  Co8  1  0.250000  0.036288  0.432178  1
  Co  Co9  1  0.750000  0.963712  0.567822  1
  Co  Co10  1  0.750000  0.536288  0.067822  1
  Co  Co11  1  0.250000  0.463712  0.932178  1
  P  P12  1  0.250000  0.069272  0.611894  1
  P  P13  1  0.750000  0.930728  0.388106  1
  P  P14  1  0.750000  0.569272  0.888106  1
  P  P15  1  0.250000  0.430728  0.111894  1
  P  P16  1  0.250000  0.228004  0.376184  1
  P  P17  1  0.750000  0.771996  0.623816  1
  P  P18  1  0.750000  0.728004  0.123816  1
  P  P19  1  0.250000  0.271996  0.876184  1
  P  P20  1  0.250000  0.902118  0.889135  1
  P  P21  1  0.750000  0.097882  0.110865  1
  P  P22  1  0.750000  0.402118  0.610865  1
  P  P23  1  0.250000  0.597882  0.389135  1
  Ru  Ru24  1  0.250000  0.788924  0.489547  1
  Ru  Ru25  1  0.750000  0.211076  0.510453  1
  Ru  Ru26  1  0.750000  0.288924  0.010453  1
  Ru  Ru27  1  0.250000  0.711076  0.989547  1
  Ru  Ru28  1  0.250000  0.094841  0.988783  1
  Ru  Ru29  1  0.750000  0.905159  0.011217  1
  Ru  Ru30  1  0.750000  0.594841  0.511217  1
  Ru  Ru31  1  0.250000  0.405159  0.488783  1
  Rh  Rh32  1  0.250000  0.270578  0.683059  1
  Rh  Rh33  1  0.750000  0.729422  0.316941  1
  Rh  Rh34  1  0.750000  0.770578  0.816941  1
  Rh  Rh35  1  0.250000  0.229422  0.183059  1
