# generated using pymatgen
data_DyEr3Al8
_symmetry_space_group_name_H-M   'P 1'
_cell_length_a   9.60407182
_cell_length_b   9.60407144
_cell_length_c   9.60407038
_cell_angle_alpha   33.52925876
_cell_angle_beta   33.52925907
_cell_angle_gamma   33.52925974
_symmetry_Int_Tables_number   1
_chemical_formula_structural   DyEr3Al8
_chemical_formula_sum   'Dy1 Er3 Al8'
_cell_volume   240.73419932
_cell_formula_units_Z   1
loop_
 _symmetry_equiv_pos_site_id
 _symmetry_equiv_pos_as_xyz
  1  'x, y, z'
loop_
 _atom_site_type_symbol
 _atom_site_label
 _atom_site_symmetry_multiplicity
 _atom_site_fract_x
 _atom_site_fract_y
 _atom_site_fract_z
 _atom_site_occupancy
  Dy  Dy0  1  0.687434  0.687434  0.687434  1
  Er  Er1  1  0.187447  0.187447  0.187447  1
  Er  Er2  1  0.812604  0.812604  0.812604  1
  Er  Er3  1  0.312506  0.312506  0.312506  1
  Al  Al4  1  0.000002  0.000002  0.000002  1
  Al  Al5  1  0.500013  0.500013  0.500013  1
  Al  Al6  1  0.750027  0.249968  0.249968  1
  Al  Al7  1  0.250078  0.749976  0.749976  1
  Al  Al8  1  0.249968  0.750027  0.249968  1
  Al  Al9  1  0.749976  0.250078  0.749976  1
  Al  Al10  1  0.249968  0.249968  0.750027  1
  Al  Al11  1  0.749976  0.749976  0.250078  1
