# generated using pymatgen
data_HoEr11ZnCo4Sn
_symmetry_space_group_name_H-M   'P 1'
_cell_length_a   8.23639426
_cell_length_b   8.23697430
_cell_length_c   8.23639514
_cell_angle_alpha   111.99297561
_cell_angle_beta   109.42269205
_cell_angle_gamma   107.03318505
_symmetry_Int_Tables_number   1
_chemical_formula_structural   HoEr11ZnCo4Sn
_chemical_formula_sum   'Ho1 Er11 Zn1 Co4 Sn1'
_cell_volume   429.35849145
_cell_formula_units_Z   1
loop_
 _symmetry_equiv_pos_site_id
 _symmetry_equiv_pos_as_xyz
  1  'x, y, z'
loop_
 _atom_site_type_symbol
 _atom_site_label
 _atom_site_symmetry_multiplicity
 _atom_site_fract_x
 _atom_site_fract_y
 _atom_site_fract_z
 _atom_site_occupancy
  Ho  Ho0  1  0.676900  0.987354  0.310453  1
  Er  Er1  1  0.428630  0.228131  0.200883  1
  Er  Er2  1  0.571209  0.771992  0.798957  1
  Er  Er3  1  0.027248  0.228131  0.799501  1
  Er  Er4  1  0.973035  0.771992  0.200784  1
  Er  Er5  1  0.182164  0.284002  0.466021  1
  Er  Er6  1  0.818036  0.715942  0.534120  1
  Er  Er7  1  0.181824  0.715942  0.897906  1
  Er  Er8  1  0.817978  0.284002  0.101838  1
  Er  Er9  1  0.323106  0.633832  0.310726  1
  Er  Er10  1  0.676797  0.366288  0.689491  1
  Er  Er11  1  0.323219  0.012386  0.689168  1
  Zn  Zn12  1  0.999993  0.999988  0.999995  1
  Co  Co13  1  0.347908  0.000014  0.348167  1
  Co  Co14  1  0.651846  0.000014  0.652106  1
  Co  Co15  1  0.114818  0.614756  0.499938  1
  Co  Co16  1  0.885390  0.385503  0.500113  1
  Sn  Sn17  1  0.499900  0.499731  0.999832  1
