# generated using pymatgen
data_Pr3In2Ag
_symmetry_space_group_name_H-M   'P 1'
_cell_length_a   3.71148900
_cell_length_b   3.71148900
_cell_length_c   12.63486900
_cell_angle_alpha   90.00000000
_cell_angle_beta   90.00000000
_cell_angle_gamma   90.00000000
_symmetry_Int_Tables_number   1
_chemical_formula_structural   Pr3In2Ag
_chemical_formula_sum   'Pr3 In2 Ag1'
_cell_volume   174.04722325
_cell_formula_units_Z   1
loop_
 _symmetry_equiv_pos_site_id
 _symmetry_equiv_pos_as_xyz
  1  'x, y, z'
loop_
 _atom_site_type_symbol
 _atom_site_label
 _atom_site_symmetry_multiplicity
 _atom_site_fract_x
 _atom_site_fract_y
 _atom_site_fract_z
 _atom_site_occupancy
  Pr  Pr0  1  0.000000  0.000000  0.000000  1
  Pr  Pr1  1  0.000000  0.000000  0.342646  1
  Pr  Pr2  1  0.000000  0.000000  0.657354  1
  In  In3  1  0.500000  0.500000  0.174634  1
  In  In4  1  0.500000  0.500000  0.825366  1
  Ag  Ag5  1  0.500000  0.500000  0.500000  1
