# generated using pymatgen
data_Pr8Zr12Si15P
_symmetry_space_group_name_H-M   'P 1'
_cell_length_a   7.25998433
_cell_length_b   7.46290159
_cell_length_c   14.17496900
_cell_angle_alpha   90.00000000
_cell_angle_beta   90.00000000
_cell_angle_gamma   90.06962812
_symmetry_Int_Tables_number   1
_chemical_formula_structural   Pr8Zr12Si15P
_chemical_formula_sum   'Pr8 Zr12 Si15 P1'
_cell_volume   768.00702929
_cell_formula_units_Z   1
loop_
 _symmetry_equiv_pos_site_id
 _symmetry_equiv_pos_as_xyz
  1  'x, y, z'
loop_
 _atom_site_type_symbol
 _atom_site_label
 _atom_site_symmetry_multiplicity
 _atom_site_fract_x
 _atom_site_fract_y
 _atom_site_fract_z
 _atom_site_occupancy
  Pr  Pr0  1  0.013238  0.172744  0.403087  1
  Pr  Pr1  1  0.513084  0.327360  0.403531  1
  Pr  Pr2  1  0.485748  0.674118  0.901231  1
  Pr  Pr3  1  0.485748  0.674118  0.598769  1
  Pr  Pr4  1  0.989499  0.828085  0.599970  1
  Pr  Pr5  1  0.989499  0.828085  0.900030  1
  Pr  Pr6  1  0.513084  0.327360  0.096469  1
  Pr  Pr7  1  0.013238  0.172744  0.096913  1
  Zr  Zr8  1  0.327182  0.172374  0.626492  1
  Zr  Zr9  1  0.670415  0.823664  0.374975  1
  Zr  Zr10  1  0.656430  0.002473  0.750000  1
  Zr  Zr11  1  0.170430  0.676857  0.375159  1
  Zr  Zr12  1  0.827743  0.324409  0.875965  1
  Zr  Zr13  1  0.827743  0.324409  0.624035  1
  Zr  Zr14  1  0.842505  0.505937  0.250000  1
  Zr  Zr15  1  0.342173  0.995027  0.250000  1
  Zr  Zr16  1  0.327182  0.172374  0.873508  1
  Zr  Zr17  1  0.170430  0.676857  0.124841  1
  Zr  Zr18  1  0.670415  0.823664  0.125025  1
  Zr  Zr19  1  0.158146  0.493105  0.750000  1
  Si  Si20  1  0.466211  0.625504  0.250000  1
  Si  Si21  1  0.026174  0.133613  0.750000  1
  Si  Si22  1  0.533987  0.372453  0.750000  1
  Si  Si23  1  0.152247  0.464561  0.541927  1
  Si  Si24  1  0.966539  0.874160  0.250000  1
  Si  Si25  1  0.714768  0.117424  0.250000  1
  Si  Si26  1  0.849279  0.536545  0.040618  1
  Si  Si27  1  0.349536  0.964610  0.041060  1
  Si  Si28  1  0.152247  0.464561  0.958073  1
  Si  Si29  1  0.651029  0.034493  0.541823  1
  Si  Si30  1  0.349536  0.964610  0.458940  1
  Si  Si31  1  0.849279  0.536545  0.459382  1
  Si  Si32  1  0.786198  0.616290  0.750000  1
  Si  Si33  1  0.215118  0.383142  0.250000  1
  Si  Si34  1  0.651029  0.034493  0.958177  1
  P  P35  1  0.292893  0.881237  0.750000  1
