# generated using pymatgen
data_TbHoMgB2Rh5
_symmetry_space_group_name_H-M   'P 1'
_cell_length_a   9.64310014
_cell_length_b   9.64310014
_cell_length_c   3.18849400
_cell_angle_alpha   90.00000000
_cell_angle_beta   90.00000000
_cell_angle_gamma   89.79036712
_symmetry_Int_Tables_number   1
_chemical_formula_structural   TbHoMgB2Rh5
_chemical_formula_sum   'Tb2 Ho2 Mg2 B4 Rh10'
_cell_volume   296.49409640
_cell_formula_units_Z   2
loop_
 _symmetry_equiv_pos_site_id
 _symmetry_equiv_pos_as_xyz
  1  'x, y, z'
loop_
 _atom_site_type_symbol
 _atom_site_label
 _atom_site_symmetry_multiplicity
 _atom_site_fract_x
 _atom_site_fract_y
 _atom_site_fract_z
 _atom_site_occupancy
  Tb  Tb0  1  0.675616  0.175616  0.000000  1
  Tb  Tb1  1  0.324384  0.824384  0.000000  1
  Ho  Ho2  1  0.175691  0.324309  0.000000  1
  Ho  Ho3  1  0.824309  0.675691  0.000000  1
  Mg  Mg4  1  0.000000  0.000000  0.000000  1
  Mg  Mg5  1  0.500000  0.500000  0.000000  1
  B  B6  1  0.122334  0.622334  0.000000  1
  B  B7  1  0.877666  0.377666  0.000000  1
  B  B8  1  0.622738  0.877262  0.000000  1
  B  B9  1  0.377262  0.122738  0.000000  1
  Rh  Rh10  1  0.500000  0.000000  0.500000  1
  Rh  Rh11  1  0.000000  0.500000  0.500000  1
  Rh  Rh12  1  0.223886  0.071365  0.500000  1
  Rh  Rh13  1  0.776114  0.928635  0.500000  1
  Rh  Rh14  1  0.069563  0.775264  0.500000  1
  Rh  Rh15  1  0.724736  0.430437  0.500000  1
  Rh  Rh16  1  0.930437  0.224736  0.500000  1
  Rh  Rh17  1  0.275264  0.569563  0.500000  1
  Rh  Rh18  1  0.571365  0.723886  0.500000  1
  Rh  Rh19  1  0.428635  0.276114  0.500000  1
