# generated using pymatgen
data_YbTh(InRh)2
_symmetry_space_group_name_H-M   'P 1'
_cell_length_a   4.10935800
_cell_length_b   7.40831079
_cell_length_c   8.84412134
_cell_angle_alpha   90.58190760
_cell_angle_beta   90.00000000
_cell_angle_gamma   90.00000000
_symmetry_Int_Tables_number   1
_chemical_formula_structural   YbTh(InRh)2
_chemical_formula_sum   'Yb2 Th2 In4 Rh4'
_cell_volume   269.23124824
_cell_formula_units_Z   2
loop_
 _symmetry_equiv_pos_site_id
 _symmetry_equiv_pos_as_xyz
  1  'x, y, z'
loop_
 _atom_site_type_symbol
 _atom_site_label
 _atom_site_symmetry_multiplicity
 _atom_site_fract_x
 _atom_site_fract_y
 _atom_site_fract_z
 _atom_site_occupancy
  Yb  Yb0  1  0.250000  0.531021  0.321430  1
  Yb  Yb1  1  0.750000  0.468979  0.678570  1
  Th  Th2  1  0.250000  0.034511  0.183975  1
  Th  Th3  1  0.750000  0.965489  0.816025  1
  In  In4  1  0.750000  0.370256  0.062262  1
  In  In5  1  0.250000  0.629744  0.937738  1
  In  In6  1  0.750000  0.843992  0.443260  1
  In  In7  1  0.250000  0.156008  0.556740  1
  Rh  Rh8  1  0.250000  0.768372  0.648678  1
  Rh  Rh9  1  0.750000  0.231628  0.351322  1
  Rh  Rh10  1  0.250000  0.232754  0.872016  1
  Rh  Rh11  1  0.750000  0.767246  0.127984  1
