# generated using pymatgen
data_Gd2MoIr2Ru
_symmetry_space_group_name_H-M   'P 1'
_cell_length_a   5.24346263
_cell_length_b   5.61869589
_cell_length_c   5.63042300
_cell_angle_alpha   60.06887027
_cell_angle_beta   56.51011502
_cell_angle_gamma   57.60310684
_symmetry_Int_Tables_number   1
_chemical_formula_structural   Gd2MoIr2Ru
_chemical_formula_sum   'Gd2 Mo1 Ir2 Ru1'
_cell_volume   111.83452491
_cell_formula_units_Z   1
loop_
 _symmetry_equiv_pos_site_id
 _symmetry_equiv_pos_as_xyz
  1  'x, y, z'
loop_
 _atom_site_type_symbol
 _atom_site_label
 _atom_site_symmetry_multiplicity
 _atom_site_fract_x
 _atom_site_fract_y
 _atom_site_fract_z
 _atom_site_occupancy
  Gd  Gd0  1  0.746459  0.752663  0.748214  1
  Gd  Gd1  1  0.503541  0.497337  0.501786  1
  Mo  Mo2  1  0.625000  0.125000  0.125000  1
  Ir  Ir3  1  0.125000  0.625000  0.125000  1
  Ir  Ir4  1  0.125000  0.125000  0.125000  1
  Ru  Ru5  1  0.125000  0.125000  0.625000  1
