# generated using pymatgen
data_SmU3(ReB6)2
_symmetry_space_group_name_H-M   'P 1'
_cell_length_a   3.65449000
_cell_length_b   9.32306926
_cell_length_c   11.42633155
_cell_angle_alpha   90.05960147
_cell_angle_beta   90.00000000
_cell_angle_gamma   90.00000000
_symmetry_Int_Tables_number   1
_chemical_formula_structural   SmU3(ReB6)2
_chemical_formula_sum   'Sm2 U6 Re4 B24'
_cell_volume   389.30705570
_cell_formula_units_Z   2
loop_
 _symmetry_equiv_pos_site_id
 _symmetry_equiv_pos_as_xyz
  1  'x, y, z'
loop_
 _atom_site_type_symbol
 _atom_site_label
 _atom_site_symmetry_multiplicity
 _atom_site_fract_x
 _atom_site_fract_y
 _atom_site_fract_z
 _atom_site_occupancy
  Sm  Sm0  1  0.000000  0.336467  0.407689  1
  Sm  Sm1  1  0.000000  0.663533  0.592311  1
  U  U2  1  0.000000  0.836556  0.092434  1
  U  U3  1  0.000000  0.163444  0.907566  1
  U  U4  1  0.000000  0.956704  0.396127  1
  U  U5  1  0.000000  0.043296  0.603873  1
  U  U6  1  0.000000  0.457446  0.103219  1
  U  U7  1  0.000000  0.542554  0.896781  1
  Re  Re8  1  0.000000  0.649084  0.315041  1
  Re  Re9  1  0.000000  0.350916  0.684959  1
  Re  Re10  1  0.000000  0.142942  0.177189  1
  Re  Re11  1  0.000000  0.857058  0.822811  1
  B  B12  1  0.500000  0.554000  0.429166  1
  B  B13  1  0.500000  0.446000  0.570834  1
  B  B14  1  0.500000  0.049904  0.067302  1
  B  B15  1  0.500000  0.950096  0.932698  1
  B  B16  1  0.500000  0.744491  0.421845  1
  B  B17  1  0.500000  0.255509  0.578155  1
  B  B18  1  0.500000  0.242874  0.076099  1
  B  B19  1  0.500000  0.757126  0.923901  1
  B  B20  1  0.500000  0.804636  0.272709  1
  B  B21  1  0.500000  0.195364  0.727291  1
  B  B22  1  0.500000  0.301809  0.224149  1
  B  B23  1  0.500000  0.698191  0.775851  1
  B  B24  1  0.500000  0.646078  0.187042  1
  B  B25  1  0.500000  0.353922  0.812958  1
  B  B26  1  0.500000  0.143586  0.310850  1
  B  B27  1  0.500000  0.856414  0.689150  1
  B  B28  1  0.500000  0.987273  0.218522  1
  B  B29  1  0.500000  0.012727  0.781478  1
  B  B30  1  0.500000  0.490175  0.279353  1
  B  B31  1  0.500000  0.509825  0.720647  1
  B  B32  1  0.500000  0.643509  0.039034  1
  B  B33  1  0.500000  0.356491  0.960966  1
  B  B34  1  0.500000  0.137821  0.461505  1
  B  B35  1  0.500000  0.862179  0.538495  1
