# generated using pymatgen
data_Cs2Gd(SiO3)3
_symmetry_space_group_name_H-M   'P 1'
_cell_length_a   7.51287400
_cell_length_b   7.51287286
_cell_length_c   10.91418600
_cell_angle_alpha   90.00000000
_cell_angle_beta   90.00000000
_cell_angle_gamma   119.99999621
_symmetry_Int_Tables_number   1
_chemical_formula_structural   Cs2Gd(SiO3)3
_chemical_formula_sum   'Cs4 Gd2 Si6 O18'
_cell_volume   533.49965587
_cell_formula_units_Z   2
loop_
 _symmetry_equiv_pos_site_id
 _symmetry_equiv_pos_as_xyz
  1  'x, y, z'
loop_
 _atom_site_type_symbol
 _atom_site_label
 _atom_site_symmetry_multiplicity
 _atom_site_fract_x
 _atom_site_fract_y
 _atom_site_fract_z
 _atom_site_occupancy
  Cs  Cs0  1  0.333333  0.666667  0.436355  1
  Cs  Cs1  1  0.666667  0.333333  0.936355  1
  Cs  Cs2  1  0.666667  0.333333  0.563645  1
  Cs  Cs3  1  0.333333  0.666667  0.063645  1
  Gd  Gd4  1  0.000000  0.000000  0.500000  1
  Gd  Gd5  1  0.000000  0.000000  0.000000  1
  Si  Si6  1  0.602611  0.758241  0.750000  1
  Si  Si7  1  0.844370  0.602611  0.250000  1
  Si  Si8  1  0.758241  0.155630  0.250000  1
  Si  Si9  1  0.241759  0.844370  0.750000  1
  Si  Si10  1  0.155630  0.397389  0.750000  1
  Si  Si11  1  0.397389  0.241759  0.250000  1
  O  O12  1  0.273055  0.206342  0.376507  1
  O  O13  1  0.066713  0.273055  0.876507  1
  O  O14  1  0.206342  0.933287  0.876507  1
  O  O15  1  0.793658  0.066713  0.376507  1
  O  O16  1  0.933287  0.726945  0.376507  1
  O  O17  1  0.726945  0.793658  0.876507  1
  O  O18  1  0.726945  0.793658  0.623493  1
  O  O19  1  0.933287  0.726945  0.123493  1
  O  O20  1  0.793658  0.066713  0.123493  1
  O  O21  1  0.206342  0.933287  0.623493  1
  O  O22  1  0.066713  0.273055  0.623493  1
  O  O23  1  0.273055  0.206342  0.123493  1
  O  O24  1  0.512149  0.099984  0.250000  1
  O  O25  1  0.412164  0.512149  0.750000  1
  O  O26  1  0.099984  0.587836  0.750000  1
  O  O27  1  0.900016  0.412164  0.250000  1
  O  O28  1  0.587836  0.487851  0.250000  1
  O  O29  1  0.487851  0.900016  0.750000  1
