# generated using pymatgen
data_Tm4ScAl3Ru3Rh
_symmetry_space_group_name_H-M   'P 1'
_cell_length_a   4.07904600
_cell_length_b   6.98129938
_cell_length_c   8.15842843
_cell_angle_alpha   90.19504822
_cell_angle_beta   90.00000000
_cell_angle_gamma   90.00000000
_symmetry_Int_Tables_number   1
_chemical_formula_structural   Tm4ScAl3Ru3Rh
_chemical_formula_sum   'Tm4 Sc1 Al3 Ru3 Rh1'
_cell_volume   232.32655708
_cell_formula_units_Z   1
loop_
 _symmetry_equiv_pos_site_id
 _symmetry_equiv_pos_as_xyz
  1  'x, y, z'
loop_
 _atom_site_type_symbol
 _atom_site_label
 _atom_site_symmetry_multiplicity
 _atom_site_fract_x
 _atom_site_fract_y
 _atom_site_fract_z
 _atom_site_occupancy
  Tm  Tm0  1  0.250000  0.962684  0.318529  1
  Tm  Tm1  1  0.750000  0.537451  0.834382  1
  Tm  Tm2  1  0.250000  0.467681  0.172982  1
  Tm  Tm3  1  0.750000  0.023743  0.684619  1
  Sc  Sc4  1  0.250000  0.363051  0.558323  1
  Al  Al5  1  0.750000  0.641697  0.435649  1
  Al  Al6  1  0.750000  0.134876  0.055380  1
  Al  Al7  1  0.250000  0.862891  0.943571  1
  Ru  Ru8  1  0.750000  0.771022  0.124299  1
  Ru  Ru9  1  0.750000  0.264095  0.367923  1
  Ru  Ru10  1  0.250000  0.232936  0.878573  1
  Rh  Rh11  1  0.250000  0.737874  0.625770  1
