# generated using pymatgen
data_Lu12InCo4Tc
_symmetry_space_group_name_H-M   'P 1'
_cell_length_a   8.07993597
_cell_length_b   8.07993561
_cell_length_c   8.07993675
_cell_angle_alpha   111.56244091
_cell_angle_beta   110.73082168
_cell_angle_gamma   106.17112143
_symmetry_Int_Tables_number   1
_chemical_formula_structural   Lu12InCo4Tc
_chemical_formula_sum   'Lu12 In1 Co4 Tc1'
_cell_volume   405.04529984
_cell_formula_units_Z   1
loop_
 _symmetry_equiv_pos_site_id
 _symmetry_equiv_pos_as_xyz
  1  'x, y, z'
loop_
 _atom_site_type_symbol
 _atom_site_label
 _atom_site_symmetry_multiplicity
 _atom_site_fract_x
 _atom_site_fract_y
 _atom_site_fract_z
 _atom_site_occupancy
  Lu  Lu0  1  0.421875  0.225430  0.196445  1
  Lu  Lu1  1  0.578125  0.774570  0.803555  1
  Lu  Lu2  1  0.028984  0.225430  0.803555  1
  Lu  Lu3  1  0.971016  0.774570  0.196445  1
  Lu  Lu4  1  0.181923  0.276852  0.458775  1
  Lu  Lu5  1  0.818077  0.723148  0.541225  1
  Lu  Lu6  1  0.181923  0.723148  0.905072  1
  Lu  Lu7  1  0.818077  0.276852  0.094928  1
  Lu  Lu8  1  0.314360  0.618178  0.303817  1
  Lu  Lu9  1  0.685640  0.381822  0.696183  1
  Lu  Lu10  1  0.314360  0.010543  0.696183  1
  Lu  Lu11  1  0.685640  0.989457  0.303817  1
  In  In12  1  0.500000  0.500000  0.000000  1
  Co  Co13  1  0.373861  0.000000  0.373861  1
  Co  Co14  1  0.626139  0.000000  0.626139  1
  Co  Co15  1  0.112982  0.612982  0.500000  1
  Co  Co16  1  0.887018  0.387018  0.500000  1
  Tc  Tc17  1  0.000000  0.000000  0.000000  1
