# generated using pymatgen
data_Hf9ZrZn2(BiPb2)2
_symmetry_space_group_name_H-M   'P 1'
_cell_length_a   8.78824110
_cell_length_b   8.78480885
_cell_length_c   5.86698700
_cell_angle_alpha   90.00000000
_cell_angle_beta   90.00000000
_cell_angle_gamma   119.97539953
_symmetry_Int_Tables_number   1
_chemical_formula_structural   Hf9ZrZn2(BiPb2)2
_chemical_formula_sum   'Hf9 Zr1 Zn2 Bi2 Pb4'
_cell_volume   392.36263318
_cell_formula_units_Z   1
loop_
 _symmetry_equiv_pos_site_id
 _symmetry_equiv_pos_as_xyz
  1  'x, y, z'
loop_
 _atom_site_type_symbol
 _atom_site_label
 _atom_site_symmetry_multiplicity
 _atom_site_fract_x
 _atom_site_fract_y
 _atom_site_fract_z
 _atom_site_occupancy
  Hf  Hf0  1  0.332194  0.666036  0.999912  1
  Hf  Hf1  1  0.665960  0.332711  0.500037  1
  Hf  Hf2  1  0.665960  0.332711  0.999963  1
  Hf  Hf3  1  0.332194  0.666036  0.500088  1
  Hf  Hf4  1  0.263548  0.999095  0.250000  1
  Hf  Hf5  1  0.264170  0.264449  0.750000  1
  Hf  Hf6  1  0.003086  0.736465  0.750000  1
  Hf  Hf7  1  0.001875  0.265511  0.250000  1
  Hf  Hf8  1  0.736011  0.002881  0.750000  1
  Zr  Zr9  1  0.735412  0.733929  0.250000  1
  Zn  Zn10  1  0.001212  0.000946  0.999094  1
  Zn  Zn11  1  0.001212  0.000946  0.500906  1
  Bi  Bi12  1  0.613368  0.000489  0.250000  1
  Bi  Bi13  1  0.613962  0.613800  0.750000  1
  Pb  Pb14  1  0.999797  0.386346  0.750000  1
  Pb  Pb15  1  0.000128  0.613224  0.250000  1
  Pb  Pb16  1  0.384514  0.384355  0.250000  1
  Pb  Pb17  1  0.385396  0.000071  0.750000  1
