# generated using pymatgen
data_Tb2Dy2ReOs7
_symmetry_space_group_name_H-M   'P 1'
_cell_length_a   5.41217200
_cell_length_b   5.28194275
_cell_length_c   8.94238940
_cell_angle_alpha   89.97693285
_cell_angle_beta   90.00000000
_cell_angle_gamma   120.81899409
_symmetry_Int_Tables_number   1
_chemical_formula_structural   Tb2Dy2ReOs7
_chemical_formula_sum   'Tb2 Dy2 Re1 Os7'
_cell_volume   219.53604704
_cell_formula_units_Z   1
loop_
 _symmetry_equiv_pos_site_id
 _symmetry_equiv_pos_as_xyz
  1  'x, y, z'
loop_
 _atom_site_type_symbol
 _atom_site_label
 _atom_site_symmetry_multiplicity
 _atom_site_fract_x
 _atom_site_fract_y
 _atom_site_fract_z
 _atom_site_occupancy
  Tb  Tb0  1  0.665572  0.331144  0.434881  1
  Tb  Tb1  1  0.330515  0.661031  0.564190  1
  Dy  Dy2  1  0.329930  0.659860  0.935622  1
  Dy  Dy3  1  0.665314  0.330628  0.065264  1
  Re  Re4  1  0.837478  0.674954  0.750623  1
  Os  Os5  1  0.992793  0.985584  0.498960  1
  Os  Os6  1  0.992303  0.984606  0.000962  1
  Os  Os7  1  0.661286  0.831844  0.249374  1
  Os  Os8  1  0.170558  0.831844  0.249374  1
  Os  Os9  1  0.174908  0.349816  0.249416  1
  Os  Os10  1  0.350883  0.179343  0.750668  1
  Os  Os11  1  0.828461  0.179343  0.750668  1
