# generated using pymatgen
data_Tb13TmTh2(CdNi)4
_symmetry_space_group_name_H-M   'P 1'
_cell_length_a   9.61878408
_cell_length_b   9.59466307
_cell_length_c   9.62679800
_cell_angle_alpha   59.88913879
_cell_angle_beta   59.97242880
_cell_angle_gamma   59.89457197
_symmetry_Int_Tables_number   1
_chemical_formula_structural   Tb13TmTh2(CdNi)4
_chemical_formula_sum   'Tb13 Tm1 Th2 Cd4 Ni4'
_cell_volume   627.06801281
_cell_formula_units_Z   1
loop_
 _symmetry_equiv_pos_site_id
 _symmetry_equiv_pos_as_xyz
  1  'x, y, z'
loop_
 _atom_site_type_symbol
 _atom_site_label
 _atom_site_symmetry_multiplicity
 _atom_site_fract_x
 _atom_site_fract_y
 _atom_site_fract_z
 _atom_site_occupancy
  Tb  Tb0  1  0.950944  0.348207  0.350425  1
  Tb  Tb1  1  0.811580  0.190648  0.187700  1
  Tb  Tb2  1  0.190105  0.811907  0.809462  1
  Tb  Tb3  1  0.190105  0.811907  0.188527  1
  Tb  Tb4  1  0.811580  0.190648  0.810072  1
  Tb  Tb5  1  0.189860  0.189700  0.810220  1
  Tb  Tb6  1  0.811184  0.812094  0.188361  1
  Tb  Tb7  1  0.936999  0.564946  0.565804  1
  Tb  Tb8  1  0.564623  0.937346  0.932656  1
  Tb  Tb9  1  0.564623  0.937346  0.565374  1
  Tb  Tb10  1  0.936999  0.564946  0.932250  1
  Tb  Tb11  1  0.563460  0.564208  0.936166  1
  Tb  Tb12  1  0.937018  0.936686  0.563148  1
  Tm  Tm13  1  0.349449  0.951682  0.349435  1
  Th  Th14  1  0.342989  0.342074  0.350715  1
  Th  Th15  1  0.342989  0.342074  0.964222  1
  Cd  Cd16  1  0.580844  0.583419  0.579589  1
  Cd  Cd17  1  0.580844  0.583419  0.256146  1
  Cd  Cd18  1  0.581907  0.257005  0.580543  1
  Cd  Cd19  1  0.256438  0.583837  0.579861  1
  Ni  Ni20  1  0.144706  0.140628  0.144573  1
  Ni  Ni21  1  0.144706  0.140628  0.570094  1
  Ni  Ni22  1  0.147464  0.568984  0.141776  1
  Ni  Ni23  1  0.568587  0.145658  0.142878  1
