# generated using pymatgen
data_Gd4Re5Ru3
_symmetry_space_group_name_H-M   'P 1'
_cell_length_a   5.35708500
_cell_length_b   5.35708463
_cell_length_c   9.16607500
_cell_angle_alpha   90.00000000
_cell_angle_beta   90.00000000
_cell_angle_gamma   121.95396185
_symmetry_Int_Tables_number   1
_chemical_formula_structural   Gd4Re5Ru3
_chemical_formula_sum   'Gd4 Re5 Ru3'
_cell_volume   223.19208863
_cell_formula_units_Z   1
loop_
 _symmetry_equiv_pos_site_id
 _symmetry_equiv_pos_as_xyz
  1  'x, y, z'
loop_
 _atom_site_type_symbol
 _atom_site_label
 _atom_site_symmetry_multiplicity
 _atom_site_fract_x
 _atom_site_fract_y
 _atom_site_fract_z
 _atom_site_occupancy
  Gd  Gd0  1  0.335555  0.664445  0.436081  1
  Gd  Gd1  1  0.665001  0.334999  0.561925  1
  Gd  Gd2  1  0.665001  0.334999  0.938075  1
  Gd  Gd3  1  0.335555  0.664445  0.063919  1
  Re  Re4  1  0.168530  0.339967  0.750000  1
  Re  Re5  1  0.171060  0.828940  0.750000  1
  Re  Re6  1  0.333767  0.171617  0.250000  1
  Re  Re7  1  0.828383  0.666233  0.250000  1
  Re  Re8  1  0.660033  0.831470  0.750000  1
  Ru  Ru9  1  0.006988  0.993012  0.001605  1
  Ru  Ru10  1  0.823139  0.176861  0.250000  1
  Ru  Ru11  1  0.006988  0.993012  0.498395  1
