# generated using pymatgen
data_Tm6Ta(Mn3Co8)2
_symmetry_space_group_name_H-M   'P 1'
_cell_length_a   8.35894053
_cell_length_b   8.35894112
_cell_length_c   8.35894000
_cell_angle_alpha   60.00000445
_cell_angle_beta   60.00000210
_cell_angle_gamma   59.99999918
_symmetry_Int_Tables_number   1
_chemical_formula_structural   Tm6Ta(Mn3Co8)2
_chemical_formula_sum   'Tm6 Ta1 Mn6 Co16'
_cell_volume   412.98923420
_cell_formula_units_Z   1
loop_
 _symmetry_equiv_pos_site_id
 _symmetry_equiv_pos_as_xyz
  1  'x, y, z'
loop_
 _atom_site_type_symbol
 _atom_site_label
 _atom_site_symmetry_multiplicity
 _atom_site_fract_x
 _atom_site_fract_y
 _atom_site_fract_z
 _atom_site_occupancy
  Tm  Tm0  1  0.712808  0.287192  0.287192  1
  Tm  Tm1  1  0.287192  0.712808  0.712808  1
  Tm  Tm2  1  0.287192  0.712808  0.287192  1
  Tm  Tm3  1  0.287192  0.287192  0.712808  1
  Tm  Tm4  1  0.712808  0.287192  0.712808  1
  Tm  Tm5  1  0.712808  0.712808  0.287192  1
  Ta  Ta6  1  0.000000  0.000000  0.000000  1
  Mn  Mn7  1  0.500000  0.000000  0.000000  1
  Mn  Mn8  1  0.000000  0.500000  0.500000  1
  Mn  Mn9  1  0.000000  0.500000  0.000000  1
  Mn  Mn10  1  0.000000  0.000000  0.500000  1
  Mn  Mn11  1  0.500000  0.000000  0.500000  1
  Mn  Mn12  1  0.500000  0.500000  0.000000  1
  Co  Co13  1  0.323366  0.323366  0.323366  1
  Co  Co14  1  0.323366  0.323366  0.029905  1
  Co  Co15  1  0.029905  0.323366  0.323366  1
  Co  Co16  1  0.323366  0.029905  0.323366  1
  Co  Co17  1  0.676634  0.676634  0.676634  1
  Co  Co18  1  0.676634  0.676634  0.970095  1
  Co  Co19  1  0.676634  0.970095  0.676634  1
  Co  Co20  1  0.970095  0.676634  0.676634  1
  Co  Co21  1  0.124361  0.124361  0.124361  1
  Co  Co22  1  0.124361  0.124361  0.626918  1
  Co  Co23  1  0.626918  0.124361  0.124361  1
  Co  Co24  1  0.124361  0.626918  0.124361  1
  Co  Co25  1  0.875639  0.875639  0.875639  1
  Co  Co26  1  0.875639  0.875639  0.373082  1
  Co  Co27  1  0.875639  0.373082  0.875639  1
  Co  Co28  1  0.373082  0.875639  0.875639  1
