# generated using pymatgen
data_Tb7Ce(AlRu)8
_symmetry_space_group_name_H-M   'P 1'
_cell_length_a   4.09343000
_cell_length_b   7.02403111
_cell_length_c   16.00203905
_cell_angle_alpha   90.62216005
_cell_angle_beta   90.00000000
_cell_angle_gamma   90.00000000
_symmetry_Int_Tables_number   1
_chemical_formula_structural   Tb7Ce(AlRu)8
_chemical_formula_sum   'Tb7 Ce1 Al8 Ru8'
_cell_volume   460.06957672
_cell_formula_units_Z   1
loop_
 _symmetry_equiv_pos_site_id
 _symmetry_equiv_pos_as_xyz
  1  'x, y, z'
loop_
 _atom_site_type_symbol
 _atom_site_label
 _atom_site_symmetry_multiplicity
 _atom_site_fract_x
 _atom_site_fract_y
 _atom_site_fract_z
 _atom_site_occupancy
  Tb  Tb0  1  0.750000  0.964433  0.219179  1
  Tb  Tb1  1  0.250000  0.162134  0.561593  1
  Tb  Tb2  1  0.750000  0.840318  0.437102  1
  Tb  Tb3  1  0.750000  0.464565  0.281222  1
  Tb  Tb4  1  0.750000  0.338175  0.063668  1
  Tb  Tb5  1  0.250000  0.660113  0.937802  1
  Tb  Tb6  1  0.250000  0.037142  0.781136  1
  Ce  Ce7  1  0.250000  0.537013  0.719134  1
  Al  Al8  1  0.750000  0.505167  0.562659  1
  Al  Al9  1  0.750000  0.360130  0.852561  1
  Al  Al10  1  0.750000  0.995673  0.934854  1
  Al  Al11  1  0.750000  0.872285  0.650063  1
  Al  Al12  1  0.250000  0.500535  0.434575  1
  Al  Al13  1  0.250000  0.996371  0.065881  1
  Al  Al14  1  0.250000  0.634188  0.150695  1
  Al  Al15  1  0.250000  0.134880  0.349351  1
  Ru  Ru16  1  0.750000  0.733848  0.806567  1
  Ru  Ru17  1  0.250000  0.229094  0.937069  1
  Ru  Ru18  1  0.750000  0.264552  0.436011  1
  Ru  Ru19  1  0.250000  0.753941  0.312284  1
  Ru  Ru20  1  0.750000  0.763199  0.064088  1
  Ru  Ru21  1  0.750000  0.263003  0.687485  1
  Ru  Ru22  1  0.250000  0.253690  0.187726  1
  Ru  Ru23  1  0.250000  0.735552  0.567295  1
