# generated using pymatgen
data_SnGeP2O7
_symmetry_space_group_name_H-M   'P 1'
_cell_length_a   7.33909825
_cell_length_b   7.58693180
_cell_length_c   7.30753262
_cell_angle_alpha   80.90940245
_cell_angle_beta   83.31719630
_cell_angle_gamma   58.57861790
_symmetry_Int_Tables_number   1
_chemical_formula_structural   SnGeP2O7
_chemical_formula_sum   'Sn2 Ge2 P4 O14'
_cell_volume   342.58372539
_cell_formula_units_Z   2
loop_
 _symmetry_equiv_pos_site_id
 _symmetry_equiv_pos_as_xyz
  1  'x, y, z'
loop_
 _atom_site_type_symbol
 _atom_site_label
 _atom_site_symmetry_multiplicity
 _atom_site_fract_x
 _atom_site_fract_y
 _atom_site_fract_z
 _atom_site_occupancy
  Sn  Sn0  1  0.239626  0.089732  0.140758  1
  Sn  Sn1  1  0.760374  0.910268  0.859242  1
  Ge  Ge2  1  0.435224  0.690245  0.632094  1
  Ge  Ge3  1  0.564776  0.309755  0.367906  1
  P  P4  1  0.167429  0.666669  0.150874  1
  P  P5  1  0.832571  0.333331  0.849126  1
  P  P6  1  0.219885  0.176051  0.593800  1
  P  P7  1  0.780115  0.823949  0.406200  1
  O  O8  1  0.093524  0.734238  0.951249  1
  O  O9  1  0.906476  0.265762  0.048751  1
  O  O10  1  0.220979  0.809201  0.228087  1
  O  O11  1  0.779021  0.190799  0.771913  1
  O  O12  1  0.349194  0.436414  0.173379  1
  O  O13  1  0.650806  0.563586  0.826621  1
  O  O14  1  0.629236  0.737963  0.440735  1
  O  O15  1  0.370764  0.262037  0.559265  1
  O  O16  1  0.126620  0.166781  0.422088  1
  O  O17  1  0.873380  0.833219  0.577912  1
  O  O18  1  0.027834  0.337525  0.719911  1
  O  O19  1  0.673362  0.035395  0.280803  1
  O  O20  1  0.326638  0.964605  0.719197  1
  O  O21  1  0.972166  0.662475  0.280089  1
