# generated using pymatgen
data_ErHf7Ta8(TiSi4)4
_symmetry_space_group_name_H-M   'P 1'
_cell_length_a   6.85519751
_cell_length_b   6.86384531
_cell_length_c   12.61619085
_cell_angle_alpha   89.92949103
_cell_angle_beta   89.99137179
_cell_angle_gamma   89.98136701
_symmetry_Int_Tables_number   1
_chemical_formula_structural   ErHf7Ta8(TiSi4)4
_chemical_formula_sum   'Er1 Hf7 Ta8 Ti4 Si16'
_cell_volume   593.62933318
_cell_formula_units_Z   1
loop_
 _symmetry_equiv_pos_site_id
 _symmetry_equiv_pos_as_xyz
  1  'x, y, z'
loop_
 _atom_site_type_symbol
 _atom_site_label
 _atom_site_symmetry_multiplicity
 _atom_site_fract_x
 _atom_site_fract_y
 _atom_site_fract_z
 _atom_site_occupancy
  Er  Er0  1  0.995849  0.661023  0.030674  1
  Hf  Hf1  1  0.342119  0.999392  0.470581  1
  Hf  Hf2  1  0.500646  0.842387  0.718768  1
  Hf  Hf3  1  0.497501  0.157827  0.221522  1
  Hf  Hf4  1  0.842092  0.502480  0.281379  1
  Hf  Hf5  1  0.159850  0.498964  0.779702  1
  Hf  Hf6  1  0.655455  0.001586  0.969215  1
  Hf  Hf7  1  0.999220  0.341513  0.529344  1
  Ta  Ta8  1  0.331773  0.328038  0.000004  1
  Ta  Ta9  1  0.170192  0.831224  0.251672  1
  Ta  Ta10  1  0.829993  0.169954  0.748182  1
  Ta  Ta11  1  0.670256  0.669753  0.499655  1
  Ta  Ta12  1  0.154518  0.004159  0.871702  1
  Ta  Ta13  1  0.496978  0.651473  0.124798  1
  Ta  Ta14  1  0.503831  0.348510  0.622885  1
  Ta  Ta15  1  0.651428  0.493682  0.874422  1
  Ti  Ti16  1  0.348280  0.503391  0.377777  1
  Ti  Ti17  1  0.847630  0.996270  0.374386  1
  Ti  Ti18  1  0.005729  0.152250  0.127917  1
  Ti  Ti19  1  0.995328  0.848106  0.625621  1
  Si  Si20  1  0.205862  0.133527  0.674168  1
  Si  Si21  1  0.365531  0.706826  0.926493  1
  Si  Si22  1  0.635314  0.292004  0.424620  1
  Si  Si23  1  0.706994  0.357263  0.074706  1
  Si  Si24  1  0.291166  0.638535  0.572478  1
  Si  Si25  1  0.791998  0.870975  0.180844  1
  Si  Si26  1  0.134967  0.206993  0.324965  1
  Si  Si27  1  0.862045  0.795479  0.819159  1
  Si  Si28  1  0.297748  0.957710  0.065660  1
  Si  Si29  1  0.543822  0.798249  0.316077  1
  Si  Si30  1  0.455227  0.199943  0.812417  1
  Si  Si31  1  0.802510  0.546769  0.683981  1
  Si  Si32  1  0.202222  0.452013  0.189062  1
  Si  Si33  1  0.705776  0.043689  0.561618  1
  Si  Si34  1  0.954932  0.293995  0.937323  1
  Si  Si35  1  0.045218  0.704047  0.436225  1
