# generated using pymatgen
data_Er12TmTh7Sn16
_symmetry_space_group_name_H-M   'P 1'
_cell_length_a   8.09279883
_cell_length_b   8.18449827
_cell_length_c   15.47016943
_cell_angle_alpha   90.05677536
_cell_angle_beta   90.37284549
_cell_angle_gamma   89.86533211
_symmetry_Int_Tables_number   1
_chemical_formula_structural   Er12TmTh7Sn16
_chemical_formula_sum   'Er12 Tm1 Th7 Sn16'
_cell_volume   1024.64936306
_cell_formula_units_Z   1
loop_
 _symmetry_equiv_pos_site_id
 _symmetry_equiv_pos_as_xyz
  1  'x, y, z'
loop_
 _atom_site_type_symbol
 _atom_site_label
 _atom_site_symmetry_multiplicity
 _atom_site_fract_x
 _atom_site_fract_y
 _atom_site_fract_z
 _atom_site_occupancy
  Er  Er0  1  0.360869  0.836140  0.875674  1
  Er  Er1  1  0.858843  0.661343  0.624649  1
  Er  Er2  1  0.639388  0.163161  0.375985  1
  Er  Er3  1  0.135347  0.337295  0.123216  1
  Er  Er4  1  0.637180  0.163069  0.123337  1
  Er  Er5  1  0.140218  0.337653  0.376081  1
  Er  Er6  1  0.360244  0.839138  0.625676  1
  Er  Er7  1  0.863896  0.662277  0.876045  1
  Er  Er8  1  0.527459  0.324862  0.900349  1
  Er  Er9  1  0.191919  0.499385  0.750522  1
  Er  Er10  1  0.692869  0.000553  0.750533  1
  Er  Er11  1  0.807785  0.500926  0.249742  1
  Tm  Tm12  1  0.307324  0.998615  0.250101  1
  Th  Th13  1  0.020234  0.178627  0.597295  1
  Th  Th14  1  0.481444  0.678639  0.403943  1
  Th  Th15  1  0.978358  0.822065  0.095386  1
  Th  Th16  1  0.480159  0.678125  0.096478  1
  Th  Th17  1  0.981837  0.822214  0.404883  1
  Th  Th18  1  0.516823  0.320909  0.595010  1
  Th  Th19  1  0.018587  0.176618  0.904143  1
  Sn  Sn20  1  0.298576  0.037756  0.043062  1
  Sn  Sn21  1  0.800945  0.459244  0.458078  1
  Sn  Sn22  1  0.699479  0.959871  0.542433  1
  Sn  Sn23  1  0.207750  0.534191  0.956712  1
  Sn  Sn24  1  0.697272  0.961239  0.956875  1
  Sn  Sn25  1  0.198420  0.543204  0.541855  1
  Sn  Sn26  1  0.301060  0.040688  0.458569  1
  Sn  Sn27  1  0.795352  0.458013  0.040354  1
  Sn  Sn28  1  0.557719  0.622898  0.749886  1
  Sn  Sn29  1  0.057468  0.876853  0.750187  1
  Sn  Sn30  1  0.441316  0.375333  0.249374  1
  Sn  Sn31  1  0.942038  0.124111  0.249799  1
  Sn  Sn32  1  0.331205  0.147346  0.753287  1
  Sn  Sn33  1  0.825306  0.356687  0.750499  1
  Sn  Sn34  1  0.673583  0.857607  0.250103  1
  Sn  Sn35  1  0.171725  0.643347  0.249877  1
