# generated using pymatgen
data_NaEr(IO3)4
_symmetry_space_group_name_H-M   'P 1'
_cell_length_a   5.19164200
_cell_length_b   7.31692619
_cell_length_c   16.05915793
_cell_angle_alpha   78.66888682
_cell_angle_beta   90.00000000
_cell_angle_gamma   90.00000000
_symmetry_Int_Tables_number   1
_chemical_formula_structural   NaEr(IO3)4
_chemical_formula_sum   'Na2 Er2 I8 O24'
_cell_volume   598.14623050
_cell_formula_units_Z   2
loop_
 _symmetry_equiv_pos_site_id
 _symmetry_equiv_pos_as_xyz
  1  'x, y, z'
loop_
 _atom_site_type_symbol
 _atom_site_label
 _atom_site_symmetry_multiplicity
 _atom_site_fract_x
 _atom_site_fract_y
 _atom_site_fract_z
 _atom_site_occupancy
  Na  Na0  1  0.500000  0.500000  0.000000  1
  Na  Na1  1  0.000000  0.500000  0.500000  1
  Er  Er2  1  0.500000  0.000000  0.000000  1
  Er  Er3  1  0.000000  0.000000  0.500000  1
  I  I4  1  0.904790  0.664351  0.165667  1
  I  I5  1  0.404790  0.335649  0.334333  1
  I  I6  1  0.095210  0.335649  0.834333  1
  I  I7  1  0.595210  0.664351  0.665667  1
  I  I8  1  0.993338  0.184653  0.139300  1
  I  I9  1  0.493338  0.815347  0.360700  1
  I  I10  1  0.006662  0.815347  0.860700  1
  I  I11  1  0.506662  0.184653  0.639300  1
  O  O12  1  0.680219  0.742885  0.075208  1
  O  O13  1  0.180219  0.257115  0.424792  1
  O  O14  1  0.319781  0.257115  0.924792  1
  O  O15  1  0.819781  0.742885  0.575208  1
  O  O16  1  0.798560  0.828660  0.231394  1
  O  O17  1  0.298560  0.171340  0.268606  1
  O  O18  1  0.201440  0.171340  0.768606  1
  O  O19  1  0.701440  0.828660  0.731394  1
  O  O20  1  0.731386  0.448122  0.209176  1
  O  O21  1  0.231386  0.551878  0.290824  1
  O  O22  1  0.268614  0.551878  0.790824  1
  O  O23  1  0.768614  0.448122  0.709176  1
  O  O24  1  0.742103  0.196740  0.055565  1
  O  O25  1  0.242103  0.803260  0.444435  1
  O  O26  1  0.257897  0.803260  0.944435  1
  O  O27  1  0.757897  0.196740  0.555565  1
  O  O28  1  0.202760  0.009445  0.103503  1
  O  O29  1  0.702760  0.990555  0.396497  1
  O  O30  1  0.797240  0.990555  0.896497  1
  O  O31  1  0.297240  0.009445  0.603503  1
  O  O32  1  0.155973  0.399750  0.093777  1
  O  O33  1  0.655973  0.600250  0.406223  1
  O  O34  1  0.844027  0.600250  0.906223  1
  O  O35  1  0.344027  0.399750  0.593777  1
