# generated using pymatgen
data_Dy7Co6Sn22Au
_symmetry_space_group_name_H-M   'P 1'
_cell_length_a   9.66697200
_cell_length_b   9.66697208
_cell_length_c   9.92676800
_cell_angle_alpha   90.00000000
_cell_angle_beta   90.00000000
_cell_angle_gamma   119.99999288
_symmetry_Int_Tables_number   1
_chemical_formula_structural   Dy7Co6Sn22Au
_chemical_formula_sum   'Dy7 Co6 Sn22 Au1'
_cell_volume   803.37712166
_cell_formula_units_Z   1
loop_
 _symmetry_equiv_pos_site_id
 _symmetry_equiv_pos_as_xyz
  1  'x, y, z'
loop_
 _atom_site_type_symbol
 _atom_site_label
 _atom_site_symmetry_multiplicity
 _atom_site_fract_x
 _atom_site_fract_y
 _atom_site_fract_z
 _atom_site_occupancy
  Dy  Dy0  1  0.000000  0.000000  0.000000  1
  Dy  Dy1  1  0.478939  0.521061  0.306332  1
  Dy  Dy2  1  0.521061  0.478939  0.693668  1
  Dy  Dy3  1  0.478939  0.957878  0.306332  1
  Dy  Dy4  1  0.521061  0.042122  0.693668  1
  Dy  Dy5  1  0.042122  0.521061  0.306332  1
  Dy  Dy6  1  0.957878  0.478939  0.693668  1
  Co  Co7  1  0.832265  0.167735  0.196602  1
  Co  Co8  1  0.167735  0.832265  0.803398  1
  Co  Co9  1  0.832265  0.664529  0.196602  1
  Co  Co10  1  0.167735  0.335471  0.803398  1
  Co  Co11  1  0.335471  0.167735  0.196602  1
  Co  Co12  1  0.664529  0.832265  0.803398  1
  Sn  Sn13  1  0.346043  0.000000  0.000000  1
  Sn  Sn14  1  0.653957  0.000000  0.000000  1
  Sn  Sn15  1  0.000000  0.346043  0.000000  1
  Sn  Sn16  1  0.000000  0.653957  0.000000  1
  Sn  Sn17  1  0.653957  0.653957  0.000000  1
  Sn  Sn18  1  0.346043  0.346043  0.000000  1
  Sn  Sn19  1  0.333333  0.666667  0.817293  1
  Sn  Sn20  1  0.666667  0.333333  0.182707  1
  Sn  Sn21  1  0.782770  0.217230  0.452805  1
  Sn  Sn22  1  0.217230  0.782770  0.547195  1
  Sn  Sn23  1  0.782770  0.565540  0.452805  1
  Sn  Sn24  1  0.217230  0.434460  0.547195  1
  Sn  Sn25  1  0.434460  0.217230  0.452805  1
  Sn  Sn26  1  0.565540  0.782770  0.547195  1
  Sn  Sn27  1  0.333333  0.666667  0.118658  1
  Sn  Sn28  1  0.666667  0.333333  0.881342  1
  Sn  Sn29  1  0.113776  0.886224  0.277612  1
  Sn  Sn30  1  0.886224  0.113776  0.722388  1
  Sn  Sn31  1  0.113776  0.227551  0.277612  1
  Sn  Sn32  1  0.886224  0.772449  0.722388  1
  Sn  Sn33  1  0.772449  0.886224  0.277612  1
  Sn  Sn34  1  0.227551  0.113776  0.722388  1
  Au  Au35  1  0.000000  0.000000  0.500000  1
