# generated using pymatgen
data_CsTh6F25
_symmetry_space_group_name_H-M   'P 1'
_cell_length_a   9.80813650
_cell_length_b   9.80813625
_cell_length_c   9.80813654
_cell_angle_alpha   50.77237053
_cell_angle_beta   50.77237147
_cell_angle_gamma   50.77237375
_symmetry_Int_Tables_number   1
_chemical_formula_structural   CsTh6F25
_chemical_formula_sum   'Cs1 Th6 F25'
_cell_volume   521.97180854
_cell_formula_units_Z   1
loop_
 _symmetry_equiv_pos_site_id
 _symmetry_equiv_pos_as_xyz
  1  'x, y, z'
loop_
 _atom_site_type_symbol
 _atom_site_label
 _atom_site_symmetry_multiplicity
 _atom_site_fract_x
 _atom_site_fract_y
 _atom_site_fract_z
 _atom_site_occupancy
  Cs  Cs0  1  0.000000  0.000000  0.000000  1
  Th  Th1  1  0.908400  0.408097  0.408097  1
  Th  Th2  1  0.408097  0.908400  0.408097  1
  Th  Th3  1  0.591903  0.091600  0.591903  1
  Th  Th4  1  0.591903  0.591903  0.091600  1
  Th  Th5  1  0.091600  0.591903  0.591903  1
  Th  Th6  1  0.408097  0.408097  0.908400  1
  F  F7  1  0.255068  0.255068  0.685937  1
  F  F8  1  0.685937  0.255068  0.255068  1
  F  F9  1  0.255068  0.685937  0.255068  1
  F  F10  1  0.744932  0.314063  0.744932  1
  F  F11  1  0.744932  0.744932  0.314063  1
  F  F12  1  0.314063  0.744932  0.744932  1
  F  F13  1  0.549733  0.549733  0.549733  1
  F  F14  1  0.500000  0.500000  0.000000  1
  F  F15  1  0.500000  0.000000  0.500000  1
  F  F16  1  0.000000  0.500000  0.500000  1
  F  F17  1  0.548220  0.127570  0.127570  1
  F  F18  1  0.127570  0.127570  0.548220  1
  F  F19  1  0.127570  0.548220  0.127570  1
  F  F20  1  0.872430  0.451780  0.872430  1
  F  F21  1  0.451780  0.872430  0.872430  1
  F  F22  1  0.872430  0.872430  0.451780  1
  F  F23  1  0.178867  0.821133  0.500000  1
  F  F24  1  0.821133  0.500000  0.178867  1
  F  F25  1  0.500000  0.178867  0.821133  1
  F  F26  1  0.821133  0.178867  0.500000  1
  F  F27  1  0.178867  0.500000  0.821133  1
  F  F28  1  0.500000  0.821133  0.178867  1
  F  F29  1  0.209651  0.209651  0.209651  1
  F  F30  1  0.790349  0.790349  0.790349  1
  F  F31  1  0.450267  0.450267  0.450267  1
