# generated using pymatgen
data_La2NdNiSn3Pt2
_symmetry_space_group_name_H-M   'P 1'
_cell_length_a   7.70382365
_cell_length_b   7.69508330
_cell_length_c   4.10437600
_cell_angle_alpha   90.00000000
_cell_angle_beta   90.00000000
_cell_angle_gamma   119.96247313
_symmetry_Int_Tables_number   1
_chemical_formula_structural   La2NdNiSn3Pt2
_chemical_formula_sum   'La2 Nd1 Ni1 Sn3 Pt2'
_cell_volume   210.79559536
_cell_formula_units_Z   1
loop_
 _symmetry_equiv_pos_site_id
 _symmetry_equiv_pos_as_xyz
  1  'x, y, z'
loop_
 _atom_site_type_symbol
 _atom_site_label
 _atom_site_symmetry_multiplicity
 _atom_site_fract_x
 _atom_site_fract_y
 _atom_site_fract_z
 _atom_site_occupancy
  La  La0  1  0.589955  0.589828  0.000000  1
  La  La1  1  0.410045  0.999873  0.000000  1
  Nd  Nd2  1  0.000000  0.408323  0.000000  1
  Ni  Ni3  1  0.000000  0.000776  0.000000  1
  Sn  Sn4  1  0.000000  0.757681  0.500000  1
  Sn  Sn5  1  0.240339  0.241874  0.500000  1
  Sn  Sn6  1  0.759661  0.001535  0.500000  1
  Pt  Pt7  1  0.332797  0.666453  0.500000  1
  Pt  Pt8  1  0.667203  0.333655  0.500000  1
