# generated using pymatgen
data_U2PNO
_symmetry_space_group_name_H-M   'P 1'
_cell_length_a   3.82102400
_cell_length_b   3.82102413
_cell_length_c   6.54802100
_cell_angle_alpha   90.00000000
_cell_angle_beta   90.00000000
_cell_angle_gamma   119.99999889
_symmetry_Int_Tables_number   1
_chemical_formula_structural   U2PNO
_chemical_formula_sum   'U2 P1 N1 O1'
_cell_volume   82.79426320
_cell_formula_units_Z   1
loop_
 _symmetry_equiv_pos_site_id
 _symmetry_equiv_pos_as_xyz
  1  'x, y, z'
loop_
 _atom_site_type_symbol
 _atom_site_label
 _atom_site_symmetry_multiplicity
 _atom_site_fract_x
 _atom_site_fract_y
 _atom_site_fract_z
 _atom_site_occupancy
  U  U0  1  0.666667  0.333333  0.722992  1
  U  U1  1  0.333333  0.666667  0.274144  1
  P  P2  1  0.000000  0.000000  0.998693  1
  N  N3  1  0.666667  0.333333  0.373135  1
  O  O4  1  0.333333  0.666667  0.631036  1
