# generated using pymatgen
data_TbYb3Ho2(CoSn6)2
_symmetry_space_group_name_H-M   'P 1'
_cell_length_a   8.41011172
_cell_length_b   8.41011070
_cell_length_c   13.24620723
_cell_angle_alpha   90.11768135
_cell_angle_beta   89.88231951
_cell_angle_gamma   148.05019967
_symmetry_Int_Tables_number   1
_chemical_formula_structural   TbYb3Ho2(CoSn6)2
_chemical_formula_sum   'Tb1 Yb3 Ho2 Co2 Sn12'
_cell_volume   495.78593989
_cell_formula_units_Z   1
loop_
 _symmetry_equiv_pos_site_id
 _symmetry_equiv_pos_as_xyz
  1  'x, y, z'
loop_
 _atom_site_type_symbol
 _atom_site_label
 _atom_site_symmetry_multiplicity
 _atom_site_fract_x
 _atom_site_fract_y
 _atom_site_fract_z
 _atom_site_occupancy
  Tb  Tb0  1  0.897834  0.102166  0.095066  1
  Yb  Yb1  1  0.100755  0.899245  0.597879  1
  Yb  Yb2  1  0.100976  0.899024  0.902701  1
  Yb  Yb3  1  0.899617  0.100383  0.401873  1
  Ho  Ho4  1  0.900924  0.099076  0.754545  1
  Ho  Ho5  1  0.099113  0.900887  0.247714  1
  Co  Co6  1  0.299253  0.700747  0.249378  1
  Co  Co7  1  0.702566  0.297434  0.750262  1
  Sn  Sn8  1  0.759486  0.240514  0.572905  1
  Sn  Sn9  1  0.425249  0.574751  0.578786  1
  Sn  Sn10  1  0.574104  0.425896  0.423136  1
  Sn  Sn11  1  0.733058  0.266942  0.248918  1
  Sn  Sn12  1  0.267282  0.732718  0.749878  1
  Sn  Sn13  1  0.240186  0.759814  0.072377  1
  Sn  Sn14  1  0.241606  0.758394  0.427140  1
  Sn  Sn15  1  0.572741  0.427259  0.074873  1
  Sn  Sn16  1  0.455878  0.544122  0.248763  1
  Sn  Sn17  1  0.545022  0.454978  0.750014  1
  Sn  Sn18  1  0.757773  0.242227  0.928594  1
  Sn  Sn19  1  0.426578  0.573422  0.925197  1
