# generated using pymatgen
data_Ho10ErThCo4
_symmetry_space_group_name_H-M   'P 1'
_cell_length_a   6.21524530
_cell_length_b   6.90410115
_cell_length_c   9.46501227
_cell_angle_alpha   89.99612153
_cell_angle_beta   90.02730604
_cell_angle_gamma   91.18250420
_symmetry_Int_Tables_number   1
_chemical_formula_structural   Ho10ErThCo4
_chemical_formula_sum   'Ho10 Er1 Th1 Co4'
_cell_volume   406.06359027
_cell_formula_units_Z   1
loop_
 _symmetry_equiv_pos_site_id
 _symmetry_equiv_pos_as_xyz
  1  'x, y, z'
loop_
 _atom_site_type_symbol
 _atom_site_label
 _atom_site_symmetry_multiplicity
 _atom_site_fract_x
 _atom_site_fract_y
 _atom_site_fract_z
 _atom_site_occupancy
  Ho  Ho0  1  0.139512  0.042548  0.249731  1
  Ho  Ho1  1  0.827361  0.674835  0.433715  1
  Ho  Ho2  1  0.324029  0.827386  0.930363  1
  Ho  Ho3  1  0.176467  0.324418  0.568868  1
  Ho  Ho4  1  0.673466  0.175599  0.431085  1
  Ho  Ho5  1  0.176477  0.324395  0.931330  1
  Ho  Ho6  1  0.324015  0.827411  0.569749  1
  Ho  Ho7  1  0.858340  0.957550  0.750210  1
  Ho  Ho8  1  0.644381  0.456358  0.750248  1
  Ho  Ho9  1  0.827107  0.674854  0.066347  1
  Er  Er10  1  0.673229  0.175337  0.068643  1
  Th  Th11  1  0.347682  0.552707  0.249836  1
  Co  Co12  1  0.965136  0.388666  0.249728  1
  Co  Co13  1  0.452172  0.114393  0.750512  1
  Co  Co14  1  0.543741  0.870514  0.249794  1
  Co  Co15  1  0.046882  0.613031  0.749840  1
