# generated using pymatgen
data_Pr2Nd2ZrP12Ru19
_symmetry_space_group_name_H-M   'P 1'
_cell_length_a   12.60267802
_cell_length_b   12.60073239
_cell_length_c   4.00770000
_cell_angle_alpha   90.00000000
_cell_angle_beta   90.00000000
_cell_angle_gamma   119.99950796
_symmetry_Int_Tables_number   1
_chemical_formula_structural   Pr2Nd2ZrP12Ru19
_chemical_formula_sum   'Pr2 Nd2 Zr1 P12 Ru19'
_cell_volume   551.17132925
_cell_formula_units_Z   1
loop_
 _symmetry_equiv_pos_site_id
 _symmetry_equiv_pos_as_xyz
  1  'x, y, z'
loop_
 _atom_site_type_symbol
 _atom_site_label
 _atom_site_symmetry_multiplicity
 _atom_site_fract_x
 _atom_site_fract_y
 _atom_site_fract_z
 _atom_site_occupancy
  Pr  Pr0  1  0.999668  0.814964  0.500000  1
  Pr  Pr1  1  0.184986  0.184768  0.500000  1
  Nd  Nd2  1  0.815220  0.000240  0.500000  1
  Nd  Nd3  1  0.666691  0.333323  0.000000  1
  Zr  Zr4  1  0.333362  0.666660  0.000000  1
  P  P5  1  0.187196  0.997603  0.000000  1
  P  P6  1  0.001984  0.189203  0.000000  1
  P  P7  1  0.810382  0.813226  0.000000  1
  P  P8  1  0.519422  0.696713  0.500000  1
  P  P9  1  0.303346  0.822696  0.500000  1
  P  P10  1  0.177266  0.480538  0.500000  1
  P  P11  1  0.476237  0.170796  0.500000  1
  P  P12  1  0.694614  0.523866  0.500000  1
  P  P13  1  0.829192  0.305380  0.500000  1
  P  P14  1  0.626597  0.001068  0.000000  1
  P  P15  1  0.998930  0.625189  0.000000  1
  P  P16  1  0.374812  0.373754  0.000000  1
  Ru  Ru17  1  0.445334  0.998494  0.000000  1
  Ru  Ru18  1  0.001484  0.446687  0.000000  1
  Ru  Ru19  1  0.553300  0.554819  0.000000  1
  Ru  Ru20  1  0.285506  0.997096  0.500000  1
  Ru  Ru21  1  0.002675  0.288077  0.500000  1
  Ru  Ru22  1  0.711722  0.714875  0.500000  1
  Ru  Ru23  1  0.616171  0.804419  0.000000  1
  Ru  Ru24  1  0.196080  0.811832  0.000000  1
  Ru  Ru25  1  0.188112  0.384207  0.000000  1
  Ru  Ru26  1  0.378501  0.182720  0.000000  1
  Ru  Ru27  1  0.804205  0.621542  0.000000  1
  Ru  Ru28  1  0.817236  0.195260  0.000000  1
  Ru  Ru29  1  0.501163  0.870286  0.500000  1
  Ru  Ru30  1  0.129740  0.630767  0.500000  1
  Ru  Ru31  1  0.369224  0.498949  0.500000  1
  Ru  Ru32  1  0.489904  0.367390  0.500000  1
  Ru  Ru33  1  0.877508  0.510126  0.500000  1
  Ru  Ru34  1  0.632783  0.122461  0.500000  1
  Ru  Ru35  1  0.999444  0.000007  0.000000  1
