# generated using pymatgen
data_Ac2La3Pr(RuI3)2
_symmetry_space_group_name_H-M   'P 1'
_cell_length_a   4.45676900
_cell_length_b   9.91888348
_cell_length_c   12.59412660
_cell_angle_alpha   86.67495874
_cell_angle_beta   90.00000000
_cell_angle_gamma   90.00000000
_symmetry_Int_Tables_number   1
_chemical_formula_structural   Ac2La3Pr(RuI3)2
_chemical_formula_sum   'Ac2 La3 Pr1 Ru2 I6'
_cell_volume   555.80089803
_cell_formula_units_Z   1
loop_
 _symmetry_equiv_pos_site_id
 _symmetry_equiv_pos_as_xyz
  1  'x, y, z'
loop_
 _atom_site_type_symbol
 _atom_site_label
 _atom_site_symmetry_multiplicity
 _atom_site_fract_x
 _atom_site_fract_y
 _atom_site_fract_z
 _atom_site_occupancy
  Ac  Ac0  1  0.750000  0.684124  0.120398  1
  Ac  Ac1  1  0.250000  0.315983  0.881289  1
  La  La2  1  0.250000  0.887927  0.327993  1
  La  La3  1  0.750000  0.113453  0.671495  1
  La  La4  1  0.250000  0.906275  0.898077  1
  Pr  Pr5  1  0.750000  0.092536  0.103383  1
  Ru  Ru6  1  0.250000  0.890004  0.130793  1
  Ru  Ru7  1  0.750000  0.108306  0.866141  1
  I  I8  1  0.250000  0.876049  0.621418  1
  I  I9  1  0.750000  0.125766  0.376889  1
  I  I10  1  0.750000  0.646651  0.386621  1
  I  I11  1  0.250000  0.355223  0.614882  1
  I  I12  1  0.250000  0.386614  0.142961  1
  I  I13  1  0.750000  0.611086  0.857665  1
