# generated using pymatgen
data_ScTiCo4P3
_symmetry_space_group_name_H-M   'P 1'
_cell_length_a   3.59832400
_cell_length_b   10.33831500
_cell_length_c   11.86114800
_cell_angle_alpha   90.00000000
_cell_angle_beta   90.00000000
_cell_angle_gamma   90.00000000
_symmetry_Int_Tables_number   1
_chemical_formula_structural   ScTiCo4P3
_chemical_formula_sum   'Sc4 Ti4 Co16 P12'
_cell_volume   441.24190513
_cell_formula_units_Z   4
loop_
 _symmetry_equiv_pos_site_id
 _symmetry_equiv_pos_as_xyz
  1  'x, y, z'
loop_
 _atom_site_type_symbol
 _atom_site_label
 _atom_site_symmetry_multiplicity
 _atom_site_fract_x
 _atom_site_fract_y
 _atom_site_fract_z
 _atom_site_occupancy
  Sc  Sc0  1  0.250000  0.581965  0.707614  1
  Sc  Sc1  1  0.250000  0.918035  0.207614  1
  Sc  Sc2  1  0.750000  0.418035  0.292386  1
  Sc  Sc3  1  0.750000  0.081965  0.792386  1
  Ti  Ti4  1  0.250000  0.704540  0.989930  1
  Ti  Ti5  1  0.250000  0.795460  0.489930  1
  Ti  Ti6  1  0.750000  0.295460  0.010070  1
  Ti  Ti7  1  0.750000  0.204540  0.510070  1
  Co  Co8  1  0.250000  0.406176  0.487399  1
  Co  Co9  1  0.250000  0.093824  0.987399  1
  Co  Co10  1  0.750000  0.593824  0.512601  1
  Co  Co11  1  0.750000  0.906176  0.012601  1
  Co  Co12  1  0.250000  0.220809  0.176000  1
  Co  Co13  1  0.250000  0.279192  0.676000  1
  Co  Co14  1  0.750000  0.779192  0.824000  1
  Co  Co15  1  0.750000  0.720808  0.324000  1
  Co  Co16  1  0.250000  0.885639  0.701224  1
  Co  Co17  1  0.250000  0.614361  0.201224  1
  Co  Co18  1  0.750000  0.114361  0.298776  1
  Co  Co19  1  0.750000  0.385639  0.798776  1
  Co  Co20  1  0.250000  0.463400  0.932378  1
  Co  Co21  1  0.250000  0.036600  0.432378  1
  Co  Co22  1  0.750000  0.536600  0.067622  1
  Co  Co23  1  0.750000  0.963400  0.567622  1
  P  P24  1  0.250000  0.421496  0.118595  1
  P  P25  1  0.250000  0.078504  0.618595  1
  P  P26  1  0.750000  0.578504  0.881405  1
  P  P27  1  0.750000  0.921496  0.381405  1
  P  P28  1  0.250000  0.263789  0.861485  1
  P  P29  1  0.250000  0.236211  0.361485  1
  P  P30  1  0.750000  0.736211  0.138515  1
  P  P31  1  0.750000  0.763789  0.638515  1
  P  P32  1  0.250000  0.588592  0.387557  1
  P  P33  1  0.250000  0.911408  0.887557  1
  P  P34  1  0.750000  0.411408  0.612443  1
  P  P35  1  0.750000  0.088592  0.112443  1
