# generated using pymatgen
data_Hf16CrCo4Pt3
_symmetry_space_group_name_H-M   'P 1'
_cell_length_a   8.63341934
_cell_length_b   8.57946400
_cell_length_c   8.57946300
_cell_angle_alpha   60.00000001
_cell_angle_beta   60.20652038
_cell_angle_gamma   60.20652071
_symmetry_Int_Tables_number   1
_chemical_formula_structural   Hf16CrCo4Pt3
_chemical_formula_sum   'Hf16 Cr1 Co4 Pt3'
_cell_volume   450.75104847
_cell_formula_units_Z   1
loop_
 _symmetry_equiv_pos_site_id
 _symmetry_equiv_pos_as_xyz
  1  'x, y, z'
loop_
 _atom_site_type_symbol
 _atom_site_label
 _atom_site_symmetry_multiplicity
 _atom_site_fract_x
 _atom_site_fract_y
 _atom_site_fract_z
 _atom_site_occupancy
  Hf  Hf0  1  0.074444  0.641852  0.641852  1
  Hf  Hf1  1  0.647944  0.061128  0.645464  1
  Hf  Hf2  1  0.647944  0.645464  0.061128  1
  Hf  Hf3  1  0.647944  0.645464  0.645464  1
  Hf  Hf4  1  0.807989  0.800636  0.195687  1
  Hf  Hf5  1  0.193306  0.194746  0.805974  1
  Hf  Hf6  1  0.807989  0.195687  0.800636  1
  Hf  Hf7  1  0.193306  0.805974  0.194746  1
  Hf  Hf8  1  0.193306  0.805974  0.805974  1
  Hf  Hf9  1  0.807989  0.195687  0.195687  1
  Hf  Hf10  1  0.435691  0.437407  0.063451  1
  Hf  Hf11  1  0.050048  0.075922  0.437015  1
  Hf  Hf12  1  0.435691  0.063451  0.437407  1
  Hf  Hf13  1  0.050048  0.437015  0.075922  1
  Hf  Hf14  1  0.050048  0.437015  0.437015  1
  Hf  Hf15  1  0.435691  0.063451  0.063451  1
  Cr  Cr16  1  0.747614  0.417462  0.417462  1
  Co  Co17  1  0.425171  0.858277  0.858277  1
  Co  Co18  1  0.861561  0.429857  0.854292  1
  Co  Co19  1  0.861561  0.854292  0.429857  1
  Co  Co20  1  0.861561  0.854292  0.854292  1
  Pt  Pt21  1  0.421051  0.755108  0.411920  1
  Pt  Pt22  1  0.421051  0.411920  0.755108  1
  Pt  Pt23  1  0.421051  0.411920  0.411920  1
