# generated using pymatgen
data_TbDyNi10
_symmetry_space_group_name_H-M   'P 1'
_cell_length_a   3.94394200
_cell_length_b   4.86510000
_cell_length_c   8.42449600
_cell_angle_alpha   90.00000000
_cell_angle_beta   90.00000000
_cell_angle_gamma   90.00000000
_symmetry_Int_Tables_number   1
_chemical_formula_structural   TbDyNi10
_chemical_formula_sum   'Tb1 Dy1 Ni10'
_cell_volume   161.64646790
_cell_formula_units_Z   1
loop_
 _symmetry_equiv_pos_site_id
 _symmetry_equiv_pos_as_xyz
  1  'x, y, z'
loop_
 _atom_site_type_symbol
 _atom_site_label
 _atom_site_symmetry_multiplicity
 _atom_site_fract_x
 _atom_site_fract_y
 _atom_site_fract_z
 _atom_site_occupancy
  Tb  Tb0  1  0.000000  0.000000  0.500000  1
  Dy  Dy1  1  0.000000  0.500000  0.000000  1
  Ni  Ni2  1  0.000000  0.500000  0.332525  1
  Ni  Ni3  1  0.000000  0.000000  0.834129  1
  Ni  Ni4  1  0.000000  0.000000  0.165871  1
  Ni  Ni5  1  0.000000  0.500000  0.667475  1
  Ni  Ni6  1  0.500000  0.500000  0.500000  1
  Ni  Ni7  1  0.500000  0.000000  0.000000  1
  Ni  Ni8  1  0.500000  0.749744  0.249334  1
  Ni  Ni9  1  0.500000  0.250256  0.750666  1
  Ni  Ni10  1  0.500000  0.250256  0.249334  1
  Ni  Ni11  1  0.500000  0.749744  0.750666  1
