# generated using pymatgen
data_Ho3In3HgIrPt
_symmetry_space_group_name_H-M   'P 1'
_cell_length_a   7.79223000
_cell_length_b   7.79223162
_cell_length_c   3.87344100
_cell_angle_alpha   90.00000000
_cell_angle_beta   90.00000000
_cell_angle_gamma   119.99999313
_symmetry_Int_Tables_number   1
_chemical_formula_structural   Ho3In3HgIrPt
_chemical_formula_sum   'Ho3 In3 Hg1 Ir1 Pt1'
_cell_volume   203.68133039
_cell_formula_units_Z   1
loop_
 _symmetry_equiv_pos_site_id
 _symmetry_equiv_pos_as_xyz
  1  'x, y, z'
loop_
 _atom_site_type_symbol
 _atom_site_label
 _atom_site_symmetry_multiplicity
 _atom_site_fract_x
 _atom_site_fract_y
 _atom_site_fract_z
 _atom_site_occupancy
  Ho  Ho0  1  0.582171  0.613399  0.000000  1
  Ho  Ho1  1  0.386601  0.968773  0.000000  1
  Ho  Ho2  1  0.031227  0.417829  0.000000  1
  In  In3  1  0.001597  0.741532  0.500000  1
  In  In4  1  0.258468  0.260065  0.500000  1
  In  In5  1  0.739935  0.998403  0.500000  1
  Hg  Hg6  1  0.666667  0.333333  0.500000  1
  Ir  Ir7  1  0.333333  0.666667  0.500000  1
  Pt  Pt8  1  0.000000  0.000000  0.000000  1
