# generated using pymatgen
data_YbEr(OsO3)6
_symmetry_space_group_name_H-M   'P 1'
_cell_length_a   7.37643100
_cell_length_b   5.20719740
_cell_length_c   8.18089989
_cell_angle_alpha   85.68209657
_cell_angle_beta   90.00000000
_cell_angle_gamma   90.00000000
_symmetry_Int_Tables_number   1
_chemical_formula_structural   YbEr(OsO3)6
_chemical_formula_sum   'Yb1 Er1 Os6 O18'
_cell_volume   313.34081923
_cell_formula_units_Z   1
loop_
 _symmetry_equiv_pos_site_id
 _symmetry_equiv_pos_as_xyz
  1  'x, y, z'
loop_
 _atom_site_type_symbol
 _atom_site_label
 _atom_site_symmetry_multiplicity
 _atom_site_fract_x
 _atom_site_fract_y
 _atom_site_fract_z
 _atom_site_occupancy
  Yb  Yb0  1  0.250000  0.969122  0.430177  1
  Er  Er1  1  0.750000  0.035106  0.569422  1
  Os  Os2  1  0.999771  0.004006  0.000509  1
  Os  Os3  1  0.500229  0.004006  0.000509  1
  Os  Os4  1  0.003909  0.541864  0.691015  1
  Os  Os5  1  0.496091  0.541864  0.691015  1
  Os  Os6  1  0.997903  0.461769  0.307819  1
  Os  Os7  1  0.502097  0.461769  0.307819  1
  O  O8  1  0.250000  0.912069  0.981177  1
  O  O9  1  0.934023  0.858152  0.785573  1
  O  O10  1  0.565977  0.858152  0.785573  1
  O  O11  1  0.955177  0.735037  0.472102  1
  O  O12  1  0.544823  0.735037  0.472102  1
  O  O13  1  0.250000  0.638798  0.671585  1
  O  O14  1  0.959023  0.688207  0.123315  1
  O  O15  1  0.540977  0.688207  0.123315  1
  O  O16  1  0.250000  0.571575  0.311472  1
  O  O17  1  0.750000  0.413364  0.690780  1
  O  O18  1  0.041132  0.319219  0.879069  1
  O  O19  1  0.458868  0.319219  0.879069  1
  O  O20  1  0.750000  0.330632  0.332708  1
  O  O21  1  0.033645  0.261818  0.528453  1
  O  O22  1  0.466355  0.261818  0.528453  1
  O  O23  1  0.064383  0.151715  0.210033  1
  O  O24  1  0.435617  0.151715  0.210033  1
  O  O25  1  0.750000  0.085759  0.016899  1
