# generated using pymatgen
data_Yb6Pu2GePd24
_symmetry_space_group_name_H-M   'P 1'
_cell_length_a   8.31900388
_cell_length_b   8.31900373
_cell_length_c   8.31900300
_cell_angle_alpha   89.91629128
_cell_angle_beta   89.91629128
_cell_angle_gamma   89.91628616
_symmetry_Int_Tables_number   1
_chemical_formula_structural   Yb6Pu2GePd24
_chemical_formula_sum   'Yb6 Pu2 Ge1 Pd24'
_cell_volume   575.72161847
_cell_formula_units_Z   1
loop_
 _symmetry_equiv_pos_site_id
 _symmetry_equiv_pos_as_xyz
  1  'x, y, z'
loop_
 _atom_site_type_symbol
 _atom_site_label
 _atom_site_symmetry_multiplicity
 _atom_site_fract_x
 _atom_site_fract_y
 _atom_site_fract_z
 _atom_site_occupancy
  Yb  Yb0  1  0.748238  0.748238  0.251169  1
  Yb  Yb1  1  0.748238  0.251169  0.748238  1
  Yb  Yb2  1  0.251762  0.251762  0.748831  1
  Yb  Yb3  1  0.251762  0.748831  0.251762  1
  Yb  Yb4  1  0.251169  0.748238  0.748238  1
  Yb  Yb5  1  0.748831  0.251762  0.251762  1
  Pu  Pu6  1  0.253178  0.253178  0.253178  1
  Pu  Pu7  1  0.746822  0.746822  0.746822  1
  Ge  Ge8  1  0.000000  0.000000  0.000000  1
  Pd  Pd9  1  0.260532  0.498643  0.002551  1
  Pd  Pd10  1  0.739468  0.501357  0.997449  1
  Pd  Pd11  1  0.002551  0.260532  0.498643  1
  Pd  Pd12  1  0.498643  0.260532  0.002551  1
  Pd  Pd13  1  0.997449  0.739468  0.501357  1
  Pd  Pd14  1  0.501357  0.739468  0.997449  1
  Pd  Pd15  1  0.498643  0.002551  0.260532  1
  Pd  Pd16  1  0.260532  0.002551  0.498643  1
  Pd  Pd17  1  0.501357  0.997449  0.739468  1
  Pd  Pd18  1  0.739468  0.997449  0.501357  1
  Pd  Pd19  1  0.002551  0.498643  0.260532  1
  Pd  Pd20  1  0.997449  0.501357  0.739468  1
  Pd  Pd21  1  0.253284  0.499499  0.499499  1
  Pd  Pd22  1  0.746716  0.500501  0.500501  1
  Pd  Pd23  1  0.499499  0.253284  0.499499  1
  Pd  Pd24  1  0.500501  0.746716  0.500501  1
  Pd  Pd25  1  0.499499  0.499499  0.253284  1
  Pd  Pd26  1  0.500501  0.500501  0.746716  1
  Pd  Pd27  1  0.291264  0.999685  0.999685  1
  Pd  Pd28  1  0.708736  0.000315  0.000315  1
  Pd  Pd29  1  0.999685  0.291264  0.999685  1
  Pd  Pd30  1  0.000315  0.708736  0.000315  1
  Pd  Pd31  1  0.999685  0.999685  0.291264  1
  Pd  Pd32  1  0.000315  0.000315  0.708736  1
