# generated using pymatgen
data_Nd20Si15Pt
_symmetry_space_group_name_H-M   'P 1'
_cell_length_a   7.79568409
_cell_length_b   7.94351027
_cell_length_c   15.14697388
_cell_angle_alpha   89.74992865
_cell_angle_beta   89.64276141
_cell_angle_gamma   90.03217017
_symmetry_Int_Tables_number   1
_chemical_formula_structural   Nd20Si15Pt
_chemical_formula_sum   'Nd20 Si15 Pt1'
_cell_volume   937.95049259
_cell_formula_units_Z   1
loop_
 _symmetry_equiv_pos_site_id
 _symmetry_equiv_pos_as_xyz
  1  'x, y, z'
loop_
 _atom_site_type_symbol
 _atom_site_label
 _atom_site_symmetry_multiplicity
 _atom_site_fract_x
 _atom_site_fract_y
 _atom_site_fract_z
 _atom_site_occupancy
  Nd  Nd0  1  0.135450  0.512486  0.748402  1
  Nd  Nd1  1  0.812900  0.328095  0.617801  1
  Nd  Nd2  1  0.458255  0.686122  0.898918  1
  Nd  Nd3  1  0.958178  0.813588  0.898223  1
  Nd  Nd4  1  0.185978  0.683581  0.120651  1
  Nd  Nd5  1  0.690929  0.819017  0.120809  1
  Nd  Nd6  1  0.309787  0.180276  0.878023  1
  Nd  Nd7  1  0.187567  0.677888  0.379691  1
  Nd  Nd8  1  0.041725  0.186722  0.102109  1
  Nd  Nd9  1  0.313353  0.179333  0.622128  1
  Nd  Nd10  1  0.856500  0.490321  0.257432  1
  Nd  Nd11  1  0.363171  0.009188  0.251980  1
  Nd  Nd12  1  0.536194  0.316691  0.397881  1
  Nd  Nd13  1  0.811047  0.317358  0.878644  1
  Nd  Nd14  1  0.963516  0.816004  0.600607  1
  Nd  Nd15  1  0.461563  0.686280  0.602788  1
  Nd  Nd16  1  0.042901  0.184053  0.398433  1
  Nd  Nd17  1  0.689481  0.816295  0.382676  1
  Nd  Nd18  1  0.638608  0.992510  0.749091  1
  Nd  Nd19  1  0.542064  0.313136  0.101621  1
  Si  Si20  1  0.478346  0.602918  0.245744  1
  Si  Si21  1  0.250058  0.379353  0.246923  1
  Si  Si22  1  0.517646  0.400454  0.751096  1
  Si  Si23  1  0.632656  0.025856  0.958751  1
  Si  Si24  1  0.017160  0.101163  0.749733  1
  Si  Si25  1  0.746761  0.622013  0.751162  1
  Si  Si26  1  0.750810  0.120470  0.248148  1
  Si  Si27  1  0.365023  0.970661  0.460550  1
  Si  Si28  1  0.981239  0.900573  0.248517  1
  Si  Si29  1  0.365707  0.974428  0.040854  1
  Si  Si30  1  0.635209  0.025148  0.542328  1
  Si  Si31  1  0.135476  0.472896  0.959292  1
  Si  Si32  1  0.146948  0.474217  0.542435  1
  Si  Si33  1  0.866771  0.525485  0.039646  1
  Si  Si34  1  0.247986  0.878486  0.751239  1
  Pt  Pt35  1  0.863037  0.516937  0.455678  1
