# generated using pymatgen
data_Ho2ErCdSi2Ag3
_symmetry_space_group_name_H-M   'P 1'
_cell_length_a   7.19320801
_cell_length_b   7.19320803
_cell_length_c   4.20695500
_cell_angle_alpha   90.00000000
_cell_angle_beta   90.00000000
_cell_angle_gamma   119.99521897
_symmetry_Int_Tables_number   1
_chemical_formula_structural   Ho2ErCdSi2Ag3
_chemical_formula_sum   'Ho2 Er1 Cd1 Si2 Ag3'
_cell_volume   188.52313735
_cell_formula_units_Z   1
loop_
 _symmetry_equiv_pos_site_id
 _symmetry_equiv_pos_as_xyz
  1  'x, y, z'
loop_
 _atom_site_type_symbol
 _atom_site_label
 _atom_site_symmetry_multiplicity
 _atom_site_fract_x
 _atom_site_fract_y
 _atom_site_fract_z
 _atom_site_occupancy
  Ho  Ho0  1  0.427468  0.000039  0.500000  1
  Ho  Ho1  1  0.000039  0.427468  0.500000  1
  Er  Er2  1  0.572379  0.572379  0.500000  1
  Cd  Cd3  1  0.999792  0.999792  0.500000  1
  Si  Si4  1  0.333576  0.666564  0.000000  1
  Si  Si5  1  0.666564  0.333576  0.000000  1
  Ag  Ag6  1  0.736837  0.999894  0.000000  1
  Ag  Ag7  1  0.999894  0.736837  0.000000  1
  Ag  Ag8  1  0.263450  0.263450  0.000000  1
