# generated using pymatgen
data_Tb8Ho5Er7(CoBi2)4
_symmetry_space_group_name_H-M   'P 1'
_cell_length_a   7.98598031
_cell_length_b   8.88510215
_cell_length_c   12.36802901
_cell_angle_alpha   89.99087090
_cell_angle_beta   90.01721646
_cell_angle_gamma   90.00399866
_symmetry_Int_Tables_number   1
_chemical_formula_structural   Tb8Ho5Er7(CoBi2)4
_chemical_formula_sum   'Tb8 Ho5 Er7 Co4 Bi8'
_cell_volume   877.58891491
_cell_formula_units_Z   1
loop_
 _symmetry_equiv_pos_site_id
 _symmetry_equiv_pos_as_xyz
  1  'x, y, z'
loop_
 _atom_site_type_symbol
 _atom_site_label
 _atom_site_symmetry_multiplicity
 _atom_site_fract_x
 _atom_site_fract_y
 _atom_site_fract_z
 _atom_site_occupancy
  Tb  Tb0  1  0.347045  0.749990  0.699592  1
  Tb  Tb1  1  0.652971  0.249998  0.300358  1
  Tb  Tb2  1  0.846876  0.250084  0.800319  1
  Tb  Tb3  1  0.153024  0.749948  0.199734  1
  Tb  Tb4  1  0.884319  0.749877  0.811017  1
  Tb  Tb5  1  0.115290  0.250192  0.188961  1
  Tb  Tb6  1  0.384560  0.249956  0.688782  1
  Tb  Tb7  1  0.615463  0.750008  0.311198  1
  Ho  Ho8  1  0.175725  0.038030  0.937197  1
  Ho  Ho9  1  0.052802  0.749990  0.497767  1
  Ho  Ho10  1  0.947167  0.250014  0.502211  1
  Ho  Ho11  1  0.553057  0.250108  0.002208  1
  Ho  Ho12  1  0.447568  0.749854  0.997838  1
  Er  Er13  1  0.674810  0.538192  0.562776  1
  Er  Er14  1  0.325148  0.461745  0.437195  1
  Er  Er15  1  0.174847  0.461968  0.937265  1
  Er  Er16  1  0.325138  0.038241  0.437217  1
  Er  Er17  1  0.825196  0.538415  0.062810  1
  Er  Er18  1  0.674828  0.961816  0.562772  1
  Er  Er19  1  0.825043  0.961668  0.062839  1
  Co  Co20  1  0.065667  0.749798  0.991946  1
  Co  Co21  1  0.933557  0.250273  0.008218  1
  Co  Co22  1  0.565898  0.249993  0.508038  1
  Co  Co23  1  0.434089  0.749992  0.491931  1
  Bi  Bi24  1  0.571125  0.509299  0.827640  1
  Bi  Bi25  1  0.428750  0.490667  0.172316  1
  Bi  Bi26  1  0.071200  0.490668  0.672329  1
  Bi  Bi27  1  0.428668  0.009315  0.172278  1
  Bi  Bi28  1  0.928728  0.509359  0.327746  1
  Bi  Bi29  1  0.571563  0.990594  0.827574  1
  Bi  Bi30  1  0.928782  0.990648  0.327691  1
  Bi  Bi31  1  0.071097  0.009299  0.672232  1
