# generated using pymatgen
data_DyYTh2(Al3Re)2
_symmetry_space_group_name_H-M   'P 1'
_cell_length_a   5.54239700
_cell_length_b   5.54239623
_cell_length_c   9.09501100
_cell_angle_alpha   90.00000000
_cell_angle_beta   90.00000000
_cell_angle_gamma   119.99999862
_symmetry_Int_Tables_number   1
_chemical_formula_structural   DyYTh2(Al3Re)2
_chemical_formula_sum   'Dy1 Y1 Th2 Al6 Re2'
_cell_volume   241.95191730
_cell_formula_units_Z   1
loop_
 _symmetry_equiv_pos_site_id
 _symmetry_equiv_pos_as_xyz
  1  'x, y, z'
loop_
 _atom_site_type_symbol
 _atom_site_label
 _atom_site_symmetry_multiplicity
 _atom_site_fract_x
 _atom_site_fract_y
 _atom_site_fract_z
 _atom_site_occupancy
  Dy  Dy0  1  0.666667  0.333333  0.942430  1
  Y  Y1  1  0.333333  0.666667  0.057563  1
  Th  Th2  1  0.333333  0.666667  0.456217  1
  Th  Th3  1  0.666667  0.333333  0.543861  1
  Al  Al4  1  0.837902  0.162098  0.243268  1
  Al  Al5  1  0.837902  0.675805  0.243268  1
  Al  Al6  1  0.324195  0.162098  0.243268  1
  Al  Al7  1  0.162076  0.837924  0.756736  1
  Al  Al8  1  0.162076  0.324152  0.756736  1
  Al  Al9  1  0.675848  0.837924  0.756736  1
  Re  Re10  1  0.000000  0.000000  0.500006  1
  Re  Re11  1  0.000000  0.000000  0.999909  1
