# generated using pymatgen
data_Nd2Th2Cd2CuPd3
_symmetry_space_group_name_H-M   'P 1'
_cell_length_a   7.87378112
_cell_length_b   7.87378192
_cell_length_c   3.86491300
_cell_angle_alpha   90.00000000
_cell_angle_beta   90.00000000
_cell_angle_gamma   91.67595473
_symmetry_Int_Tables_number   1
_chemical_formula_structural   Nd2Th2Cd2CuPd3
_chemical_formula_sum   'Nd2 Th2 Cd2 Cu1 Pd3'
_cell_volume   239.50832898
_cell_formula_units_Z   1
loop_
 _symmetry_equiv_pos_site_id
 _symmetry_equiv_pos_as_xyz
  1  'x, y, z'
loop_
 _atom_site_type_symbol
 _atom_site_label
 _atom_site_symmetry_multiplicity
 _atom_site_fract_x
 _atom_site_fract_y
 _atom_site_fract_z
 _atom_site_occupancy
  Nd  Nd0  1  0.174473  0.325527  0.500000  1
  Nd  Nd1  1  0.825742  0.674258  0.500000  1
  Th  Th2  1  0.672045  0.175542  0.500000  1
  Th  Th3  1  0.324458  0.827955  0.500000  1
  Cd  Cd4  1  0.996333  0.000034  0.000000  1
  Cd  Cd5  1  0.499966  0.503667  0.000000  1
  Cu  Cu6  1  0.622871  0.877129  0.000000  1
  Pd  Pd7  1  0.131546  0.631657  0.000000  1
  Pd  Pd8  1  0.868343  0.368454  0.000000  1
  Pd  Pd9  1  0.384224  0.115776  0.000000  1
