# generated using pymatgen
data_Sc8Mn3B24Ir
_symmetry_space_group_name_H-M   'P 1'
_cell_length_a   3.39658300
_cell_length_b   8.83223556
_cell_length_c   11.14144236
_cell_angle_alpha   90.05532420
_cell_angle_beta   90.00000000
_cell_angle_gamma   90.00000000
_symmetry_Int_Tables_number   1
_chemical_formula_structural   Sc8Mn3B24Ir
_chemical_formula_sum   'Sc8 Mn3 B24 Ir1'
_cell_volume   334.23666586
_cell_formula_units_Z   1
loop_
 _symmetry_equiv_pos_site_id
 _symmetry_equiv_pos_as_xyz
  1  'x, y, z'
loop_
 _atom_site_type_symbol
 _atom_site_label
 _atom_site_symmetry_multiplicity
 _atom_site_fract_x
 _atom_site_fract_y
 _atom_site_fract_z
 _atom_site_occupancy
  Sc  Sc0  1  0.500000  0.314679  0.417146  1
  Sc  Sc1  1  0.500000  0.680037  0.592973  1
  Sc  Sc2  1  0.500000  0.177441  0.912658  1
  Sc  Sc3  1  0.500000  0.827414  0.078635  1
  Sc  Sc4  1  0.500000  0.438664  0.126800  1
  Sc  Sc5  1  0.500000  0.557119  0.869517  1
  Sc  Sc6  1  0.500000  0.057064  0.630895  1
  Sc  Sc7  1  0.500000  0.947560  0.370162  1
  Mn  Mn8  1  0.500000  0.138850  0.180607  1
  Mn  Mn9  1  0.500000  0.860874  0.819640  1
  Mn  Mn10  1  0.500000  0.361107  0.679713  1
  B  B11  1  0.000000  0.100865  0.472938  1
  B  B12  1  0.000000  0.899977  0.528308  1
  B  B13  1  0.000000  0.398816  0.971896  1
  B  B14  1  0.000000  0.600689  0.026691  1
  B  B15  1  0.000000  0.130560  0.316187  1
  B  B16  1  0.000000  0.870262  0.684636  1
  B  B17  1  0.000000  0.369926  0.815741  1
  B  B18  1  0.000000  0.630582  0.180546  1
  B  B19  1  0.000000  0.053541  0.065555  1
  B  B20  1  0.000000  0.946520  0.932977  1
  B  B21  1  0.000000  0.445387  0.567509  1
  B  B22  1  0.000000  0.552202  0.437189  1
  B  B23  1  0.000000  0.477478  0.287469  1
  B  B24  1  0.000000  0.518492  0.712328  1
  B  B25  1  0.000000  0.018880  0.788142  1
  B  B26  1  0.000000  0.982521  0.211069  1
  B  B27  1  0.000000  0.249159  0.079853  1
  B  B28  1  0.000000  0.750212  0.918670  1
  B  B29  1  0.000000  0.249381  0.581576  1
  B  B30  1  0.000000  0.752768  0.423078  1
  B  B31  1  0.000000  0.291829  0.235406  1
  B  B32  1  0.000000  0.707215  0.764524  1
  B  B33  1  0.000000  0.207078  0.735955  1
  B  B34  1  0.000000  0.795660  0.262349  1
  Ir  Ir35  1  0.500000  0.639195  0.320661  1
