# generated using pymatgen
data_Sm5YNiBr10
_symmetry_space_group_name_H-M   'P 1'
_cell_length_a   7.44277947
_cell_length_b   9.36122909
_cell_length_c   9.37705908
_cell_angle_alpha   108.54675911
_cell_angle_beta   96.78690242
_cell_angle_gamma   105.70421052
_symmetry_Int_Tables_number   1
_chemical_formula_structural   Sm5YNiBr10
_chemical_formula_sum   'Sm5 Y1 Ni1 Br10'
_cell_volume   581.15388567
_cell_formula_units_Z   1
loop_
 _symmetry_equiv_pos_site_id
 _symmetry_equiv_pos_as_xyz
  1  'x, y, z'
loop_
 _atom_site_type_symbol
 _atom_site_label
 _atom_site_symmetry_multiplicity
 _atom_site_fract_x
 _atom_site_fract_y
 _atom_site_fract_z
 _atom_site_occupancy
  Sm  Sm0  1  0.877761  0.956801  0.245747  1
  Sm  Sm1  1  0.126214  0.045044  0.755541  1
  Sm  Sm2  1  0.030010  0.703688  0.906754  1
  Sm  Sm3  1  0.972695  0.297029  0.094854  1
  Sm  Sm4  1  0.641107  0.864767  0.821972  1
  Y  Y5  1  0.355578  0.133039  0.175538  1
  Ni  Ni6  1  0.000006  0.000080  0.999654  1
  Br  Br7  1  0.643678  0.543066  0.727827  1
  Br  Br8  1  0.360734  0.451193  0.272870  1
  Br  Br9  1  0.745935  0.916158  0.543426  1
  Br  Br10  1  0.259526  0.086718  0.453750  1
  Br  Br11  1  0.913755  0.633132  0.174672  1
  Br  Br12  1  0.086201  0.366849  0.825715  1
  Br  Br13  1  0.547483  0.178598  0.919662  1
  Br  Br14  1  0.451431  0.827303  0.087329  1
  Br  Br15  1  0.209867  0.740382  0.649301  1
  Br  Br16  1  0.778019  0.256155  0.345389  1
