# generated using pymatgen
data_Rb2As2PbO7
_symmetry_space_group_name_H-M   'P 1'
_cell_length_a   6.09405195
_cell_length_b   7.45078533
_cell_length_c   10.98019309
_cell_angle_alpha   103.86808683
_cell_angle_beta   97.95127176
_cell_angle_gamma   106.47538275
_symmetry_Int_Tables_number   1
_chemical_formula_structural   Rb2As2PbO7
_chemical_formula_sum   'Rb4 As4 Pb2 O14'
_cell_volume   452.61454347
_cell_formula_units_Z   2
loop_
 _symmetry_equiv_pos_site_id
 _symmetry_equiv_pos_as_xyz
  1  'x, y, z'
loop_
 _atom_site_type_symbol
 _atom_site_label
 _atom_site_symmetry_multiplicity
 _atom_site_fract_x
 _atom_site_fract_y
 _atom_site_fract_z
 _atom_site_occupancy
  Rb  Rb0  1  0.312090  0.588323  0.757437  1
  Rb  Rb1  1  0.111088  0.268693  0.016055  1
  Rb  Rb2  1  0.888912  0.731307  0.983945  1
  Rb  Rb3  1  0.687910  0.411677  0.242563  1
  As  As4  1  0.489992  0.883383  0.173470  1
  As  As5  1  0.703588  0.323683  0.618363  1
  As  As6  1  0.296412  0.676317  0.381637  1
  As  As7  1  0.510008  0.116617  0.826530  1
  Pb  Pb8  1  0.854639  0.877367  0.634770  1
  Pb  Pb9  1  0.145361  0.122633  0.365230  1
  O  O10  1  0.429702  0.715339  0.536467  1
  O  O11  1  0.466855  0.194369  0.682009  1
  O  O12  1  0.077200  0.775634  0.364107  1
  O  O13  1  0.229648  0.983778  0.823191  1
  O  O14  1  0.309790  0.026757  0.188235  1
  O  O15  1  0.570298  0.284661  0.463533  1
  O  O16  1  0.798507  0.563750  0.709544  1
  O  O17  1  0.365414  0.679358  0.046264  1
  O  O18  1  0.533145  0.805631  0.317991  1
  O  O19  1  0.634586  0.320642  0.953736  1
  O  O20  1  0.922800  0.224366  0.635893  1
  O  O21  1  0.770352  0.016222  0.176809  1
  O  O22  1  0.201493  0.436250  0.290456  1
  O  O23  1  0.690210  0.973243  0.811765  1
