# generated using pymatgen
data_Ho3CdSn3Ir2
_symmetry_space_group_name_H-M   'P 1'
_cell_length_a   7.68765300
_cell_length_b   7.68765243
_cell_length_c   3.93302400
_cell_angle_alpha   90.00000000
_cell_angle_beta   90.00000000
_cell_angle_gamma   119.99999700
_symmetry_Int_Tables_number   1
_chemical_formula_structural   Ho3CdSn3Ir2
_chemical_formula_sum   'Ho3 Cd1 Sn3 Ir2'
_cell_volume   201.30045362
_cell_formula_units_Z   1
loop_
 _symmetry_equiv_pos_site_id
 _symmetry_equiv_pos_as_xyz
  1  'x, y, z'
loop_
 _atom_site_type_symbol
 _atom_site_label
 _atom_site_symmetry_multiplicity
 _atom_site_fract_x
 _atom_site_fract_y
 _atom_site_fract_z
 _atom_site_occupancy
  Ho  Ho0  1  0.383536  0.410062  0.500000  1
  Ho  Ho1  1  0.589938  0.973475  0.500000  1
  Ho  Ho2  1  0.026525  0.616464  0.500000  1
  Cd  Cd3  1  0.666667  0.333333  0.000000  1
  Sn  Sn4  1  0.744255  0.746249  0.000000  1
  Sn  Sn5  1  0.253751  0.998007  0.000000  1
  Sn  Sn6  1  0.001993  0.255745  0.000000  1
  Ir  Ir7  1  0.333333  0.666667  0.000000  1
  Ir  Ir8  1  0.000000  0.000000  0.500000  1
