# generated using pymatgen
data_Tb3Lu2InSb2
_symmetry_space_group_name_H-M   'P 1'
_cell_length_a   8.93151277
_cell_length_b   8.93793135
_cell_length_c   6.39140000
_cell_angle_alpha   90.00000000
_cell_angle_beta   90.00000000
_cell_angle_gamma   120.02376903
_symmetry_Int_Tables_number   1
_chemical_formula_structural   Tb3Lu2InSb2
_chemical_formula_sum   'Tb6 Lu4 In2 Sb4'
_cell_volume   441.75817940
_cell_formula_units_Z   2
loop_
 _symmetry_equiv_pos_site_id
 _symmetry_equiv_pos_as_xyz
  1  'x, y, z'
loop_
 _atom_site_type_symbol
 _atom_site_label
 _atom_site_symmetry_multiplicity
 _atom_site_fract_x
 _atom_site_fract_y
 _atom_site_fract_z
 _atom_site_occupancy
  Tb  Tb0  1  0.001979  0.758723  0.750000  1
  Tb  Tb1  1  0.001979  0.243255  0.250000  1
  Tb  Tb2  1  0.757576  0.759433  0.250000  1
  Tb  Tb3  1  0.757576  0.998143  0.750000  1
  Tb  Tb4  1  0.241073  0.236938  0.750000  1
  Tb  Tb5  1  0.241073  0.004135  0.250000  1
  Lu  Lu6  1  0.334585  0.667293  0.500000  1
  Lu  Lu7  1  0.664136  0.332068  0.000000  1
  Lu  Lu8  1  0.664136  0.332068  0.500000  1
  Lu  Lu9  1  0.334585  0.667293  0.000000  1
  In  In10  1  0.397193  0.998125  0.750000  1
  In  In11  1  0.397193  0.399068  0.250000  1
  Sb  Sb12  1  0.999801  0.606097  0.250000  1
  Sb  Sb13  1  0.999801  0.393703  0.750000  1
  Sb  Sb14  1  0.603658  0.603168  0.750000  1
  Sb  Sb15  1  0.603658  0.000490  0.250000  1
