# generated using pymatgen
data_Hf6Al16Co2Ni5
_symmetry_space_group_name_H-M   'P 1'
_cell_length_a   8.47789816
_cell_length_b   8.47789846
_cell_length_c   8.47433200
_cell_angle_alpha   60.01391493
_cell_angle_beta   60.01391376
_cell_angle_gamma   59.90736489
_symmetry_Int_Tables_number   1
_chemical_formula_structural   Hf6Al16Co2Ni5
_chemical_formula_sum   'Hf6 Al16 Co2 Ni5'
_cell_volume   430.48011419
_cell_formula_units_Z   1
loop_
 _symmetry_equiv_pos_site_id
 _symmetry_equiv_pos_as_xyz
  1  'x, y, z'
loop_
 _atom_site_type_symbol
 _atom_site_label
 _atom_site_symmetry_multiplicity
 _atom_site_fract_x
 _atom_site_fract_y
 _atom_site_fract_z
 _atom_site_occupancy
  Hf  Hf0  1  0.690931  0.690931  0.309069  1
  Hf  Hf1  1  0.313166  0.686834  0.311919  1
  Hf  Hf2  1  0.686834  0.313166  0.311919  1
  Hf  Hf3  1  0.309069  0.309069  0.690931  1
  Hf  Hf4  1  0.686834  0.313166  0.688081  1
  Hf  Hf5  1  0.313166  0.686834  0.688081  1
  Al  Al6  1  0.881945  0.881945  0.353681  1
  Al  Al7  1  0.877935  0.354702  0.883681  1
  Al  Al8  1  0.354702  0.877935  0.883681  1
  Al  Al9  1  0.881945  0.881945  0.882429  1
  Al  Al10  1  0.118055  0.118055  0.646319  1
  Al  Al11  1  0.122065  0.645298  0.116319  1
  Al  Al12  1  0.645298  0.122065  0.116319  1
  Al  Al13  1  0.118055  0.118055  0.117571  1
  Al  Al14  1  0.664960  0.664960  0.002692  1
  Al  Al15  1  0.665236  0.002811  0.665977  1
  Al  Al16  1  0.002811  0.665236  0.665977  1
  Al  Al17  1  0.664960  0.664960  0.667389  1
  Al  Al18  1  0.335040  0.335040  0.997308  1
  Al  Al19  1  0.334764  0.997189  0.334023  1
  Al  Al20  1  0.997189  0.334764  0.334023  1
  Al  Al21  1  0.335040  0.335040  0.332611  1
  Co  Co22  1  0.000000  0.000000  0.000000  1
  Co  Co23  1  0.500000  0.500000  0.000000  1
  Ni  Ni24  1  0.000000  0.000000  0.500000  1
  Ni  Ni25  1  0.500000  0.000000  0.500000  1
  Ni  Ni26  1  0.000000  0.500000  0.500000  1
  Ni  Ni27  1  0.000000  0.500000  0.000000  1
  Ni  Ni28  1  0.500000  0.000000  0.000000  1
