# generated using pymatgen
data_Mg3Ta(InRh2)4
_symmetry_space_group_name_H-M   'P 1'
_cell_length_a   6.35926700
_cell_length_b   6.35890300
_cell_length_c   6.47770600
_cell_angle_alpha   90.00000000
_cell_angle_beta   90.00189245
_cell_angle_gamma   90.00000000
_symmetry_Int_Tables_number   1
_chemical_formula_structural   Mg3Ta(InRh2)4
_chemical_formula_sum   'Mg3 Ta1 In4 Rh8'
_cell_volume   261.94522903
_cell_formula_units_Z   1
loop_
 _symmetry_equiv_pos_site_id
 _symmetry_equiv_pos_as_xyz
  1  'x, y, z'
loop_
 _atom_site_type_symbol
 _atom_site_label
 _atom_site_symmetry_multiplicity
 _atom_site_fract_x
 _atom_site_fract_y
 _atom_site_fract_z
 _atom_site_occupancy
  Mg  Mg0  1  0.250031  0.750001  0.999998  1
  Mg  Mg1  1  0.250026  0.750001  0.499993  1
  Mg  Mg2  1  0.749953  0.250000  0.500004  1
  Ta  Ta3  1  0.750102  0.250000  0.999988  1
  In  In4  1  0.250044  0.250000  0.999999  1
  In  In5  1  0.749978  0.750001  0.999996  1
  In  In6  1  0.750017  0.750001  0.500002  1
  In  In7  1  0.249999  0.250000  0.499998  1
  Rh  Rh8  1  0.994338  0.005653  0.246921  1
  Rh  Rh9  1  0.994338  0.494348  0.246921  1
  Rh  Rh10  1  0.505626  0.005637  0.246952  1
  Rh  Rh11  1  0.505626  0.494362  0.246952  1
  Rh  Rh12  1  0.505624  0.005641  0.753058  1
  Rh  Rh13  1  0.505624  0.494360  0.753058  1
  Rh  Rh14  1  0.994338  0.005648  0.753081  1
  Rh  Rh15  1  0.994338  0.494351  0.753081  1
