# generated using pymatgen
data_ZnFe4Co8Si3
_symmetry_space_group_name_H-M   'P 1'
_cell_length_a   13.25483543
_cell_length_b   13.25483550
_cell_length_c   13.25483415
_cell_angle_alpha   17.33501198
_cell_angle_beta   17.33501042
_cell_angle_gamma   17.33500929
_symmetry_Int_Tables_number   1
_chemical_formula_structural   ZnFe4Co8Si3
_chemical_formula_sum   'Zn1 Fe4 Co8 Si3'
_cell_volume   180.41147992
_cell_formula_units_Z   1
loop_
 _symmetry_equiv_pos_site_id
 _symmetry_equiv_pos_as_xyz
  1  'x, y, z'
loop_
 _atom_site_type_symbol
 _atom_site_label
 _atom_site_symmetry_multiplicity
 _atom_site_fract_x
 _atom_site_fract_y
 _atom_site_fract_z
 _atom_site_occupancy
  Zn  Zn0  1  0.000000  0.000000  0.000000  1
  Fe  Fe1  1  0.874723  0.874723  0.874723  1
  Fe  Fe2  1  0.125277  0.125277  0.125277  1
  Fe  Fe3  1  0.374382  0.374382  0.374382  1
  Fe  Fe4  1  0.625618  0.625618  0.625618  1
  Co  Co5  1  0.187489  0.187489  0.187489  1
  Co  Co6  1  0.437936  0.437936  0.437936  1
  Co  Co7  1  0.689413  0.689413  0.689413  1
  Co  Co8  1  0.935454  0.935454  0.935454  1
  Co  Co9  1  0.812511  0.812511  0.812511  1
  Co  Co10  1  0.064546  0.064546  0.064546  1
  Co  Co11  1  0.310587  0.310587  0.310587  1
  Co  Co12  1  0.562064  0.562064  0.562064  1
  Si  Si13  1  0.250011  0.250011  0.250011  1
  Si  Si14  1  0.500000  0.500000  0.500000  1
  Si  Si15  1  0.749989  0.749989  0.749989  1
