# generated using pymatgen
data_Gd6BeC2I5
_symmetry_space_group_name_H-M   'P 1'
_cell_length_a   3.89440400
_cell_length_b   8.92295250
_cell_length_c   11.49278980
_cell_angle_alpha   91.29703025
_cell_angle_beta   90.00000000
_cell_angle_gamma   90.00000000
_symmetry_Int_Tables_number   1
_chemical_formula_structural   Gd6BeC2I5
_chemical_formula_sum   'Gd6 Be1 C2 I5'
_cell_volume   399.26731549
_cell_formula_units_Z   1
loop_
 _symmetry_equiv_pos_site_id
 _symmetry_equiv_pos_as_xyz
  1  'x, y, z'
loop_
 _atom_site_type_symbol
 _atom_site_label
 _atom_site_symmetry_multiplicity
 _atom_site_fract_x
 _atom_site_fract_y
 _atom_site_fract_z
 _atom_site_occupancy
  Gd  Gd0  1  0.250000  0.914971  0.609199  1
  Gd  Gd1  1  0.750000  0.079853  0.395534  1
  Gd  Gd2  1  0.250000  0.888907  0.158846  1
  Gd  Gd3  1  0.750000  0.096338  0.837560  1
  Gd  Gd4  1  0.250000  0.287290  0.620016  1
  Gd  Gd5  1  0.750000  0.706201  0.381121  1
  Be  Be6  1  0.250000  0.876427  0.874347  1
  C  C7  1  0.250000  0.884824  0.376611  1
  C  C8  1  0.750000  0.114687  0.617586  1
  I  I9  1  0.750000  0.153300  0.124509  1
  I  I10  1  0.250000  0.371019  0.878535  1
  I  I11  1  0.750000  0.622683  0.119262  1
  I  I12  1  0.250000  0.386356  0.364681  1
  I  I13  1  0.750000  0.617145  0.642192  1
