# generated using pymatgen
data_Hf16Sc2GaRe8P
_symmetry_space_group_name_H-M   'P 1'
_cell_length_a   8.60250152
_cell_length_b   8.57810712
_cell_length_c   8.63985700
_cell_angle_alpha   90.00000000
_cell_angle_beta   90.00000000
_cell_angle_gamma   119.90623773
_symmetry_Int_Tables_number   1
_chemical_formula_structural   Hf16Sc2GaRe8P
_chemical_formula_sum   'Hf16 Sc2 Ga1 Re8 P1'
_cell_volume   552.66627062
_cell_formula_units_Z   1
loop_
 _symmetry_equiv_pos_site_id
 _symmetry_equiv_pos_as_xyz
  1  'x, y, z'
loop_
 _atom_site_type_symbol
 _atom_site_label
 _atom_site_symmetry_multiplicity
 _atom_site_fract_x
 _atom_site_fract_y
 _atom_site_fract_z
 _atom_site_occupancy
  Hf  Hf0  1  0.193610  0.806213  0.452943  1
  Hf  Hf1  1  0.193610  0.387397  0.452943  1
  Hf  Hf2  1  0.614635  0.807318  0.451678  1
  Hf  Hf3  1  0.803579  0.195273  0.548602  1
  Hf  Hf4  1  0.803579  0.608307  0.548602  1
  Hf  Hf5  1  0.392587  0.196294  0.549024  1
  Hf  Hf6  1  0.803579  0.195273  0.951398  1
  Hf  Hf7  1  0.803579  0.608307  0.951398  1
  Hf  Hf8  1  0.392587  0.196294  0.950976  1
  Hf  Hf9  1  0.193610  0.806213  0.047057  1
  Hf  Hf10  1  0.193610  0.387397  0.047057  1
  Hf  Hf11  1  0.614635  0.807318  0.048322  1
  Hf  Hf12  1  0.540899  0.458609  0.250000  1
  Hf  Hf13  1  0.540899  0.082290  0.250000  1
  Hf  Hf14  1  0.917903  0.458952  0.250000  1
  Hf  Hf15  1  0.074545  0.537273  0.750000  1
  Sc  Sc16  1  0.458218  0.541279  0.750000  1
  Sc  Sc17  1  0.458218  0.916938  0.750000  1
  Ga  Ga18  1  0.334218  0.667109  0.250000  1
  Re  Re19  1  0.891190  0.110071  0.250000  1
  Re  Re20  1  0.891190  0.781118  0.250000  1
  Re  Re21  1  0.219964  0.109982  0.250000  1
  Re  Re22  1  0.108540  0.890578  0.750000  1
  Re  Re23  1  0.108540  0.217963  0.750000  1
  Re  Re24  1  0.781288  0.890644  0.750000  1
  Re  Re25  1  0.000855  0.000427  0.500263  1
  Re  Re26  1  0.000855  0.000427  0.999737  1
  P  P27  1  0.669477  0.334738  0.750000  1
