# generated using pymatgen
data_Dy3Ga3GePt2
_symmetry_space_group_name_H-M   'P 1'
_cell_length_a   7.18837400
_cell_length_b   7.18837494
_cell_length_c   4.03645800
_cell_angle_alpha   90.00000000
_cell_angle_beta   90.00000000
_cell_angle_gamma   120.00000489
_symmetry_Int_Tables_number   1
_chemical_formula_structural   Dy3Ga3GePt2
_chemical_formula_sum   'Dy3 Ga3 Ge1 Pt2'
_cell_volume   180.63106153
_cell_formula_units_Z   1
loop_
 _symmetry_equiv_pos_site_id
 _symmetry_equiv_pos_as_xyz
  1  'x, y, z'
loop_
 _atom_site_type_symbol
 _atom_site_label
 _atom_site_symmetry_multiplicity
 _atom_site_fract_x
 _atom_site_fract_y
 _atom_site_fract_z
 _atom_site_occupancy
  Dy  Dy0  1  0.592066  0.004354  0.500000  1
  Dy  Dy1  1  0.412288  0.407934  0.500000  1
  Dy  Dy2  1  0.995646  0.587712  0.500000  1
  Ga  Ga3  1  0.760842  0.746969  0.000000  1
  Ga  Ga4  1  0.986128  0.239158  0.000000  1
  Ga  Ga5  1  0.253031  0.013872  0.000000  1
  Ge  Ge6  1  0.333333  0.666667  0.000000  1
  Pt  Pt7  1  0.666667  0.333333  0.000000  1
  Pt  Pt8  1  0.000000  0.000000  0.500000  1
