# generated using pymatgen
data_Ba5Nd7YNi4O21
_symmetry_space_group_name_H-M   'P 1'
_cell_length_a   10.44383843
_cell_length_b   10.44383713
_cell_length_c   10.43151255
_cell_angle_alpha   94.56810284
_cell_angle_beta   94.52691788
_cell_angle_gamma   147.31112916
_symmetry_Int_Tables_number   1
_chemical_formula_structural   Ba5Nd7YNi4O21
_chemical_formula_sum   'Ba5 Nd7 Y1 Ni4 O21'
_cell_volume   589.60803984
_cell_formula_units_Z   1
loop_
 _symmetry_equiv_pos_site_id
 _symmetry_equiv_pos_as_xyz
  1  'x, y, z'
loop_
 _atom_site_type_symbol
 _atom_site_label
 _atom_site_symmetry_multiplicity
 _atom_site_fract_x
 _atom_site_fract_y
 _atom_site_fract_z
 _atom_site_occupancy
  Ba  Ba0  1  0.999205  0.001446  0.000652  1
  Ba  Ba1  1  0.135991  0.535047  0.671037  1
  Ba  Ba2  1  0.864601  0.466466  0.331068  1
  Ba  Ba3  1  0.466108  0.135543  0.601651  1
  Ba  Ba4  1  0.533209  0.862980  0.396189  1
  Nd  Nd5  1  0.164632  0.250253  0.414886  1
  Nd  Nd6  1  0.834261  0.750552  0.584813  1
  Nd  Nd7  1  0.751685  0.165478  0.917163  1
  Nd  Nd8  1  0.250592  0.832887  0.083479  1
  Nd  Nd9  1  0.355522  0.411921  0.767443  1
  Nd  Nd10  1  0.643525  0.589619  0.233144  1
  Nd  Nd11  1  0.588975  0.355937  0.944912  1
  Y  Y12  1  0.411655  0.642891  0.054546  1
  Ni  Ni13  1  0.248516  0.040516  0.289033  1
  Ni  Ni14  1  0.751565  0.959649  0.711213  1
  Ni  Ni15  1  0.958791  0.247337  0.206128  1
  Ni  Ni16  1  0.040981  0.751528  0.792508  1
  O  O17  1  0.498351  0.502758  0.001109  1
  O  O18  1  0.967493  0.627036  0.594528  1
  O  O19  1  0.031896  0.372442  0.404338  1
  O  O20  1  0.372908  0.967189  0.340099  1
  O  O21  1  0.628338  0.032738  0.661074  1
  O  O22  1  0.289895  0.427418  0.221865  1
  O  O23  1  0.200142  0.065063  0.775508  1
  O  O24  1  0.070099  0.294661  0.868549  1
  O  O25  1  0.425377  0.200389  0.135368  1
  O  O26  1  0.710444  0.575366  0.775508  1
  O  O27  1  0.794446  0.931970  0.221865  1
  O  O28  1  0.934980  0.709991  0.135368  1
  O  O29  1  0.573888  0.798449  0.868549  1
  O  O30  1  0.498948  0.616081  0.594005  1
  O  O31  1  0.021481  0.906490  0.406177  1
  O  O32  1  0.905066  0.498770  0.884240  1
  O  O33  1  0.610453  0.010883  0.113784  1
  O  O34  1  0.499689  0.384697  0.406177  1
  O  O35  1  0.977922  0.095056  0.594005  1
  O  O36  1  0.102900  0.503331  0.113784  1
  O  O37  1  0.385470  0.979174  0.884240  1
