# generated using pymatgen
data_Co7Ni13(B2W)3
_symmetry_space_group_name_H-M   'P 1'
_cell_length_a   7.43313102
_cell_length_b   7.43313097
_cell_length_c   7.43313054
_cell_angle_alpha   60.02273951
_cell_angle_beta   60.02272806
_cell_angle_gamma   60.02273655
_symmetry_Int_Tables_number   1
_chemical_formula_structural   Co7Ni13(B2W)3
_chemical_formula_sum   'Co7 Ni13 B6 W3'
_cell_volume   290.55215664
_cell_formula_units_Z   1
loop_
 _symmetry_equiv_pos_site_id
 _symmetry_equiv_pos_as_xyz
  1  'x, y, z'
loop_
 _atom_site_type_symbol
 _atom_site_label
 _atom_site_symmetry_multiplicity
 _atom_site_fract_x
 _atom_site_fract_y
 _atom_site_fract_z
 _atom_site_occupancy
  Co  Co0  1  0.617865  0.617865  0.146415  1
  Co  Co1  1  0.617865  0.146415  0.617865  1
  Co  Co2  1  0.146415  0.617865  0.617865  1
  Co  Co3  1  0.618070  0.618070  0.618070  1
  Co  Co4  1  0.382238  0.382238  0.853748  1
  Co  Co5  1  0.382238  0.853748  0.382238  1
  Co  Co6  1  0.853748  0.382238  0.382238  1
  Ni  Ni7  1  0.382500  0.382500  0.382500  1
  Ni  Ni8  1  0.999803  0.999803  0.340797  1
  Ni  Ni9  1  0.659418  0.000407  0.340237  1
  Ni  Ni10  1  0.000407  0.659418  0.340237  1
  Ni  Ni11  1  0.659418  0.340237  0.000407  1
  Ni  Ni12  1  0.999803  0.340797  0.999803  1
  Ni  Ni13  1  0.000407  0.340237  0.659418  1
  Ni  Ni14  1  0.340237  0.659418  0.000407  1
  Ni  Ni15  1  0.340237  0.000407  0.659418  1
  Ni  Ni16  1  0.340797  0.999803  0.999803  1
  Ni  Ni17  1  0.000263  0.000263  0.660020  1
  Ni  Ni18  1  0.000263  0.660020  0.000263  1
  Ni  Ni19  1  0.660020  0.000263  0.000263  1
  B  B20  1  0.723256  0.723256  0.276787  1
  B  B21  1  0.275577  0.726207  0.275577  1
  B  B22  1  0.726207  0.275577  0.275577  1
  B  B23  1  0.275577  0.275577  0.726207  1
  B  B24  1  0.723256  0.276787  0.723256  1
  B  B25  1  0.276787  0.723256  0.723256  1
  W  W26  1  0.999872  0.999872  0.999872  1
  W  W27  1  0.749988  0.749988  0.749988  1
  W  W28  1  0.247468  0.247468  0.247468  1
