# generated using pymatgen
data_Tb3CrCoP6Ir7
_symmetry_space_group_name_H-M   'P 1'
_cell_length_a   3.89955000
_cell_length_b   11.14919100
_cell_length_c   12.76304300
_cell_angle_alpha   90.00000000
_cell_angle_beta   90.00000000
_cell_angle_gamma   90.00000000
_symmetry_Int_Tables_number   1
_chemical_formula_structural   Tb3CrCoP6Ir7
_chemical_formula_sum   'Tb6 Cr2 Co2 P12 Ir14'
_cell_volume   554.89662226
_cell_formula_units_Z   2
loop_
 _symmetry_equiv_pos_site_id
 _symmetry_equiv_pos_as_xyz
  1  'x, y, z'
loop_
 _atom_site_type_symbol
 _atom_site_label
 _atom_site_symmetry_multiplicity
 _atom_site_fract_x
 _atom_site_fract_y
 _atom_site_fract_z
 _atom_site_occupancy
  Tb  Tb0  1  0.000000  0.500000  0.518794  1
  Tb  Tb1  1  0.500000  0.000000  0.481206  1
  Tb  Tb2  1  0.500000  0.817704  0.200999  1
  Tb  Tb3  1  0.500000  0.182296  0.200999  1
  Tb  Tb4  1  0.000000  0.682296  0.799001  1
  Tb  Tb5  1  0.000000  0.317704  0.799001  1
  Cr  Cr6  1  0.500000  0.500000  0.162698  1
  Cr  Cr7  1  0.000000  0.000000  0.837302  1
  Co  Co8  1  0.000000  0.500000  0.988518  1
  Co  Co9  1  0.500000  0.000000  0.011482  1
  P  P10  1  0.500000  0.500000  0.883177  1
  P  P11  1  0.000000  0.000000  0.116823  1
  P  P12  1  0.500000  0.500000  0.346327  1
  P  P13  1  0.000000  0.000000  0.653673  1
  P  P14  1  0.500000  0.314708  0.619270  1
  P  P15  1  0.500000  0.685292  0.619270  1
  P  P16  1  0.000000  0.185292  0.380730  1
  P  P17  1  0.000000  0.814708  0.380730  1
  P  P18  1  0.500000  0.851504  0.894174  1
  P  P19  1  0.500000  0.148496  0.894174  1
  P  P20  1  0.000000  0.648496  0.105826  1
  P  P21  1  0.000000  0.351504  0.105826  1
  Ir  Ir22  1  0.500000  0.500000  0.703046  1
  Ir  Ir23  1  0.000000  0.000000  0.296954  1
  Ir  Ir24  1  0.500000  0.336426  0.993978  1
  Ir  Ir25  1  0.500000  0.663574  0.993978  1
  Ir  Ir26  1  0.000000  0.163574  0.006022  1
  Ir  Ir27  1  0.000000  0.836426  0.006022  1
  Ir  Ir28  1  0.500000  0.292132  0.429092  1
  Ir  Ir29  1  0.500000  0.707868  0.429092  1
  Ir  Ir30  1  0.000000  0.207868  0.570908  1
  Ir  Ir31  1  0.000000  0.792132  0.570908  1
  Ir  Ir32  1  0.500000  0.873676  0.715176  1
  Ir  Ir33  1  0.500000  0.126324  0.715176  1
  Ir  Ir34  1  0.000000  0.626324  0.284824  1
  Ir  Ir35  1  0.000000  0.373676  0.284824  1
