# generated using pymatgen
data_LaCuHgPd3
_symmetry_space_group_name_H-M   'P 1'
_cell_length_a   5.52925809
_cell_length_b   5.52925771
_cell_length_c   5.28636093
_cell_angle_alpha   58.46805583
_cell_angle_beta   58.46805235
_cell_angle_gamma   60.00000152
_symmetry_Int_Tables_number   1
_chemical_formula_structural   LaCuHgPd3
_chemical_formula_sum   'La1 Cu1 Hg1 Pd3'
_cell_volume   111.56326006
_cell_formula_units_Z   1
loop_
 _symmetry_equiv_pos_site_id
 _symmetry_equiv_pos_as_xyz
  1  'x, y, z'
loop_
 _atom_site_type_symbol
 _atom_site_label
 _atom_site_symmetry_multiplicity
 _atom_site_fract_x
 _atom_site_fract_y
 _atom_site_fract_z
 _atom_site_occupancy
  La  La0  1  0.251315  0.251315  0.246056  1
  Cu  Cu1  1  0.626027  0.626027  0.121918  1
  Hg  Hg2  1  0.996419  0.996419  0.010742  1
  Pd  Pd3  1  0.626410  0.123418  0.623761  1
  Pd  Pd4  1  0.123418  0.626410  0.623761  1
  Pd  Pd5  1  0.626410  0.626410  0.623761  1
