# generated using pymatgen
data_Tb4Dy6CuPb6S
_symmetry_space_group_name_H-M   'P 1'
_cell_length_a   9.18889002
_cell_length_b   9.18888946
_cell_length_c   6.68859800
_cell_angle_alpha   90.00025835
_cell_angle_beta   90.00025476
_cell_angle_gamma   120.00755338
_symmetry_Int_Tables_number   1
_chemical_formula_structural   Tb4Dy6CuPb6S
_chemical_formula_sum   'Tb4 Dy6 Cu1 Pb6 S1'
_cell_volume   489.05617497
_cell_formula_units_Z   1
loop_
 _symmetry_equiv_pos_site_id
 _symmetry_equiv_pos_as_xyz
  1  'x, y, z'
loop_
 _atom_site_type_symbol
 _atom_site_label
 _atom_site_symmetry_multiplicity
 _atom_site_fract_x
 _atom_site_fract_y
 _atom_site_fract_z
 _atom_site_occupancy
  Tb  Tb0  1  0.248480  0.000244  0.240461  1
  Tb  Tb1  1  0.751520  0.999756  0.759539  1
  Tb  Tb2  1  0.000244  0.248480  0.240461  1
  Tb  Tb3  1  0.999756  0.751520  0.759539  1
  Dy  Dy4  1  0.751962  0.751962  0.239605  1
  Dy  Dy5  1  0.248038  0.248038  0.760395  1
  Dy  Dy6  1  0.333338  0.666662  0.000000  1
  Dy  Dy7  1  0.666662  0.333338  0.000000  1
  Dy  Dy8  1  0.666601  0.333399  0.500000  1
  Dy  Dy9  1  0.333399  0.666601  0.500000  1
  Cu  Cu10  1  0.000000  0.000000  0.500000  1
  Pb  Pb11  1  0.606446  0.999646  0.250414  1
  Pb  Pb12  1  0.393554  0.000354  0.749586  1
  Pb  Pb13  1  0.999646  0.606446  0.250414  1
  Pb  Pb14  1  0.000354  0.393554  0.749586  1
  Pb  Pb15  1  0.394513  0.394513  0.250312  1
  Pb  Pb16  1  0.605487  0.605487  0.749688  1
  S  S17  1  0.000000  0.000000  0.000000  1
