# generated using pymatgen
data_HoCrF7
_symmetry_space_group_name_H-M   'P 1'
_cell_length_a   5.43913900
_cell_length_b   8.70523806
_cell_length_c   11.68062037
_cell_angle_alpha   63.05052844
_cell_angle_beta   90.00000000
_cell_angle_gamma   90.00000000
_symmetry_Int_Tables_number   1
_chemical_formula_structural   HoCrF7
_chemical_formula_sum   'Ho4 Cr4 F28'
_cell_volume   493.00637819
_cell_formula_units_Z   4
loop_
 _symmetry_equiv_pos_site_id
 _symmetry_equiv_pos_as_xyz
  1  'x, y, z'
loop_
 _atom_site_type_symbol
 _atom_site_label
 _atom_site_symmetry_multiplicity
 _atom_site_fract_x
 _atom_site_fract_y
 _atom_site_fract_z
 _atom_site_occupancy
  Ho  Ho0  1  0.761036  0.809182  0.766487  1
  Ho  Ho1  1  0.261036  0.190818  0.733513  1
  Ho  Ho2  1  0.238964  0.190818  0.233513  1
  Ho  Ho3  1  0.738964  0.809182  0.266487  1
  Cr  Cr4  1  0.757428  0.273000  0.956753  1
  Cr  Cr5  1  0.257428  0.727000  0.543247  1
  Cr  Cr6  1  0.242572  0.727000  0.043247  1
  Cr  Cr7  1  0.742572  0.273000  0.456753  1
  F  F8  1  0.433123  0.704902  0.920679  1
  F  F9  1  0.933123  0.295098  0.579321  1
  F  F10  1  0.566877  0.295098  0.079321  1
  F  F11  1  0.066877  0.704902  0.420679  1
  F  F12  1  0.449224  0.277532  0.541177  1
  F  F13  1  0.949224  0.722468  0.958823  1
  F  F14  1  0.550776  0.722468  0.458823  1
  F  F15  1  0.050776  0.277532  0.041177  1
  F  F16  1  0.775776  0.510707  0.862613  1
  F  F17  1  0.275776  0.489293  0.637387  1
  F  F18  1  0.224224  0.489293  0.137387  1
  F  F19  1  0.724224  0.510707  0.362613  1
  F  F20  1  0.755254  0.037420  0.045749  1
  F  F21  1  0.255254  0.962580  0.454251  1
  F  F22  1  0.244746  0.962580  0.954251  1
  F  F23  1  0.744746  0.037420  0.545749  1
  F  F24  1  0.973242  0.726827  0.634345  1
  F  F25  1  0.473242  0.273173  0.865655  1
  F  F26  1  0.026758  0.273173  0.365655  1
  F  F27  1  0.526758  0.726827  0.134345  1
  F  F28  1  0.054652  0.745226  0.171527  1
  F  F29  1  0.554652  0.254774  0.328473  1
  F  F30  1  0.945348  0.254774  0.828473  1
  F  F31  1  0.445348  0.745226  0.671527  1
  F  F32  1  0.412989  0.970287  0.229651  1
  F  F33  1  0.912989  0.029713  0.270349  1
  F  F34  1  0.587011  0.029713  0.770349  1
  F  F35  1  0.087011  0.970287  0.729651  1
