# generated using pymatgen
data_SmSc(SbO4)2
_symmetry_space_group_name_H-M   'P 1'
_cell_length_a   5.37792504
_cell_length_b   7.52309438
_cell_length_c   7.61809022
_cell_angle_alpha   80.51160344
_cell_angle_beta   86.80787001
_cell_angle_gamma   91.37005723
_symmetry_Int_Tables_number   1
_chemical_formula_structural   SmSc(SbO4)2
_chemical_formula_sum   'Sm2 Sc2 Sb4 O16'
_cell_volume   303.35776093
_cell_formula_units_Z   2
loop_
 _symmetry_equiv_pos_site_id
 _symmetry_equiv_pos_as_xyz
  1  'x, y, z'
loop_
 _atom_site_type_symbol
 _atom_site_label
 _atom_site_symmetry_multiplicity
 _atom_site_fract_x
 _atom_site_fract_y
 _atom_site_fract_z
 _atom_site_occupancy
  Sm  Sm0  1  0.749703  0.878825  0.370993  1
  Sm  Sm1  1  0.250297  0.121175  0.629007  1
  Sc  Sc2  1  0.717397  0.369687  0.332339  1
  Sc  Sc3  1  0.282603  0.630313  0.667661  1
  Sb  Sb4  1  0.776515  0.806233  0.841083  1
  Sb  Sb5  1  0.223485  0.193767  0.158917  1
  Sb  Sb6  1  0.247238  0.685844  0.171236  1
  Sb  Sb7  1  0.752762  0.314156  0.828764  1
  O  O8  1  0.900022  0.305092  0.068096  1
  O  O9  1  0.099978  0.694908  0.931904  1
  O  O10  1  0.383829  0.438382  0.176532  1
  O  O11  1  0.616171  0.561618  0.823468  1
  O  O12  1  0.107866  0.935757  0.173497  1
  O  O13  1  0.892134  0.064243  0.826503  1
  O  O14  1  0.580010  0.808429  0.070551  1
  O  O15  1  0.419990  0.191571  0.929449  1
  O  O16  1  0.002682  0.817684  0.616063  1
  O  O17  1  0.997318  0.182316  0.383937  1
  O  O18  1  0.407029  0.678589  0.403357  1
  O  O19  1  0.592971  0.321411  0.596643  1
  O  O20  1  0.484861  0.122358  0.329616  1
  O  O21  1  0.515139  0.877642  0.670384  1
  O  O22  1  0.927523  0.602244  0.300192  1
  O  O23  1  0.072477  0.397756  0.699808  1
