# generated using pymatgen
data_Li2HoLu2AgPb3
_symmetry_space_group_name_H-M   'P 1'
_cell_length_a   7.29480700
_cell_length_b   7.29827407
_cell_length_c   4.61699700
_cell_angle_alpha   90.00000000
_cell_angle_beta   90.00000000
_cell_angle_gamma   119.98429113
_symmetry_Int_Tables_number   1
_chemical_formula_structural   Li2HoLu2AgPb3
_chemical_formula_sum   'Li2 Ho1 Lu2 Ag1 Pb3'
_cell_volume   212.90846189
_cell_formula_units_Z   1
loop_
 _symmetry_equiv_pos_site_id
 _symmetry_equiv_pos_as_xyz
  1  'x, y, z'
loop_
 _atom_site_type_symbol
 _atom_site_label
 _atom_site_symmetry_multiplicity
 _atom_site_fract_x
 _atom_site_fract_y
 _atom_site_fract_z
 _atom_site_occupancy
  Li  Li0  1  0.772159  0.768452  0.000000  1
  Li  Li1  1  0.003707  0.231548  0.000000  1
  Ho  Ho2  1  0.548437  0.000000  0.500000  1
  Lu  Lu3  1  0.434961  0.430850  0.500000  1
  Lu  Lu4  1  0.004109  0.569150  0.500000  1
  Ag  Ag5  1  0.235832  0.000000  0.000000  1
  Pb  Pb6  1  0.984373  0.000000  0.500000  1
  Pb  Pb7  1  0.336061  0.655699  0.000000  1
  Pb  Pb8  1  0.680363  0.344301  0.000000  1
