# generated using pymatgen
data_Li3HfZrNi9As7
_symmetry_space_group_name_H-M   'P 1'
_cell_length_a   9.44840260
_cell_length_b   9.46673628
_cell_length_c   3.81177600
_cell_angle_alpha   90.00000000
_cell_angle_beta   90.00000000
_cell_angle_gamma   119.83975381
_symmetry_Int_Tables_number   1
_chemical_formula_structural   Li3HfZrNi9As7
_chemical_formula_sum   'Li3 Hf1 Zr1 Ni9 As7'
_cell_volume   295.74382532
_cell_formula_units_Z   1
loop_
 _symmetry_equiv_pos_site_id
 _symmetry_equiv_pos_as_xyz
  1  'x, y, z'
loop_
 _atom_site_type_symbol
 _atom_site_label
 _atom_site_symmetry_multiplicity
 _atom_site_fract_x
 _atom_site_fract_y
 _atom_site_fract_z
 _atom_site_occupancy
  Li  Li0  1  0.442623  0.215716  0.500000  1
  Li  Li1  1  0.778199  0.222236  0.500000  1
  Li  Li2  1  0.003466  0.006296  0.500000  1
  Hf  Hf3  1  0.768702  0.553553  0.500000  1
  Zr  Zr4  1  0.325505  0.666784  0.000000  1
  Ni  Ni5  1  0.273118  0.376338  0.500000  1
  Ni  Ni6  1  0.625922  0.899891  0.500000  1
  Ni  Ni7  1  0.107824  0.721159  0.500000  1
  Ni  Ni8  1  0.498537  0.456446  0.000000  1
  Ni  Ni9  1  0.546222  0.037089  0.000000  1
  Ni  Ni10  1  0.956361  0.501093  0.000000  1
  Ni  Ni11  1  0.721678  0.760746  0.000000  1
  Ni  Ni12  1  0.247753  0.966625  0.000000  1
  Ni  Ni13  1  0.042310  0.281289  0.000000  1
  As  As14  1  0.977697  0.768241  0.000000  1
  As  As15  1  0.243903  0.211188  0.000000  1
  As  As16  1  0.793765  0.033935  0.000000  1
  As  As17  1  0.662050  0.323738  0.000000  1
  As  As18  1  0.527485  0.622286  0.500000  1
  As  As19  1  0.381456  0.920071  0.500000  1
  As  As20  1  0.075423  0.455281  0.500000  1
