# generated using pymatgen
data_Gd6Zn22CuS
_symmetry_space_group_name_H-M   'P 1'
_cell_length_a   8.97614437
_cell_length_b   8.99662601
_cell_length_c   8.99662600
_cell_angle_alpha   60.08506189
_cell_angle_beta   60.07527813
_cell_angle_gamma   60.07528376
_symmetry_Int_Tables_number   1
_chemical_formula_structural   Gd6Zn22CuS
_chemical_formula_sum   'Gd6 Zn22 Cu1 S1'
_cell_volume   514.64344506
_cell_formula_units_Z   1
loop_
 _symmetry_equiv_pos_site_id
 _symmetry_equiv_pos_as_xyz
  1  'x, y, z'
loop_
 _atom_site_type_symbol
 _atom_site_label
 _atom_site_symmetry_multiplicity
 _atom_site_fract_x
 _atom_site_fract_y
 _atom_site_fract_z
 _atom_site_occupancy
  Gd  Gd0  1  0.713702  0.286338  0.286016  1
  Gd  Gd1  1  0.713669  0.286551  0.713559  1
  Gd  Gd2  1  0.712726  0.713477  0.286904  1
  Gd  Gd3  1  0.286298  0.713662  0.713984  1
  Gd  Gd4  1  0.286331  0.713449  0.286441  1
  Gd  Gd5  1  0.287274  0.286523  0.713096  1
  Zn  Zn6  1  0.626195  0.121927  0.121272  1
  Zn  Zn7  1  0.124697  0.626258  0.124467  1
  Zn  Zn8  1  0.124402  0.124240  0.626403  1
  Zn  Zn9  1  0.130024  0.121681  0.121766  1
  Zn  Zn10  1  0.373805  0.878073  0.878728  1
  Zn  Zn11  1  0.875303  0.373742  0.875533  1
  Zn  Zn12  1  0.875598  0.875760  0.373597  1
  Zn  Zn13  1  0.869976  0.878319  0.878234  1
  Zn  Zn14  1  0.500000  0.000000  0.500000  1
  Zn  Zn15  1  0.500000  0.500000  0.000000  1
  Zn  Zn16  1  0.000000  0.500000  0.500000  1
  Zn  Zn17  1  0.000000  0.500000  0.000000  1
  Zn  Zn18  1  0.000000  0.000000  0.500000  1
  Zn  Zn19  1  0.000000  0.000000  0.000000  1
  Zn  Zn20  1  0.015036  0.328059  0.328739  1
  Zn  Zn21  1  0.329556  0.015623  0.324331  1
  Zn  Zn22  1  0.330295  0.323962  0.015870  1
  Zn  Zn23  1  0.328060  0.328690  0.328146  1
  Zn  Zn24  1  0.984964  0.671941  0.671261  1
  Zn  Zn25  1  0.670444  0.984377  0.675669  1
  Zn  Zn26  1  0.669705  0.676038  0.984130  1
  Zn  Zn27  1  0.671940  0.671310  0.671854  1
  Cu  Cu28  1  0.500000  0.000000  0.000000  1
  S  S29  1  0.500000  0.500000  0.500000  1
