# generated using pymatgen
data_Cs2La10Os2Br17
_symmetry_space_group_name_H-M   'P 1'
_cell_length_a   9.67968297
_cell_length_b   11.37967428
_cell_length_c   11.38008363
_cell_angle_alpha   107.44581526
_cell_angle_beta   93.39033970
_cell_angle_gamma   93.38623740
_symmetry_Int_Tables_number   1
_chemical_formula_structural   Cs2La10Os2Br17
_chemical_formula_sum   'Cs2 La10 Os2 Br17'
_cell_volume   1189.89255711
_cell_formula_units_Z   1
loop_
 _symmetry_equiv_pos_site_id
 _symmetry_equiv_pos_as_xyz
  1  'x, y, z'
loop_
 _atom_site_type_symbol
 _atom_site_label
 _atom_site_symmetry_multiplicity
 _atom_site_fract_x
 _atom_site_fract_y
 _atom_site_fract_z
 _atom_site_occupancy
  Cs  Cs0  1  0.000004  0.823793  0.176212  1
  Cs  Cs1  1  0.999996  0.176206  0.823787  1
  La  La2  1  0.438928  0.161380  0.161382  1
  La  La3  1  0.574671  0.513373  0.200217  1
  La  La4  1  0.828399  0.289870  0.289856  1
  La  La5  1  0.309384  0.432430  0.432433  1
  La  La6  1  0.425345  0.799782  0.486630  1
  La  La7  1  0.574655  0.200219  0.513371  1
  La  La8  1  0.690616  0.567570  0.567567  1
  La  La9  1  0.171602  0.710130  0.710144  1
  La  La10  1  0.425329  0.486628  0.799784  1
  La  La11  1  0.561071  0.838620  0.838618  1
  Os  Os12  1  0.571521  0.355889  0.355883  1
  Os  Os13  1  0.428479  0.644111  0.644117  1
  Br  Br14  1  0.578457  0.687053  0.021368  1
  Br  Br15  1  0.717120  0.065885  0.065888  1
  Br  Br16  1  0.857076  0.449683  0.118721  1
  Br  Br17  1  0.132564  0.206380  0.206381  1
  Br  Br18  1  0.281006  0.603530  0.255452  1
  Br  Br19  1  0.421544  0.978635  0.312950  1
  Br  Br20  1  0.718979  0.744550  0.396472  1
  Br  Br21  1  0.857088  0.118728  0.449685  1
  Br  Br22  1  0.000000  0.499999  0.499999  1
  Br  Br23  1  0.142912  0.881272  0.550315  1
  Br  Br24  1  0.281022  0.255450  0.603528  1
  Br  Br25  1  0.578456  0.021365  0.687051  1
  Br  Br26  1  0.718995  0.396470  0.744548  1
  Br  Br27  1  0.867436  0.793620  0.793619  1
  Br  Br28  1  0.142924  0.550317  0.881279  1
  Br  Br29  1  0.282880  0.934114  0.934111  1
  Br  Br30  1  0.421543  0.312948  0.978632  1
