# generated using pymatgen
data_PrPu(AsSe)2
_symmetry_space_group_name_H-M   'P 1'
_cell_length_a   3.99376100
_cell_length_b   3.99376100
_cell_length_c   8.77333500
_cell_angle_alpha   90.00000000
_cell_angle_beta   90.00000000
_cell_angle_gamma   90.00000000
_symmetry_Int_Tables_number   1
_chemical_formula_structural   PrPu(AsSe)2
_chemical_formula_sum   'Pr1 Pu1 As2 Se2'
_cell_volume   139.93580681
_cell_formula_units_Z   1
loop_
 _symmetry_equiv_pos_site_id
 _symmetry_equiv_pos_as_xyz
  1  'x, y, z'
loop_
 _atom_site_type_symbol
 _atom_site_label
 _atom_site_symmetry_multiplicity
 _atom_site_fract_x
 _atom_site_fract_y
 _atom_site_fract_z
 _atom_site_occupancy
  Pr  Pr0  1  0.000000  0.500000  0.272171  1
  Pu  Pu1  1  0.500000  0.000000  0.726567  1
  As  As2  1  0.000000  0.000000  0.988681  1
  As  As3  1  0.500000  0.500000  0.988681  1
  Se  Se4  1  0.500000  0.000000  0.381340  1
  Se  Se5  1  0.000000  0.500000  0.642560  1
