# generated using pymatgen
data_U(PRu)2
_symmetry_space_group_name_H-M   'P 1'
_cell_length_a   4.10323600
_cell_length_b   7.36811500
_cell_length_c   10.34160100
_cell_angle_alpha   90.00000000
_cell_angle_beta   90.00000000
_cell_angle_gamma   90.00000000
_symmetry_Int_Tables_number   1
_chemical_formula_structural   U(PRu)2
_chemical_formula_sum   'U4 P8 Ru8'
_cell_volume   312.65880942
_cell_formula_units_Z   4
loop_
 _symmetry_equiv_pos_site_id
 _symmetry_equiv_pos_as_xyz
  1  'x, y, z'
loop_
 _atom_site_type_symbol
 _atom_site_label
 _atom_site_symmetry_multiplicity
 _atom_site_fract_x
 _atom_site_fract_y
 _atom_site_fract_z
 _atom_site_occupancy
  U  U0  1  0.250000  0.278041  0.668363  1
  U  U1  1  0.750000  0.721959  0.331637  1
  U  U2  1  0.250000  0.778041  0.831637  1
  U  U3  1  0.750000  0.221959  0.168363  1
  P  P4  1  0.250000  0.087838  0.967745  1
  P  P5  1  0.750000  0.912162  0.032255  1
  P  P6  1  0.250000  0.587838  0.532255  1
  P  P7  1  0.750000  0.412162  0.467745  1
  P  P8  1  0.250000  0.524297  0.163324  1
  P  P9  1  0.750000  0.475703  0.836676  1
  P  P10  1  0.250000  0.024297  0.336676  1
  P  P11  1  0.750000  0.975703  0.663324  1
  Ru  Ru12  1  0.750000  0.105964  0.448179  1
  Ru  Ru13  1  0.250000  0.894036  0.551821  1
  Ru  Ru14  1  0.750000  0.605964  0.051821  1
  Ru  Ru15  1  0.250000  0.394036  0.948179  1
  Ru  Ru16  1  0.250000  0.857584  0.142183  1
  Ru  Ru17  1  0.750000  0.142416  0.857817  1
  Ru  Ru18  1  0.250000  0.357584  0.357817  1
  Ru  Ru19  1  0.750000  0.642416  0.642183  1
