# generated using pymatgen
data_Ca5Ac2Ni4Sn13
_symmetry_space_group_name_H-M   'P 1'
_cell_length_a   11.34827900
_cell_length_b   11.34827900
_cell_length_c   4.65810800
_cell_angle_alpha   90.00000000
_cell_angle_beta   90.00000000
_cell_angle_gamma   90.00000000
_symmetry_Int_Tables_number   1
_chemical_formula_structural   Ca5Ac2Ni4Sn13
_chemical_formula_sum   'Ca5 Ac2 Ni4 Sn13'
_cell_volume   599.88715472
_cell_formula_units_Z   1
loop_
 _symmetry_equiv_pos_site_id
 _symmetry_equiv_pos_as_xyz
  1  'x, y, z'
loop_
 _atom_site_type_symbol
 _atom_site_label
 _atom_site_symmetry_multiplicity
 _atom_site_fract_x
 _atom_site_fract_y
 _atom_site_fract_z
 _atom_site_occupancy
  Ca  Ca0  1  0.837604  0.171060  0.000000  1
  Ca  Ca1  1  0.828940  0.837604  0.000000  1
  Ca  Ca2  1  0.162396  0.828940  0.000000  1
  Ca  Ca3  1  0.171060  0.162396  0.000000  1
  Ca  Ca4  1  0.500000  0.500000  0.500000  1
  Ac  Ac5  1  0.000000  0.500000  0.000000  1
  Ac  Ac6  1  0.500000  0.000000  0.000000  1
  Ni  Ni7  1  0.777225  0.618444  0.500000  1
  Ni  Ni8  1  0.381556  0.777225  0.500000  1
  Ni  Ni9  1  0.618444  0.222775  0.500000  1
  Ni  Ni10  1  0.222775  0.381556  0.500000  1
  Sn  Sn11  1  0.018837  0.278816  0.500000  1
  Sn  Sn12  1  0.981163  0.721184  0.500000  1
  Sn  Sn13  1  0.217785  0.612876  0.500000  1
  Sn  Sn14  1  0.575248  0.310370  0.000000  1
  Sn  Sn15  1  0.689630  0.575248  0.000000  1
  Sn  Sn16  1  0.782215  0.387124  0.500000  1
  Sn  Sn17  1  0.721184  0.018837  0.500000  1
  Sn  Sn18  1  0.000000  0.000000  0.500000  1
  Sn  Sn19  1  0.278816  0.981163  0.500000  1
  Sn  Sn20  1  0.424752  0.689630  0.000000  1
  Sn  Sn21  1  0.612876  0.782215  0.500000  1
  Sn  Sn22  1  0.310370  0.424752  0.000000  1
  Sn  Sn23  1  0.387124  0.217785  0.500000  1
