# generated using pymatgen
data_Sb12Pd4Cl
_symmetry_space_group_name_H-M   'P 1'
_cell_length_a   8.26275183
_cell_length_b   8.26275213
_cell_length_c   8.26275200
_cell_angle_alpha   109.47122277
_cell_angle_beta   109.47122349
_cell_angle_gamma   109.47122745
_symmetry_Int_Tables_number   1
_chemical_formula_structural   Sb12Pd4Cl
_chemical_formula_sum   'Sb12 Pd4 Cl1'
_cell_volume   434.26236975
_cell_formula_units_Z   1
loop_
 _symmetry_equiv_pos_site_id
 _symmetry_equiv_pos_as_xyz
  1  'x, y, z'
loop_
 _atom_site_type_symbol
 _atom_site_label
 _atom_site_symmetry_multiplicity
 _atom_site_fract_x
 _atom_site_fract_y
 _atom_site_fract_z
 _atom_site_occupancy
  Sb  Sb0  1  0.655682  0.808798  0.153116  1
  Sb  Sb1  1  0.846884  0.344318  0.191202  1
  Sb  Sb2  1  0.502566  0.846884  0.655682  1
  Sb  Sb3  1  0.846884  0.655682  0.502566  1
  Sb  Sb4  1  0.497434  0.153116  0.344318  1
  Sb  Sb5  1  0.153116  0.655682  0.808798  1
  Sb  Sb6  1  0.808798  0.153116  0.655682  1
  Sb  Sb7  1  0.191202  0.846884  0.344318  1
  Sb  Sb8  1  0.153116  0.344318  0.497434  1
  Sb  Sb9  1  0.655682  0.502566  0.846884  1
  Sb  Sb10  1  0.344318  0.497434  0.153116  1
  Sb  Sb11  1  0.344318  0.191202  0.846884  1
  Pd  Pd12  1  0.000000  0.000000  0.500000  1
  Pd  Pd13  1  0.000000  0.500000  0.000000  1
  Pd  Pd14  1  0.500000  0.500000  0.500000  1
  Pd  Pd15  1  0.500000  0.000000  0.000000  1
  Cl  Cl16  1  0.000000  0.000000  0.000000  1
