# generated using pymatgen
data_Er10Zn3Ru
_symmetry_space_group_name_H-M   'P 1'
_cell_length_a   9.33692600
_cell_length_b   9.33692591
_cell_length_c   9.56544100
_cell_angle_alpha   90.00000000
_cell_angle_beta   90.00000000
_cell_angle_gamma   120.00000034
_symmetry_Int_Tables_number   1
_chemical_formula_structural   Er10Zn3Ru
_chemical_formula_sum   'Er20 Zn6 Ru2'
_cell_volume   722.17667394
_cell_formula_units_Z   2
loop_
 _symmetry_equiv_pos_site_id
 _symmetry_equiv_pos_as_xyz
  1  'x, y, z'
loop_
 _atom_site_type_symbol
 _atom_site_label
 _atom_site_symmetry_multiplicity
 _atom_site_fract_x
 _atom_site_fract_y
 _atom_site_fract_z
 _atom_site_occupancy
  Er  Er0  1  0.000000  0.000000  0.500000  1
  Er  Er1  1  0.000000  0.000000  0.000000  1
  Er  Er2  1  0.207974  0.792026  0.441938  1
  Er  Er3  1  0.207974  0.415948  0.441938  1
  Er  Er4  1  0.584052  0.792026  0.441938  1
  Er  Er5  1  0.792026  0.207974  0.558062  1
  Er  Er6  1  0.792026  0.584052  0.558062  1
  Er  Er7  1  0.415948  0.207974  0.558062  1
  Er  Er8  1  0.792026  0.207974  0.941938  1
  Er  Er9  1  0.792026  0.584052  0.941938  1
  Er  Er10  1  0.415948  0.207974  0.941938  1
  Er  Er11  1  0.207974  0.792026  0.058062  1
  Er  Er12  1  0.207974  0.415948  0.058062  1
  Er  Er13  1  0.584052  0.792026  0.058062  1
  Er  Er14  1  0.541346  0.458654  0.250000  1
  Er  Er15  1  0.541346  0.082692  0.250000  1
  Er  Er16  1  0.917308  0.458654  0.250000  1
  Er  Er17  1  0.458654  0.541346  0.750000  1
  Er  Er18  1  0.458654  0.917308  0.750000  1
  Er  Er19  1  0.082692  0.541346  0.750000  1
  Zn  Zn20  1  0.885660  0.114340  0.250000  1
  Zn  Zn21  1  0.885660  0.771322  0.250000  1
  Zn  Zn22  1  0.228678  0.114340  0.250000  1
  Zn  Zn23  1  0.114340  0.885660  0.750000  1
  Zn  Zn24  1  0.114340  0.228678  0.750000  1
  Zn  Zn25  1  0.771322  0.885660  0.750000  1
  Ru  Ru26  1  0.333333  0.666667  0.250000  1
  Ru  Ru27  1  0.666667  0.333333  0.750000  1
