# generated using pymatgen
data_CaNd3Zn4(Ga7Pd3)2
_symmetry_space_group_name_H-M   'P 1'
_cell_length_a   7.66791501
_cell_length_b   7.70809346
_cell_length_c   9.66122400
_cell_angle_alpha   90.00000000
_cell_angle_beta   90.00000000
_cell_angle_gamma   119.28665975
_symmetry_Int_Tables_number   1
_chemical_formula_structural   CaNd3Zn4(Ga7Pd3)2
_chemical_formula_sum   'Ca1 Nd3 Zn4 Ga14 Pd6'
_cell_volume   498.03988814
_cell_formula_units_Z   1
loop_
 _symmetry_equiv_pos_site_id
 _symmetry_equiv_pos_as_xyz
  1  'x, y, z'
loop_
 _atom_site_type_symbol
 _atom_site_label
 _atom_site_symmetry_multiplicity
 _atom_site_fract_x
 _atom_site_fract_y
 _atom_site_fract_z
 _atom_site_occupancy
  Ca  Ca0  1  0.326349  0.001032  0.750000  1
  Nd  Nd1  1  0.997377  0.670561  0.250000  1
  Nd  Nd2  1  0.003515  0.330000  0.750000  1
  Nd  Nd3  1  0.671700  0.999600  0.250000  1
  Zn  Zn4  1  0.138922  0.137613  0.250000  1
  Zn  Zn5  1  0.862275  0.863098  0.750000  1
  Zn  Zn6  1  0.342423  0.543364  0.250000  1
  Zn  Zn7  1  0.657213  0.455176  0.750000  1
  Ga  Ga8  1  0.012167  0.336568  0.084404  1
  Ga  Ga9  1  0.990404  0.665519  0.914303  1
  Ga  Ga10  1  0.990404  0.665519  0.585697  1
  Ga  Ga11  1  0.332745  0.003828  0.419318  1
  Ga  Ga12  1  0.012167  0.336568  0.415596  1
  Ga  Ga13  1  0.664621  0.995927  0.584567  1
  Ga  Ga14  1  0.664621  0.995927  0.915433  1
  Ga  Ga15  1  0.332745  0.003828  0.080682  1
  Ga  Ga16  1  0.338512  0.332582  0.562514  1
  Ga  Ga17  1  0.661986  0.665185  0.439715  1
  Ga  Ga18  1  0.661986  0.665185  0.060285  1
  Ga  Ga19  1  0.338512  0.332582  0.937486  1
  Ga  Ga20  1  0.537749  0.341065  0.250000  1
  Ga  Ga21  1  0.460109  0.657740  0.750000  1
  Pd  Pd22  1  0.675944  0.326814  0.003476  1
  Pd  Pd23  1  0.325214  0.673429  0.996738  1
  Pd  Pd24  1  0.325214  0.673429  0.503262  1
  Pd  Pd25  1  0.675944  0.326814  0.496524  1
  Pd  Pd26  1  0.999591  0.000525  0.999738  1
  Pd  Pd27  1  0.999591  0.000525  0.500262  1
