# generated using pymatgen
data_Sc5Ta3(Fe4P3)4
_symmetry_space_group_name_H-M   'P 1'
_cell_length_a   12.05616400
_cell_length_b   12.05616374
_cell_length_c   3.65013200
_cell_angle_alpha   90.00000000
_cell_angle_beta   90.00000000
_cell_angle_gamma   120.00000070
_symmetry_Int_Tables_number   1
_chemical_formula_structural   Sc5Ta3(Fe4P3)4
_chemical_formula_sum   'Sc5 Ta3 Fe16 P12'
_cell_volume   459.47034196
_cell_formula_units_Z   1
loop_
 _symmetry_equiv_pos_site_id
 _symmetry_equiv_pos_as_xyz
  1  'x, y, z'
loop_
 _atom_site_type_symbol
 _atom_site_label
 _atom_site_symmetry_multiplicity
 _atom_site_fract_x
 _atom_site_fract_y
 _atom_site_fract_z
 _atom_site_occupancy
  Sc  Sc0  1  0.820676  0.000000  0.500000  1
  Sc  Sc1  1  0.000000  0.820676  0.500000  1
  Sc  Sc2  1  0.179324  0.179324  0.500000  1
  Sc  Sc3  1  0.333333  0.666667  0.000000  1
  Sc  Sc4  1  0.666667  0.333333  0.000000  1
  Ta  Ta5  1  0.442964  0.000000  0.000000  1
  Ta  Ta6  1  0.000000  0.442964  0.000000  1
  Ta  Ta7  1  0.557036  0.557036  0.000000  1
  Fe  Fe8  1  0.280491  0.000000  0.500000  1
  Fe  Fe9  1  0.000000  0.280491  0.500000  1
  Fe  Fe10  1  0.719509  0.719509  0.500000  1
  Fe  Fe11  1  0.621298  0.802046  0.000000  1
  Fe  Fe12  1  0.197954  0.819252  0.000000  1
  Fe  Fe13  1  0.180748  0.378702  0.000000  1
  Fe  Fe14  1  0.378702  0.180748  0.000000  1
  Fe  Fe15  1  0.802046  0.621298  0.000000  1
  Fe  Fe16  1  0.819252  0.197954  0.000000  1
  Fe  Fe17  1  0.522905  0.877525  0.500000  1
  Fe  Fe18  1  0.122475  0.645380  0.500000  1
  Fe  Fe19  1  0.354620  0.477095  0.500000  1
  Fe  Fe20  1  0.477095  0.354620  0.500000  1
  Fe  Fe21  1  0.877525  0.522905  0.500000  1
  Fe  Fe22  1  0.645380  0.122475  0.500000  1
  Fe  Fe23  1  0.000000  0.000000  0.000000  1
  P  P24  1  0.180220  0.000000  0.000000  1
  P  P25  1  0.000000  0.180220  0.000000  1
  P  P26  1  0.819780  0.819780  0.000000  1
  P  P27  1  0.517241  0.688500  0.500000  1
  P  P28  1  0.311500  0.828741  0.500000  1
  P  P29  1  0.171259  0.482759  0.500000  1
  P  P30  1  0.482759  0.171259  0.500000  1
  P  P31  1  0.688500  0.517241  0.500000  1
  P  P32  1  0.828741  0.311500  0.500000  1
  P  P33  1  0.651916  0.000000  0.000000  1
  P  P34  1  0.000000  0.651916  0.000000  1
  P  P35  1  0.348084  0.348084  0.000000  1
