# generated using pymatgen
data_SmYAl3Cu7
_symmetry_space_group_name_H-M   'P 1'
_cell_length_a   4.18185000
_cell_length_b   5.11510618
_cell_length_c   8.88232539
_cell_angle_alpha   90.61108298
_cell_angle_beta   90.00000000
_cell_angle_gamma   90.00000000
_symmetry_Int_Tables_number   1
_chemical_formula_structural   SmYAl3Cu7
_chemical_formula_sum   'Sm1 Y1 Al3 Cu7'
_cell_volume   189.98752359
_cell_formula_units_Z   1
loop_
 _symmetry_equiv_pos_site_id
 _symmetry_equiv_pos_as_xyz
  1  'x, y, z'
loop_
 _atom_site_type_symbol
 _atom_site_label
 _atom_site_symmetry_multiplicity
 _atom_site_fract_x
 _atom_site_fract_y
 _atom_site_fract_z
 _atom_site_occupancy
  Sm  Sm0  1  0.000000  0.497696  0.501184  1
  Y  Y1  1  0.000000  0.002151  0.000521  1
  Al  Al2  1  0.500000  0.514692  0.994395  1
  Al  Al3  1  0.500000  0.987127  0.504435  1
  Al  Al4  1  0.500000  0.248749  0.248956  1
  Cu  Cu5  1  0.000000  0.997423  0.332136  1
  Cu  Cu6  1  0.000000  0.500978  0.835949  1
  Cu  Cu7  1  0.000000  0.501283  0.162554  1
  Cu  Cu8  1  0.000000  0.999349  0.669245  1
  Cu  Cu9  1  0.500000  0.751960  0.750110  1
  Cu  Cu10  1  0.500000  0.749981  0.248341  1
  Cu  Cu11  1  0.500000  0.248411  0.752177  1
