# generated using pymatgen
data_SmPa3(Pt2Pb)2
_symmetry_space_group_name_H-M   'P 1'
_cell_length_a   7.97674054
_cell_length_b   7.97674095
_cell_length_c   3.66173700
_cell_angle_alpha   90.00000000
_cell_angle_beta   90.00000000
_cell_angle_gamma   91.12805884
_symmetry_Int_Tables_number   1
_chemical_formula_structural   SmPa3(Pt2Pb)2
_chemical_formula_sum   'Sm1 Pa3 Pt4 Pb2'
_cell_volume   232.94528508
_cell_formula_units_Z   1
loop_
 _symmetry_equiv_pos_site_id
 _symmetry_equiv_pos_as_xyz
  1  'x, y, z'
loop_
 _atom_site_type_symbol
 _atom_site_label
 _atom_site_symmetry_multiplicity
 _atom_site_fract_x
 _atom_site_fract_y
 _atom_site_fract_z
 _atom_site_occupancy
  Sm  Sm0  1  0.173239  0.326761  0.500000  1
  Pa  Pa1  1  0.327781  0.827640  0.500000  1
  Pa  Pa2  1  0.672360  0.172219  0.500000  1
  Pa  Pa3  1  0.830086  0.669914  0.500000  1
  Pt  Pt4  1  0.120816  0.639804  0.000000  1
  Pt  Pt5  1  0.386716  0.113284  0.000000  1
  Pt  Pt6  1  0.860196  0.379184  0.000000  1
  Pt  Pt7  1  0.634576  0.865424  0.000000  1
  Pb  Pb8  1  0.002645  0.008416  0.000000  1
  Pb  Pb9  1  0.491584  0.497355  0.000000  1
