# generated using pymatgen
data_CdPtBr6
_symmetry_space_group_name_H-M   'P 1'
_cell_length_a   6.85583300
_cell_length_b   6.85583141
_cell_length_c   13.69109200
_cell_angle_alpha   90.00000000
_cell_angle_beta   90.00000000
_cell_angle_gamma   120.00000283
_symmetry_Int_Tables_number   1
_chemical_formula_structural   CdPtBr6
_chemical_formula_sum   'Cd2 Pt2 Br12'
_cell_volume   557.30003198
_cell_formula_units_Z   2
loop_
 _symmetry_equiv_pos_site_id
 _symmetry_equiv_pos_as_xyz
  1  'x, y, z'
loop_
 _atom_site_type_symbol
 _atom_site_label
 _atom_site_symmetry_multiplicity
 _atom_site_fract_x
 _atom_site_fract_y
 _atom_site_fract_z
 _atom_site_occupancy
  Cd  Cd0  1  0.000000  0.000000  0.250000  1
  Cd  Cd1  1  0.000000  0.000000  0.750000  1
  Pt  Pt2  1  0.333333  0.666667  0.250000  1
  Pt  Pt3  1  0.666667  0.333333  0.750000  1
  Br  Br4  1  0.632057  0.959010  0.142305  1
  Br  Br5  1  0.040990  0.673048  0.142305  1
  Br  Br6  1  0.326952  0.367943  0.142305  1
  Br  Br7  1  0.040990  0.367943  0.357695  1
  Br  Br8  1  0.367943  0.326952  0.642305  1
  Br  Br9  1  0.673048  0.040990  0.642305  1
  Br  Br10  1  0.959010  0.632057  0.642305  1
  Br  Br11  1  0.673048  0.632057  0.857695  1
  Br  Br12  1  0.959010  0.326952  0.857695  1
  Br  Br13  1  0.367943  0.040990  0.857695  1
  Br  Br14  1  0.632057  0.673048  0.357695  1
  Br  Br15  1  0.326952  0.959010  0.357695  1
