# generated using pymatgen
data_Y4Lu3ThSb20
_symmetry_space_group_name_H-M   'P 1'
_cell_length_a   4.23429900
_cell_length_b   13.17898878
_cell_length_c   14.57789400
_cell_angle_alpha   78.25302557
_cell_angle_beta   90.00000000
_cell_angle_gamma   90.00000000
_symmetry_Int_Tables_number   1
_chemical_formula_structural   Y4Lu3ThSb20
_chemical_formula_sum   'Y4 Lu3 Th1 Sb20'
_cell_volume   796.46378102
_cell_formula_units_Z   1
loop_
 _symmetry_equiv_pos_site_id
 _symmetry_equiv_pos_as_xyz
  1  'x, y, z'
loop_
 _atom_site_type_symbol
 _atom_site_label
 _atom_site_symmetry_multiplicity
 _atom_site_fract_x
 _atom_site_fract_y
 _atom_site_fract_z
 _atom_site_occupancy
  Y  Y0  1  0.750000  0.337660  0.143191  1
  Y  Y1  1  0.750000  0.327628  0.424870  1
  Y  Y2  1  0.250000  0.951879  0.355979  1
  Y  Y3  1  0.750000  0.049291  0.642868  1
  Lu  Lu4  1  0.250000  0.393833  0.772180  1
  Lu  Lu5  1  0.750000  0.604262  0.225962  1
  Lu  Lu6  1  0.250000  0.662225  0.858161  1
  Th  Th7  1  0.250000  0.671660  0.573285  1
  Sb  Sb8  1  0.250000  0.147379  0.780149  1
  Sb  Sb9  1  0.750000  0.852867  0.219679  1
  Sb  Sb10  1  0.250000  0.139927  0.482905  1
  Sb  Sb11  1  0.750000  0.861978  0.516594  1
  Sb  Sb12  1  0.250000  0.151927  0.169065  1
  Sb  Sb13  1  0.750000  0.846308  0.835041  1
  Sb  Sb14  1  0.250000  0.421383  0.974547  1
  Sb  Sb15  1  0.750000  0.580173  0.022366  1
  Sb  Sb16  1  0.750000  0.032748  0.912257  1
  Sb  Sb17  1  0.250000  0.969034  0.089116  1
  Sb  Sb18  1  0.750000  0.138009  0.319830  1
  Sb  Sb19  1  0.250000  0.862548  0.686580  1
  Sb  Sb20  1  0.750000  0.280281  0.935794  1
  Sb  Sb21  1  0.250000  0.721319  0.060839  1
  Sb  Sb22  1  0.750000  0.285916  0.656875  1
  Sb  Sb23  1  0.250000  0.713166  0.341482  1
  Sb  Sb24  1  0.750000  0.575585  0.738206  1
  Sb  Sb25  1  0.250000  0.426176  0.264588  1
  Sb  Sb26  1  0.750000  0.568086  0.443440  1
  Sb  Sb27  1  0.250000  0.426749  0.554154  1
