# generated using pymatgen
data_Tb8Dy12Si15Ni
_symmetry_space_group_name_H-M   'P 1'
_cell_length_a   7.65350624
_cell_length_b   7.67082538
_cell_length_c   14.20735871
_cell_angle_alpha   89.87745140
_cell_angle_beta   89.68377431
_cell_angle_gamma   90.59569903
_symmetry_Int_Tables_number   1
_chemical_formula_structural   Tb8Dy12Si15Ni
_chemical_formula_sum   'Tb8 Dy12 Si15 Ni1'
_cell_volume   834.03590633
_cell_formula_units_Z   1
loop_
 _symmetry_equiv_pos_site_id
 _symmetry_equiv_pos_as_xyz
  1  'x, y, z'
loop_
 _atom_site_type_symbol
 _atom_site_label
 _atom_site_symmetry_multiplicity
 _atom_site_fract_x
 _atom_site_fract_y
 _atom_site_fract_z
 _atom_site_occupancy
  Tb  Tb0  1  0.988602  0.363785  0.210799  1
  Tb  Tb1  1  0.008991  0.638908  0.707501  1
  Tb  Tb2  1  0.142217  0.495954  0.455100  1
  Tb  Tb3  1  0.507418  0.860600  0.043370  1
  Tb  Tb4  1  0.859071  0.505436  0.957698  1
  Tb  Tb5  1  0.497145  0.135650  0.546040  1
  Tb  Tb6  1  0.362229  0.991672  0.793341  1
  Tb  Tb7  1  0.640232  0.006497  0.290835  1
  Dy  Dy8  1  0.183719  0.186314  0.001587  1
  Dy  Dy9  1  0.823321  0.815701  0.498845  1
  Dy  Dy10  1  0.314381  0.679868  0.251424  1
  Dy  Dy11  1  0.684980  0.317322  0.749725  1
  Dy  Dy12  1  0.152390  0.024324  0.374643  1
  Dy  Dy13  1  0.860200  0.990943  0.876744  1
  Dy  Dy14  1  0.490702  0.636961  0.625713  1
  Dy  Dy15  1  0.364868  0.507847  0.874986  1
  Dy  Dy16  1  0.505692  0.359186  0.128049  1
  Dy  Dy17  1  0.622550  0.481566  0.375389  1
  Dy  Dy18  1  0.010583  0.138518  0.622832  1
  Dy  Dy19  1  0.990882  0.860976  0.124657  1
  Si  Si20  1  0.656214  0.701512  0.811079  1
  Si  Si21  1  0.206397  0.847680  0.562294  1
  Si  Si22  1  0.151821  0.793542  0.937762  1
  Si  Si23  1  0.796305  0.152345  0.064030  1
  Si  Si24  1  0.845452  0.203108  0.436104  1
  Si  Si25  1  0.297328  0.344021  0.689921  1
  Si  Si26  1  0.700813  0.656157  0.189977  1
  Si  Si27  1  0.298504  0.058314  0.187833  1
  Si  Si28  1  0.708375  0.936314  0.688868  1
  Si  Si29  1  0.439798  0.796270  0.440104  1
  Si  Si30  1  0.206356  0.567390  0.059830  1
  Si  Si31  1  0.562715  0.204323  0.939456  1
  Si  Si32  1  0.794334  0.435805  0.560222  1
  Si  Si33  1  0.063446  0.290612  0.811077  1
  Si  Si34  1  0.931281  0.708288  0.311911  1
  Ni  Ni35  1  0.330689  0.306293  0.300256  1
