# generated using pymatgen
data_HfZn(ReO4)6
_symmetry_space_group_name_H-M   'P 1'
_cell_length_a   10.53655163
_cell_length_b   10.53691156
_cell_length_c   5.73503100
_cell_angle_alpha   90.00000000
_cell_angle_beta   90.00000000
_cell_angle_gamma   120.10628297
_symmetry_Int_Tables_number   1
_chemical_formula_structural   HfZn(ReO4)6
_chemical_formula_sum   'Hf1 Zn1 Re6 O24'
_cell_volume   550.82306745
_cell_formula_units_Z   1
loop_
 _symmetry_equiv_pos_site_id
 _symmetry_equiv_pos_as_xyz
  1  'x, y, z'
loop_
 _atom_site_type_symbol
 _atom_site_label
 _atom_site_symmetry_multiplicity
 _atom_site_fract_x
 _atom_site_fract_y
 _atom_site_fract_z
 _atom_site_occupancy
  Hf  Hf0  1  0.666289  0.332854  0.750000  1
  Zn  Zn1  1  0.333550  0.666716  0.250000  1
  Re  Re2  1  0.097806  0.421033  0.750000  1
  Re  Re3  1  0.398357  0.270264  0.250000  1
  Re  Re4  1  0.579051  0.676732  0.750000  1
  Re  Re5  1  0.871757  0.601448  0.250000  1
  Re  Re6  1  0.323651  0.902648  0.750000  1
  Re  Re7  1  0.729370  0.127851  0.250000  1
  O  O8  1  0.468337  0.634378  0.498606  1
  O  O9  1  0.365813  0.834290  0.498665  1
  O  O10  1  0.784040  0.702227  0.250000  1
  O  O11  1  0.139098  0.847300  0.750000  1
  O  O12  1  0.297532  0.081421  0.250000  1
  O  O13  1  0.152846  0.291791  0.750000  1
  O  O14  1  0.514251  0.333031  0.998873  1
  O  O15  1  0.918160  0.215936  0.250000  1
  O  O16  1  0.057981  0.720921  0.250000  1
  O  O17  1  0.166238  0.531777  0.001400  1
  O  O18  1  0.166238  0.531777  0.498600  1
  O  O19  1  0.904550  0.333088  0.750000  1
  O  O20  1  0.278985  0.336769  0.250000  1
  O  O21  1  0.666891  0.571656  0.750000  1
  O  O22  1  0.818510  0.485643  0.501293  1
  O  O23  1  0.429087  0.096015  0.750000  1
  O  O24  1  0.666883  0.181043  0.998893  1
  O  O25  1  0.468337  0.634378  0.001394  1
  O  O26  1  0.365813  0.834290  0.001335  1
  O  O27  1  0.666883  0.181043  0.501107  1
  O  O28  1  0.514251  0.333031  0.501127  1
  O  O29  1  0.818510  0.485643  0.998707  1
  O  O30  1  0.708506  0.861292  0.750000  1
  O  O31  1  0.662428  0.941711  0.250000  1
