# generated using pymatgen
data_Ho15Pa(CdOs)4
_symmetry_space_group_name_H-M   'P 1'
_cell_length_a   9.71526355
_cell_length_b   9.71526267
_cell_length_c   9.71526300
_cell_angle_alpha   59.02359749
_cell_angle_beta   59.02359372
_cell_angle_gamma   59.02359080
_symmetry_Int_Tables_number   1
_chemical_formula_structural   Ho15Pa(CdOs)4
_chemical_formula_sum   'Ho15 Pa1 Cd4 Os4'
_cell_volume   633.96895234
_cell_formula_units_Z   1
loop_
 _symmetry_equiv_pos_site_id
 _symmetry_equiv_pos_as_xyz
  1  'x, y, z'
loop_
 _atom_site_type_symbol
 _atom_site_label
 _atom_site_symmetry_multiplicity
 _atom_site_fract_x
 _atom_site_fract_y
 _atom_site_fract_z
 _atom_site_occupancy
  Ho  Ho0  1  0.597672  0.597737  0.207857  1
  Ho  Ho1  1  0.597682  0.207850  0.597730  1
  Ho  Ho2  1  0.207867  0.597720  0.597695  1
  Ho  Ho3  1  0.061559  0.440590  0.440577  1
  Ho  Ho4  1  0.438760  0.059867  0.059874  1
  Ho  Ho5  1  0.440576  0.061553  0.440559  1
  Ho  Ho6  1  0.059924  0.438748  0.059828  1
  Ho  Ho7  1  0.440572  0.440563  0.061552  1
  Ho  Ho8  1  0.059902  0.059831  0.438746  1
  Ho  Ho9  1  0.191440  0.809535  0.809549  1
  Ho  Ho10  1  0.807812  0.190484  0.190489  1
  Ho  Ho11  1  0.809542  0.191423  0.809560  1
  Ho  Ho12  1  0.190486  0.807816  0.190487  1
  Ho  Ho13  1  0.809541  0.809558  0.191432  1
  Ho  Ho14  1  0.190486  0.190483  0.807819  1
  Pa  Pa15  1  0.590036  0.590094  0.590096  1
  Cd  Cd16  1  0.829003  0.828997  0.829003  1
  Cd  Cd17  1  0.828658  0.828662  0.507266  1
  Cd  Cd18  1  0.828659  0.507266  0.828664  1
  Cd  Cd19  1  0.507266  0.828660  0.828663  1
  Os  Os20  1  0.390481  0.390501  0.390498  1
  Os  Os21  1  0.398092  0.398055  0.825910  1
  Os  Os22  1  0.398061  0.825926  0.398057  1
  Os  Os23  1  0.825921  0.398078  0.398087  1
