# generated using pymatgen
data_Ho4Al3Ga(IrPt)2
_symmetry_space_group_name_H-M   'P 1'
_cell_length_a   4.35295200
_cell_length_b   6.79887498
_cell_length_c   7.84624775
_cell_angle_alpha   89.86131893
_cell_angle_beta   90.00000000
_cell_angle_gamma   90.00000000
_symmetry_Int_Tables_number   1
_chemical_formula_structural   Ho4Al3Ga(IrPt)2
_chemical_formula_sum   'Ho4 Al3 Ga1 Ir2 Pt2'
_cell_volume   232.21040620
_cell_formula_units_Z   1
loop_
 _symmetry_equiv_pos_site_id
 _symmetry_equiv_pos_as_xyz
  1  'x, y, z'
loop_
 _atom_site_type_symbol
 _atom_site_label
 _atom_site_symmetry_multiplicity
 _atom_site_fract_x
 _atom_site_fract_y
 _atom_site_fract_z
 _atom_site_occupancy
  Ho  Ho0  1  0.250000  0.033421  0.680256  1
  Ho  Ho1  1  0.250000  0.531368  0.821660  1
  Ho  Ho2  1  0.750000  0.972940  0.317003  1
  Ho  Ho3  1  0.750000  0.472081  0.181141  1
  Al  Al4  1  0.250000  0.640667  0.435544  1
  Al  Al5  1  0.750000  0.855116  0.939639  1
  Al  Al6  1  0.750000  0.356049  0.559839  1
  Ga  Ga7  1  0.250000  0.143448  0.064923  1
  Ir  Ir8  1  0.250000  0.267294  0.384034  1
  Ir  Ir9  1  0.250000  0.765127  0.118593  1
  Pt  Pt10  1  0.750000  0.731142  0.620325  1
  Pt  Pt11  1  0.750000  0.231346  0.877044  1
