# generated using pymatgen
data_GdDy3(AlRu)4
_symmetry_space_group_name_H-M   'P 1'
_cell_length_a   7.07220242
_cell_length_b   4.02573700
_cell_length_c   8.11085100
_cell_angle_alpha   90.00000000
_cell_angle_beta   90.14745642
_cell_angle_gamma   90.00000000
_symmetry_Int_Tables_number   1
_chemical_formula_structural   GdDy3(AlRu)4
_chemical_formula_sum   'Gd1 Dy3 Al4 Ru4'
_cell_volume   230.92187055
_cell_formula_units_Z   1
loop_
 _symmetry_equiv_pos_site_id
 _symmetry_equiv_pos_as_xyz
  1  'x, y, z'
loop_
 _atom_site_type_symbol
 _atom_site_label
 _atom_site_symmetry_multiplicity
 _atom_site_fract_x
 _atom_site_fract_y
 _atom_site_fract_z
 _atom_site_occupancy
  Gd  Gd0  1  0.031541  0.250125  0.820939  1
  Dy  Dy1  1  0.967073  0.749967  0.179591  1
  Dy  Dy2  1  0.467751  0.749965  0.321477  1
  Dy  Dy3  1  0.532529  0.249984  0.678378  1
  Al  Al4  1  0.636188  0.249989  0.058470  1
  Al  Al5  1  0.137537  0.250000  0.441085  1
  Al  Al6  1  0.862303  0.749981  0.557138  1
  Al  Al7  1  0.363673  0.749971  0.942661  1
  Ru  Ru8  1  0.270813  0.249916  0.127402  1
  Ru  Ru9  1  0.771117  0.249957  0.372892  1
  Ru  Ru10  1  0.230679  0.750095  0.626608  1
  Ru  Ru11  1  0.728798  0.750043  0.873355  1
