# generated using pymatgen
data_NdTh2(Ga2Cu)4
_symmetry_space_group_name_H-M   'P 1'
_cell_length_a   4.22456192
_cell_length_b   4.22430540
_cell_length_c   15.88821899
_cell_angle_alpha   82.47535211
_cell_angle_beta   82.47536518
_cell_angle_gamma   90.08529053
_symmetry_Int_Tables_number   1
_chemical_formula_structural   NdTh2(Ga2Cu)4
_chemical_formula_sum   'Nd1 Th2 Ga8 Cu4'
_cell_volume   278.62621964
_cell_formula_units_Z   1
loop_
 _symmetry_equiv_pos_site_id
 _symmetry_equiv_pos_as_xyz
  1  'x, y, z'
loop_
 _atom_site_type_symbol
 _atom_site_label
 _atom_site_symmetry_multiplicity
 _atom_site_fract_x
 _atom_site_fract_y
 _atom_site_fract_z
 _atom_site_occupancy
  Nd  Nd0  1  0.666398  0.667226  0.666684  1
  Th  Th1  1  0.996097  0.995707  0.007535  1
  Th  Th2  1  0.337526  0.337146  0.325848  1
  Ga  Ga3  1  0.751463  0.252156  0.497015  1
  Ga  Ga4  1  0.081227  0.581980  0.836353  1
  Ga  Ga5  1  0.455116  0.455775  0.087630  1
  Ga  Ga6  1  0.795911  0.797145  0.406245  1
  Ga  Ga7  1  0.127933  0.125676  0.746743  1
  Ga  Ga8  1  0.877356  0.878097  0.245696  1
  Ga  Ga9  1  0.207804  0.205545  0.586607  1
  Ga  Ga10  1  0.536201  0.537414  0.927087  1
  Cu  Cu11  1  0.916027  0.417051  0.166632  1
  Cu  Cu12  1  0.252132  0.751385  0.496799  1
  Cu  Cu13  1  0.582145  0.081389  0.836489  1
  Cu  Cu14  1  0.416662  0.916304  0.166638  1
