# generated using pymatgen
data_Ta2TiAlC2
_symmetry_space_group_name_H-M   'P 1'
_cell_length_a   3.10014200
_cell_length_b   3.10014174
_cell_length_c   18.86166100
_cell_angle_alpha   90.00000000
_cell_angle_beta   90.00000000
_cell_angle_gamma   119.99998147
_symmetry_Int_Tables_number   1
_chemical_formula_structural   Ta2TiAlC2
_chemical_formula_sum   'Ta4 Ti2 Al2 C4'
_cell_volume   156.99064890
_cell_formula_units_Z   2
loop_
 _symmetry_equiv_pos_site_id
 _symmetry_equiv_pos_as_xyz
  1  'x, y, z'
loop_
 _atom_site_type_symbol
 _atom_site_label
 _atom_site_symmetry_multiplicity
 _atom_site_fract_x
 _atom_site_fract_y
 _atom_site_fract_z
 _atom_site_occupancy
  Ta  Ta0  1  0.333333  0.666667  0.131841  1
  Ta  Ta1  1  0.666667  0.333333  0.631841  1
  Ta  Ta2  1  0.333333  0.666667  0.368159  1
  Ta  Ta3  1  0.666667  0.333333  0.868159  1
  Ti  Ti4  1  0.000000  0.000000  0.500000  1
  Ti  Ti5  1  0.000000  0.000000  0.000000  1
  Al  Al6  1  0.000000  0.000000  0.250000  1
  Al  Al7  1  0.000000  0.000000  0.750000  1
  C  C8  1  0.666667  0.333333  0.432206  1
  C  C9  1  0.666667  0.333333  0.067794  1
  C  C10  1  0.333333  0.666667  0.567794  1
  C  C11  1  0.333333  0.666667  0.932206  1
