# generated using pymatgen
data_TbDy4Ir2Rh
_symmetry_space_group_name_H-M   'P 1'
_cell_length_a   10.88036000
_cell_length_b   10.88103800
_cell_length_c   6.38968400
_cell_angle_alpha   90.00000000
_cell_angle_beta   90.00000000
_cell_angle_gamma   90.00000000
_symmetry_Int_Tables_number   1
_chemical_formula_structural   TbDy4Ir2Rh
_chemical_formula_sum   'Tb4 Dy16 Ir8 Rh4'
_cell_volume   756.47220070
_cell_formula_units_Z   4
loop_
 _symmetry_equiv_pos_site_id
 _symmetry_equiv_pos_as_xyz
  1  'x, y, z'
loop_
 _atom_site_type_symbol
 _atom_site_label
 _atom_site_symmetry_multiplicity
 _atom_site_fract_x
 _atom_site_fract_y
 _atom_site_fract_z
 _atom_site_occupancy
  Tb  Tb0  1  0.290540  0.089174  0.379359  1
  Tb  Tb1  1  0.290540  0.910826  0.879359  1
  Tb  Tb2  1  0.709460  0.089174  0.879359  1
  Tb  Tb3  1  0.709460  0.910826  0.379359  1
  Dy  Dy4  1  0.589098  0.790449  0.879476  1
  Dy  Dy5  1  0.589098  0.209551  0.379476  1
  Dy  Dy6  1  0.410902  0.790449  0.379476  1
  Dy  Dy7  1  0.410902  0.209551  0.879476  1
  Dy  Dy8  1  0.209358  0.410968  0.620504  1
  Dy  Dy9  1  0.209358  0.589032  0.120504  1
  Dy  Dy10  1  0.790642  0.410968  0.120504  1
  Dy  Dy11  1  0.790642  0.589032  0.620504  1
  Dy  Dy12  1  0.911003  0.709302  0.120411  1
  Dy  Dy13  1  0.911003  0.290698  0.620411  1
  Dy  Dy14  1  0.088997  0.709302  0.620411  1
  Dy  Dy15  1  0.088997  0.290698  0.120411  1
  Dy  Dy16  1  0.000000  0.000000  0.500125  1
  Dy  Dy17  1  0.000000  0.000000  0.000125  1
  Dy  Dy18  1  0.500000  0.500000  0.000064  1
  Dy  Dy19  1  0.500000  0.500000  0.500064  1
  Ir  Ir20  1  0.846269  0.154091  0.250243  1
  Ir  Ir21  1  0.846269  0.845909  0.750243  1
  Ir  Ir22  1  0.153731  0.154091  0.750243  1
  Ir  Ir23  1  0.153731  0.845909  0.250243  1
  Ir  Ir24  1  0.653833  0.346277  0.749893  1
  Ir  Ir25  1  0.653833  0.653723  0.249893  1
  Ir  Ir26  1  0.346167  0.346277  0.249893  1
  Ir  Ir27  1  0.346167  0.653723  0.749893  1
  Rh  Rh28  1  0.500000  0.000000  0.124082  1
  Rh  Rh29  1  0.500000  0.000000  0.624082  1
  Rh  Rh30  1  0.000000  0.500000  0.875960  1
  Rh  Rh31  1  0.000000  0.500000  0.375960  1
