# generated using pymatgen
data_Tb2Dy10Tc3Pt
_symmetry_space_group_name_H-M   'P 1'
_cell_length_a   6.30663354
_cell_length_b   7.39241166
_cell_length_c   9.20762100
_cell_angle_alpha   90.00000000
_cell_angle_beta   90.00000000
_cell_angle_gamma   89.97276616
_symmetry_Int_Tables_number   1
_chemical_formula_structural   Tb2Dy10Tc3Pt
_chemical_formula_sum   'Tb2 Dy10 Tc3 Pt1'
_cell_volume   429.27057958
_cell_formula_units_Z   1
loop_
 _symmetry_equiv_pos_site_id
 _symmetry_equiv_pos_as_xyz
  1  'x, y, z'
loop_
 _atom_site_type_symbol
 _atom_site_label
 _atom_site_symmetry_multiplicity
 _atom_site_fract_x
 _atom_site_fract_y
 _atom_site_fract_z
 _atom_site_occupancy
  Tb  Tb0  1  0.871440  0.543239  0.250000  1
  Tb  Tb1  1  0.129408  0.455320  0.750000  1
  Dy  Dy2  1  0.328877  0.675843  0.067426  1
  Dy  Dy3  1  0.165674  0.177270  0.435754  1
  Dy  Dy4  1  0.668429  0.318690  0.559234  1
  Dy  Dy5  1  0.836457  0.827494  0.939382  1
  Dy  Dy6  1  0.668429  0.318690  0.940766  1
  Dy  Dy7  1  0.836457  0.827494  0.560618  1
  Dy  Dy8  1  0.328877  0.675843  0.432574  1
  Dy  Dy9  1  0.165674  0.177270  0.064246  1
  Dy  Dy10  1  0.624472  0.038742  0.250000  1
  Dy  Dy11  1  0.369995  0.964540  0.750000  1
  Tc  Tc12  1  0.038542  0.886144  0.250000  1
  Tc  Tc13  1  0.463109  0.387140  0.250000  1
  Tc  Tc14  1  0.956902  0.113098  0.750000  1
  Pt  Pt15  1  0.547256  0.613185  0.750000  1
