# generated using pymatgen
data_Tm6Al24IrOs5Pt2
_symmetry_space_group_name_H-M   'P 1'
_cell_length_a   8.77853887
_cell_length_b   8.79792784
_cell_length_c   9.54577357
_cell_angle_alpha   89.87226414
_cell_angle_beta   90.15955319
_cell_angle_gamma   119.40225970
_symmetry_Int_Tables_number   1
_chemical_formula_structural   Tm6Al24IrOs5Pt2
_chemical_formula_sum   'Tm6 Al24 Ir1 Os5 Pt2'
_cell_volume   642.28379283
_cell_formula_units_Z   1
loop_
 _symmetry_equiv_pos_site_id
 _symmetry_equiv_pos_as_xyz
  1  'x, y, z'
loop_
 _atom_site_type_symbol
 _atom_site_label
 _atom_site_symmetry_multiplicity
 _atom_site_fract_x
 _atom_site_fract_y
 _atom_site_fract_z
 _atom_site_occupancy
  Tm  Tm0  1  0.192941  0.386311  0.250030  1
  Tm  Tm1  1  0.807059  0.613689  0.749970  1
  Tm  Tm2  1  0.608124  0.810823  0.249452  1
  Tm  Tm3  1  0.391876  0.189177  0.750548  1
  Tm  Tm4  1  0.197337  0.809614  0.251557  1
  Tm  Tm5  1  0.802663  0.190386  0.748443  1
  Al  Al6  1  0.330611  0.669194  0.031606  1
  Al  Al7  1  0.669389  0.330806  0.968394  1
  Al  Al8  1  0.663372  0.331377  0.529820  1
  Al  Al9  1  0.336628  0.668623  0.470180  1
  Al  Al10  1  0.169761  0.325066  0.577740  1
  Al  Al11  1  0.830239  0.674934  0.422260  1
  Al  Al12  1  0.671938  0.833695  0.575974  1
  Al  Al13  1  0.839705  0.675148  0.077932  1
  Al  Al14  1  0.328062  0.166305  0.424026  1
  Al  Al15  1  0.160295  0.324852  0.922068  1
  Al  Al16  1  0.167788  0.839880  0.578444  1
  Al  Al17  1  0.325894  0.159553  0.077719  1
  Al  Al18  1  0.832212  0.160120  0.421556  1
  Al  Al19  1  0.674106  0.840447  0.922281  1
  Al  Al20  1  0.834570  0.163554  0.077318  1
  Al  Al21  1  0.165430  0.836446  0.922682  1
  Al  Al22  1  0.560561  0.125931  0.249421  1
  Al  Al23  1  0.439439  0.874069  0.750579  1
  Al  Al24  1  0.874977  0.438781  0.247674  1
  Al  Al25  1  0.125023  0.561219  0.752326  1
  Al  Al26  1  0.562104  0.438069  0.252496  1
  Al  Al27  1  0.437896  0.561931  0.747504  1
  Al  Al28  1  0.999565  0.002639  0.250120  1
  Al  Al29  1  0.000435  0.997361  0.749880  1
  Ir  Ir30  1  0.000000  0.500000  0.000000  1
  Os  Os31  1  0.500000  0.000000  0.000000  1
  Os  Os32  1  0.500000  0.000000  0.500000  1
  Os  Os33  1  0.500000  0.500000  0.500000  1
  Os  Os34  1  0.000000  0.000000  0.000000  1
  Os  Os35  1  0.000000  0.000000  0.500000  1
  Pt  Pt36  1  0.500000  0.500000  0.000000  1
  Pt  Pt37  1  0.000000  0.500000  0.500000  1
