# generated using pymatgen
data_La8Cd3SnAu8
_symmetry_space_group_name_H-M   'P 1'
_cell_length_a   8.29578200
_cell_length_b   8.29578200
_cell_length_c   7.85419600
_cell_angle_alpha   90.00000000
_cell_angle_beta   90.00000000
_cell_angle_gamma   90.00000000
_symmetry_Int_Tables_number   1
_chemical_formula_structural   La8Cd3SnAu8
_chemical_formula_sum   'La8 Cd3 Sn1 Au8'
_cell_volume   540.52576080
_cell_formula_units_Z   1
loop_
 _symmetry_equiv_pos_site_id
 _symmetry_equiv_pos_as_xyz
  1  'x, y, z'
loop_
 _atom_site_type_symbol
 _atom_site_label
 _atom_site_symmetry_multiplicity
 _atom_site_fract_x
 _atom_site_fract_y
 _atom_site_fract_z
 _atom_site_occupancy
  La  La0  1  0.681467  0.323465  0.500931  1
  La  La1  1  0.318533  0.676535  0.500931  1
  La  La2  1  0.176535  0.181467  0.999069  1
  La  La3  1  0.823465  0.818533  0.999069  1
  La  La4  1  0.835196  0.830654  0.500267  1
  La  La5  1  0.164804  0.169346  0.500267  1
  La  La6  1  0.330654  0.664804  0.999733  1
  La  La7  1  0.669346  0.335196  0.999733  1
  Cd  Cd8  1  0.500000  0.000000  0.250000  1
  Cd  Cd9  1  0.000000  0.500000  0.750000  1
  Cd  Cd10  1  0.500000  0.000000  0.750000  1
  Sn  Sn11  1  0.000000  0.500000  0.250000  1
  Au  Au12  1  0.869159  0.122723  0.236780  1
  Au  Au13  1  0.130841  0.877277  0.236780  1
  Au  Au14  1  0.374009  0.371487  0.736986  1
  Au  Au15  1  0.625991  0.628513  0.736986  1
  Au  Au16  1  0.128513  0.874009  0.763014  1
  Au  Au17  1  0.871487  0.125991  0.763014  1
  Au  Au18  1  0.622723  0.630841  0.263220  1
  Au  Au19  1  0.377277  0.369159  0.263220  1
