# generated using pymatgen
data_Cd2FeRh3O8
_symmetry_space_group_name_H-M   'P 1'
_cell_length_a   6.35384456
_cell_length_b   6.22397543
_cell_length_c   6.35387814
_cell_angle_alpha   120.70146256
_cell_angle_beta   120.00555712
_cell_angle_gamma   89.98793064
_symmetry_Int_Tables_number   1
_chemical_formula_structural   Cd2FeRh3O8
_chemical_formula_sum   'Cd2 Fe1 Rh3 O8'
_cell_volume   175.77286050
_cell_formula_units_Z   1
loop_
 _symmetry_equiv_pos_site_id
 _symmetry_equiv_pos_as_xyz
  1  'x, y, z'
loop_
 _atom_site_type_symbol
 _atom_site_label
 _atom_site_symmetry_multiplicity
 _atom_site_fract_x
 _atom_site_fract_y
 _atom_site_fract_z
 _atom_site_occupancy
  Cd  Cd0  1  0.378577  0.135737  0.257157  1
  Cd  Cd1  1  0.621423  0.864267  0.742844  1
  Fe  Fe2  1  0.999999  0.999998  0.499998  1
  Rh  Rh3  1  0.999999  0.499999  0.499997  1
  Rh  Rh4  1  0.500002  0.499999  0.000001  1
  Rh  Rh5  1  0.000000  0.499998  0.000000  1
  O  O6  1  0.197586  0.736589  0.467137  1
  O  O7  1  0.230545  0.263411  0.961000  1
  O  O8  1  0.230963  0.692981  0.962015  1
  O  O9  1  0.230448  0.263308  0.532857  1
  O  O10  1  0.769040  0.307023  0.037990  1
  O  O11  1  0.769551  0.736692  0.467143  1
  O  O12  1  0.802414  0.263409  0.532865  1
  O  O13  1  0.769453  0.736587  0.038997  1
