# generated using pymatgen
data_Ca(Cd2Au)2
_symmetry_space_group_name_H-M   'P 1'
_cell_length_a   8.61885300
_cell_length_b   8.61885300
_cell_length_c   4.44643900
_cell_angle_alpha   90.00000000
_cell_angle_beta   90.00000000
_cell_angle_gamma   90.00000000
_symmetry_Int_Tables_number   1
_chemical_formula_structural   Ca(Cd2Au)2
_chemical_formula_sum   'Ca2 Cd8 Au4'
_cell_volume   330.30206275
_cell_formula_units_Z   2
loop_
 _symmetry_equiv_pos_site_id
 _symmetry_equiv_pos_as_xyz
  1  'x, y, z'
loop_
 _atom_site_type_symbol
 _atom_site_label
 _atom_site_symmetry_multiplicity
 _atom_site_fract_x
 _atom_site_fract_y
 _atom_site_fract_z
 _atom_site_occupancy
  Ca  Ca0  1  0.500000  0.500000  0.500000  1
  Ca  Ca1  1  0.000000  0.000000  0.000000  1
  Cd  Cd2  1  0.342341  0.098827  0.500000  1
  Cd  Cd3  1  0.657659  0.901173  0.500000  1
  Cd  Cd4  1  0.842341  0.401173  0.000000  1
  Cd  Cd5  1  0.157659  0.598827  0.000000  1
  Cd  Cd6  1  0.098827  0.342341  0.500000  1
  Cd  Cd7  1  0.901173  0.657659  0.500000  1
  Cd  Cd8  1  0.401173  0.842341  0.000000  1
  Cd  Cd9  1  0.598827  0.157659  0.000000  1
  Au  Au10  1  0.811180  0.188820  0.500000  1
  Au  Au11  1  0.188820  0.811180  0.500000  1
  Au  Au12  1  0.311180  0.311180  0.000000  1
  Au  Au13  1  0.688820  0.688820  0.000000  1
