# generated using pymatgen
data_Rb4Li2AlCrH12
_symmetry_space_group_name_H-M   'P 1'
_cell_length_a   9.98332849
_cell_length_b   9.98332825
_cell_length_c   9.98332833
_cell_angle_alpha   34.11293179
_cell_angle_beta   34.11293275
_cell_angle_gamma   34.11292878
_symmetry_Int_Tables_number   1
_chemical_formula_structural   Rb4Li2AlCrH12
_chemical_formula_sum   'Rb4 Li2 Al1 Cr1 H12'
_cell_volume   279.01328712
_cell_formula_units_Z   1
loop_
 _symmetry_equiv_pos_site_id
 _symmetry_equiv_pos_as_xyz
  1  'x, y, z'
loop_
 _atom_site_type_symbol
 _atom_site_label
 _atom_site_symmetry_multiplicity
 _atom_site_fract_x
 _atom_site_fract_y
 _atom_site_fract_z
 _atom_site_occupancy
  Rb  Rb0  1  0.126874  0.126874  0.126874  1
  Rb  Rb1  1  0.873126  0.873126  0.873126  1
  Rb  Rb2  1  0.285298  0.285298  0.285298  1
  Rb  Rb3  1  0.714702  0.714702  0.714702  1
  Li  Li4  1  0.407493  0.407493  0.407493  1
  Li  Li5  1  0.592507  0.592507  0.592507  1
  Al  Al6  1  0.000000  0.000000  0.000000  1
  Cr  Cr7  1  0.500000  0.500000  0.500000  1
  H  H8  1  0.183716  0.183716  0.741298  1
  H  H9  1  0.741298  0.183716  0.183716  1
  H  H10  1  0.183716  0.741298  0.183716  1
  H  H11  1  0.816284  0.258702  0.816284  1
  H  H12  1  0.816284  0.816284  0.258702  1
  H  H13  1  0.258702  0.816284  0.816284  1
  H  H14  1  0.404513  0.404513  0.807072  1
  H  H15  1  0.807072  0.404513  0.404513  1
  H  H16  1  0.192928  0.595487  0.595487  1
  H  H17  1  0.595487  0.595487  0.192928  1
  H  H18  1  0.595487  0.192928  0.595487  1
  H  H19  1  0.404513  0.807072  0.404513  1
