# generated using pymatgen
data_Nd11In9Pd3Au
_symmetry_space_group_name_H-M   'P 1'
_cell_length_a   13.44309900
_cell_length_b   13.48489967
_cell_length_c   3.80991800
_cell_angle_alpha   90.00000000
_cell_angle_beta   90.00000000
_cell_angle_gamma   111.10130781
_symmetry_Int_Tables_number   1
_chemical_formula_structural   Nd11In9Pd3Au
_chemical_formula_sum   'Nd11 In9 Pd3 Au1'
_cell_volume   644.34569942
_cell_formula_units_Z   1
loop_
 _symmetry_equiv_pos_site_id
 _symmetry_equiv_pos_as_xyz
  1  'x, y, z'
loop_
 _atom_site_type_symbol
 _atom_site_label
 _atom_site_symmetry_multiplicity
 _atom_site_fract_x
 _atom_site_fract_y
 _atom_site_fract_z
 _atom_site_occupancy
  Nd  Nd0  1  0.416114  0.063368  0.000000  1
  Nd  Nd1  1  0.582952  0.930451  0.000000  1
  Nd  Nd2  1  0.067690  0.416931  0.000000  1
  Nd  Nd3  1  0.931596  0.583264  0.000000  1
  Nd  Nd4  1  0.159088  0.839625  0.000000  1
  Nd  Nd5  1  0.840695  0.159198  0.000000  1
  Nd  Nd6  1  0.370498  0.630635  0.000000  1
  Nd  Nd7  1  0.634772  0.374149  0.000000  1
  Nd  Nd8  1  0.303542  0.309532  0.000000  1
  Nd  Nd9  1  0.693145  0.693047  0.000000  1
  Nd  Nd10  1  0.999779  0.999897  0.000000  1
  In  In11  1  0.367043  0.838718  0.500000  1
  In  In12  1  0.634062  0.159694  0.500000  1
  In  In13  1  0.840177  0.367497  0.500000  1
  In  In14  1  0.160826  0.632290  0.500000  1
  In  In15  1  0.217493  0.073009  0.500000  1
  In  In16  1  0.780945  0.923497  0.500000  1
  In  In17  1  0.075456  0.219387  0.500000  1
  In  In18  1  0.923756  0.780617  0.500000  1
  In  In19  1  0.499776  0.502243  0.500000  1
  Pd  Pd20  1  0.551105  0.752741  0.500000  1
  Pd  Pd21  1  0.248097  0.450629  0.500000  1
  Pd  Pd22  1  0.751075  0.550076  0.500000  1
  Au  Au23  1  0.450320  0.249508  0.500000  1
