# generated using pymatgen
data_Lu6Si2Tc
_symmetry_space_group_name_H-M   'P 1'
_cell_length_a   7.54862800
_cell_length_b   7.54862697
_cell_length_c   4.29779500
_cell_angle_alpha   90.00000000
_cell_angle_beta   90.00000000
_cell_angle_gamma   119.99999575
_symmetry_Int_Tables_number   1
_chemical_formula_structural   Lu6Si2Tc
_chemical_formula_sum   'Lu6 Si2 Tc1'
_cell_volume   212.08616281
_cell_formula_units_Z   1
loop_
 _symmetry_equiv_pos_site_id
 _symmetry_equiv_pos_as_xyz
  1  'x, y, z'
loop_
 _atom_site_type_symbol
 _atom_site_label
 _atom_site_symmetry_multiplicity
 _atom_site_fract_x
 _atom_site_fract_y
 _atom_site_fract_z
 _atom_site_occupancy
  Lu  Lu0  1  0.407259  0.000000  0.000000  1
  Lu  Lu1  1  0.000000  0.407259  0.000000  1
  Lu  Lu2  1  0.592741  0.592741  0.000000  1
  Lu  Lu3  1  0.748056  0.000000  0.499999  1
  Lu  Lu4  1  0.251944  0.251944  0.499999  1
  Lu  Lu5  1  0.000000  0.748056  0.499999  1
  Si  Si6  1  0.666667  0.333334  0.499999  1
  Si  Si7  1  0.333334  0.666667  0.499999  1
  Tc  Tc8  1  0.000000  0.000000  0.000000  1
