# generated using pymatgen
data_Ca6In3Ni16Sn5
_symmetry_space_group_name_H-M   'P 1'
_cell_length_a   7.53914580
_cell_length_b   8.93976560
_cell_length_c   8.94163034
_cell_angle_alpha   60.00690355
_cell_angle_beta   89.61164469
_cell_angle_gamma   89.99999646
_symmetry_Int_Tables_number   1
_chemical_formula_structural   Ca6In3Ni16Sn5
_chemical_formula_sum   'Ca6 In3 Ni16 Sn5'
_cell_volume   521.93031773
_cell_formula_units_Z   1
loop_
 _symmetry_equiv_pos_site_id
 _symmetry_equiv_pos_as_xyz
  1  'x, y, z'
loop_
 _atom_site_type_symbol
 _atom_site_label
 _atom_site_symmetry_multiplicity
 _atom_site_fract_x
 _atom_site_fract_y
 _atom_site_fract_z
 _atom_site_occupancy
  Ca  Ca0  1  0.234525  0.941424  0.528448  1
  Ca  Ca1  1  0.733623  0.470829  0.469359  1
  Ca  Ca2  1  0.734443  0.470570  0.058859  1
  Ca  Ca3  1  0.234091  0.529837  0.940326  1
  Ca  Ca4  1  0.234525  0.530128  0.528448  1
  Ca  Ca5  1  0.733623  0.059812  0.469359  1
  In  In6  1  0.431055  0.171539  0.168112  1
  In  In7  1  0.431055  0.660349  0.168112  1
  In  In8  1  0.930055  0.829482  0.341036  1
  Ni  Ni9  1  0.004033  0.998590  0.002819  1
  Ni  Ni10  1  0.503787  0.998687  0.002627  1
  Ni  Ni11  1  0.418172  0.329315  0.341368  1
  Ni  Ni12  1  0.918577  0.662596  0.674808  1
  Ni  Ni13  1  0.249510  0.900906  0.198187  1
  Ni  Ni14  1  0.749866  0.801758  0.097883  1
  Ni  Ni15  1  0.749866  0.100360  0.097883  1
  Ni  Ni16  1  0.250105  0.902233  0.900115  1
  Ni  Ni17  1  0.250105  0.197651  0.900115  1
  Ni  Ni18  1  0.750369  0.098683  0.802636  1
  Ni  Ni19  1  0.561489  0.838264  0.323472  1
  Ni  Ni20  1  0.061853  0.675385  0.160401  1
  Ni  Ni21  1  0.061853  0.164213  0.160401  1
  Ni  Ni22  1  0.564037  0.838472  0.835151  1
  Ni  Ni23  1  0.564037  0.326378  0.835151  1
  Ni  Ni24  1  0.064058  0.164071  0.671858  1
  Sn  Sn25  1  0.567451  0.667589  0.664824  1
  Sn  Sn26  1  0.068286  0.334468  0.331063  1
  Sn  Sn27  1  0.434306  0.167012  0.665976  1
  Sn  Sn28  1  0.933371  0.335122  0.830602  1
  Sn  Sn29  1  0.933371  0.834276  0.830602  1
