# generated using pymatgen
data_NaSrH6Ir
_symmetry_space_group_name_H-M   'P 1'
_cell_length_a   5.29923823
_cell_length_b   5.29923817
_cell_length_c   5.29923900
_cell_angle_alpha   60.00000105
_cell_angle_beta   60.00000147
_cell_angle_gamma   60.00000416
_symmetry_Int_Tables_number   1
_chemical_formula_structural   NaSrH6Ir
_chemical_formula_sum   'Na1 Sr1 H6 Ir1'
_cell_volume   105.22656999
_cell_formula_units_Z   1
loop_
 _symmetry_equiv_pos_site_id
 _symmetry_equiv_pos_as_xyz
  1  'x, y, z'
loop_
 _atom_site_type_symbol
 _atom_site_label
 _atom_site_symmetry_multiplicity
 _atom_site_fract_x
 _atom_site_fract_y
 _atom_site_fract_z
 _atom_site_occupancy
  Na  Na0  1  0.250000  0.250000  0.250000  1
  Sr  Sr1  1  0.750000  0.750000  0.750000  1
  H  H2  1  0.775517  0.775517  0.224483  1
  H  H3  1  0.224483  0.775517  0.224483  1
  H  H4  1  0.775517  0.224483  0.224483  1
  H  H5  1  0.224483  0.224483  0.775517  1
  H  H6  1  0.775517  0.224483  0.775517  1
  H  H7  1  0.224483  0.775517  0.775517  1
  Ir  Ir8  1  0.000000  0.000000  0.000000  1
