# generated using pymatgen
data_SmDy2MoO7
_symmetry_space_group_name_H-M   'P 1'
_cell_length_a   6.47634230
_cell_length_b   6.47634044
_cell_length_c   7.57206600
_cell_angle_alpha   90.00000000
_cell_angle_beta   90.00000000
_cell_angle_gamma   109.27301252
_symmetry_Int_Tables_number   1
_chemical_formula_structural   SmDy2MoO7
_chemical_formula_sum   'Sm2 Dy4 Mo2 O14'
_cell_volume   299.79601028
_cell_formula_units_Z   2
loop_
 _symmetry_equiv_pos_site_id
 _symmetry_equiv_pos_as_xyz
  1  'x, y, z'
loop_
 _atom_site_type_symbol
 _atom_site_label
 _atom_site_symmetry_multiplicity
 _atom_site_fract_x
 _atom_site_fract_y
 _atom_site_fract_z
 _atom_site_occupancy
  Sm  Sm0  1  0.500000  0.500000  0.500000  1
  Sm  Sm1  1  0.500000  0.500000  0.000000  1
  Dy  Dy2  1  0.535391  0.000693  0.750000  1
  Dy  Dy3  1  0.000693  0.535391  0.250000  1
  Dy  Dy4  1  0.464609  0.999307  0.250000  1
  Dy  Dy5  1  0.999307  0.464609  0.750000  1
  Mo  Mo6  1  0.000000  0.000000  0.500000  1
  Mo  Mo7  1  0.000000  0.000000  0.000000  1
  O  O8  1  0.678611  0.926896  0.470206  1
  O  O9  1  0.926896  0.678611  0.529794  1
  O  O10  1  0.678611  0.926896  0.029794  1
  O  O11  1  0.926896  0.678611  0.970206  1
  O  O12  1  0.321389  0.073104  0.529794  1
  O  O13  1  0.073104  0.321389  0.470206  1
  O  O14  1  0.321389  0.073104  0.970206  1
  O  O15  1  0.073104  0.321389  0.029794  1
  O  O16  1  0.927715  0.072285  0.750000  1
  O  O17  1  0.072285  0.927715  0.250000  1
  O  O18  1  0.365617  0.634382  0.750000  1
  O  O19  1  0.634382  0.365617  0.250000  1
  O  O20  1  0.639176  0.360824  0.750000  1
  O  O21  1  0.360824  0.639176  0.250000  1
