# generated using pymatgen
data_Dy5Ho3(TmSi3)2
_symmetry_space_group_name_H-M   'P 1'
_cell_length_a   8.40839138
_cell_length_b   8.40839047
_cell_length_c   6.31761900
_cell_angle_alpha   90.00225180
_cell_angle_beta   90.00225003
_cell_angle_gamma   119.93435351
_symmetry_Int_Tables_number   1
_chemical_formula_structural   Dy5Ho3(TmSi3)2
_chemical_formula_sum   'Dy5 Ho3 Tm2 Si6'
_cell_volume   387.07645633
_cell_formula_units_Z   1
loop_
 _symmetry_equiv_pos_site_id
 _symmetry_equiv_pos_as_xyz
  1  'x, y, z'
loop_
 _atom_site_type_symbol
 _atom_site_label
 _atom_site_symmetry_multiplicity
 _atom_site_fract_x
 _atom_site_fract_y
 _atom_site_fract_z
 _atom_site_occupancy
  Dy  Dy0  1  0.243637  0.999892  0.248810  1
  Dy  Dy1  1  0.999892  0.243637  0.248810  1
  Dy  Dy2  1  0.244066  0.244066  0.751198  1
  Dy  Dy3  1  0.756185  0.999762  0.751196  1
  Dy  Dy4  1  0.999762  0.756185  0.751196  1
  Ho  Ho5  1  0.666687  0.333535  0.499923  1
  Ho  Ho6  1  0.333535  0.666687  0.499923  1
  Ho  Ho7  1  0.755934  0.755934  0.248695  1
  Tm  Tm8  1  0.333522  0.666690  0.000094  1
  Tm  Tm9  1  0.666690  0.333522  0.000094  1
  Si  Si10  1  0.395087  0.395087  0.246021  1
  Si  Si11  1  0.605609  0.999566  0.246026  1
  Si  Si12  1  0.999566  0.605609  0.246026  1
  Si  Si13  1  0.605303  0.605303  0.754035  1
  Si  Si14  1  0.394577  0.999946  0.753976  1
  Si  Si15  1  0.999946  0.394577  0.753976  1
