# generated using pymatgen
data_Tm8Zr11Si16Tc
_symmetry_space_group_name_H-M   'P 1'
_cell_length_a   7.03055305
_cell_length_b   7.22575441
_cell_length_c   13.82089100
_cell_angle_alpha   90.00000000
_cell_angle_beta   90.00000000
_cell_angle_gamma   89.96752706
_symmetry_Int_Tables_number   1
_chemical_formula_structural   Tm8Zr11Si16Tc
_chemical_formula_sum   'Tm8 Zr11 Si16 Tc1'
_cell_volume   702.11565838
_cell_formula_units_Z   1
loop_
 _symmetry_equiv_pos_site_id
 _symmetry_equiv_pos_as_xyz
  1  'x, y, z'
loop_
 _atom_site_type_symbol
 _atom_site_label
 _atom_site_symmetry_multiplicity
 _atom_site_fract_x
 _atom_site_fract_y
 _atom_site_fract_z
 _atom_site_occupancy
  Tm  Tm0  1  0.013224  0.177768  0.094642  1
  Tm  Tm1  1  0.988727  0.821743  0.900857  1
  Tm  Tm2  1  0.486215  0.674566  0.902190  1
  Tm  Tm3  1  0.988727  0.821743  0.599143  1
  Tm  Tm4  1  0.514442  0.322852  0.095655  1
  Tm  Tm5  1  0.013224  0.177768  0.405358  1
  Tm  Tm6  1  0.514442  0.322852  0.404345  1
  Tm  Tm7  1  0.486215  0.674566  0.597810  1
  Zr  Zr8  1  0.845659  0.500095  0.250000  1
  Zr  Zr9  1  0.344141  0.998527  0.250000  1
  Zr  Zr10  1  0.654825  0.001071  0.750000  1
  Zr  Zr11  1  0.325524  0.177908  0.626009  1
  Zr  Zr12  1  0.671306  0.823265  0.375772  1
  Zr  Zr13  1  0.172468  0.676611  0.377363  1
  Zr  Zr14  1  0.671306  0.823265  0.124228  1
  Zr  Zr15  1  0.828791  0.326490  0.626826  1
  Zr  Zr16  1  0.325524  0.177908  0.873991  1
  Zr  Zr17  1  0.828791  0.326490  0.873174  1
  Zr  Zr18  1  0.172468  0.676611  0.122637  1
  Si  Si19  1  0.032416  0.113014  0.750000  1
  Si  Si20  1  0.968206  0.883111  0.250000  1
  Si  Si21  1  0.468416  0.613616  0.250000  1
  Si  Si22  1  0.521763  0.391631  0.750000  1
  Si  Si23  1  0.282055  0.860942  0.750000  1
  Si  Si24  1  0.719508  0.130605  0.250000  1
  Si  Si25  1  0.217569  0.368917  0.250000  1
  Si  Si26  1  0.791509  0.629411  0.750000  1
  Si  Si27  1  0.155480  0.470565  0.545596  1
  Si  Si28  1  0.842125  0.533173  0.462099  1
  Si  Si29  1  0.344050  0.970767  0.460276  1
  Si  Si30  1  0.842125  0.533173  0.037901  1
  Si  Si31  1  0.658290  0.032164  0.540720  1
  Si  Si32  1  0.155480  0.470565  0.954404  1
  Si  Si33  1  0.658290  0.032164  0.959280  1
  Si  Si34  1  0.344050  0.970767  0.039724  1
  Tc  Tc35  1  0.152646  0.493319  0.750000  1
