# generated using pymatgen
data_Zr5PaCBr15
_symmetry_space_group_name_H-M   'P 1'
_cell_length_a   9.34291494
_cell_length_b   9.34298760
_cell_length_c   9.34291600
_cell_angle_alpha   110.44493420
_cell_angle_beta   107.54060636
_cell_angle_gamma   110.44493817
_symmetry_Int_Tables_number   1
_chemical_formula_structural   Zr5PaCBr15
_chemical_formula_sum   'Zr5 Pa1 C1 Br15'
_cell_volume   627.28040147
_cell_formula_units_Z   1
loop_
 _symmetry_equiv_pos_site_id
 _symmetry_equiv_pos_as_xyz
  1  'x, y, z'
loop_
 _atom_site_type_symbol
 _atom_site_label
 _atom_site_symmetry_multiplicity
 _atom_site_fract_x
 _atom_site_fract_y
 _atom_site_fract_z
 _atom_site_occupancy
  Zr  Zr0  1  0.216149  0.218873  0.997280  1
  Zr  Zr1  1  0.796897  0.000000  0.796897  1
  Zr  Zr2  1  0.997280  0.218873  0.216149  1
  Zr  Zr3  1  0.997283  0.781125  0.778412  1
  Zr  Zr4  1  0.778412  0.781125  0.997283  1
  Pa  Pa5  1  0.235880  0.999992  0.235880  1
  C  C6  1  0.007625  0.000004  0.007625  1
  Br  Br7  1  0.981015  0.740263  0.240764  1
  Br  Br8  1  0.240764  0.740263  0.981015  1
  Br  Br9  1  0.510480  0.753532  0.756955  1
  Br  Br10  1  0.003427  0.246471  0.756949  1
  Br  Br11  1  0.750366  0.000008  0.249626  1
  Br  Br12  1  0.249621  0.499250  0.249621  1
  Br  Br13  1  0.756949  0.246471  0.003427  1
  Br  Br14  1  0.496805  0.499995  0.996806  1
  Br  Br15  1  0.240756  0.259743  0.500512  1
  Br  Br16  1  0.750366  0.500754  0.750366  1
  Br  Br17  1  0.756955  0.753532  0.510480  1
  Br  Br18  1  0.500512  0.259743  0.240756  1
  Br  Br19  1  0.249626  0.000008  0.750366  1
  Br  Br20  1  0.996806  0.499995  0.496805  1
  Br  Br21  1  0.486029  0.999983  0.486029  1
