# generated using pymatgen
data_TaNb4Co16Si7W
_symmetry_space_group_name_H-M   'P 1'
_cell_length_a   7.88770456
_cell_length_b   7.89616626
_cell_length_c   7.89559813
_cell_angle_alpha   59.93126696
_cell_angle_beta   60.05572317
_cell_angle_gamma   60.03429539
_symmetry_Int_Tables_number   1
_chemical_formula_structural   TaNb4Co16Si7W
_chemical_formula_sum   'Ta1 Nb4 Co16 Si7 W1'
_cell_volume   347.78083157
_cell_formula_units_Z   1
loop_
 _symmetry_equiv_pos_site_id
 _symmetry_equiv_pos_as_xyz
  1  'x, y, z'
loop_
 _atom_site_type_symbol
 _atom_site_label
 _atom_site_symmetry_multiplicity
 _atom_site_fract_x
 _atom_site_fract_y
 _atom_site_fract_z
 _atom_site_occupancy
  Ta  Ta0  1  0.203247  0.202233  0.796682  1
  Nb  Nb1  1  0.202387  0.797772  0.201098  1
  Nb  Nb2  1  0.795669  0.204689  0.204387  1
  Nb  Nb3  1  0.799001  0.201347  0.797457  1
  Nb  Nb4  1  0.798388  0.797053  0.201723  1
  Co  Co5  1  0.379745  0.380821  0.382072  1
  Co  Co6  1  0.495760  0.834805  0.833625  1
  Co  Co7  1  0.618653  0.619536  0.142649  1
  Co  Co8  1  0.166299  0.164259  0.504246  1
  Co  Co9  1  0.833640  0.833426  0.499544  1
  Co  Co10  1  0.166452  0.166407  0.165197  1
  Co  Co11  1  0.835863  0.833717  0.833452  1
  Co  Co12  1  0.379690  0.384607  0.854784  1
  Co  Co13  1  0.834850  0.498118  0.833408  1
  Co  Co14  1  0.614961  0.619603  0.620101  1
  Co  Co15  1  0.379746  0.854744  0.385196  1
  Co  Co16  1  0.145450  0.618970  0.620109  1
  Co  Co17  1  0.618009  0.142683  0.620114  1
  Co  Co18  1  0.166463  0.503033  0.164247  1
  Co  Co19  1  0.857350  0.380842  0.381421  1
  Co  Co20  1  0.500553  0.166602  0.166383  1
  Si  Si21  1  0.001525  0.998724  0.500141  1
  Si  Si22  1  0.500073  0.998572  0.500005  1
  Si  Si23  1  0.502453  0.497844  0.497620  1
  Si  Si24  1  0.001436  0.500543  0.998562  1
  Si  Si25  1  0.499879  0.500463  0.998368  1
  Si  Si26  1  0.500301  0.999875  0.999854  1
  Si  Si27  1  0.000036  0.500089  0.499701  1
  W  W28  1  0.202123  0.798625  0.797856  1
