# generated using pymatgen
data_AsPb2Br
_symmetry_space_group_name_H-M   'P 1'
_cell_length_a   7.92212929
_cell_length_b   7.92212898
_cell_length_c   7.92212927
_cell_angle_alpha   32.29689177
_cell_angle_beta   32.29689240
_cell_angle_gamma   32.29688981
_symmetry_Int_Tables_number   1
_chemical_formula_structural   AsPb2Br
_chemical_formula_sum   'As1 Pb2 Br1'
_cell_volume   126.17256154
_cell_formula_units_Z   1
loop_
 _symmetry_equiv_pos_site_id
 _symmetry_equiv_pos_as_xyz
  1  'x, y, z'
loop_
 _atom_site_type_symbol
 _atom_site_label
 _atom_site_symmetry_multiplicity
 _atom_site_fract_x
 _atom_site_fract_y
 _atom_site_fract_z
 _atom_site_occupancy
  As  As0  1  0.500000  0.500000  0.500000  1
  Pb  Pb1  1  0.236899  0.236899  0.236899  1
  Pb  Pb2  1  0.763101  0.763101  0.763101  1
  Br  Br3  1  0.000000  0.000000  0.000000  1
