# generated using pymatgen
data_Dy4SiGe7Rh16
_symmetry_space_group_name_H-M   'P 1'
_cell_length_a   4.21507700
_cell_length_b   9.18163528
_cell_length_c   11.49402434
_cell_angle_alpha   89.97192088
_cell_angle_beta   90.00000000
_cell_angle_gamma   90.00000000
_symmetry_Int_Tables_number   1
_chemical_formula_structural   Dy4SiGe7Rh16
_chemical_formula_sum   'Dy4 Si1 Ge7 Rh16'
_cell_volume   444.83362721
_cell_formula_units_Z   1
loop_
 _symmetry_equiv_pos_site_id
 _symmetry_equiv_pos_as_xyz
  1  'x, y, z'
loop_
 _atom_site_type_symbol
 _atom_site_label
 _atom_site_symmetry_multiplicity
 _atom_site_fract_x
 _atom_site_fract_y
 _atom_site_fract_z
 _atom_site_occupancy
  Dy  Dy0  1  0.250000  0.149280  0.825031  1
  Dy  Dy1  1  0.250000  0.351691  0.326251  1
  Dy  Dy2  1  0.750000  0.851438  0.174661  1
  Dy  Dy3  1  0.750000  0.646655  0.674749  1
  Si  Si4  1  0.250000  0.412001  0.637903  1
  Ge  Ge5  1  0.250000  0.086398  0.138628  1
  Ge  Ge6  1  0.750000  0.585531  0.361976  1
  Ge  Ge7  1  0.750000  0.913985  0.861186  1
  Ge  Ge8  1  0.250000  0.618050  0.059734  1
  Ge  Ge9  1  0.250000  0.881085  0.559350  1
  Ge  Ge10  1  0.750000  0.382169  0.939606  1
  Ge  Ge11  1  0.750000  0.118988  0.441283  1
  Rh  Rh12  1  0.250000  0.610048  0.501629  1
  Rh  Rh13  1  0.250000  0.884862  0.998310  1
  Rh  Rh14  1  0.750000  0.386243  0.503782  1
  Rh  Rh15  1  0.750000  0.115041  0.001819  1
  Rh  Rh16  1  0.250000  0.689780  0.270850  1
  Rh  Rh17  1  0.250000  0.810046  0.769196  1
  Rh  Rh18  1  0.750000  0.313458  0.728101  1
  Rh  Rh19  1  0.750000  0.190064  0.231011  1
  Rh  Rh20  1  0.250000  0.176520  0.562722  1
  Rh  Rh21  1  0.250000  0.329681  0.059237  1
  Rh  Rh22  1  0.750000  0.828018  0.439952  1
  Rh  Rh23  1  0.750000  0.669702  0.939216  1
  Rh  Rh24  1  0.250000  0.004159  0.345948  1
  Rh  Rh25  1  0.250000  0.494208  0.838092  1
  Rh  Rh26  1  0.750000  0.997362  0.654347  1
  Rh  Rh27  1  0.750000  0.503535  0.155429  1
