# generated using pymatgen
data_Dy2CoIrI2
_symmetry_space_group_name_H-M   'P 1'
_cell_length_a   4.13462800
_cell_length_b   4.13462674
_cell_length_c   12.25637100
_cell_angle_alpha   90.00000000
_cell_angle_beta   90.00000000
_cell_angle_gamma   119.99999412
_symmetry_Int_Tables_number   1
_chemical_formula_structural   Dy2CoIrI2
_chemical_formula_sum   'Dy2 Co1 Ir1 I2'
_cell_volume   181.45348175
_cell_formula_units_Z   1
loop_
 _symmetry_equiv_pos_site_id
 _symmetry_equiv_pos_as_xyz
  1  'x, y, z'
loop_
 _atom_site_type_symbol
 _atom_site_label
 _atom_site_symmetry_multiplicity
 _atom_site_fract_x
 _atom_site_fract_y
 _atom_site_fract_z
 _atom_site_occupancy
  Dy  Dy0  1  0.000000  0.000000  0.351514  1
  Dy  Dy1  1  0.000000  0.000000  0.648095  1
  Co  Co2  1  0.666668  0.333333  0.503927  1
  Ir  Ir3  1  0.333333  0.666666  0.496447  1
  I  I4  1  0.666668  0.333333  0.178736  1
  I  I5  1  0.333333  0.666666  0.821283  1
