# generated using pymatgen
data_Yb7DySc12Si15Pt
_symmetry_space_group_name_H-M   'P 1'
_cell_length_a   7.11231749
_cell_length_b   7.48989686
_cell_length_c   14.23425564
_cell_angle_alpha   89.87550028
_cell_angle_beta   89.97676852
_cell_angle_gamma   90.01003545
_symmetry_Int_Tables_number   1
_chemical_formula_structural   Yb7DySc12Si15Pt
_chemical_formula_sum   'Yb7 Dy1 Sc12 Si15 Pt1'
_cell_volume   758.26439919
_cell_formula_units_Z   1
loop_
 _symmetry_equiv_pos_site_id
 _symmetry_equiv_pos_as_xyz
  1  'x, y, z'
loop_
 _atom_site_type_symbol
 _atom_site_label
 _atom_site_symmetry_multiplicity
 _atom_site_fract_x
 _atom_site_fract_y
 _atom_site_fract_z
 _atom_site_occupancy
  Yb  Yb0  1  0.008714  0.174749  0.091983  1
  Yb  Yb1  1  0.993002  0.829418  0.904375  1
  Yb  Yb2  1  0.490260  0.675708  0.905272  1
  Yb  Yb3  1  0.992161  0.828464  0.595141  1
  Yb  Yb4  1  0.509073  0.325790  0.092323  1
  Yb  Yb5  1  0.008893  0.174503  0.408593  1
  Yb  Yb6  1  0.510916  0.323418  0.408047  1
  Dy  Dy7  1  0.483817  0.679063  0.597084  1
  Sc  Sc8  1  0.152742  0.508801  0.750764  1
  Sc  Sc9  1  0.842810  0.489270  0.250065  1
  Sc  Sc10  1  0.340919  0.012967  0.249692  1
  Sc  Sc11  1  0.667310  0.992201  0.749996  1
  Sc  Sc12  1  0.321364  0.171236  0.624817  1
  Sc  Sc13  1  0.674638  0.827516  0.377799  1
  Sc  Sc14  1  0.175024  0.676355  0.377154  1
  Sc  Sc15  1  0.674763  0.826911  0.121818  1
  Sc  Sc16  1  0.828017  0.321886  0.625537  1
  Sc  Sc17  1  0.320480  0.170903  0.873762  1
  Sc  Sc18  1  0.826878  0.323145  0.873837  1
  Sc  Sc19  1  0.174341  0.676277  0.122876  1
  Si  Si20  1  0.966848  0.876889  0.249855  1
  Si  Si21  1  0.469984  0.622017  0.250352  1
  Si  Si22  1  0.523336  0.385522  0.748285  1
  Si  Si23  1  0.288126  0.872822  0.747649  1
  Si  Si24  1  0.724330  0.114549  0.250223  1
  Si  Si25  1  0.224311  0.386652  0.250611  1
  Si  Si26  1  0.772268  0.617356  0.747385  1
  Si  Si27  1  0.153194  0.468920  0.541415  1
  Si  Si28  1  0.850464  0.538517  0.460892  1
  Si  Si29  1  0.350875  0.960472  0.460127  1
  Si  Si30  1  0.852503  0.537298  0.040211  1
  Si  Si31  1  0.651426  0.031542  0.542179  1
  Si  Si32  1  0.148610  0.466085  0.959328  1
  Si  Si33  1  0.649765  0.036865  0.959223  1
  Si  Si34  1  0.351051  0.964281  0.041935  1
  Pt  Pt35  1  0.026791  0.111629  0.749396  1
