# generated using pymatgen
data_Y3CO2
_symmetry_space_group_name_H-M   'P 1'
_cell_length_a   3.46580012
_cell_length_b   6.00367658
_cell_length_c   6.00197200
_cell_angle_alpha   47.88517571
_cell_angle_beta   73.06377672
_cell_angle_gamma   73.06981936
_symmetry_Int_Tables_number   1
_chemical_formula_structural   Y3CO2
_chemical_formula_sum   'Y3 C1 O2'
_cell_volume   87.81092485
_cell_formula_units_Z   1
loop_
 _symmetry_equiv_pos_site_id
 _symmetry_equiv_pos_as_xyz
  1  'x, y, z'
loop_
 _atom_site_type_symbol
 _atom_site_label
 _atom_site_symmetry_multiplicity
 _atom_site_fract_x
 _atom_site_fract_y
 _atom_site_fract_z
 _atom_site_occupancy
  Y  Y0  1  0.036193  0.890522  0.817469  1
  Y  Y1  1  0.372640  0.553151  0.480280  1
  Y  Y2  1  0.699990  0.227846  0.154706  1
  C  C3  1  0.036326  0.390665  0.317321  1
  O  O4  1  0.702041  0.725316  0.651869  1
  O  O5  1  0.370498  0.055666  0.983127  1
