# generated using pymatgen
data_Ba8TbUSe12
_symmetry_space_group_name_H-M   'P 1'
_cell_length_a   9.06327250
_cell_length_b   9.06327159
_cell_length_c   9.06327310
_cell_angle_alpha   89.50540486
_cell_angle_beta   89.50541104
_cell_angle_gamma   89.50541000
_symmetry_Int_Tables_number   1
_chemical_formula_structural   Ba8TbUSe12
_chemical_formula_sum   'Ba8 Tb1 U1 Se12'
_cell_volume   744.40079994
_cell_formula_units_Z   1
loop_
 _symmetry_equiv_pos_site_id
 _symmetry_equiv_pos_as_xyz
  1  'x, y, z'
loop_
 _atom_site_type_symbol
 _atom_site_label
 _atom_site_symmetry_multiplicity
 _atom_site_fract_x
 _atom_site_fract_y
 _atom_site_fract_z
 _atom_site_occupancy
  Ba  Ba0  1  0.871493  0.622194  0.255988  1
  Ba  Ba1  1  0.255988  0.871493  0.622194  1
  Ba  Ba2  1  0.622194  0.255988  0.871493  1
  Ba  Ba3  1  0.744012  0.128507  0.377806  1
  Ba  Ba4  1  0.377806  0.744012  0.128507  1
  Ba  Ba5  1  0.128507  0.377806  0.744012  1
  Ba  Ba6  1  0.254875  0.254875  0.254875  1
  Ba  Ba7  1  0.745125  0.745125  0.745125  1
  Tb  Tb8  1  0.500000  0.500000  0.500000  1
  U  U9  1  0.000000  0.000000  0.000000  1
  Se  Se10  1  0.197594  0.563814  0.420737  1
  Se  Se11  1  0.420737  0.197594  0.563814  1
  Se  Se12  1  0.563814  0.420737  0.197594  1
  Se  Se13  1  0.926728  0.059053  0.708667  1
  Se  Se14  1  0.708667  0.926728  0.059053  1
  Se  Se15  1  0.059053  0.708667  0.926728  1
  Se  Se16  1  0.802406  0.436186  0.579263  1
  Se  Se17  1  0.579263  0.802406  0.436186  1
  Se  Se18  1  0.436186  0.579263  0.802406  1
  Se  Se19  1  0.073272  0.940947  0.291333  1
  Se  Se20  1  0.291333  0.073272  0.940947  1
  Se  Se21  1  0.940947  0.291333  0.073272  1
