# generated using pymatgen
data_Sc4Be3SiPt4
_symmetry_space_group_name_H-M   'P 1'
_cell_length_a   3.99187800
_cell_length_b   6.46433109
_cell_length_c   7.21716421
_cell_angle_alpha   89.88992895
_cell_angle_beta   90.00000000
_cell_angle_gamma   90.00000000
_symmetry_Int_Tables_number   1
_chemical_formula_structural   Sc4Be3SiPt4
_chemical_formula_sum   'Sc4 Be3 Si1 Pt4'
_cell_volume   186.23728738
_cell_formula_units_Z   1
loop_
 _symmetry_equiv_pos_site_id
 _symmetry_equiv_pos_as_xyz
  1  'x, y, z'
loop_
 _atom_site_type_symbol
 _atom_site_label
 _atom_site_symmetry_multiplicity
 _atom_site_fract_x
 _atom_site_fract_y
 _atom_site_fract_z
 _atom_site_occupancy
  Sc  Sc0  1  0.750000  0.488061  0.811412  1
  Sc  Sc1  1  0.250000  0.025200  0.316614  1
  Sc  Sc2  1  0.750000  0.987930  0.693561  1
  Sc  Sc3  1  0.250000  0.510068  0.178201  1
  Be  Be4  1  0.250000  0.798738  0.885893  1
  Be  Be5  1  0.250000  0.298195  0.617506  1
  Be  Be6  1  0.750000  0.197550  0.104735  1
  Si  Si7  1  0.750000  0.710350  0.386350  1
  Pt  Pt8  1  0.250000  0.661015  0.575709  1
  Pt  Pt9  1  0.250000  0.165868  0.938169  1
  Pt  Pt10  1  0.750000  0.830199  0.059212  1
  Pt  Pt11  1  0.750000  0.326825  0.432638  1
