# generated using pymatgen
data_Nb3Tc2Ge3Rh
_symmetry_space_group_name_H-M   'P 1'
_cell_length_a   6.71386307
_cell_length_b   7.38780183
_cell_length_c   7.63790863
_cell_angle_alpha   118.92256772
_cell_angle_beta   116.07257094
_cell_angle_gamma   89.99999544
_symmetry_Int_Tables_number   1
_chemical_formula_structural   Nb3Tc2Ge3Rh
_chemical_formula_sum   'Nb6 Tc4 Ge6 Rh2'
_cell_volume   286.75790557
_cell_formula_units_Z   2
loop_
 _symmetry_equiv_pos_site_id
 _symmetry_equiv_pos_as_xyz
  1  'x, y, z'
loop_
 _atom_site_type_symbol
 _atom_site_label
 _atom_site_symmetry_multiplicity
 _atom_site_fract_x
 _atom_site_fract_y
 _atom_site_fract_z
 _atom_site_occupancy
  Nb  Nb0  1  0.901012  0.953644  0.407287  1
  Nb  Nb1  1  0.493725  0.046356  0.592713  1
  Nb  Nb2  1  0.494470  0.524393  0.548785  1
  Nb  Nb3  1  0.945685  0.475607  0.451215  1
  Nb  Nb4  1  0.101756  0.748731  0.997462  1
  Nb  Nb5  1  0.104293  0.251269  0.002538  1
  Tc  Tc6  1  0.250166  0.915799  0.752056  1
  Tc  Tc7  1  0.498111  0.084201  0.247944  1
  Tc  Tc8  1  0.250166  0.336256  0.752056  1
  Tc  Tc9  1  0.498111  0.663744  0.247944  1
  Ge  Ge10  1  0.162894  0.666931  0.330107  1
  Ge  Ge11  1  0.832787  0.333069  0.669893  1
  Ge  Ge12  1  0.162894  0.163175  0.330107  1
  Ge  Ge13  1  0.832787  0.836825  0.669893  1
  Ge  Ge14  1  0.478793  0.717724  0.935451  1
  Ge  Ge15  1  0.543343  0.282276  0.064549  1
  Rh  Rh16  1  0.753501  0.500000  0.000000  1
  Rh  Rh17  1  0.753501  0.000000  0.000000  1
