# generated using pymatgen
data_Ca13Dy7Si15Ag
_symmetry_space_group_name_H-M   'P 1'
_cell_length_a   7.51132657
_cell_length_b   7.81234981
_cell_length_c   15.29290900
_cell_angle_alpha   90.24293950
_cell_angle_beta   89.19760076
_cell_angle_gamma   90.29120535
_symmetry_Int_Tables_number   1
_chemical_formula_structural   Ca13Dy7Si15Ag
_chemical_formula_sum   'Ca13 Dy7 Si15 Ag1'
_cell_volume   897.29749604
_cell_formula_units_Z   1
loop_
 _symmetry_equiv_pos_site_id
 _symmetry_equiv_pos_as_xyz
  1  'x, y, z'
loop_
 _atom_site_type_symbol
 _atom_site_label
 _atom_site_symmetry_multiplicity
 _atom_site_fract_x
 _atom_site_fract_y
 _atom_site_fract_z
 _atom_site_occupancy
  Ca  Ca0  1  0.648894  0.980411  0.251061  1
  Ca  Ca1  1  0.153207  0.517986  0.250102  1
  Ca  Ca2  1  0.846111  0.484897  0.747349  1
  Ca  Ca3  1  0.352080  0.017289  0.747812  1
  Ca  Ca4  1  0.985454  0.822662  0.099560  1
  Ca  Ca5  1  0.472094  0.682536  0.404860  1
  Ca  Ca6  1  0.506859  0.318897  0.901561  1
  Ca  Ca7  1  0.028512  0.184918  0.595537  1
  Ca  Ca8  1  0.026712  0.174539  0.902164  1
  Ca  Ca9  1  0.528733  0.316630  0.595625  1
  Ca  Ca10  1  0.473797  0.682256  0.095063  1
  Ca  Ca11  1  0.972688  0.816794  0.404106  1
  Ca  Ca12  1  0.671666  0.827612  0.875180  1
  Dy  Dy13  1  0.181555  0.677605  0.620118  1
  Dy  Dy14  1  0.826780  0.317588  0.127163  1
  Dy  Dy15  1  0.317630  0.176532  0.380238  1
  Dy  Dy16  1  0.322229  0.179842  0.123392  1
  Dy  Dy17  1  0.816396  0.322674  0.379843  1
  Dy  Dy18  1  0.188635  0.676677  0.878944  1
  Dy  Dy19  1  0.682429  0.823348  0.620733  1
  Si  Si20  1  0.756060  0.603900  0.248841  1
  Si  Si21  1  0.255432  0.895152  0.252165  1
  Si  Si22  1  0.749940  0.110111  0.745042  1
  Si  Si23  1  0.237616  0.393693  0.748136  1
  Si  Si24  1  0.028429  0.115778  0.251798  1
  Si  Si25  1  0.529731  0.381000  0.254219  1
  Si  Si26  1  0.467595  0.613206  0.743792  1
  Si  Si27  1  0.975140  0.884852  0.750709  1
  Si  Si28  1  0.359795  0.965207  0.537870  1
  Si  Si29  1  0.643792  0.041063  0.037673  1
  Si  Si30  1  0.139235  0.466493  0.460999  1
  Si  Si31  1  0.156420  0.463809  0.038902  1
  Si  Si32  1  0.640172  0.033558  0.461557  1
  Si  Si33  1  0.354758  0.967992  0.965754  1
  Si  Si34  1  0.859141  0.535581  0.537110  1
  Ag  Ag35  1  0.844285  0.526905  0.965023  1
