# generated using pymatgen
data_Li4Nd2HoSn4
_symmetry_space_group_name_H-M   'P 1'
_cell_length_a   8.78645375
_cell_length_b   8.78465875
_cell_length_c   8.78465836
_cell_angle_alpha   148.71126296
_cell_angle_beta   132.90177136
_cell_angle_gamma   57.63343184
_symmetry_Int_Tables_number   1
_chemical_formula_structural   Li4Nd2HoSn4
_chemical_formula_sum   'Li4 Nd2 Ho1 Sn4'
_cell_volume   256.02963109
_cell_formula_units_Z   1
loop_
 _symmetry_equiv_pos_site_id
 _symmetry_equiv_pos_as_xyz
  1  'x, y, z'
loop_
 _atom_site_type_symbol
 _atom_site_label
 _atom_site_symmetry_multiplicity
 _atom_site_fract_x
 _atom_site_fract_y
 _atom_site_fract_z
 _atom_site_occupancy
  Li  Li0  1  0.982084  0.673176  0.308907  1
  Li  Li1  1  0.017916  0.326824  0.691093  1
  Li  Li2  1  0.364181  0.673161  0.691020  1
  Li  Li3  1  0.635819  0.326839  0.308980  1
  Nd  Nd4  1  0.370784  0.870745  0.500039  1
  Nd  Nd5  1  0.629216  0.129255  0.499961  1
  Ho  Ho6  1  0.000000  0.000000  0.000000  1
  Sn  Sn7  1  0.705514  0.500055  0.205459  1
  Sn  Sn8  1  0.294486  0.499945  0.794541  1
  Sn  Sn9  1  0.209973  0.210020  0.999954  1
  Sn  Sn10  1  0.790027  0.789980  0.000046  1
