# generated using pymatgen
data_Dy3HoPb4F28
_symmetry_space_group_name_H-M   'P 1'
_cell_length_a   5.74718512
_cell_length_b   9.09351399
_cell_length_c   12.23374100
_cell_angle_alpha   62.38064526
_cell_angle_beta   90.01186354
_cell_angle_gamma   90.00165014
_symmetry_Int_Tables_number   1
_chemical_formula_structural   Dy3HoPb4F28
_chemical_formula_sum   'Dy3 Ho1 Pb4 F28'
_cell_volume   566.50398479
_cell_formula_units_Z   1
loop_
 _symmetry_equiv_pos_site_id
 _symmetry_equiv_pos_as_xyz
  1  'x, y, z'
loop_
 _atom_site_type_symbol
 _atom_site_label
 _atom_site_symmetry_multiplicity
 _atom_site_fract_x
 _atom_site_fract_y
 _atom_site_fract_z
 _atom_site_occupancy
  Dy  Dy0  1  0.742157  0.815963  0.266445  1
  Dy  Dy1  1  0.242116  0.183772  0.233573  1
  Dy  Dy2  1  0.257865  0.183080  0.733702  1
  Ho  Ho3  1  0.757863  0.816189  0.766280  1
  Pb  Pb4  1  0.744140  0.271647  0.456465  1
  Pb  Pb5  1  0.244012  0.727969  0.043255  1
  Pb  Pb6  1  0.255920  0.727929  0.544329  1
  Pb  Pb7  1  0.755987  0.272611  0.955954  1
  F  F8  1  0.468441  0.706032  0.917093  1
  F  F9  1  0.967856  0.294168  0.582626  1
  F  F10  1  0.532447  0.294713  0.082338  1
  F  F11  1  0.032634  0.705629  0.417772  1
  F  F12  1  0.439779  0.283270  0.547803  1
  F  F13  1  0.939447  0.717228  0.951488  1
  F  F14  1  0.559969  0.716383  0.452574  1
  F  F15  1  0.060269  0.283867  0.047452  1
  F  F16  1  0.770166  0.529407  0.854541  1
  F  F17  1  0.269945  0.471240  0.645561  1
  F  F18  1  0.229731  0.471437  0.145125  1
  F  F19  1  0.730061  0.528406  0.354792  1
  F  F20  1  0.760057  0.014017  0.056218  1
  F  F21  1  0.260037  0.986319  0.443972  1
  F  F22  1  0.240037  0.986498  0.943463  1
  F  F23  1  0.739689  0.013196  0.556996  1
  F  F24  1  0.974619  0.729910  0.652275  1
  F  F25  1  0.474920  0.270543  0.847958  1
  F  F26  1  0.024952  0.270447  0.348158  1
  F  F27  1  0.524740  0.729570  0.151681  1
  F  F28  1  0.035381  0.745134  0.178145  1
  F  F29  1  0.535319  0.254815  0.321630  1
  F  F30  1  0.964603  0.255010  0.821353  1
  F  F31  1  0.465445  0.745482  0.678835  1
  F  F32  1  0.427473  0.971878  0.236417  1
  F  F33  1  0.927303  0.028094  0.263650  1
  F  F34  1  0.573253  0.026996  0.763651  1
  F  F35  1  0.071364  0.971156  0.736429  1
