# generated using pymatgen
data_Er4Al18Cu3Re2Pd
_symmetry_space_group_name_H-M   'P 1'
_cell_length_a   7.53848704
_cell_length_b   7.53855047
_cell_length_c   9.42091691
_cell_angle_alpha   89.94050502
_cell_angle_beta   89.93981549
_cell_angle_gamma   118.44199759
_symmetry_Int_Tables_number   1
_chemical_formula_structural   Er4Al18Cu3Re2Pd
_chemical_formula_sum   'Er4 Al18 Cu3 Re2 Pd1'
_cell_volume   470.76182289
_cell_formula_units_Z   1
loop_
 _symmetry_equiv_pos_site_id
 _symmetry_equiv_pos_as_xyz
  1  'x, y, z'
loop_
 _atom_site_type_symbol
 _atom_site_label
 _atom_site_symmetry_multiplicity
 _atom_site_fract_x
 _atom_site_fract_y
 _atom_site_fract_z
 _atom_site_occupancy
  Er  Er0  1  0.993815  0.681793  0.249296  1
  Er  Er1  1  0.006954  0.318500  0.750840  1
  Er  Er2  1  0.681532  0.993111  0.249148  1
  Er  Er3  1  0.318205  0.006167  0.750693  1
  Al  Al4  1  0.136083  0.136083  0.249689  1
  Al  Al5  1  0.863949  0.863939  0.750306  1
  Al  Al6  1  0.000411  0.338254  0.077735  1
  Al  Al7  1  0.999530  0.662011  0.922063  1
  Al  Al8  1  0.000234  0.662868  0.577513  1
  Al  Al9  1  0.337181  0.999786  0.422483  1
  Al  Al10  1  0.001659  0.337329  0.422379  1
  Al  Al11  1  0.662684  0.998391  0.577604  1
  Al  Al12  1  0.661745  0.999631  0.922269  1
  Al  Al13  1  0.338032  0.000488  0.077934  1
  Al  Al14  1  0.329872  0.331024  0.548583  1
  Al  Al15  1  0.668987  0.670201  0.451417  1
  Al  Al16  1  0.668112  0.668124  0.049470  1
  Al  Al17  1  0.331947  0.331871  0.950530  1
  Al  Al18  1  0.346755  0.558683  0.250153  1
  Al  Al19  1  0.653354  0.442441  0.751849  1
  Al  Al20  1  0.557518  0.346719  0.248150  1
  Al  Al21  1  0.441404  0.653215  0.749852  1
  Cu  Cu22  1  0.672996  0.328092  0.999984  1
  Cu  Cu23  1  0.327053  0.671812  0.000101  1
  Cu  Cu24  1  0.326963  0.671867  0.499939  1
  Re  Re25  1  0.000050  0.999975  0.000000  1
  Re  Re26  1  0.000461  0.999585  0.499994  1
  Pd  Pd27  1  0.672512  0.328041  0.500026  1
