# generated using pymatgen
data_LiCa4Pb11
_symmetry_space_group_name_H-M   'P 1'
_cell_length_a   9.81739500
_cell_length_b   6.97219292
_cell_length_c   6.97814955
_cell_angle_alpha   89.12635354
_cell_angle_beta   90.00000000
_cell_angle_gamma   90.00000000
_symmetry_Int_Tables_number   1
_chemical_formula_structural   LiCa4Pb11
_chemical_formula_sum   'Li1 Ca4 Pb11'
_cell_volume   477.59024124
_cell_formula_units_Z   1
loop_
 _symmetry_equiv_pos_site_id
 _symmetry_equiv_pos_as_xyz
  1  'x, y, z'
loop_
 _atom_site_type_symbol
 _atom_site_label
 _atom_site_symmetry_multiplicity
 _atom_site_fract_x
 _atom_site_fract_y
 _atom_site_fract_z
 _atom_site_occupancy
  Li  Li0  1  0.750000  0.495569  0.998118  1
  Ca  Ca1  1  0.250000  0.007257  0.001038  1
  Ca  Ca2  1  0.250000  0.497528  0.504674  1
  Ca  Ca3  1  0.750000  0.995883  0.999890  1
  Ca  Ca4  1  0.750000  0.504289  0.498352  1
  Pb  Pb5  1  0.993854  0.249916  0.749629  1
  Pb  Pb6  1  0.506539  0.256983  0.244191  1
  Pb  Pb7  1  0.504104  0.745934  0.245859  1
  Pb  Pb8  1  0.994365  0.743456  0.757187  1
  Pb  Pb9  1  0.995896  0.745934  0.245859  1
  Pb  Pb10  1  0.505635  0.743456  0.757187  1
  Pb  Pb11  1  0.506146  0.249916  0.749629  1
  Pb  Pb12  1  0.993461  0.256983  0.244191  1
  Pb  Pb13  1  0.250000  0.998105  0.501014  1
  Pb  Pb14  1  0.250000  0.505838  0.003617  1
  Pb  Pb15  1  0.750000  0.002952  0.499562  1
