# generated using pymatgen
data_Y12AlTlNi4
_symmetry_space_group_name_H-M   'P 1'
_cell_length_a   8.40454402
_cell_length_b   8.40432065
_cell_length_c   8.40454600
_cell_angle_alpha   107.33654278
_cell_angle_beta   109.35194458
_cell_angle_gamma   111.75659168
_symmetry_Int_Tables_number   1
_chemical_formula_structural   Y12AlTlNi4
_chemical_formula_sum   'Y12 Al1 Tl1 Ni4'
_cell_volume   456.30345112
_cell_formula_units_Z   1
loop_
 _symmetry_equiv_pos_site_id
 _symmetry_equiv_pos_as_xyz
  1  'x, y, z'
loop_
 _atom_site_type_symbol
 _atom_site_label
 _atom_site_symmetry_multiplicity
 _atom_site_fract_x
 _atom_site_fract_y
 _atom_site_fract_z
 _atom_site_occupancy
  Y  Y0  1  0.702215  0.270592  0.972808  1
  Y  Y1  1  0.297785  0.729408  0.027192  1
  Y  Y2  1  0.702215  0.729408  0.431623  1
  Y  Y3  1  0.297785  0.270592  0.568377  1
  Y  Y4  1  0.802899  0.126179  0.323281  1
  Y  Y5  1  0.802895  0.479614  0.676718  1
  Y  Y6  1  0.197101  0.873821  0.676719  1
  Y  Y7  1  0.197105  0.520386  0.323282  1
  Y  Y8  1  0.606502  0.786956  0.819542  1
  Y  Y9  1  0.967415  0.786956  0.180454  1
  Y  Y10  1  0.032585  0.213044  0.819546  1
  Y  Y11  1  0.393498  0.213044  0.180458  1
  Al  Al12  1  0.500000  0.500000  0.000000  1
  Tl  Tl13  1  0.500000  0.000000  0.500000  1
  Ni  Ni14  1  0.858255  0.500000  0.358255  1
  Ni  Ni15  1  0.141745  0.500000  0.641745  1
  Ni  Ni16  1  0.999991  0.122747  0.122756  1
  Ni  Ni17  1  0.000009  0.877253  0.877244  1
