# generated using pymatgen
data_Tb2NiP7Ru11
_symmetry_space_group_name_H-M   'P 1'
_cell_length_a   9.33071337
_cell_length_b   9.45659543
_cell_length_c   3.91678500
_cell_angle_alpha   90.00000000
_cell_angle_beta   90.00000000
_cell_angle_gamma   119.52216636
_symmetry_Int_Tables_number   1
_chemical_formula_structural   Tb2NiP7Ru11
_chemical_formula_sum   'Tb2 Ni1 P7 Ru11'
_cell_volume   300.73298423
_cell_formula_units_Z   1
loop_
 _symmetry_equiv_pos_site_id
 _symmetry_equiv_pos_as_xyz
  1  'x, y, z'
loop_
 _atom_site_type_symbol
 _atom_site_label
 _atom_site_symmetry_multiplicity
 _atom_site_fract_x
 _atom_site_fract_y
 _atom_site_fract_z
 _atom_site_occupancy
  Tb  Tb0  1  0.670778  0.335165  0.500000  1
  Tb  Tb1  1  0.329331  0.660174  0.000000  1
  Ni  Ni2  1  0.552969  0.944011  0.500000  1
  P  P3  1  0.990342  0.996436  0.000000  1
  P  P4  1  0.422750  0.302706  0.000000  1
  P  P5  1  0.594842  0.709821  0.500000  1
  P  P6  1  0.286666  0.884227  0.500000  1
  P  P7  1  0.115069  0.400307  0.500000  1
  P  P8  1  0.706044  0.123843  0.000000  1
  P  P9  1  0.888985  0.582956  0.000000  1
  Ru  Ru10  1  0.387821  0.438093  0.500000  1
  Ru  Ru11  1  0.055850  0.614569  0.500000  1
  Ru  Ru12  1  0.220675  0.090301  0.500000  1
  Ru  Ru13  1  0.876451  0.796925  0.500000  1
  Ru  Ru14  1  0.902431  0.125532  0.500000  1
  Ru  Ru15  1  0.713123  0.886992  0.000000  1
  Ru  Ru16  1  0.112545  0.843175  0.000000  1
  Ru  Ru17  1  0.158980  0.264813  0.000000  1
  Ru  Ru18  1  0.940506  0.368463  0.000000  1
  Ru  Ru19  1  0.637813  0.571464  0.000000  1
  Ru  Ru20  1  0.436029  0.060029  0.000000  1
