# generated using pymatgen
data_Tm10Tl6Se
_symmetry_space_group_name_H-M   'P 1'
_cell_length_a   8.97827100
_cell_length_b   8.97827455
_cell_length_c   6.61775500
_cell_angle_alpha   90.00000000
_cell_angle_beta   90.00000000
_cell_angle_gamma   119.99999798
_symmetry_Int_Tables_number   1
_chemical_formula_structural   Tm10Tl6Se
_chemical_formula_sum   'Tm10 Tl6 Se1'
_cell_volume   461.98398113
_cell_formula_units_Z   1
loop_
 _symmetry_equiv_pos_site_id
 _symmetry_equiv_pos_as_xyz
  1  'x, y, z'
loop_
 _atom_site_type_symbol
 _atom_site_label
 _atom_site_symmetry_multiplicity
 _atom_site_fract_x
 _atom_site_fract_y
 _atom_site_fract_z
 _atom_site_occupancy
  Tm  Tm0  1  0.666667  0.333333  0.500000  1
  Tm  Tm1  1  0.333333  0.666667  0.500000  1
  Tm  Tm2  1  0.333333  0.666667  0.000000  1
  Tm  Tm3  1  0.666667  0.333333  0.000000  1
  Tm  Tm4  1  0.750151  0.750151  0.241675  1
  Tm  Tm5  1  0.249849  0.000000  0.241675  1
  Tm  Tm6  1  0.000000  0.249849  0.241675  1
  Tm  Tm7  1  0.249849  0.249849  0.758325  1
  Tm  Tm8  1  0.750151  0.000000  0.758325  1
  Tm  Tm9  1  0.000000  0.750151  0.758325  1
  Tl  Tl10  1  0.396300  0.396300  0.248268  1
  Tl  Tl11  1  0.603700  0.000000  0.248268  1
  Tl  Tl12  1  0.000000  0.603700  0.248268  1
  Tl  Tl13  1  0.603700  0.603700  0.751732  1
  Tl  Tl14  1  0.396300  0.000000  0.751732  1
  Tl  Tl15  1  0.000000  0.396300  0.751732  1
  Se  Se16  1  0.000000  0.000000  0.500000  1
