# generated using pymatgen
data_Ba6SmY(BO3)6
_symmetry_space_group_name_H-M   'P 1'
_cell_length_a   8.26950598
_cell_length_b   8.26950652
_cell_length_c   8.26950526
_cell_angle_alpha   105.61581837
_cell_angle_beta   105.61582670
_cell_angle_gamma   105.61582717
_symmetry_Int_Tables_number   1
_chemical_formula_structural   Ba6SmY(BO3)6
_chemical_formula_sum   'Ba6 Sm1 Y1 B6 O18'
_cell_volume   487.65214660
_cell_formula_units_Z   1
loop_
 _symmetry_equiv_pos_site_id
 _symmetry_equiv_pos_as_xyz
  1  'x, y, z'
loop_
 _atom_site_type_symbol
 _atom_site_label
 _atom_site_symmetry_multiplicity
 _atom_site_fract_x
 _atom_site_fract_y
 _atom_site_fract_z
 _atom_site_occupancy
  Ba  Ba0  1  0.351261  0.733834  0.843823  1
  Ba  Ba1  1  0.843823  0.351261  0.733834  1
  Ba  Ba2  1  0.733834  0.843823  0.351261  1
  Ba  Ba3  1  0.648739  0.266166  0.156177  1
  Ba  Ba4  1  0.156177  0.648739  0.266166  1
  Ba  Ba5  1  0.266166  0.156177  0.648739  1
  Sm  Sm6  1  0.000000  0.000000  0.000000  1
  Y  Y7  1  0.500000  0.500000  0.500000  1
  B  B8  1  0.708642  0.620180  0.955694  1
  B  B9  1  0.955694  0.708642  0.620180  1
  B  B10  1  0.620180  0.955694  0.708642  1
  B  B11  1  0.044306  0.291358  0.379820  1
  B  B12  1  0.379820  0.044306  0.291358  1
  B  B13  1  0.291358  0.379820  0.044306  1
  O  O14  1  0.059877  0.805244  0.547612  1
  O  O15  1  0.547612  0.059877  0.805244  1
  O  O16  1  0.427898  0.492240  0.212735  1
  O  O17  1  0.492240  0.212735  0.427898  1
  O  O18  1  0.212735  0.427898  0.492240  1
  O  O19  1  0.787265  0.572102  0.507760  1
  O  O20  1  0.572102  0.507760  0.787265  1
  O  O21  1  0.507760  0.787265  0.572102  1
  O  O22  1  0.259608  0.194764  0.983317  1
  O  O23  1  0.194764  0.983317  0.259608  1
  O  O24  1  0.983317  0.259608  0.194764  1
  O  O25  1  0.740392  0.805236  0.016683  1
  O  O26  1  0.805236  0.016683  0.740392  1
  O  O27  1  0.016683  0.740392  0.805236  1
  O  O28  1  0.194756  0.452388  0.940123  1
  O  O29  1  0.452388  0.940123  0.194756  1
  O  O30  1  0.940123  0.194756  0.452388  1
  O  O31  1  0.805244  0.547612  0.059877  1
