# generated using pymatgen
data_Lu16In5HgOs2
_symmetry_space_group_name_H-M   'P 1'
_cell_length_a   10.14693000
_cell_length_b   10.17181354
_cell_length_c   6.93991376
_cell_angle_alpha   90.24319856
_cell_angle_beta   90.00000000
_cell_angle_gamma   119.91910922
_symmetry_Int_Tables_number   1
_chemical_formula_structural   Lu16In5HgOs2
_chemical_formula_sum   'Lu16 In5 Hg1 Os2'
_cell_volume   620.82039119
_cell_formula_units_Z   1
loop_
 _symmetry_equiv_pos_site_id
 _symmetry_equiv_pos_as_xyz
  1  'x, y, z'
loop_
 _atom_site_type_symbol
 _atom_site_label
 _atom_site_symmetry_multiplicity
 _atom_site_fract_x
 _atom_site_fract_y
 _atom_site_fract_z
 _atom_site_occupancy
  Lu  Lu0  1  0.529975  0.059949  0.525039  1
  Lu  Lu1  1  0.934789  0.471629  0.524782  1
  Lu  Lu2  1  0.536842  0.471629  0.524782  1
  Lu  Lu3  1  0.468192  0.936384  0.021064  1
  Lu  Lu4  1  0.068224  0.531020  0.024564  1
  Lu  Lu5  1  0.462795  0.531020  0.024564  1
  Lu  Lu6  1  0.177208  0.354416  0.725560  1
  Lu  Lu7  1  0.648495  0.820072  0.731646  1
  Lu  Lu8  1  0.171578  0.820072  0.731646  1
  Lu  Lu9  1  0.821984  0.643970  0.210592  1
  Lu  Lu10  1  0.355452  0.178274  0.231350  1
  Lu  Lu11  1  0.822821  0.178274  0.231350  1
  Lu  Lu12  1  0.667521  0.335040  0.904601  1
  Lu  Lu13  1  0.334611  0.669223  0.400938  1
  Lu  Lu14  1  0.000761  0.001522  0.503864  1
  Lu  Lu15  1  0.000907  0.001814  0.006229  1
  In  In16  1  0.327587  0.162862  0.771002  1
  In  In17  1  0.835276  0.162862  0.771002  1
  In  In18  1  0.163631  0.327264  0.272712  1
  In  In19  1  0.673816  0.837871  0.271444  1
  In  In20  1  0.164053  0.837871  0.271444  1
  Hg  Hg21  1  0.832689  0.665377  0.774203  1
  Os  Os22  1  0.666958  0.333914  0.303732  1
  Os  Os23  1  0.333836  0.667673  0.797564  1
