# generated using pymatgen
data_Sr9La(Si3H)2
_symmetry_space_group_name_H-M   'P 1'
_cell_length_a   9.65582254
_cell_length_b   9.65582238
_cell_length_c   9.64182099
_cell_angle_alpha   130.65448742
_cell_angle_beta   130.65449441
_cell_angle_gamma   72.39553916
_symmetry_Int_Tables_number   1
_chemical_formula_structural   Sr9La(Si3H)2
_chemical_formula_sum   'Sr9 La1 Si6 H2'
_cell_volume   505.63797459
_cell_formula_units_Z   1
loop_
 _symmetry_equiv_pos_site_id
 _symmetry_equiv_pos_as_xyz
  1  'x, y, z'
loop_
 _atom_site_type_symbol
 _atom_site_label
 _atom_site_symmetry_multiplicity
 _atom_site_fract_x
 _atom_site_fract_y
 _atom_site_fract_z
 _atom_site_occupancy
  Sr  Sr0  1  0.497379  0.502319  0.000052  1
  Sr  Sr1  1  0.002319  0.997379  0.000052  1
  Sr  Sr2  1  0.179858  0.679858  0.156013  1
  Sr  Sr3  1  0.021858  0.182095  0.501230  1
  Sr  Sr4  1  0.682095  0.521858  0.501230  1
  Sr  Sr5  1  0.478512  0.978512  0.161403  1
  Sr  Sr6  1  0.816990  0.316990  0.838383  1
  Sr  Sr7  1  0.977656  0.818061  0.498979  1
  Sr  Sr8  1  0.318061  0.477656  0.498979  1
  La  La9  1  0.526821  0.026821  0.844279  1
  Si  Si10  1  0.257264  0.242626  0.993410  1
  Si  Si11  1  0.742626  0.757264  0.993410  1
  Si  Si12  1  0.887079  0.387079  0.279002  1
  Si  Si13  1  0.103890  0.603890  0.708003  1
  Si  Si14  1  0.394111  0.106944  0.508524  1
  Si  Si15  1  0.606944  0.894111  0.508524  1
  H  H16  1  0.256560  0.756560  0.507491  1
  H  H17  1  0.749979  0.249979  0.501035  1
