# generated using pymatgen
data_Tb10TlPb5Se2
_symmetry_space_group_name_H-M   'P 1'
_cell_length_a   9.19582000
_cell_length_b   9.21627206
_cell_length_c   6.70925900
_cell_angle_alpha   90.00000000
_cell_angle_beta   90.00000000
_cell_angle_gamma   119.92661906
_symmetry_Int_Tables_number   1
_chemical_formula_structural   Tb10TlPb5Se2
_chemical_formula_sum   'Tb10 Tl1 Pb5 Se2'
_cell_volume   492.80101648
_cell_formula_units_Z   1
loop_
 _symmetry_equiv_pos_site_id
 _symmetry_equiv_pos_as_xyz
  1  'x, y, z'
loop_
 _atom_site_type_symbol
 _atom_site_label
 _atom_site_symmetry_multiplicity
 _atom_site_fract_x
 _atom_site_fract_y
 _atom_site_fract_z
 _atom_site_occupancy
  Tb  Tb0  1  0.250264  0.250505  0.750000  1
  Tb  Tb1  1  0.999759  0.749495  0.750000  1
  Tb  Tb2  1  0.250972  0.000000  0.250000  1
  Tb  Tb3  1  0.749132  0.000000  0.750000  1
  Tb  Tb4  1  0.334045  0.667551  0.499217  1
  Tb  Tb5  1  0.666494  0.332449  0.499217  1
  Tb  Tb6  1  0.749037  0.749537  0.250000  1
  Tb  Tb7  1  0.999500  0.250463  0.250000  1
  Tb  Tb8  1  0.334045  0.667551  0.000783  1
  Tb  Tb9  1  0.666494  0.332449  0.000783  1
  Tl  Tl10  1  0.602208  0.000000  0.250000  1
  Pb  Pb11  1  0.000339  0.603751  0.250000  1
  Pb  Pb12  1  0.603776  0.603929  0.750000  1
  Pb  Pb13  1  0.396588  0.396249  0.250000  1
  Pb  Pb14  1  0.999847  0.396071  0.750000  1
  Pb  Pb15  1  0.397971  0.000000  0.750000  1
  Se  Se16  1  0.999765  0.000000  0.999639  1
  Se  Se17  1  0.999765  0.000000  0.500361  1
