# generated using pymatgen
data_LiMg(Sn4Os)2
_symmetry_space_group_name_H-M   'P 1'
_cell_length_a   7.41481957
_cell_length_b   7.41481935
_cell_length_c   7.41481943
_cell_angle_alpha   125.75232772
_cell_angle_beta   125.75232219
_cell_angle_gamma   80.29558734
_symmetry_Int_Tables_number   1
_chemical_formula_structural   LiMg(Sn4Os)2
_chemical_formula_sum   'Li1 Mg1 Sn8 Os2'
_cell_volume   259.08450289
_cell_formula_units_Z   1
loop_
 _symmetry_equiv_pos_site_id
 _symmetry_equiv_pos_as_xyz
  1  'x, y, z'
loop_
 _atom_site_type_symbol
 _atom_site_label
 _atom_site_symmetry_multiplicity
 _atom_site_fract_x
 _atom_site_fract_y
 _atom_site_fract_z
 _atom_site_occupancy
  Li  Li0  1  0.000000  0.000000  0.000000  1
  Mg  Mg1  1  0.500000  0.500000  0.000000  1
  Sn  Sn2  1  0.711783  0.525204  0.511928  1
  Sn  Sn3  1  0.525204  0.013276  0.813421  1
  Sn  Sn4  1  0.199855  0.711783  0.186579  1
  Sn  Sn5  1  0.800145  0.288217  0.813421  1
  Sn  Sn6  1  0.474796  0.986724  0.186579  1
  Sn  Sn7  1  0.288217  0.474796  0.488072  1
  Sn  Sn8  1  0.986724  0.800145  0.511928  1
  Sn  Sn9  1  0.013276  0.199855  0.488072  1
  Os  Os10  1  0.255772  0.255772  0.000000  1
  Os  Os11  1  0.744228  0.744228  0.000000  1
