# generated using pymatgen
data_LiHo5Er11Cd3Rh4
_symmetry_space_group_name_H-M   'P 1'
_cell_length_a   9.58299346
_cell_length_b   9.60164147
_cell_length_c   9.58158600
_cell_angle_alpha   60.05304033
_cell_angle_beta   59.85741406
_cell_angle_gamma   60.10325837
_symmetry_Int_Tables_number   1
_chemical_formula_structural   LiHo5Er11Cd3Rh4
_chemical_formula_sum   'Li1 Ho5 Er11 Cd3 Rh4'
_cell_volume   623.46148106
_cell_formula_units_Z   1
loop_
 _symmetry_equiv_pos_site_id
 _symmetry_equiv_pos_as_xyz
  1  'x, y, z'
loop_
 _atom_site_type_symbol
 _atom_site_label
 _atom_site_symmetry_multiplicity
 _atom_site_fract_x
 _atom_site_fract_y
 _atom_site_fract_z
 _atom_site_occupancy
  Li  Li0  1  0.428706  0.714248  0.429082  1
  Ho  Ho1  1  0.188534  0.190950  0.810406  1
  Ho  Ho2  1  0.437166  0.062325  0.062625  1
  Ho  Ho3  1  0.435268  0.063283  0.435352  1
  Ho  Ho4  1  0.064333  0.436772  0.064585  1
  Ho  Ho5  1  0.648273  0.053402  0.648103  1
  Er  Er6  1  0.187365  0.813233  0.813874  1
  Er  Er7  1  0.061749  0.062822  0.437187  1
  Er  Er8  1  0.810336  0.190839  0.188628  1
  Er  Er9  1  0.814405  0.813263  0.187285  1
  Er  Er10  1  0.651982  0.648625  0.045305  1
  Er  Er11  1  0.653758  0.651772  0.653350  1
  Er  Er12  1  0.064038  0.435020  0.435034  1
  Er  Er13  1  0.045144  0.649187  0.651641  1
  Er  Er14  1  0.810684  0.190357  0.810740  1
  Er  Er15  1  0.435365  0.435307  0.063834  1
  Er  Er16  1  0.186071  0.814126  0.186437  1
  Cd  Cd17  1  0.417940  0.422606  0.743567  1
  Cd  Cd18  1  0.743597  0.422403  0.417983  1
  Cd  Cd19  1  0.417083  0.421628  0.416823  1
  Rh  Rh20  1  0.857222  0.427281  0.857374  1
  Rh  Rh21  1  0.857626  0.860839  0.426957  1
  Rh  Rh22  1  0.427146  0.859749  0.857763  1
  Rh  Rh23  1  0.856211  0.859968  0.856063  1
