# generated using pymatgen
data_Er2Al8GaRh3
_symmetry_space_group_name_H-M   'P 1'
_cell_length_a   7.52657554
_cell_length_b   7.52657537
_cell_length_c   9.47970300
_cell_angle_alpha   90.00000000
_cell_angle_beta   90.00000000
_cell_angle_gamma   119.39141722
_symmetry_Int_Tables_number   1
_chemical_formula_structural   Er2Al8GaRh3
_chemical_formula_sum   'Er4 Al16 Ga2 Rh6'
_cell_volume   467.89776765
_cell_formula_units_Z   2
loop_
 _symmetry_equiv_pos_site_id
 _symmetry_equiv_pos_as_xyz
  1  'x, y, z'
loop_
 _atom_site_type_symbol
 _atom_site_label
 _atom_site_symmetry_multiplicity
 _atom_site_fract_x
 _atom_site_fract_y
 _atom_site_fract_z
 _atom_site_occupancy
  Er  Er0  1  0.994461  0.672507  0.750000  1
  Er  Er1  1  0.005539  0.327493  0.250000  1
  Er  Er2  1  0.672507  0.994461  0.750000  1
  Er  Er3  1  0.327493  0.005539  0.250000  1
  Al  Al4  1  0.001160  0.335264  0.573604  1
  Al  Al5  1  0.998840  0.664736  0.426396  1
  Al  Al6  1  0.998840  0.664736  0.073604  1
  Al  Al7  1  0.335264  0.001160  0.926396  1
  Al  Al8  1  0.001160  0.335264  0.926396  1
  Al  Al9  1  0.664736  0.998840  0.073604  1
  Al  Al10  1  0.664736  0.998840  0.426396  1
  Al  Al11  1  0.335264  0.001160  0.573604  1
  Al  Al12  1  0.333939  0.333939  0.053482  1
  Al  Al13  1  0.666061  0.666061  0.946518  1
  Al  Al14  1  0.666061  0.666061  0.553482  1
  Al  Al15  1  0.333939  0.333939  0.446518  1
  Al  Al16  1  0.337446  0.549120  0.750000  1
  Al  Al17  1  0.662554  0.450880  0.250000  1
  Al  Al18  1  0.549120  0.337446  0.750000  1
  Al  Al19  1  0.450880  0.662554  0.250000  1
  Ga  Ga20  1  0.129513  0.129513  0.750000  1
  Ga  Ga21  1  0.870487  0.870487  0.250000  1
  Rh  Rh22  1  0.671927  0.328073  0.500000  1
  Rh  Rh23  1  0.328073  0.671927  0.500000  1
  Rh  Rh24  1  0.328073  0.671927  0.000000  1
  Rh  Rh25  1  0.671927  0.328073  0.000000  1
  Rh  Rh26  1  0.000000  0.000000  0.500000  1
  Rh  Rh27  1  0.000000  0.000000  0.000000  1
