# generated using pymatgen
data_Er10In8IrPt2Rh
_symmetry_space_group_name_H-M   'P 1'
_cell_length_a   3.59899100
_cell_length_b   8.09543257
_cell_length_c   18.17299400
_cell_angle_alpha   90.08371246
_cell_angle_beta   90.00000000
_cell_angle_gamma   90.00000000
_symmetry_Int_Tables_number   1
_chemical_formula_structural   Er10In8IrPt2Rh
_chemical_formula_sum   'Er10 In8 Ir1 Pt2 Rh1'
_cell_volume   529.47668350
_cell_formula_units_Z   1
loop_
 _symmetry_equiv_pos_site_id
 _symmetry_equiv_pos_as_xyz
  1  'x, y, z'
loop_
 _atom_site_type_symbol
 _atom_site_label
 _atom_site_symmetry_multiplicity
 _atom_site_fract_x
 _atom_site_fract_y
 _atom_site_fract_z
 _atom_site_occupancy
  Er  Er0  1  0.000000  0.115064  0.412356  1
  Er  Er1  1  0.000000  0.885037  0.587774  1
  Er  Er2  1  0.000000  0.383249  0.913716  1
  Er  Er3  1  0.000000  0.616931  0.086413  1
  Er  Er4  1  0.000000  0.235880  0.222386  1
  Er  Er5  1  0.000000  0.761953  0.778247  1
  Er  Er6  1  0.000000  0.250895  0.720620  1
  Er  Er7  1  0.000000  0.750586  0.279478  1
  Er  Er8  1  0.000000  0.000096  0.000184  1
  Er  Er9  1  0.000000  0.500159  0.499751  1
  In  In10  1  0.500000  0.423651  0.351441  1
  In  In11  1  0.500000  0.577712  0.648302  1
  In  In12  1  0.500000  0.072965  0.850529  1
  In  In13  1  0.500000  0.926964  0.148791  1
  In  In14  1  0.500000  0.292458  0.066147  1
  In  In15  1  0.500000  0.707794  0.933657  1
  In  In16  1  0.500000  0.207106  0.568092  1
  In  In17  1  0.500000  0.793060  0.432596  1
  Ir  Ir18  1  0.500000  0.020728  0.303997  1
  Pt  Pt19  1  0.500000  0.478468  0.803258  1
  Pt  Pt20  1  0.500000  0.521537  0.196758  1
  Rh  Rh21  1  0.500000  0.977706  0.695507  1
