# generated using pymatgen
data_Ho7ErSc12Si15Hg
_symmetry_space_group_name_H-M   'P 1'
_cell_length_a   7.12022906
_cell_length_b   7.38316185
_cell_length_c   14.06773503
_cell_angle_alpha   89.91987778
_cell_angle_beta   89.54121483
_cell_angle_gamma   90.13685049
_symmetry_Int_Tables_number   1
_chemical_formula_structural   Ho7ErSc12Si15Hg
_chemical_formula_sum   'Ho7 Er1 Sc12 Si15 Hg1'
_cell_volume   739.51150696
_cell_formula_units_Z   1
loop_
 _symmetry_equiv_pos_site_id
 _symmetry_equiv_pos_as_xyz
  1  'x, y, z'
loop_
 _atom_site_type_symbol
 _atom_site_label
 _atom_site_symmetry_multiplicity
 _atom_site_fract_x
 _atom_site_fract_y
 _atom_site_fract_z
 _atom_site_occupancy
  Ho  Ho0  1  0.011541  0.175749  0.097141  1
  Ho  Ho1  1  0.987956  0.825196  0.904676  1
  Ho  Ho2  1  0.487783  0.677126  0.904265  1
  Ho  Ho3  1  0.989671  0.831324  0.598026  1
  Ho  Ho4  1  0.511426  0.323406  0.096296  1
  Ho  Ho5  1  0.006973  0.171224  0.398205  1
  Ho  Ho6  1  0.510927  0.321613  0.399079  1
  Er  Er7  1  0.496963  0.682154  0.600276  1
  Sc  Sc8  1  0.163340  0.501981  0.754332  1
  Sc  Sc9  1  0.836220  0.497900  0.249954  1
  Sc  Sc10  1  0.336536  0.001260  0.248771  1
  Sc  Sc11  1  0.665863  0.996277  0.751655  1
  Sc  Sc12  1  0.343308  0.168158  0.628903  1
  Sc  Sc13  1  0.663410  0.824478  0.372915  1
  Sc  Sc14  1  0.165752  0.677838  0.370487  1
  Sc  Sc15  1  0.668787  0.823581  0.124277  1
  Sc  Sc16  1  0.826160  0.325224  0.626277  1
  Sc  Sc17  1  0.329477  0.175302  0.876282  1
  Sc  Sc18  1  0.830955  0.322666  0.876261  1
  Sc  Sc19  1  0.168260  0.676903  0.124964  1
  Si  Si20  1  0.036357  0.119802  0.751510  1
  Si  Si21  1  0.963506  0.884808  0.247679  1
  Si  Si22  1  0.465510  0.614090  0.247803  1
  Si  Si23  1  0.534277  0.387263  0.752302  1
  Si  Si24  1  0.285531  0.871317  0.751929  1
  Si  Si25  1  0.712004  0.128503  0.247597  1
  Si  Si26  1  0.212626  0.370097  0.247912  1
  Si  Si27  1  0.789261  0.629358  0.752793  1
  Si  Si28  1  0.831594  0.537977  0.459080  1
  Si  Si29  1  0.337158  0.962307  0.459998  1
  Si  Si30  1  0.842608  0.535037  0.038878  1
  Si  Si31  1  0.661687  0.037112  0.537424  1
  Si  Si32  1  0.157263  0.464280  0.962390  1
  Si  Si33  1  0.657055  0.034625  0.960712  1
  Si  Si34  1  0.341901  0.965304  0.039910  1
  Hg  Hg35  1  0.170354  0.458763  0.539046  1
