# generated using pymatgen
data_KLi4Ca(NiN)4
_symmetry_space_group_name_H-M   'P 1'
_cell_length_a   7.35180400
_cell_length_b   7.35180400
_cell_length_c   3.48796200
_cell_angle_alpha   90.00000000
_cell_angle_beta   90.00000000
_cell_angle_gamma   90.00000000
_symmetry_Int_Tables_number   1
_chemical_formula_structural   KLi4Ca(NiN)4
_chemical_formula_sum   'K1 Li4 Ca1 Ni4 N4'
_cell_volume   188.52093506
_cell_formula_units_Z   1
loop_
 _symmetry_equiv_pos_site_id
 _symmetry_equiv_pos_as_xyz
  1  'x, y, z'
loop_
 _atom_site_type_symbol
 _atom_site_label
 _atom_site_symmetry_multiplicity
 _atom_site_fract_x
 _atom_site_fract_y
 _atom_site_fract_z
 _atom_site_occupancy
  K  K0  1  0.000000  0.000000  0.000000  1
  Li  Li1  1  0.114710  0.622851  0.000000  1
  Li  Li2  1  0.885290  0.377149  0.000000  1
  Li  Li3  1  0.622851  0.885290  0.000000  1
  Li  Li4  1  0.377149  0.114710  0.000000  1
  Ca  Ca5  1  0.500000  0.500000  0.000000  1
  Ni  Ni6  1  0.655987  0.189477  0.500000  1
  Ni  Ni7  1  0.344013  0.810523  0.500000  1
  Ni  Ni8  1  0.189477  0.344013  0.500000  1
  Ni  Ni9  1  0.810523  0.655987  0.500000  1
  N  N10  1  0.657665  0.187191  0.000000  1
  N  N11  1  0.342335  0.812809  0.000000  1
  N  N12  1  0.187191  0.342335  0.000000  1
  N  N13  1  0.812809  0.657665  0.000000  1
