# generated using pymatgen
data_Rb2ZrCuAgTe4
_symmetry_space_group_name_H-M   'P 1'
_cell_length_a   8.14663442
_cell_length_b   8.14663671
_cell_length_c   6.53422200
_cell_angle_alpha   90.00000000
_cell_angle_beta   90.00000000
_cell_angle_gamma   134.26542609
_symmetry_Int_Tables_number   1
_chemical_formula_structural   Rb2ZrCuAgTe4
_chemical_formula_sum   'Rb2 Zr1 Cu1 Ag1 Te4'
_cell_volume   310.55080263
_cell_formula_units_Z   1
loop_
 _symmetry_equiv_pos_site_id
 _symmetry_equiv_pos_as_xyz
  1  'x, y, z'
loop_
 _atom_site_type_symbol
 _atom_site_label
 _atom_site_symmetry_multiplicity
 _atom_site_fract_x
 _atom_site_fract_y
 _atom_site_fract_z
 _atom_site_occupancy
  Rb  Rb0  1  0.500000  0.000000  0.255923  1
  Rb  Rb1  1  0.000000  0.500000  0.744077  1
  Zr  Zr2  1  0.000000  0.000000  0.000000  1
  Cu  Cu3  1  0.500000  0.500000  0.000000  1
  Ag  Ag4  1  0.000000  0.000000  0.499999  1
  Te  Te5  1  0.157711  0.366990  0.237625  1
  Te  Te6  1  0.842289  0.633009  0.237625  1
  Te  Te7  1  0.366990  0.157711  0.762375  1
  Te  Te8  1  0.633009  0.842289  0.762375  1
