# generated using pymatgen
data_Na3Eu3GaP4
_symmetry_space_group_name_H-M   'P 1'
_cell_length_a   9.35774200
_cell_length_b   9.35774211
_cell_length_c   7.15570700
_cell_angle_alpha   90.00000000
_cell_angle_beta   90.00000000
_cell_angle_gamma   119.99999254
_symmetry_Int_Tables_number   1
_chemical_formula_structural   Na3Eu3GaP4
_chemical_formula_sum   'Na6 Eu6 Ga2 P8'
_cell_volume   542.65692984
_cell_formula_units_Z   2
loop_
 _symmetry_equiv_pos_site_id
 _symmetry_equiv_pos_as_xyz
  1  'x, y, z'
loop_
 _atom_site_type_symbol
 _atom_site_label
 _atom_site_symmetry_multiplicity
 _atom_site_fract_x
 _atom_site_fract_y
 _atom_site_fract_z
 _atom_site_occupancy
  Na  Na0  1  0.133668  0.866332  0.171791  1
  Na  Na1  1  0.267335  0.133668  0.671791  1
  Na  Na2  1  0.866332  0.732665  0.671791  1
  Na  Na3  1  0.133668  0.267335  0.171791  1
  Na  Na4  1  0.732665  0.866332  0.171791  1
  Na  Na5  1  0.866332  0.133668  0.671791  1
  Eu  Eu6  1  0.954423  0.477212  0.999852  1
  Eu  Eu7  1  0.522788  0.045577  0.999852  1
  Eu  Eu8  1  0.477212  0.954423  0.499852  1
  Eu  Eu9  1  0.045577  0.522788  0.499852  1
  Eu  Eu10  1  0.522788  0.477212  0.999852  1
  Eu  Eu11  1  0.477212  0.522788  0.499852  1
  Ga  Ga12  1  0.666667  0.333333  0.373409  1
  Ga  Ga13  1  0.333333  0.666667  0.873409  1
  P  P14  1  0.333333  0.666667  0.225933  1
  P  P15  1  0.809124  0.190876  0.274576  1
  P  P16  1  0.618248  0.809124  0.774576  1
  P  P17  1  0.190876  0.381752  0.774576  1
  P  P18  1  0.809124  0.618248  0.274576  1
  P  P19  1  0.666667  0.333333  0.725933  1
  P  P20  1  0.381752  0.190876  0.274576  1
  P  P21  1  0.190876  0.809124  0.774576  1
