# generated using pymatgen
data_Sr2TbPr(Ir2O7)2
_symmetry_space_group_name_H-M   'P 1'
_cell_length_a   7.40820589
_cell_length_b   7.42037989
_cell_length_c   7.40820612
_cell_angle_alpha   59.85360519
_cell_angle_beta   59.56388147
_cell_angle_gamma   59.85360010
_symmetry_Int_Tables_number   1
_chemical_formula_structural   Sr2TbPr(Ir2O7)2
_chemical_formula_sum   'Sr2 Tb1 Pr1 Ir4 O14'
_cell_volume   286.36973070
_cell_formula_units_Z   1
loop_
 _symmetry_equiv_pos_site_id
 _symmetry_equiv_pos_as_xyz
  1  'x, y, z'
loop_
 _atom_site_type_symbol
 _atom_site_label
 _atom_site_symmetry_multiplicity
 _atom_site_fract_x
 _atom_site_fract_y
 _atom_site_fract_z
 _atom_site_occupancy
  Sr  Sr0  1  0.125000  0.125000  0.625000  1
  Sr  Sr1  1  0.625000  0.125000  0.125000  1
  Tb  Tb2  1  0.125000  0.125000  0.125000  1
  Pr  Pr3  1  0.125000  0.625000  0.125000  1
  Ir  Ir4  1  0.625000  0.625000  0.625000  1
  Ir  Ir5  1  0.125000  0.625000  0.625000  1
  Ir  Ir6  1  0.625000  0.125000  0.625000  1
  Ir  Ir7  1  0.625000  0.625000  0.125000  1
  O  O8  1  0.951874  0.554968  0.544555  1
  O  O9  1  0.298182  0.299711  0.712325  1
  O  O10  1  0.953258  0.541295  0.953258  1
  O  O11  1  0.712325  0.299711  0.298182  1
  O  O12  1  0.544555  0.554968  0.951874  1
  O  O13  1  0.553635  0.947304  0.553635  1
  O  O14  1  0.537675  0.950289  0.951818  1
  O  O15  1  0.238747  0.252678  0.238747  1
  O  O16  1  0.298126  0.695032  0.705445  1
  O  O17  1  0.696365  0.302696  0.696365  1
  O  O18  1  0.011253  0.997322  0.011253  1
  O  O19  1  0.951818  0.950289  0.537675  1
  O  O20  1  0.296742  0.708705  0.296742  1
  O  O21  1  0.705445  0.695032  0.298126  1
