# generated using pymatgen
data_CoCl30
_symmetry_space_group_name_H-M   'P 1'
_cell_length_a   13.53172388
_cell_length_b   13.53172356
_cell_length_c   15.78826185
_cell_angle_alpha   83.61981236
_cell_angle_beta   83.61981271
_cell_angle_gamma   124.18813894
_symmetry_Int_Tables_number   1
_chemical_formula_structural   CoCl30
_chemical_formula_sum   'Co1 Cl30'
_cell_volume   2322.99861731
_cell_formula_units_Z   1
loop_
 _symmetry_equiv_pos_site_id
 _symmetry_equiv_pos_as_xyz
  1  'x, y, z'
loop_
 _atom_site_type_symbol
 _atom_site_label
 _atom_site_symmetry_multiplicity
 _atom_site_fract_x
 _atom_site_fract_y
 _atom_site_fract_z
 _atom_site_occupancy
  Co  Co0  1  0.000000  0.000000  0.000000  1
  Cl  Cl1  1  0.947034  0.947034  0.150283  1
  Cl  Cl2  1  0.052966  0.052966  0.849717  1
  Cl  Cl3  1  0.055756  0.184216  0.004561  1
  Cl  Cl4  1  0.944244  0.815784  0.995439  1
  Cl  Cl5  1  0.184216  0.055756  0.004561  1
  Cl  Cl6  1  0.815784  0.944244  0.995439  1
  Cl  Cl7  1  0.203412  0.741932  0.064956  1
  Cl  Cl8  1  0.796588  0.258068  0.935044  1
  Cl  Cl9  1  0.701790  0.075522  0.263482  1
  Cl  Cl10  1  0.258068  0.796588  0.935044  1
  Cl  Cl11  1  0.298210  0.924478  0.736518  1
  Cl  Cl12  1  0.741932  0.203412  0.064956  1
  Cl  Cl13  1  0.978806  0.195169  0.785219  1
  Cl  Cl14  1  0.924478  0.298210  0.736518  1
  Cl  Cl15  1  0.021194  0.804831  0.214781  1
  Cl  Cl16  1  0.075522  0.701790  0.263482  1
  Cl  Cl17  1  0.804831  0.021194  0.214781  1
  Cl  Cl18  1  0.195169  0.978806  0.785219  1
  Cl  Cl19  1  0.464556  0.547867  0.259669  1
  Cl  Cl20  1  0.535444  0.452133  0.740331  1
  Cl  Cl21  1  0.508050  0.205377  0.450438  1
  Cl  Cl22  1  0.452133  0.535444  0.740331  1
  Cl  Cl23  1  0.491950  0.794623  0.549562  1
  Cl  Cl24  1  0.547867  0.464556  0.259669  1
  Cl  Cl25  1  0.240062  0.428513  0.544927  1
  Cl  Cl26  1  0.794623  0.491950  0.549562  1
  Cl  Cl27  1  0.759938  0.571487  0.455073  1
  Cl  Cl28  1  0.205377  0.508050  0.450438  1
  Cl  Cl29  1  0.571487  0.759938  0.455073  1
  Cl  Cl30  1  0.428513  0.240062  0.544927  1
