# generated using pymatgen
data_NpPaB6W
_symmetry_space_group_name_H-M   'P 1'
_cell_length_a   3.71843800
_cell_length_b   9.29823500
_cell_length_c   11.36320200
_cell_angle_alpha   90.00000000
_cell_angle_beta   90.00000000
_cell_angle_gamma   90.00000000
_symmetry_Int_Tables_number   1
_chemical_formula_structural   NpPaB6W
_chemical_formula_sum   'Np4 Pa4 B24 W4'
_cell_volume   392.88169052
_cell_formula_units_Z   4
loop_
 _symmetry_equiv_pos_site_id
 _symmetry_equiv_pos_as_xyz
  1  'x, y, z'
loop_
 _atom_site_type_symbol
 _atom_site_label
 _atom_site_symmetry_multiplicity
 _atom_site_fract_x
 _atom_site_fract_y
 _atom_site_fract_z
 _atom_site_occupancy
  Np  Np0  1  0.000000  0.958563  0.399715  1
  Np  Np1  1  0.000000  0.041437  0.600285  1
  Np  Np2  1  0.000000  0.458563  0.100285  1
  Np  Np3  1  0.000000  0.541437  0.899715  1
  Pa  Pa4  1  0.000000  0.335105  0.407439  1
  Pa  Pa5  1  0.000000  0.664895  0.592561  1
  Pa  Pa6  1  0.000000  0.835105  0.092561  1
  Pa  Pa7  1  0.000000  0.164895  0.907439  1
  B  B8  1  0.500000  0.551526  0.431941  1
  B  B9  1  0.500000  0.448474  0.568059  1
  B  B10  1  0.500000  0.051526  0.068059  1
  B  B11  1  0.500000  0.948474  0.931941  1
  B  B12  1  0.500000  0.745419  0.423698  1
  B  B13  1  0.500000  0.254581  0.576302  1
  B  B14  1  0.500000  0.245419  0.076302  1
  B  B15  1  0.500000  0.754581  0.923698  1
  B  B16  1  0.500000  0.805845  0.274097  1
  B  B17  1  0.500000  0.194155  0.725903  1
  B  B18  1  0.500000  0.305845  0.225903  1
  B  B19  1  0.500000  0.694155  0.774097  1
  B  B20  1  0.500000  0.645190  0.187181  1
  B  B21  1  0.500000  0.354810  0.812819  1
  B  B22  1  0.500000  0.145190  0.312819  1
  B  B23  1  0.500000  0.854810  0.687181  1
  B  B24  1  0.500000  0.987765  0.220684  1
  B  B25  1  0.500000  0.012235  0.779316  1
  B  B26  1  0.500000  0.487765  0.279316  1
  B  B27  1  0.500000  0.512235  0.720684  1
  B  B28  1  0.500000  0.639393  0.038664  1
  B  B29  1  0.500000  0.360607  0.961336  1
  B  B30  1  0.500000  0.139393  0.461336  1
  B  B31  1  0.500000  0.860607  0.538664  1
  W  W32  1  0.000000  0.647074  0.319229  1
  W  W33  1  0.000000  0.352926  0.680771  1
  W  W34  1  0.000000  0.147074  0.180771  1
  W  W35  1  0.000000  0.852926  0.819229  1
