# generated using pymatgen
data_Tb4Gd8Co5Pb
_symmetry_space_group_name_H-M   'P 1'
_cell_length_a   8.42439651
_cell_length_b   8.42439697
_cell_length_c   8.42439700
_cell_angle_alpha   110.92517318
_cell_angle_beta   110.54157602
_cell_angle_gamma   106.97560947
_symmetry_Int_Tables_number   1
_chemical_formula_structural   Tb4Gd8Co5Pb
_chemical_formula_sum   'Tb4 Gd8 Co5 Pb1'
_cell_volume   459.59411446
_cell_formula_units_Z   1
loop_
 _symmetry_equiv_pos_site_id
 _symmetry_equiv_pos_as_xyz
  1  'x, y, z'
loop_
 _atom_site_type_symbol
 _atom_site_label
 _atom_site_symmetry_multiplicity
 _atom_site_fract_x
 _atom_site_fract_y
 _atom_site_fract_z
 _atom_site_occupancy
  Tb  Tb0  1  0.295091  0.184257  0.479347  1
  Tb  Tb1  1  0.704909  0.815743  0.520653  1
  Tb  Tb2  1  0.295091  0.815743  0.110833  1
  Tb  Tb3  1  0.704909  0.184257  0.889167  1
  Gd  Gd4  1  0.623264  0.314415  0.308849  1
  Gd  Gd5  1  0.376736  0.685585  0.691151  1
  Gd  Gd6  1  0.005565  0.314415  0.691151  1
  Gd  Gd7  1  0.994435  0.685585  0.308849  1
  Gd  Gd8  1  0.203457  0.394823  0.191366  1
  Gd  Gd9  1  0.796543  0.605177  0.808634  1
  Gd  Gd10  1  0.203457  0.012092  0.808634  1
  Gd  Gd11  1  0.796543  0.987908  0.191366  1
  Co  Co12  1  0.000000  0.377031  0.377031  1
  Co  Co13  1  0.000000  0.622969  0.622969  1
  Co  Co14  1  0.388126  0.888126  0.500000  1
  Co  Co15  1  0.611874  0.111874  0.500000  1
  Co  Co16  1  0.000000  0.000000  0.000000  1
  Pb  Pb17  1  0.500000  0.500000  0.000000  1
