# generated using pymatgen
data_Dy7YSn2(HgAu4)2
_symmetry_space_group_name_H-M   'P 1'
_cell_length_a   8.02412554
_cell_length_b   8.02412554
_cell_length_c   7.35112111
_cell_angle_alpha   90.01404051
_cell_angle_beta   90.01404051
_cell_angle_gamma   90.13393952
_symmetry_Int_Tables_number   1
_chemical_formula_structural   Dy7YSn2(HgAu4)2
_chemical_formula_sum   'Dy7 Y1 Sn2 Hg2 Au8'
_cell_volume   473.31230442
_cell_formula_units_Z   1
loop_
 _symmetry_equiv_pos_site_id
 _symmetry_equiv_pos_as_xyz
  1  'x, y, z'
loop_
 _atom_site_type_symbol
 _atom_site_label
 _atom_site_symmetry_multiplicity
 _atom_site_fract_x
 _atom_site_fract_y
 _atom_site_fract_z
 _atom_site_occupancy
  Dy  Dy0  1  0.159298  0.840702  0.500000  1
  Dy  Dy1  1  0.340802  0.340930  0.999959  1
  Dy  Dy2  1  0.659070  0.659198  0.000041  1
  Dy  Dy3  1  0.683586  0.683456  0.499988  1
  Dy  Dy4  1  0.316544  0.316414  0.500012  1
  Dy  Dy5  1  0.183589  0.816411  0.000000  1
  Dy  Dy6  1  0.816472  0.183528  0.000000  1
  Y  Y7  1  0.840573  0.159427  0.500000  1
  Sn  Sn8  1  0.499996  0.000034  0.750126  1
  Sn  Sn9  1  0.999966  0.500004  0.249874  1
  Hg  Hg10  1  0.499879  0.999993  0.249939  1
  Hg  Hg11  1  0.000007  0.500121  0.750061  1
  Au  Au12  1  0.626102  0.372592  0.273833  1
  Au  Au13  1  0.373357  0.627940  0.274468  1
  Au  Au14  1  0.127109  0.127681  0.774972  1
  Au  Au15  1  0.873506  0.871643  0.774981  1
  Au  Au16  1  0.372060  0.626643  0.725532  1
  Au  Au17  1  0.627408  0.373898  0.726167  1
  Au  Au18  1  0.872319  0.872891  0.225028  1
  Au  Au19  1  0.128357  0.126494  0.225019  1
