# generated using pymatgen
data_LaPuTa6O18
_symmetry_space_group_name_H-M   'P 1'
_cell_length_a   7.63480300
_cell_length_b   5.48308210
_cell_length_c   8.30715500
_cell_angle_alpha   87.64216527
_cell_angle_beta   90.00000000
_cell_angle_gamma   90.00000000
_symmetry_Int_Tables_number   1
_chemical_formula_structural   LaPuTa6O18
_chemical_formula_sum   'La1 Pu1 Ta6 O18'
_cell_volume   347.46179505
_cell_formula_units_Z   1
loop_
 _symmetry_equiv_pos_site_id
 _symmetry_equiv_pos_as_xyz
  1  'x, y, z'
loop_
 _atom_site_type_symbol
 _atom_site_label
 _atom_site_symmetry_multiplicity
 _atom_site_fract_x
 _atom_site_fract_y
 _atom_site_fract_z
 _atom_site_occupancy
  La  La0  1  0.750000  0.033188  0.563239  1
  Pu  Pu1  1  0.250000  0.969382  0.444198  1
  Ta  Ta2  1  0.493110  0.526577  0.698681  1
  Ta  Ta3  1  0.995536  0.474352  0.300392  1
  Ta  Ta4  1  0.499637  0.999468  0.002034  1
  Ta  Ta5  1  0.000363  0.999468  0.002034  1
  Ta  Ta6  1  0.006890  0.526577  0.698681  1
  Ta  Ta7  1  0.504464  0.474352  0.300392  1
  O  O8  1  0.750000  0.446061  0.683439  1
  O  O9  1  0.250000  0.559664  0.310288  1
  O  O10  1  0.750000  0.080709  0.015521  1
  O  O11  1  0.250000  0.920530  0.983537  1
  O  O12  1  0.250000  0.646042  0.660908  1
  O  O13  1  0.750000  0.361970  0.337815  1
  O  O14  1  0.040109  0.264224  0.531183  1
  O  O15  1  0.532565  0.733673  0.467906  1
  O  O16  1  0.553191  0.839680  0.789753  1
  O  O17  1  0.055387  0.155740  0.212848  1
  O  O18  1  0.444613  0.155740  0.212848  1
  O  O19  1  0.946809  0.839680  0.789753  1
  O  O20  1  0.044836  0.313823  0.875262  1
  O  O21  1  0.546110  0.683690  0.122466  1
  O  O22  1  0.953890  0.683690  0.122466  1
  O  O23  1  0.455164  0.313823  0.875262  1
  O  O24  1  0.459891  0.264224  0.531183  1
  O  O25  1  0.967435  0.733673  0.467906  1
