# generated using pymatgen
data_SmDy4In4PtRh
_symmetry_space_group_name_H-M   'P 1'
_cell_length_a   3.64436300
_cell_length_b   8.13726080
_cell_length_c   18.35077436
_cell_angle_alpha   90.11506928
_cell_angle_beta   90.00000000
_cell_angle_gamma   90.00000000
_symmetry_Int_Tables_number   1
_chemical_formula_structural   SmDy4In4PtRh
_chemical_formula_sum   'Sm2 Dy8 In8 Pt2 Rh2'
_cell_volume   544.19354192
_cell_formula_units_Z   2
loop_
 _symmetry_equiv_pos_site_id
 _symmetry_equiv_pos_as_xyz
  1  'x, y, z'
loop_
 _atom_site_type_symbol
 _atom_site_label
 _atom_site_symmetry_multiplicity
 _atom_site_fract_x
 _atom_site_fract_y
 _atom_site_fract_z
 _atom_site_occupancy
  Sm  Sm0  1  0.000000  0.000000  0.000000  1
  Sm  Sm1  1  0.000000  0.500000  0.500000  1
  Dy  Dy2  1  0.000000  0.115616  0.411694  1
  Dy  Dy3  1  0.000000  0.884384  0.588306  1
  Dy  Dy4  1  0.000000  0.382833  0.913651  1
  Dy  Dy5  1  0.000000  0.617167  0.086349  1
  Dy  Dy6  1  0.000000  0.239991  0.221338  1
  Dy  Dy7  1  0.000000  0.760009  0.778662  1
  Dy  Dy8  1  0.000000  0.249812  0.720570  1
  Dy  Dy9  1  0.000000  0.750188  0.279430  1
  In  In10  1  0.500000  0.423617  0.350388  1
  In  In11  1  0.500000  0.576383  0.649612  1
  In  In12  1  0.500000  0.072766  0.849349  1
  In  In13  1  0.500000  0.927234  0.150651  1
  In  In14  1  0.500000  0.294632  0.067176  1
  In  In15  1  0.500000  0.705368  0.932824  1
  In  In16  1  0.500000  0.204297  0.568825  1
  In  In17  1  0.500000  0.795703  0.431175  1
  Pt  Pt18  1  0.500000  0.477090  0.803106  1
  Pt  Pt19  1  0.500000  0.522910  0.196894  1
  Rh  Rh20  1  0.500000  0.022419  0.304521  1
  Rh  Rh21  1  0.500000  0.977581  0.695479  1
