# generated using pymatgen
data_Hf8Co7Si14Pd
_symmetry_space_group_name_H-M   'P 1'
_cell_length_a   9.48315713
_cell_length_b   9.46617102
_cell_length_c   9.45641433
_cell_angle_alpha   94.12124792
_cell_angle_beta   94.21859263
_cell_angle_gamma   148.74535023
_symmetry_Int_Tables_number   1
_chemical_formula_structural   Hf8Co7Si14Pd
_chemical_formula_sum   'Hf8 Co7 Si14 Pd1'
_cell_volume   424.09280179
_cell_formula_units_Z   1
loop_
 _symmetry_equiv_pos_site_id
 _symmetry_equiv_pos_as_xyz
  1  'x, y, z'
loop_
 _atom_site_type_symbol
 _atom_site_label
 _atom_site_symmetry_multiplicity
 _atom_site_fract_x
 _atom_site_fract_y
 _atom_site_fract_z
 _atom_site_occupancy
  Hf  Hf0  1  0.136958  0.136961  0.273863  1
  Hf  Hf1  1  0.862280  0.862293  0.724653  1
  Hf  Hf2  1  0.133858  0.860542  0.998573  1
  Hf  Hf3  1  0.864701  0.138014  0.998571  1
  Hf  Hf4  1  0.305507  0.499469  0.803569  1
  Hf  Hf5  1  0.696024  0.502469  0.194819  1
  Hf  Hf6  1  0.498780  0.692318  0.194842  1
  Hf  Hf7  1  0.498120  0.304146  0.803582  1
  Co  Co8  1  0.394983  0.894983  0.789991  1
  Co  Co9  1  0.902752  0.102615  0.504126  1
  Co  Co10  1  0.601364  0.401517  0.504126  1
  Co  Co11  1  0.602884  0.102889  0.205769  1
  Co  Co12  1  0.899689  0.399704  0.799378  1
  Co  Co13  1  0.101724  0.895731  0.498145  1
  Co  Co14  1  0.396427  0.602398  0.498148  1
  Si  Si15  1  0.290439  0.290433  0.580841  1
  Si  Si16  1  0.709515  0.709514  0.419061  1
  Si  Si17  1  0.306545  0.722606  0.993653  1
  Si  Si18  1  0.687095  0.271042  0.993643  1
  Si  Si19  1  0.091779  0.499221  0.590929  1
  Si  Si20  1  0.882630  0.479236  0.416242  1
  Si  Si21  1  0.533630  0.937031  0.416236  1
  Si  Si22  1  0.499097  0.091671  0.590915  1
  Si  Si23  1  0.251034  0.250984  0.999174  1
  Si  Si24  1  0.748119  0.748162  0.999168  1
  Si  Si25  1  0.311373  0.018920  0.301639  1
  Si  Si26  1  0.702075  0.001843  0.700288  1
  Si  Si27  1  0.998233  0.698471  0.700286  1
  Si  Si28  1  0.990328  0.282762  0.301628  1
  Pd  Pd29  1  0.102054  0.602054  0.204144  1
