# generated using pymatgen
data_Li4Al3Hg
_symmetry_space_group_name_H-M   'P 1'
_cell_length_a   7.86369208
_cell_length_b   7.86369270
_cell_length_c   7.86369406
_cell_angle_alpha   33.27422883
_cell_angle_beta   33.27422060
_cell_angle_gamma   33.27422490
_symmetry_Int_Tables_number   1
_chemical_formula_structural   Li4Al3Hg
_chemical_formula_sum   'Li4 Al3 Hg1'
_cell_volume   130.31872436
_cell_formula_units_Z   1
loop_
 _symmetry_equiv_pos_site_id
 _symmetry_equiv_pos_as_xyz
  1  'x, y, z'
loop_
 _atom_site_type_symbol
 _atom_site_label
 _atom_site_symmetry_multiplicity
 _atom_site_fract_x
 _atom_site_fract_y
 _atom_site_fract_z
 _atom_site_occupancy
  Li  Li0  1  0.125642  0.125642  0.125642  1
  Li  Li1  1  0.624916  0.624916  0.624916  1
  Li  Li2  1  0.001257  0.001257  0.001257  1
  Li  Li3  1  0.498220  0.498220  0.498220  1
  Al  Al4  1  0.873891  0.873891  0.873891  1
  Al  Al5  1  0.751447  0.751447  0.751447  1
  Al  Al6  1  0.249553  0.249553  0.249553  1
  Hg  Hg7  1  0.375074  0.375074  0.375074  1
