# generated using pymatgen
data_Tb3Y2(AlTe)2
_symmetry_space_group_name_H-M   'P 1'
_cell_length_a   8.67194062
_cell_length_b   8.67194207
_cell_length_c   7.91093800
_cell_angle_alpha   90.18987978
_cell_angle_beta   90.18987320
_cell_angle_gamma   126.01007110
_symmetry_Int_Tables_number   1
_chemical_formula_structural   Tb3Y2(AlTe)2
_chemical_formula_sum   'Tb6 Y4 Al4 Te4'
_cell_volume   481.22839075
_cell_formula_units_Z   2
loop_
 _symmetry_equiv_pos_site_id
 _symmetry_equiv_pos_as_xyz
  1  'x, y, z'
loop_
 _atom_site_type_symbol
 _atom_site_label
 _atom_site_symmetry_multiplicity
 _atom_site_fract_x
 _atom_site_fract_y
 _atom_site_fract_z
 _atom_site_occupancy
  Tb  Tb0  1  0.801960  0.537330  0.169382  1
  Tb  Tb1  1  0.462670  0.198040  0.830618  1
  Tb  Tb2  1  0.961765  0.699429  0.668680  1
  Tb  Tb3  1  0.300571  0.038235  0.331320  1
  Tb  Tb4  1  0.197572  0.462633  0.830754  1
  Tb  Tb5  1  0.537367  0.802428  0.169246  1
  Y  Y6  1  0.999756  0.000244  0.000000  1
  Y  Y7  1  0.500404  0.499596  0.500000  1
  Y  Y8  1  0.038203  0.299977  0.331429  1
  Y  Y9  1  0.700023  0.961797  0.668571  1
  Al  Al10  1  0.876911  0.876940  0.377726  1
  Al  Al11  1  0.123060  0.123089  0.622274  1
  Al  Al12  1  0.621802  0.622782  0.878705  1
  Al  Al13  1  0.377218  0.378198  0.121295  1
  Te  Te14  1  0.203916  0.796084  0.000000  1
  Te  Te15  1  0.705319  0.294681  0.500000  1
  Te  Te16  1  0.795776  0.204224  0.000000  1
  Te  Te17  1  0.295705  0.704295  0.500000  1
