# generated using pymatgen
data_CsTbPr2CBr6
_symmetry_space_group_name_H-M   'P 1'
_cell_length_a   9.09701977
_cell_length_b   9.14258384
_cell_length_c   9.63096095
_cell_angle_alpha   70.84108725
_cell_angle_beta   84.91803437
_cell_angle_gamma   89.23369171
_symmetry_Int_Tables_number   1
_chemical_formula_structural   CsTbPr2CBr6
_chemical_formula_sum   'Cs2 Tb2 Pr4 C2 Br12'
_cell_volume   753.56397617
_cell_formula_units_Z   2
loop_
 _symmetry_equiv_pos_site_id
 _symmetry_equiv_pos_as_xyz
  1  'x, y, z'
loop_
 _atom_site_type_symbol
 _atom_site_label
 _atom_site_symmetry_multiplicity
 _atom_site_fract_x
 _atom_site_fract_y
 _atom_site_fract_z
 _atom_site_occupancy
  Cs  Cs0  1  0.467717  0.356763  0.333010  1
  Cs  Cs1  1  0.532284  0.643237  0.666990  1
  Tb  Tb2  1  0.973069  0.887869  0.322895  1
  Tb  Tb3  1  0.026930  0.112131  0.677106  1
  Pr  Pr4  1  0.916267  0.736787  0.004444  1
  Pr  Pr5  1  0.083733  0.263213  0.995555  1
  Pr  Pr6  1  0.735710  0.085909  0.000435  1
  Pr  Pr7  1  0.264289  0.914091  0.999566  1
  C  C8  1  0.006486  0.026314  0.922233  1
  C  C9  1  0.993513  0.973686  0.077767  1
  Br  Br10  1  0.074624  0.188405  0.334455  1
  Br  Br11  1  0.925376  0.811595  0.665545  1
  Br  Br12  1  0.212021  0.590267  0.000364  1
  Br  Br13  1  0.787980  0.409733  0.999636  1
  Br  Br14  1  0.405832  0.207434  0.002874  1
  Br  Br15  1  0.594167  0.792567  0.997125  1
  Br  Br16  1  0.672522  0.996271  0.334003  1
  Br  Br17  1  0.327478  0.003729  0.665997  1
  Br  Br18  1  0.271495  0.774468  0.331650  1
  Br  Br19  1  0.728505  0.225532  0.668350  1
  Br  Br20  1  0.852099  0.596113  0.334102  1
  Br  Br21  1  0.147900  0.403887  0.665898  1
