# generated using pymatgen
data_CrCo2Mo3N
_symmetry_space_group_name_H-M   'P 1'
_cell_length_a   7.83215508
_cell_length_b   7.83215532
_cell_length_c   7.83215500
_cell_angle_alpha   59.99999711
_cell_angle_beta   59.99999611
_cell_angle_gamma   60.00000084
_symmetry_Int_Tables_number   1
_chemical_formula_structural   CrCo2Mo3N
_chemical_formula_sum   'Cr4 Co8 Mo12 N4'
_cell_volume   339.72603122
_cell_formula_units_Z   4
loop_
 _symmetry_equiv_pos_site_id
 _symmetry_equiv_pos_as_xyz
  1  'x, y, z'
loop_
 _atom_site_type_symbol
 _atom_site_label
 _atom_site_symmetry_multiplicity
 _atom_site_fract_x
 _atom_site_fract_y
 _atom_site_fract_z
 _atom_site_occupancy
  Cr  Cr0  1  0.625000  0.125000  0.625000  1
  Cr  Cr1  1  0.625000  0.625000  0.125000  1
  Cr  Cr2  1  0.125000  0.625000  0.625000  1
  Cr  Cr3  1  0.625000  0.625000  0.625000  1
  Co  Co4  1  0.829404  0.511788  0.829404  1
  Co  Co5  1  0.420596  0.420596  0.738212  1
  Co  Co6  1  0.738212  0.420596  0.420596  1
  Co  Co7  1  0.420596  0.420596  0.420596  1
  Co  Co8  1  0.511788  0.829404  0.829404  1
  Co  Co9  1  0.829404  0.829404  0.829404  1
  Co  Co10  1  0.829404  0.829404  0.511788  1
  Co  Co11  1  0.420596  0.738212  0.420596  1
  Mo  Mo12  1  0.199184  0.199184  0.800816  1
  Mo  Mo13  1  0.449184  0.050816  0.050816  1
  Mo  Mo14  1  0.050816  0.449184  0.449184  1
  Mo  Mo15  1  0.449184  0.449184  0.050816  1
  Mo  Mo16  1  0.449184  0.050816  0.449184  1
  Mo  Mo17  1  0.050816  0.449184  0.050816  1
  Mo  Mo18  1  0.800816  0.199184  0.800816  1
  Mo  Mo19  1  0.800816  0.199184  0.199184  1
  Mo  Mo20  1  0.199184  0.800816  0.800816  1
  Mo  Mo21  1  0.199184  0.800816  0.199184  1
  Mo  Mo22  1  0.050816  0.050816  0.449184  1
  Mo  Mo23  1  0.800816  0.800816  0.199184  1
  N  N24  1  0.125000  0.625000  0.125000  1
  N  N25  1  0.125000  0.125000  0.625000  1
  N  N26  1  0.625000  0.125000  0.125000  1
  N  N27  1  0.125000  0.125000  0.125000  1
