# generated using pymatgen
data_Tb6Lu10Cd4NiRu3
_symmetry_space_group_name_H-M   'P 1'
_cell_length_a   9.42961554
_cell_length_b   9.55112016
_cell_length_c   9.55112000
_cell_angle_alpha   59.99999363
_cell_angle_beta   59.57282371
_cell_angle_gamma   59.57281927
_symmetry_Int_Tables_number   1
_chemical_formula_structural   Tb6Lu10Cd4NiRu3
_chemical_formula_sum   'Tb6 Lu10 Cd4 Ni1 Ru3'
_cell_volume   604.30061833
_cell_formula_units_Z   1
loop_
 _symmetry_equiv_pos_site_id
 _symmetry_equiv_pos_as_xyz
  1  'x, y, z'
loop_
 _atom_site_type_symbol
 _atom_site_label
 _atom_site_symmetry_multiplicity
 _atom_site_fract_x
 _atom_site_fract_y
 _atom_site_fract_z
 _atom_site_occupancy
  Tb  Tb0  1  0.939900  0.559634  0.559634  1
  Tb  Tb1  1  0.557916  0.939355  0.939355  1
  Tb  Tb2  1  0.557916  0.939355  0.563372  1
  Tb  Tb3  1  0.939900  0.559634  0.940832  1
  Tb  Tb4  1  0.557916  0.563372  0.939355  1
  Tb  Tb5  1  0.939900  0.940832  0.559634  1
  Lu  Lu6  1  0.350678  0.344791  0.344791  1
  Lu  Lu7  1  0.350678  0.344791  0.959740  1
  Lu  Lu8  1  0.350678  0.959740  0.344791  1
  Lu  Lu9  1  0.963417  0.345528  0.345528  1
  Lu  Lu10  1  0.812252  0.186879  0.186879  1
  Lu  Lu11  1  0.184260  0.814246  0.814246  1
  Lu  Lu12  1  0.184260  0.814246  0.187246  1
  Lu  Lu13  1  0.812252  0.186879  0.813990  1
  Lu  Lu14  1  0.184260  0.187246  0.814246  1
  Lu  Lu15  1  0.812252  0.813990  0.186879  1
  Cd  Cd16  1  0.578710  0.579866  0.579866  1
  Cd  Cd17  1  0.578710  0.579866  0.261558  1
  Cd  Cd18  1  0.578710  0.261558  0.579866  1
  Cd  Cd19  1  0.258060  0.580646  0.580646  1
  Ni  Ni20  1  0.575903  0.141366  0.141366  1
  Ru  Ru21  1  0.143825  0.139844  0.139844  1
  Ru  Ru22  1  0.143825  0.139844  0.576488  1
  Ru  Ru23  1  0.143825  0.576488  0.139844  1
