# generated using pymatgen
data_Ti12ZnSn4Sb5
_symmetry_space_group_name_H-M   'P 1'
_cell_length_a   9.27544339
_cell_length_b   9.20890107
_cell_length_c   5.61904402
_cell_angle_alpha   89.99999357
_cell_angle_beta   89.99150937
_cell_angle_gamma   119.76297309
_symmetry_Int_Tables_number   1
_chemical_formula_structural   Ti12ZnSn4Sb5
_chemical_formula_sum   'Ti12 Zn1 Sn4 Sb5'
_cell_volume   416.64664224
_cell_formula_units_Z   1
loop_
 _symmetry_equiv_pos_site_id
 _symmetry_equiv_pos_as_xyz
  1  'x, y, z'
loop_
 _atom_site_type_symbol
 _atom_site_label
 _atom_site_symmetry_multiplicity
 _atom_site_fract_x
 _atom_site_fract_y
 _atom_site_fract_z
 _atom_site_occupancy
  Ti  Ti0  1  0.843956  0.692724  0.749959  1
  Ti  Ti1  1  0.156044  0.848769  0.250041  1
  Ti  Ti2  1  0.692684  0.847907  0.250572  1
  Ti  Ti3  1  0.307316  0.155222  0.749428  1
  Ti  Ti4  1  0.849399  0.149909  0.749476  1
  Ti  Ti5  1  0.150601  0.300511  0.250524  1
  Ti  Ti6  1  0.501717  0.002449  0.499840  1
  Ti  Ti7  1  0.498119  0.500403  0.999247  1
  Ti  Ti8  1  0.000000  0.497994  0.000000  1
  Ti  Ti9  1  0.000000  0.498633  0.500000  1
  Ti  Ti10  1  0.501881  0.002284  0.000753  1
  Ti  Ti11  1  0.498283  0.500732  0.500160  1
  Zn  Zn12  1  0.000000  0.994596  0.500000  1
  Sn  Sn13  1  0.200611  0.799925  0.746719  1
  Sn  Sn14  1  0.799389  0.599314  0.253281  1
  Sn  Sn15  1  0.669105  0.336535  0.752337  1
  Sn  Sn16  1  0.330895  0.667431  0.247663  1
  Sb  Sb17  1  0.200005  0.402636  0.746021  1
  Sb  Sb18  1  0.799995  0.202631  0.253979  1
  Sb  Sb19  1  0.403725  0.204003  0.252721  1
  Sb  Sb20  1  0.596275  0.800278  0.747279  1
  Sb  Sb21  1  0.000000  0.995115  0.000000  1
