# generated using pymatgen
data_Sc5C2O3
_symmetry_space_group_name_H-M   'P 1'
_cell_length_a   5.54589926
_cell_length_b   5.54125220
_cell_length_c   7.10820702
_cell_angle_alpha   129.46338753
_cell_angle_beta   129.50530397
_cell_angle_gamma   48.56534776
_symmetry_Int_Tables_number   1
_chemical_formula_structural   Sc5C2O3
_chemical_formula_sum   'Sc5 C2 O3'
_cell_volume   117.34146689
_cell_formula_units_Z   1
loop_
 _symmetry_equiv_pos_site_id
 _symmetry_equiv_pos_as_xyz
  1  'x, y, z'
loop_
 _atom_site_type_symbol
 _atom_site_label
 _atom_site_symmetry_multiplicity
 _atom_site_fract_x
 _atom_site_fract_y
 _atom_site_fract_z
 _atom_site_occupancy
  Sc  Sc0  1  0.333179  0.978626  0.148779  1
  Sc  Sc1  1  0.716462  0.362687  0.337214  1
  Sc  Sc2  1  0.919557  0.566511  0.935300  1
  Sc  Sc3  1  0.129815  0.774983  0.550661  1
  Sc  Sc4  1  0.524257  0.171308  0.743039  1
  C  C5  1  0.427874  0.074027  0.946639  1
  C  C6  1  0.621178  0.268190  0.539778  1
  O  O7  1  0.024539  0.670839  0.742942  1
  O  O8  1  0.228719  0.875437  0.344943  1
  O  O9  1  0.819776  0.466523  0.140588  1
