# generated using pymatgen
data_NdY2CI3
_symmetry_space_group_name_H-M   'P 1'
_cell_length_a   3.96538300
_cell_length_b   8.83998194
_cell_length_c   12.08681878
_cell_angle_alpha   92.03363884
_cell_angle_beta   90.00000000
_cell_angle_gamma   90.00000000
_symmetry_Int_Tables_number   1
_chemical_formula_structural   NdY2CI3
_chemical_formula_sum   'Nd2 Y4 C2 I6'
_cell_volume   423.42345247
_cell_formula_units_Z   2
loop_
 _symmetry_equiv_pos_site_id
 _symmetry_equiv_pos_as_xyz
  1  'x, y, z'
loop_
 _atom_site_type_symbol
 _atom_site_label
 _atom_site_symmetry_multiplicity
 _atom_site_fract_x
 _atom_site_fract_y
 _atom_site_fract_z
 _atom_site_occupancy
  Nd  Nd0  1  0.250000  0.912549  0.601758  1
  Nd  Nd1  1  0.750000  0.087451  0.398242  1
  Y  Y2  1  0.250000  0.886224  0.187455  1
  Y  Y3  1  0.750000  0.113776  0.812545  1
  Y  Y4  1  0.250000  0.293251  0.615819  1
  Y  Y5  1  0.750000  0.706749  0.384181  1
  C  C6  1  0.250000  0.874252  0.382878  1
  C  C7  1  0.750000  0.125748  0.617122  1
  I  I8  1  0.250000  0.863434  0.875763  1
  I  I9  1  0.750000  0.136566  0.124237  1
  I  I10  1  0.250000  0.371571  0.869304  1
  I  I11  1  0.750000  0.628429  0.130696  1
  I  I12  1  0.250000  0.391113  0.369256  1
  I  I13  1  0.750000  0.608887  0.630744  1
