# generated using pymatgen
data_NdSmY4NiBr10
_symmetry_space_group_name_H-M   'P 1'
_cell_length_a   7.37029457
_cell_length_b   9.21806192
_cell_length_c   9.37309217
_cell_angle_alpha   107.55671002
_cell_angle_beta   95.95797376
_cell_angle_gamma   105.44205446
_symmetry_Int_Tables_number   1
_chemical_formula_structural   NdSmY4NiBr10
_chemical_formula_sum   'Nd1 Sm1 Y4 Ni1 Br10'
_cell_volume   573.36018932
_cell_formula_units_Z   1
loop_
 _symmetry_equiv_pos_site_id
 _symmetry_equiv_pos_as_xyz
  1  'x, y, z'
loop_
 _atom_site_type_symbol
 _atom_site_label
 _atom_site_symmetry_multiplicity
 _atom_site_fract_x
 _atom_site_fract_y
 _atom_site_fract_z
 _atom_site_occupancy
  Nd  Nd0  1  0.129680  0.049560  0.754456  1
  Sm  Sm1  1  0.871444  0.950805  0.243206  1
  Y  Y2  1  0.032280  0.707254  0.909560  1
  Y  Y3  1  0.967568  0.292848  0.091728  1
  Y  Y4  1  0.647979  0.869067  0.828992  1
  Y  Y5  1  0.351768  0.130534  0.171431  1
  Ni  Ni6  1  0.999265  0.999861  0.999878  1
  Br  Br7  1  0.657115  0.551771  0.730206  1
  Br  Br8  1  0.343571  0.448230  0.268873  1
  Br  Br9  1  0.742901  0.918850  0.549034  1
  Br  Br10  1  0.252658  0.080670  0.447401  1
  Br  Br11  1  0.914683  0.624822  0.170197  1
  Br  Br12  1  0.084960  0.378571  0.832134  1
  Br  Br13  1  0.554248  0.180548  0.918497  1
  Br  Br14  1  0.448928  0.820415  0.083995  1
  Br  Br15  1  0.229568  0.741996  0.660919  1
  Br  Br16  1  0.771385  0.254198  0.339492  1
