# generated using pymatgen
data_Nd3SiCl3
_symmetry_space_group_name_H-M   'P 1'
_cell_length_a   10.19018564
_cell_length_b   10.19018574
_cell_length_c   10.19018600
_cell_angle_alpha   109.47122315
_cell_angle_beta   109.47122333
_cell_angle_gamma   109.47121494
_symmetry_Int_Tables_number   1
_chemical_formula_structural   Nd3SiCl3
_chemical_formula_sum   'Nd12 Si4 Cl12'
_cell_volume   814.56251188
_cell_formula_units_Z   4
loop_
 _symmetry_equiv_pos_site_id
 _symmetry_equiv_pos_as_xyz
  1  'x, y, z'
loop_
 _atom_site_type_symbol
 _atom_site_label
 _atom_site_symmetry_multiplicity
 _atom_site_fract_x
 _atom_site_fract_y
 _atom_site_fract_z
 _atom_site_occupancy
  Nd  Nd0  1  0.491986  0.750000  0.008014  1
  Nd  Nd1  1  0.750000  0.241986  0.258014  1
  Nd  Nd2  1  0.241986  0.258014  0.750000  1
  Nd  Nd3  1  0.483974  0.491986  0.241986  1
  Nd  Nd4  1  0.258014  0.008014  0.016026  1
  Nd  Nd5  1  0.241986  0.483974  0.491986  1
  Nd  Nd6  1  0.008014  0.016026  0.258014  1
  Nd  Nd7  1  0.008014  0.491986  0.750000  1
  Nd  Nd8  1  0.491986  0.241986  0.483974  1
  Nd  Nd9  1  0.750000  0.008014  0.491986  1
  Nd  Nd10  1  0.016026  0.258014  0.008014  1
  Nd  Nd11  1  0.258014  0.750000  0.241986  1
  Si  Si12  1  0.250000  0.250000  0.250000  1
  Si  Si13  1  0.000000  0.250000  0.500000  1
  Si  Si14  1  0.250000  0.500000  0.000000  1
  Si  Si15  1  0.500000  0.000000  0.250000  1
  Cl  Cl16  1  0.999550  0.999100  0.749550  1
  Cl  Cl17  1  0.750450  0.749550  0.250000  1
  Cl  Cl18  1  0.999100  0.749550  0.999550  1
  Cl  Cl19  1  0.250000  0.999550  0.500450  1
  Cl  Cl20  1  0.749550  0.999550  0.999100  1
  Cl  Cl21  1  0.500450  0.250000  0.999550  1
  Cl  Cl22  1  0.749550  0.250000  0.750450  1
  Cl  Cl23  1  0.500450  0.750450  0.500900  1
  Cl  Cl24  1  0.750450  0.500900  0.500450  1
  Cl  Cl25  1  0.250000  0.750450  0.749550  1
  Cl  Cl26  1  0.500900  0.500450  0.750450  1
  Cl  Cl27  1  0.999550  0.500450  0.250000  1
