# generated using pymatgen
data_Rb2Pu(Cl2O)2
_symmetry_space_group_name_H-M   'P 1'
_cell_length_a   5.99281955
_cell_length_b   7.05203270
_cell_length_c   7.10756111
_cell_angle_alpha   63.96520231
_cell_angle_beta   86.46672068
_cell_angle_gamma   88.79572959
_symmetry_Int_Tables_number   1
_chemical_formula_structural   Rb2Pu(Cl2O)2
_chemical_formula_sum   'Rb2 Pu1 Cl4 O2'
_cell_volume   269.37757096
_cell_formula_units_Z   1
loop_
 _symmetry_equiv_pos_site_id
 _symmetry_equiv_pos_as_xyz
  1  'x, y, z'
loop_
 _atom_site_type_symbol
 _atom_site_label
 _atom_site_symmetry_multiplicity
 _atom_site_fract_x
 _atom_site_fract_y
 _atom_site_fract_z
 _atom_site_occupancy
  Rb  Rb0  1  0.245540  0.136961  0.171191  1
  Rb  Rb1  1  0.754460  0.863039  0.828809  1
  Pu  Pu2  1  0.000000  0.500000  0.500000  1
  Cl  Cl3  1  0.776041  0.352731  0.873293  1
  Cl  Cl4  1  0.223959  0.647269  0.126707  1
  Cl  Cl5  1  0.251993  0.154331  0.657361  1
  Cl  Cl6  1  0.748007  0.845669  0.342639  1
  O  O7  1  0.826591  0.349749  0.421094  1
  O  O8  1  0.173409  0.650251  0.578906  1
