# generated using pymatgen
data_Ca3OsO6
_symmetry_space_group_name_H-M   'P 1'
_cell_length_a   6.57215849
_cell_length_b   6.57215763
_cell_length_c   6.57215814
_cell_angle_alpha   91.66758384
_cell_angle_beta   91.66758924
_cell_angle_gamma   91.66759179
_symmetry_Int_Tables_number   1
_chemical_formula_structural   Ca3OsO6
_chemical_formula_sum   'Ca6 Os2 O12'
_cell_volume   283.50511244
_cell_formula_units_Z   2
loop_
 _symmetry_equiv_pos_site_id
 _symmetry_equiv_pos_as_xyz
  1  'x, y, z'
loop_
 _atom_site_type_symbol
 _atom_site_label
 _atom_site_symmetry_multiplicity
 _atom_site_fract_x
 _atom_site_fract_y
 _atom_site_fract_z
 _atom_site_occupancy
  Ca  Ca0  1  0.932504  0.436653  0.746094  1
  Ca  Ca1  1  0.746094  0.932504  0.436653  1
  Ca  Ca2  1  0.563347  0.253906  0.067496  1
  Ca  Ca3  1  0.436653  0.746094  0.932504  1
  Ca  Ca4  1  0.253906  0.067496  0.563347  1
  Ca  Ca5  1  0.067496  0.563347  0.253906  1
  Os  Os6  1  0.000000  0.000000  0.000000  1
  Os  Os7  1  0.500000  0.500000  0.500000  1
  O  O8  1  0.937264  0.282038  0.068815  1
  O  O9  1  0.931185  0.062736  0.717962  1
  O  O10  1  0.783152  0.578034  0.452101  1
  O  O11  1  0.717962  0.931185  0.062736  1
  O  O12  1  0.578034  0.452101  0.783152  1
  O  O13  1  0.547899  0.216848  0.421966  1
  O  O14  1  0.452101  0.783152  0.578034  1
  O  O15  1  0.421966  0.547899  0.216848  1
  O  O16  1  0.282038  0.068815  0.937264  1
  O  O17  1  0.216848  0.421966  0.547899  1
  O  O18  1  0.068815  0.937264  0.282038  1
  O  O19  1  0.062736  0.717962  0.931185  1
