# generated using pymatgen
data_BaZn2S2O
_symmetry_space_group_name_H-M   'P 1'
_cell_length_a   4.02670600
_cell_length_b   6.54821100
_cell_length_c   10.06415300
_cell_angle_alpha   90.00053594
_cell_angle_beta   89.99935997
_cell_angle_gamma   90.00011143
_symmetry_Int_Tables_number   1
_chemical_formula_structural   BaZn2S2O
_chemical_formula_sum   'Ba2 Zn4 S4 O2'
_cell_volume   265.36877384
_cell_formula_units_Z   2
loop_
 _symmetry_equiv_pos_site_id
 _symmetry_equiv_pos_as_xyz
  1  'x, y, z'
loop_
 _atom_site_type_symbol
 _atom_site_label
 _atom_site_symmetry_multiplicity
 _atom_site_fract_x
 _atom_site_fract_y
 _atom_site_fract_z
 _atom_site_occupancy
  Ba  Ba0  1  0.500005  0.021728  0.500002  1
  Ba  Ba1  1  0.999992  0.978271  0.000002  1
  Zn  Zn2  1  0.499997  0.372179  0.167599  1
  Zn  Zn3  1  0.000027  0.627824  0.667603  1
  Zn  Zn4  1  0.500008  0.372174  0.832394  1
  Zn  Zn5  1  0.999974  0.627823  0.332403  1
  S  S6  1  0.500016  0.728788  0.791141  1
  S  S7  1  0.499983  0.728790  0.208860  1
  S  S8  1  0.999985  0.271211  0.291141  1
  S  S9  1  0.000018  0.271211  0.708856  1
  O  O10  1  0.499993  0.230229  0.000005  1
  O  O11  1  0.000004  0.769773  0.499996  1
