# generated using pymatgen
data_Dy2YCo7(P3Rh)2
_symmetry_space_group_name_H-M   'P 1'
_cell_length_a   3.73248100
_cell_length_b   10.68385600
_cell_length_c   12.40882300
_cell_angle_alpha   90.00000000
_cell_angle_beta   90.00000000
_cell_angle_gamma   90.00000000
_symmetry_Int_Tables_number   1
_chemical_formula_structural   Dy2YCo7(P3Rh)2
_chemical_formula_sum   'Dy4 Y2 Co14 P12 Rh4'
_cell_volume   494.83022746
_cell_formula_units_Z   2
loop_
 _symmetry_equiv_pos_site_id
 _symmetry_equiv_pos_as_xyz
  1  'x, y, z'
loop_
 _atom_site_type_symbol
 _atom_site_label
 _atom_site_symmetry_multiplicity
 _atom_site_fract_x
 _atom_site_fract_y
 _atom_site_fract_z
 _atom_site_occupancy
  Dy  Dy0  1  0.500000  0.814242  0.205508  1
  Dy  Dy1  1  0.500000  0.185758  0.205508  1
  Dy  Dy2  1  0.000000  0.685758  0.794492  1
  Dy  Dy3  1  0.000000  0.314242  0.794492  1
  Y  Y4  1  0.000000  0.500000  0.520356  1
  Y  Y5  1  0.500000  0.000000  0.479644  1
  Co  Co6  1  0.000000  0.500000  0.988804  1
  Co  Co7  1  0.500000  0.000000  0.011196  1
  Co  Co8  1  0.500000  0.332188  0.993989  1
  Co  Co9  1  0.500000  0.667812  0.993989  1
  Co  Co10  1  0.000000  0.167812  0.006011  1
  Co  Co11  1  0.000000  0.832188  0.006011  1
  Co  Co12  1  0.500000  0.299702  0.429961  1
  Co  Co13  1  0.500000  0.700298  0.429961  1
  Co  Co14  1  0.000000  0.200298  0.570039  1
  Co  Co15  1  0.000000  0.799702  0.570039  1
  Co  Co16  1  0.500000  0.880272  0.709535  1
  Co  Co17  1  0.500000  0.119728  0.709535  1
  Co  Co18  1  0.000000  0.619728  0.290465  1
  Co  Co19  1  0.000000  0.380272  0.290465  1
  P  P20  1  0.500000  0.500000  0.890480  1
  P  P21  1  0.000000  0.000000  0.109520  1
  P  P22  1  0.500000  0.500000  0.349633  1
  P  P23  1  0.000000  0.000000  0.650367  1
  P  P24  1  0.500000  0.302296  0.613658  1
  P  P25  1  0.500000  0.697704  0.613658  1
  P  P26  1  0.000000  0.197704  0.386342  1
  P  P27  1  0.000000  0.802296  0.386342  1
  P  P28  1  0.500000  0.844446  0.894655  1
  P  P29  1  0.500000  0.155554  0.894655  1
  P  P30  1  0.000000  0.655554  0.105345  1
  P  P31  1  0.000000  0.344446  0.105345  1
  Rh  Rh32  1  0.500000  0.500000  0.160200  1
  Rh  Rh33  1  0.000000  0.000000  0.839800  1
  Rh  Rh34  1  0.500000  0.500000  0.703999  1
  Rh  Rh35  1  0.000000  0.000000  0.296001  1
