# generated using pymatgen
data_Ho7Tm13Pt16
_symmetry_space_group_name_H-M   'P 1'
_cell_length_a   7.39737702
_cell_length_b   7.50378405
_cell_length_c   14.59517710
_cell_angle_alpha   90.01255765
_cell_angle_beta   89.99490760
_cell_angle_gamma   90.00589862
_symmetry_Int_Tables_number   1
_chemical_formula_structural   Ho7Tm13Pt16
_chemical_formula_sum   'Ho7 Tm13 Pt16'
_cell_volume   810.15372985
_cell_formula_units_Z   1
loop_
 _symmetry_equiv_pos_site_id
 _symmetry_equiv_pos_as_xyz
  1  'x, y, z'
loop_
 _atom_site_type_symbol
 _atom_site_label
 _atom_site_symmetry_multiplicity
 _atom_site_fract_x
 _atom_site_fract_y
 _atom_site_fract_z
 _atom_site_occupancy
  Ho  Ho0  1  0.001290  0.820482  0.907289  1
  Ho  Ho1  1  0.498725  0.320410  0.092739  1
  Ho  Ho2  1  0.998622  0.179664  0.407247  1
  Ho  Ho3  1  0.498848  0.320854  0.407430  1
  Ho  Ho4  1  0.998653  0.179520  0.092747  1
  Ho  Ho5  1  0.501234  0.679578  0.907374  1
  Ho  Ho6  1  0.001396  0.820247  0.592620  1
  Tm  Tm7  1  0.656547  0.167703  0.622498  1
  Tm  Tm8  1  0.156683  0.332329  0.877362  1
  Tm  Tm9  1  0.343373  0.832329  0.122577  1
  Tm  Tm10  1  0.843298  0.667582  0.377525  1
  Tm  Tm11  1  0.343743  0.832045  0.377642  1
  Tm  Tm12  1  0.843431  0.667742  0.122536  1
  Tm  Tm13  1  0.656592  0.167731  0.877365  1
  Tm  Tm14  1  0.157019  0.332530  0.622425  1
  Tm  Tm15  1  0.501678  0.680074  0.592773  1
  Tm  Tm16  1  0.819143  0.510961  0.749782  1
  Tm  Tm17  1  0.319380  0.988967  0.749816  1
  Tm  Tm18  1  0.180695  0.489171  0.250032  1
  Tm  Tm19  1  0.680717  0.010851  0.250055  1
  Pt  Pt20  1  0.683199  0.966343  0.458380  1
  Pt  Pt21  1  0.183273  0.533203  0.041805  1
  Pt  Pt22  1  0.316792  0.033155  0.958233  1
  Pt  Pt23  1  0.815395  0.467566  0.541990  1
  Pt  Pt24  1  0.316993  0.032168  0.542109  1
  Pt  Pt25  1  0.816698  0.466713  0.958232  1
  Pt  Pt26  1  0.683364  0.966794  0.041806  1
  Pt  Pt27  1  0.183549  0.533543  0.458488  1
  Pt  Pt28  1  0.454282  0.386233  0.749733  1
  Pt  Pt29  1  0.953982  0.113966  0.749953  1
  Pt  Pt30  1  0.545848  0.614151  0.250005  1
  Pt  Pt31  1  0.045905  0.885866  0.250050  1
  Pt  Pt32  1  0.681848  0.856308  0.749519  1
  Pt  Pt33  1  0.182666  0.643259  0.749782  1
  Pt  Pt34  1  0.317576  0.143223  0.250050  1
  Pt  Pt35  1  0.817564  0.356739  0.250034  1
