# generated using pymatgen
data_Pr20Ga4Si7Ge
_symmetry_space_group_name_H-M   'P 1'
_cell_length_a   7.88400750
_cell_length_b   7.88096446
_cell_length_c   14.45596316
_cell_angle_alpha   89.91512875
_cell_angle_beta   90.02333943
_cell_angle_gamma   90.02417885
_symmetry_Int_Tables_number   1
_chemical_formula_structural   Pr20Ga4Si7Ge
_chemical_formula_sum   'Pr20 Ga4 Si7 Ge1'
_cell_volume   898.19964569
_cell_formula_units_Z   1
loop_
 _symmetry_equiv_pos_site_id
 _symmetry_equiv_pos_as_xyz
  1  'x, y, z'
loop_
 _atom_site_type_symbol
 _atom_site_label
 _atom_site_symmetry_multiplicity
 _atom_site_fract_x
 _atom_site_fract_y
 _atom_site_fract_z
 _atom_site_occupancy
  Pr  Pr0  1  0.817337  0.828256  0.607260  1
  Pr  Pr1  1  0.185860  0.833409  0.106485  1
  Pr  Pr2  1  0.165248  0.809873  0.393163  1
  Pr  Pr3  1  0.001337  0.499143  0.731368  1
  Pr  Pr4  1  0.834893  0.188240  0.393905  1
  Pr  Pr5  1  0.686313  0.663673  0.393345  1
  Pr  Pr6  1  0.670078  0.317263  0.606785  1
  Pr  Pr7  1  0.328384  0.682635  0.606949  1
  Pr  Pr8  1  0.998220  0.504429  0.221637  1
  Pr  Pr9  1  0.665348  0.684436  0.107110  1
  Pr  Pr10  1  0.684881  0.332082  0.892045  1
  Pr  Pr11  1  0.831756  0.815244  0.891790  1
  Pr  Pr12  1  0.316326  0.339497  0.395229  1
  Pr  Pr13  1  0.181229  0.170385  0.606665  1
  Pr  Pr14  1  0.812434  0.166180  0.107373  1
  Pr  Pr15  1  0.314935  0.666156  0.891937  1
  Pr  Pr16  1  0.337858  0.318546  0.105033  1
  Pr  Pr17  1  0.504774  0.998835  0.276579  1
  Pr  Pr18  1  0.166685  0.183735  0.892453  1
  Pr  Pr19  1  0.498676  0.001101  0.773433  1
  Ga  Ga20  1  0.498951  0.998948  0.495959  1
  Ga  Ga21  1  0.499180  0.998290  0.994776  1
  Ga  Ga22  1  0.119245  0.118775  0.250731  1
  Ga  Ga23  1  0.999135  0.498881  0.002572  1
  Si  Si24  1  0.614794  0.385305  0.250834  1
  Si  Si25  1  0.114163  0.885991  0.749037  1
  Si  Si26  1  0.386173  0.384918  0.748910  1
  Si  Si27  1  0.385640  0.615201  0.250241  1
  Si  Si28  1  0.883364  0.883257  0.250789  1
  Si  Si29  1  0.613623  0.614777  0.748919  1
  Si  Si30  1  0.884674  0.113296  0.748973  1
  Ge  Ge31  1  0.998483  0.499241  0.507715  1
