# generated using pymatgen
data_Nd11In9(AgRh)2
_symmetry_space_group_name_H-M   'P 1'
_cell_length_a   13.58808706
_cell_length_b   13.65467935
_cell_length_c   3.79619600
_cell_angle_alpha   90.00000000
_cell_angle_beta   90.00000000
_cell_angle_gamma   111.38459286
_symmetry_Int_Tables_number   1
_chemical_formula_structural   Nd11In9(AgRh)2
_chemical_formula_sum   'Nd11 In9 Ag2 Rh2'
_cell_volume   655.85815163
_cell_formula_units_Z   1
loop_
 _symmetry_equiv_pos_site_id
 _symmetry_equiv_pos_as_xyz
  1  'x, y, z'
loop_
 _atom_site_type_symbol
 _atom_site_label
 _atom_site_symmetry_multiplicity
 _atom_site_fract_x
 _atom_site_fract_y
 _atom_site_fract_z
 _atom_site_occupancy
  Nd  Nd0  1  0.066121  0.417674  0.000000  1
  Nd  Nd1  1  0.933879  0.582326  0.000000  1
  Nd  Nd2  1  0.417268  0.070868  0.000000  1
  Nd  Nd3  1  0.582732  0.929132  0.000000  1
  Nd  Nd4  1  0.617445  0.358258  0.000000  1
  Nd  Nd5  1  0.382555  0.641742  0.000000  1
  Nd  Nd6  1  0.843886  0.161024  0.000000  1
  Nd  Nd7  1  0.156114  0.838976  0.000000  1
  Nd  Nd8  1  0.000000  0.000000  0.000000  1
  Nd  Nd9  1  0.313994  0.296027  0.000000  1
  Nd  Nd10  1  0.686006  0.703973  0.000000  1
  In  In11  1  0.838840  0.366529  0.500000  1
  In  In12  1  0.161160  0.633471  0.500000  1
  In  In13  1  0.365674  0.839542  0.500000  1
  In  In14  1  0.634326  0.160458  0.500000  1
  In  In15  1  0.074867  0.218623  0.500000  1
  In  In16  1  0.925133  0.781377  0.500000  1
  In  In17  1  0.218872  0.073091  0.500000  1
  In  In18  1  0.781128  0.926909  0.500000  1
  In  In19  1  0.500000  0.500000  0.500000  1
  Ag  Ag20  1  0.253934  0.451460  0.500000  1
  Ag  Ag21  1  0.746066  0.548540  0.500000  1
  Rh  Rh22  1  0.448813  0.239748  0.500000  1
  Rh  Rh23  1  0.551187  0.760252  0.500000  1
