# generated using pymatgen
data_DyY8Ho3Ga20
_symmetry_space_group_name_H-M   'P 1'
_cell_length_a   6.10875301
_cell_length_b   9.65492100
_cell_length_c   11.59180901
_cell_angle_alpha   90.00000000
_cell_angle_beta   90.00533130
_cell_angle_gamma   90.00000000
_symmetry_Int_Tables_number   1
_chemical_formula_structural   DyY8Ho3Ga20
_chemical_formula_sum   'Dy1 Y8 Ho3 Ga20'
_cell_volume   683.67941764
_cell_formula_units_Z   1
loop_
 _symmetry_equiv_pos_site_id
 _symmetry_equiv_pos_as_xyz
  1  'x, y, z'
loop_
 _atom_site_type_symbol
 _atom_site_label
 _atom_site_symmetry_multiplicity
 _atom_site_fract_x
 _atom_site_fract_y
 _atom_site_fract_z
 _atom_site_occupancy
  Dy  Dy0  1  0.848797  0.750000  0.075272  1
  Y  Y1  1  0.890502  0.509193  0.351284  1
  Y  Y2  1  0.609437  0.990869  0.851107  1
  Y  Y3  1  0.109539  0.009311  0.648746  1
  Y  Y4  1  0.390370  0.490684  0.148771  1
  Y  Y5  1  0.109539  0.490689  0.648746  1
  Y  Y6  1  0.390370  0.009316  0.148771  1
  Y  Y7  1  0.890502  0.990807  0.351284  1
  Y  Y8  1  0.609437  0.509131  0.851107  1
  Ho  Ho9  1  0.651204  0.750000  0.575192  1
  Ho  Ho10  1  0.151225  0.250000  0.924726  1
  Ho  Ho11  1  0.348799  0.250000  0.424733  1
  Ga  Ga12  1  0.875545  0.053984  0.089603  1
  Ga  Ga13  1  0.624473  0.446343  0.589557  1
  Ga  Ga14  1  0.124480  0.553559  0.910345  1
  Ga  Ga15  1  0.375550  0.946399  0.410487  1
  Ga  Ga16  1  0.124480  0.946441  0.910345  1
  Ga  Ga17  1  0.375550  0.553601  0.410487  1
  Ga  Ga18  1  0.875545  0.446016  0.089603  1
  Ga  Ga19  1  0.624473  0.053657  0.589557  1
  Ga  Ga20  1  0.172403  0.750000  0.252584  1
  Ga  Ga21  1  0.328229  0.750000  0.752278  1
  Ga  Ga22  1  0.828209  0.250000  0.747595  1
  Ga  Ga23  1  0.671790  0.250000  0.247655  1
  Ga  Ga24  1  0.372908  0.750000  0.004020  1
  Ga  Ga25  1  0.126690  0.750000  0.504194  1
  Ga  Ga26  1  0.626399  0.250000  0.995820  1
  Ga  Ga27  1  0.873342  0.250000  0.495895  1
  Ga  Ga28  1  0.601231  0.750000  0.300238  1
  Ga  Ga29  1  0.898961  0.750000  0.799711  1
  Ga  Ga30  1  0.398781  0.250000  0.700143  1
  Ga  Ga31  1  0.101242  0.250000  0.200144  1
