# generated using pymatgen
data_Lu10Tl5CuSiPb
_symmetry_space_group_name_H-M   'P 1'
_cell_length_a   8.98346798
_cell_length_b   8.98346762
_cell_length_c   6.60905059
_cell_angle_alpha   90.02425866
_cell_angle_beta   90.02426078
_cell_angle_gamma   119.78524261
_symmetry_Int_Tables_number   1
_chemical_formula_structural   Lu10Tl5CuSiPb
_chemical_formula_sum   'Lu10 Tl5 Cu1 Si1 Pb1'
_cell_volume   462.90657747
_cell_formula_units_Z   1
loop_
 _symmetry_equiv_pos_site_id
 _symmetry_equiv_pos_as_xyz
  1  'x, y, z'
loop_
 _atom_site_type_symbol
 _atom_site_label
 _atom_site_symmetry_multiplicity
 _atom_site_fract_x
 _atom_site_fract_y
 _atom_site_fract_z
 _atom_site_occupancy
  Lu  Lu0  1  0.250957  0.001149  0.743664  1
  Lu  Lu1  1  0.750061  0.000444  0.256258  1
  Lu  Lu2  1  0.001149  0.250957  0.743664  1
  Lu  Lu3  1  0.000444  0.750061  0.256258  1
  Lu  Lu4  1  0.749306  0.749306  0.743922  1
  Lu  Lu5  1  0.249046  0.249046  0.256399  1
  Lu  Lu6  1  0.332665  0.666370  0.501218  1
  Lu  Lu7  1  0.666370  0.332665  0.501218  1
  Lu  Lu8  1  0.666249  0.332185  0.998213  1
  Lu  Lu9  1  0.332185  0.666249  0.998213  1
  Tl  Tl10  1  0.602844  0.999969  0.750761  1
  Tl  Tl11  1  0.397837  0.999501  0.249798  1
  Tl  Tl12  1  0.999969  0.602844  0.750761  1
  Tl  Tl13  1  0.999501  0.397837  0.249798  1
  Tl  Tl14  1  0.395864  0.395864  0.750670  1
  Cu  Cu15  1  0.000768  0.000768  0.999628  1
  Si  Si16  1  0.999806  0.999806  0.499944  1
  Pb  Pb17  1  0.604979  0.604979  0.249613  1
