# generated using pymatgen
data_LaBeCo4P3
_symmetry_space_group_name_H-M   'P 1'
_cell_length_a   6.00362834
_cell_length_b   6.00362754
_cell_length_c   11.25584800
_cell_angle_alpha   90.00000000
_cell_angle_beta   90.00000000
_cell_angle_gamma   144.89667380
_symmetry_Int_Tables_number   1
_chemical_formula_structural   LaBeCo4P3
_chemical_formula_sum   'La2 Be2 Co8 P6'
_cell_volume   233.29930372
_cell_formula_units_Z   2
loop_
 _symmetry_equiv_pos_site_id
 _symmetry_equiv_pos_as_xyz
  1  'x, y, z'
loop_
 _atom_site_type_symbol
 _atom_site_label
 _atom_site_symmetry_multiplicity
 _atom_site_fract_x
 _atom_site_fract_y
 _atom_site_fract_z
 _atom_site_occupancy
  La  La0  1  0.330243  0.669757  0.250000  1
  La  La1  1  0.669757  0.330243  0.750000  1
  Be  Be2  1  0.500000  0.500000  0.500000  1
  Be  Be3  1  0.500000  0.500000  0.000000  1
  Co  Co4  1  0.046648  0.953352  0.138603  1
  Co  Co5  1  0.046648  0.953352  0.361397  1
  Co  Co6  1  0.687844  0.312156  0.439369  1
  Co  Co7  1  0.312156  0.687844  0.560631  1
  Co  Co8  1  0.312156  0.687844  0.939369  1
  Co  Co9  1  0.687844  0.312156  0.060631  1
  Co  Co10  1  0.953352  0.046648  0.638603  1
  Co  Co11  1  0.953352  0.046648  0.861397  1
  P  P12  1  0.605420  0.394580  0.250000  1
  P  P13  1  0.394580  0.605420  0.750000  1
  P  P14  1  0.122785  0.877215  0.540395  1
  P  P15  1  0.877215  0.122785  0.459605  1
  P  P16  1  0.877215  0.122785  0.040395  1
  P  P17  1  0.122785  0.877215  0.959605  1
