# generated using pymatgen
data_NbZn6Ru12W5
_symmetry_space_group_name_H-M   'P 1'
_cell_length_a   4.34700300
_cell_length_b   6.16305900
_cell_length_c   13.03142900
_cell_angle_alpha   90.00000000
_cell_angle_beta   90.00113394
_cell_angle_gamma   90.00000000
_symmetry_Int_Tables_number   1
_chemical_formula_structural   NbZn6Ru12W5
_chemical_formula_sum   'Nb1 Zn6 Ru12 W5'
_cell_volume   349.12287666
_cell_formula_units_Z   1
loop_
 _symmetry_equiv_pos_site_id
 _symmetry_equiv_pos_as_xyz
  1  'x, y, z'
loop_
 _atom_site_type_symbol
 _atom_site_label
 _atom_site_symmetry_multiplicity
 _atom_site_fract_x
 _atom_site_fract_y
 _atom_site_fract_z
 _atom_site_occupancy
  Nb  Nb0  1  0.000000  0.500000  0.000000  1
  Zn  Zn1  1  0.000000  0.000000  0.000000  1
  Zn  Zn2  1  0.499723  0.500000  0.165643  1
  Zn  Zn3  1  0.999731  0.000000  0.334791  1
  Zn  Zn4  1  0.500001  0.500000  0.500000  1
  Zn  Zn5  1  0.000268  0.000000  0.665209  1
  Zn  Zn6  1  0.500277  0.500000  0.834357  1
  Ru  Ru7  1  0.500001  0.244191  0.000000  1
  Ru  Ru8  1  0.500001  0.755809  0.000000  1
  Ru  Ru9  1  0.999750  0.247353  0.169576  1
  Ru  Ru10  1  0.999750  0.752647  0.169576  1
  Ru  Ru11  1  0.499791  0.250729  0.333985  1
  Ru  Ru12  1  0.499791  0.749271  0.333985  1
  Ru  Ru13  1  0.000000  0.250232  0.500000  1
  Ru  Ru14  1  0.000000  0.749768  0.500000  1
  Ru  Ru15  1  0.500208  0.250729  0.666015  1
  Ru  Ru16  1  0.500208  0.749271  0.666015  1
  Ru  Ru17  1  0.000251  0.247353  0.830424  1
  Ru  Ru18  1  0.000251  0.752647  0.830424  1
  W  W19  1  0.499737  0.000000  0.166261  1
  W  W20  1  0.999753  0.500000  0.332830  1
  W  W21  1  0.500001  0.000000  0.500000  1
  W  W22  1  0.000249  0.500000  0.667170  1
  W  W23  1  0.500262  0.000000  0.833739  1
