# generated using pymatgen
data_Pr8Be4Si11Au
_symmetry_space_group_name_H-M   'P 1'
_cell_length_a   8.05328765
_cell_length_b   8.05328747
_cell_length_c   8.67273902
_cell_angle_alpha   90.00741756
_cell_angle_beta   89.99257950
_cell_angle_gamma   119.86449780
_symmetry_Int_Tables_number   1
_chemical_formula_structural   Pr8Be4Si11Au
_chemical_formula_sum   'Pr8 Be4 Si11 Au1'
_cell_volume   487.78078745
_cell_formula_units_Z   1
loop_
 _symmetry_equiv_pos_site_id
 _symmetry_equiv_pos_as_xyz
  1  'x, y, z'
loop_
 _atom_site_type_symbol
 _atom_site_label
 _atom_site_symmetry_multiplicity
 _atom_site_fract_x
 _atom_site_fract_y
 _atom_site_fract_z
 _atom_site_occupancy
  Pr  Pr0  1  0.499495  0.500505  0.750877  1
  Pr  Pr1  1  0.499642  0.500358  0.249062  1
  Pr  Pr2  1  0.001985  0.503454  0.747977  1
  Pr  Pr3  1  0.001749  0.503294  0.252025  1
  Pr  Pr4  1  0.496546  0.998015  0.747977  1
  Pr  Pr5  1  0.496706  0.998251  0.252025  1
  Pr  Pr6  1  0.001499  0.998501  0.747203  1
  Pr  Pr7  1  0.001500  0.998500  0.252849  1
  Be  Be8  1  0.664248  0.335752  0.997497  1
  Be  Be9  1  0.335785  0.664215  0.002345  1
  Be  Be10  1  0.334208  0.665792  0.497530  1
  Be  Be11  1  0.666711  0.333289  0.502582  1
  Si  Si12  1  0.171461  0.828539  0.999868  1
  Si  Si13  1  0.346043  0.175813  0.000182  1
  Si  Si14  1  0.171798  0.828202  0.500232  1
  Si  Si15  1  0.654636  0.824416  0.999895  1
  Si  Si16  1  0.828127  0.171873  0.499687  1
  Si  Si17  1  0.824187  0.653957  0.000182  1
  Si  Si18  1  0.655562  0.827647  0.500310  1
  Si  Si19  1  0.175584  0.345364  0.999895  1
  Si  Si20  1  0.344443  0.173014  0.499702  1
  Si  Si21  1  0.172353  0.344438  0.500310  1
  Si  Si22  1  0.826986  0.655557  0.499702  1
  Au  Au23  1  0.828745  0.171255  0.000088  1
