# generated using pymatgen
data_Tb7YCd2(SnAu4)2
_symmetry_space_group_name_H-M   'P 1'
_cell_length_a   8.03749210
_cell_length_b   8.03749210
_cell_length_c   7.40578504
_cell_angle_alpha   90.00825821
_cell_angle_beta   89.99174179
_cell_angle_gamma   89.98366163
_symmetry_Int_Tables_number   1
_chemical_formula_structural   Tb7YCd2(SnAu4)2
_chemical_formula_sum   'Tb7 Y1 Cd2 Sn2 Au8'
_cell_volume   478.42315830
_cell_formula_units_Z   1
loop_
 _symmetry_equiv_pos_site_id
 _symmetry_equiv_pos_as_xyz
  1  'x, y, z'
loop_
 _atom_site_type_symbol
 _atom_site_label
 _atom_site_symmetry_multiplicity
 _atom_site_fract_x
 _atom_site_fract_y
 _atom_site_fract_z
 _atom_site_occupancy
  Tb  Tb0  1  0.840086  0.159921  0.500018  1
  Tb  Tb1  1  0.159921  0.840086  0.499982  1
  Tb  Tb2  1  0.340120  0.340120  0.000000  1
  Tb  Tb3  1  0.682359  0.682359  0.500000  1
  Tb  Tb4  1  0.317716  0.317716  0.500000  1
  Tb  Tb5  1  0.182314  0.817623  0.999994  1
  Tb  Tb6  1  0.817623  0.182314  0.000006  1
  Y  Y7  1  0.660002  0.660002  0.000000  1
  Cd  Cd8  1  0.500062  0.999975  0.249948  1
  Cd  Cd9  1  0.999975  0.500062  0.750052  1
  Sn  Sn10  1  0.500124  0.999879  0.749956  1
  Sn  Sn11  1  0.999879  0.500124  0.250044  1
  Au  Au12  1  0.624382  0.368404  0.272558  1
  Au  Au13  1  0.375588  0.631507  0.272585  1
  Au  Au14  1  0.124378  0.131557  0.772540  1
  Au  Au15  1  0.875599  0.868405  0.772617  1
  Au  Au16  1  0.368404  0.624382  0.727442  1
  Au  Au17  1  0.631507  0.375588  0.727415  1
  Au  Au18  1  0.868405  0.875599  0.227383  1
  Au  Au19  1  0.131557  0.124378  0.227460  1
