# generated using pymatgen
data_PrThB10Ir
_symmetry_space_group_name_H-M   'P 1'
_cell_length_a   4.22190400
_cell_length_b   5.74704768
_cell_length_c   11.49629135
_cell_angle_alpha   90.08748987
_cell_angle_beta   90.00000000
_cell_angle_gamma   90.00000000
_symmetry_Int_Tables_number   1
_chemical_formula_structural   PrThB10Ir
_chemical_formula_sum   'Pr2 Th2 B20 Ir2'
_cell_volume   278.93975107
_cell_formula_units_Z   2
loop_
 _symmetry_equiv_pos_site_id
 _symmetry_equiv_pos_as_xyz
  1  'x, y, z'
loop_
 _atom_site_type_symbol
 _atom_site_label
 _atom_site_symmetry_multiplicity
 _atom_site_fract_x
 _atom_site_fract_y
 _atom_site_fract_z
 _atom_site_occupancy
  Pr  Pr0  1  0.500000  0.296793  0.864718  1
  Pr  Pr1  1  0.500000  0.703207  0.135282  1
  Th  Th2  1  0.500000  0.796936  0.635508  1
  Th  Th3  1  0.500000  0.203064  0.364492  1
  B  B4  1  0.000000  0.117705  0.543073  1
  B  B5  1  0.000000  0.882295  0.456927  1
  B  B6  1  0.000000  0.619034  0.956529  1
  B  B7  1  0.000000  0.380966  0.043471  1
  B  B8  1  0.000000  0.136394  0.696536  1
  B  B9  1  0.000000  0.863606  0.303464  1
  B  B10  1  0.300490  0.216943  0.119048  1
  B  B11  1  0.300490  0.783057  0.880952  1
  B  B12  1  0.698214  0.716910  0.380919  1
  B  B13  1  0.698214  0.283090  0.619081  1
  B  B14  1  0.699510  0.783057  0.880952  1
  B  B15  1  0.699510  0.216943  0.119048  1
  B  B16  1  0.301786  0.283090  0.619081  1
  B  B17  1  0.301786  0.716910  0.380919  1
  B  B18  1  0.000000  0.054768  0.193049  1
  B  B19  1  0.000000  0.945232  0.806951  1
  B  B20  1  0.000000  0.553701  0.307523  1
  B  B21  1  0.000000  0.446299  0.692477  1
  B  B22  1  0.000000  0.361623  0.197372  1
  B  B23  1  0.000000  0.638377  0.802628  1
  Ir  Ir24  1  0.000000  0.500000  0.500000  1
  Ir  Ir25  1  0.000000  0.000000  0.000000  1
