# generated using pymatgen
data_Zr6AlZn5Cu12
_symmetry_space_group_name_H-M   'P 1'
_cell_length_a   4.40459700
_cell_length_b   6.16632900
_cell_length_c   13.28238500
_cell_angle_alpha   90.00000000
_cell_angle_beta   89.99795002
_cell_angle_gamma   90.00000000
_symmetry_Int_Tables_number   1
_chemical_formula_structural   Zr6AlZn5Cu12
_chemical_formula_sum   'Zr6 Al1 Zn5 Cu12'
_cell_volume   360.75215612
_cell_formula_units_Z   1
loop_
 _symmetry_equiv_pos_site_id
 _symmetry_equiv_pos_as_xyz
  1  'x, y, z'
loop_
 _atom_site_type_symbol
 _atom_site_label
 _atom_site_symmetry_multiplicity
 _atom_site_fract_x
 _atom_site_fract_y
 _atom_site_fract_z
 _atom_site_occupancy
  Zr  Zr0  1  0.000000  0.500000  0.000000  1
  Zr  Zr1  1  0.500360  0.000000  0.167125  1
  Zr  Zr2  1  0.000368  0.500000  0.333706  1
  Zr  Zr3  1  0.500001  0.000000  0.500000  1
  Zr  Zr4  1  0.999631  0.500000  0.666294  1
  Zr  Zr5  1  0.499641  0.000000  0.832875  1
  Al  Al6  1  0.000000  0.000000  0.000000  1
  Zn  Zn7  1  0.500375  0.500000  0.166776  1
  Zn  Zn8  1  0.000374  0.000000  0.333274  1
  Zn  Zn9  1  0.500001  0.500000  0.500000  1
  Zn  Zn10  1  0.999627  0.000000  0.666726  1
  Zn  Zn11  1  0.499624  0.500000  0.833224  1
  Cu  Cu12  1  0.500001  0.249178  0.000000  1
  Cu  Cu13  1  0.500001  0.750821  0.000000  1
  Cu  Cu14  1  0.000417  0.249283  0.166381  1
  Cu  Cu15  1  0.000417  0.750716  0.166381  1
  Cu  Cu16  1  0.500428  0.250592  0.333449  1
  Cu  Cu17  1  0.500428  0.749408  0.333449  1
  Cu  Cu18  1  0.000000  0.249965  0.500000  1
  Cu  Cu19  1  0.000000  0.750035  0.500000  1
  Cu  Cu20  1  0.499574  0.250592  0.666551  1
  Cu  Cu21  1  0.499574  0.749408  0.666551  1
  Cu  Cu22  1  0.999585  0.249283  0.833619  1
  Cu  Cu23  1  0.999585  0.750716  0.833619  1
