# generated using pymatgen
data_Pr11NdOs2(PtBr6)2
_symmetry_space_group_name_H-M   'P 1'
_cell_length_a   10.64256413
_cell_length_b   10.63737326
_cell_length_c   10.55860733
_cell_angle_alpha   109.46930544
_cell_angle_beta   109.43975589
_cell_angle_gamma   109.81190224
_symmetry_Int_Tables_number   1
_chemical_formula_structural   Pr11NdOs2(PtBr6)2
_chemical_formula_sum   'Pr11 Nd1 Os2 Pt2 Br12'
_cell_volume   916.64909062
_cell_formula_units_Z   1
loop_
 _symmetry_equiv_pos_site_id
 _symmetry_equiv_pos_as_xyz
  1  'x, y, z'
loop_
 _atom_site_type_symbol
 _atom_site_label
 _atom_site_symmetry_multiplicity
 _atom_site_fract_x
 _atom_site_fract_y
 _atom_site_fract_z
 _atom_site_occupancy
  Pr  Pr0  1  0.758862  0.238082  0.268563  1
  Pr  Pr1  1  0.758679  0.020321  0.488862  1
  Pr  Pr2  1  0.230240  0.468429  0.488717  1
  Pr  Pr3  1  0.262097  0.740928  0.231432  1
  Pr  Pr4  1  0.031786  0.269962  0.011262  1
  Pr  Pr5  1  0.009713  0.030622  0.268680  1
  Pr  Pr6  1  0.479572  0.741026  0.011212  1
  Pr  Pr7  1  0.485300  0.235495  0.470616  1
  Pr  Pr8  1  0.015287  0.484518  0.749774  1
  Pr  Pr9  1  0.264765  0.014948  0.029426  1
  Pr  Pr10  1  0.234824  0.265546  0.750370  1
  Nd  Nd11  1  0.468376  0.489823  0.230822  1
  Os  Os12  1  0.999716  0.249707  0.499429  1
  Os  Os13  1  0.250741  0.500266  0.001061  1
  Pt  Pt14  1  0.251099  0.250140  0.250009  1
  Pt  Pt15  1  0.499521  0.000483  0.249999  1
  Br  Br16  1  0.250378  0.755274  0.746556  1
  Br  Br17  1  0.508780  0.503864  0.753477  1
  Br  Br18  1  0.994607  0.747651  0.997208  1
  Br  Br19  1  0.744762  0.249673  0.753478  1
  Br  Br20  1  0.996191  0.991234  0.746581  1
  Br  Br21  1  0.250436  0.997381  0.502834  1
  Br  Br22  1  0.751845  0.505546  0.502260  1
  Br  Br23  1  0.502874  0.250512  0.998063  1
  Br  Br24  1  0.753573  0.745023  0.250056  1
  Br  Br25  1  0.746679  0.996626  0.993270  1
  Br  Br26  1  0.995746  0.504364  0.250007  1
  Br  Br27  1  0.503552  0.752558  0.505977  1
