# generated using pymatgen
data_LiBi(BrO3)4
_symmetry_space_group_name_H-M   'P 1'
_cell_length_a   4.99133300
_cell_length_b   6.93394616
_cell_length_c   16.38996757
_cell_angle_alpha   78.60017208
_cell_angle_beta   90.00000000
_cell_angle_gamma   90.00000000
_symmetry_Int_Tables_number   1
_chemical_formula_structural   LiBi(BrO3)4
_chemical_formula_sum   'Li2 Bi2 Br8 O24'
_cell_volume   556.05992915
_cell_formula_units_Z   2
loop_
 _symmetry_equiv_pos_site_id
 _symmetry_equiv_pos_as_xyz
  1  'x, y, z'
loop_
 _atom_site_type_symbol
 _atom_site_label
 _atom_site_symmetry_multiplicity
 _atom_site_fract_x
 _atom_site_fract_y
 _atom_site_fract_z
 _atom_site_occupancy
  Li  Li0  1  0.500000  0.500000  0.000000  1
  Li  Li1  1  0.000000  0.500000  0.500000  1
  Bi  Bi2  1  0.500000  0.000000  0.000000  1
  Bi  Bi3  1  0.000000  0.000000  0.500000  1
  Br  Br4  1  0.842254  0.658392  0.167100  1
  Br  Br5  1  0.342254  0.341608  0.332900  1
  Br  Br6  1  0.157746  0.341608  0.832900  1
  Br  Br7  1  0.657746  0.658392  0.667100  1
  Br  Br8  1  0.000636  0.204049  0.127142  1
  Br  Br9  1  0.500636  0.795951  0.372858  1
  Br  Br10  1  0.999364  0.795951  0.872858  1
  Br  Br11  1  0.499364  0.204049  0.627142  1
  O  O12  1  0.662093  0.698873  0.072105  1
  O  O13  1  0.162093  0.301127  0.427895  1
  O  O14  1  0.337907  0.301127  0.927895  1
  O  O15  1  0.837907  0.698873  0.572105  1
  O  O16  1  0.718305  0.830657  0.214349  1
  O  O17  1  0.218305  0.169343  0.285651  1
  O  O18  1  0.281695  0.169343  0.785651  1
  O  O19  1  0.781695  0.830657  0.714349  1
  O  O20  1  0.722435  0.437959  0.211118  1
  O  O21  1  0.222435  0.562041  0.288882  1
  O  O22  1  0.277565  0.562041  0.788882  1
  O  O23  1  0.777565  0.437959  0.711118  1
  O  O24  1  0.748250  0.238449  0.052567  1
  O  O25  1  0.248250  0.761551  0.447433  1
  O  O26  1  0.251750  0.761551  0.947433  1
  O  O27  1  0.751750  0.238449  0.552567  1
  O  O28  1  0.166281  0.005576  0.102714  1
  O  O29  1  0.666281  0.994424  0.397286  1
  O  O30  1  0.833719  0.994424  0.897286  1
  O  O31  1  0.333719  0.005576  0.602714  1
  O  O32  1  0.196286  0.396747  0.096066  1
  O  O33  1  0.696286  0.603253  0.403934  1
  O  O34  1  0.803714  0.603253  0.903934  1
  O  O35  1  0.303714  0.396747  0.596066  1
