# generated using pymatgen
data_Np6TaVSb10
_symmetry_space_group_name_H-M   'P 1'
_cell_length_a   9.17354200
_cell_length_b   9.17354164
_cell_length_c   6.07593800
_cell_angle_alpha   90.00000000
_cell_angle_beta   90.00000000
_cell_angle_gamma   120.00000130
_symmetry_Int_Tables_number   1
_chemical_formula_structural   Np6TaVSb10
_chemical_formula_sum   'Np6 Ta1 V1 Sb10'
_cell_volume   442.81064230
_cell_formula_units_Z   1
loop_
 _symmetry_equiv_pos_site_id
 _symmetry_equiv_pos_as_xyz
  1  'x, y, z'
loop_
 _atom_site_type_symbol
 _atom_site_label
 _atom_site_symmetry_multiplicity
 _atom_site_fract_x
 _atom_site_fract_y
 _atom_site_fract_z
 _atom_site_occupancy
  Np  Np0  1  0.387219  0.387219  0.754848  1
  Np  Np1  1  0.612781  0.000000  0.754848  1
  Np  Np2  1  0.000000  0.612781  0.754848  1
  Np  Np3  1  0.612781  0.612781  0.245152  1
  Np  Np4  1  0.387219  0.000000  0.245152  1
  Np  Np5  1  0.000000  0.387219  0.245152  1
  Ta  Ta6  1  0.000000  0.000000  0.000000  1
  V  V7  1  0.000000  0.000000  0.500000  1
  Sb  Sb8  1  0.739259  0.739259  0.743426  1
  Sb  Sb9  1  0.260741  0.000000  0.743426  1
  Sb  Sb10  1  0.000000  0.260741  0.743426  1
  Sb  Sb11  1  0.260741  0.260741  0.256574  1
  Sb  Sb12  1  0.739259  0.000000  0.256574  1
  Sb  Sb13  1  0.000000  0.739259  0.256574  1
  Sb  Sb14  1  0.666667  0.333333  0.000000  1
  Sb  Sb15  1  0.333333  0.666667  0.000000  1
  Sb  Sb16  1  0.333333  0.666667  0.500000  1
  Sb  Sb17  1  0.666667  0.333333  0.500000  1
