# generated using pymatgen
data_Ho5Zr3(P3Pd4)4
_symmetry_space_group_name_H-M   'P 1'
_cell_length_a   13.13954800
_cell_length_b   13.13954769
_cell_length_c   3.98925600
_cell_angle_alpha   90.00000000
_cell_angle_beta   90.00000000
_cell_angle_gamma   120.00000079
_symmetry_Int_Tables_number   1
_chemical_formula_structural   Ho5Zr3(P3Pd4)4
_chemical_formula_sum   'Ho5 Zr3 P12 Pd16'
_cell_volume   596.46281840
_cell_formula_units_Z   1
loop_
 _symmetry_equiv_pos_site_id
 _symmetry_equiv_pos_as_xyz
  1  'x, y, z'
loop_
 _atom_site_type_symbol
 _atom_site_label
 _atom_site_symmetry_multiplicity
 _atom_site_fract_x
 _atom_site_fract_y
 _atom_site_fract_z
 _atom_site_occupancy
  Ho  Ho0  1  0.188167  0.188167  0.500000  1
  Ho  Ho1  1  0.811833  0.000000  0.500000  1
  Ho  Ho2  1  0.000000  0.811833  0.500000  1
  Ho  Ho3  1  0.333333  0.666667  0.000000  1
  Ho  Ho4  1  0.666667  0.333333  0.000000  1
  Zr  Zr5  1  0.553548  0.553548  0.000000  1
  Zr  Zr6  1  0.446452  0.000000  0.000000  1
  Zr  Zr7  1  0.000000  0.446452  0.000000  1
  P  P8  1  0.826472  0.826472  0.000000  1
  P  P9  1  0.173528  0.000000  0.000000  1
  P  P10  1  0.000000  0.173528  0.000000  1
  P  P11  1  0.165964  0.482208  0.500000  1
  P  P12  1  0.517792  0.683757  0.500000  1
  P  P13  1  0.316243  0.834036  0.500000  1
  P  P14  1  0.683757  0.517792  0.500000  1
  P  P15  1  0.834036  0.316243  0.500000  1
  P  P16  1  0.482208  0.165964  0.500000  1
  P  P17  1  0.356275  0.356275  0.000000  1
  P  P18  1  0.643725  0.000000  0.000000  1
  P  P19  1  0.000000  0.643725  0.000000  1
  Pd  Pd20  1  0.725749  0.725749  0.500000  1
  Pd  Pd21  1  0.274251  0.000000  0.500000  1
  Pd  Pd22  1  0.000000  0.274251  0.500000  1
  Pd  Pd23  1  0.182459  0.372749  0.000000  1
  Pd  Pd24  1  0.627251  0.809710  0.000000  1
  Pd  Pd25  1  0.190290  0.817541  0.000000  1
  Pd  Pd26  1  0.809710  0.627251  0.000000  1
  Pd  Pd27  1  0.817541  0.190290  0.000000  1
  Pd  Pd28  1  0.372749  0.182459  0.000000  1
  Pd  Pd29  1  0.356908  0.488154  0.500000  1
  Pd  Pd30  1  0.511846  0.868754  0.500000  1
  Pd  Pd31  1  0.131246  0.643092  0.500000  1
  Pd  Pd32  1  0.868754  0.511846  0.500000  1
  Pd  Pd33  1  0.643092  0.131246  0.500000  1
  Pd  Pd34  1  0.488154  0.356908  0.500000  1
  Pd  Pd35  1  0.000000  0.000000  0.000000  1
