# generated using pymatgen
data_Er4Si4IrRu3
_symmetry_space_group_name_H-M   'P 1'
_cell_length_a   4.27908900
_cell_length_b   6.92515777
_cell_length_c   7.18631873
_cell_angle_alpha   89.79085879
_cell_angle_beta   90.00000000
_cell_angle_gamma   90.00000000
_symmetry_Int_Tables_number   1
_chemical_formula_structural   Er4Si4IrRu3
_chemical_formula_sum   'Er4 Si4 Ir1 Ru3'
_cell_volume   212.95339744
_cell_formula_units_Z   1
loop_
 _symmetry_equiv_pos_site_id
 _symmetry_equiv_pos_as_xyz
  1  'x, y, z'
loop_
 _atom_site_type_symbol
 _atom_site_label
 _atom_site_symmetry_multiplicity
 _atom_site_fract_x
 _atom_site_fract_y
 _atom_site_fract_z
 _atom_site_occupancy
  Er  Er0  1  0.250000  0.989517  0.814622  1
  Er  Er1  1  0.750000  0.012881  0.187151  1
  Er  Er2  1  0.250000  0.490944  0.687245  1
  Er  Er3  1  0.750000  0.507226  0.312320  1
  Si  Si4  1  0.250000  0.302691  0.107104  1
  Si  Si5  1  0.750000  0.699387  0.894615  1
  Si  Si6  1  0.250000  0.800895  0.388450  1
  Si  Si7  1  0.750000  0.198524  0.608478  1
  Ir  Ir8  1  0.750000  0.842913  0.566015  1
  Ru  Ru9  1  0.250000  0.153241  0.435568  1
  Ru  Ru10  1  0.750000  0.345785  0.933715  1
  Ru  Ru11  1  0.250000  0.655996  0.064717  1
