# generated using pymatgen
data_Ta3Nb3Re6Si5B
_symmetry_space_group_name_H-M   'P 1'
_cell_length_a   7.50003589
_cell_length_b   7.53058272
_cell_length_c   7.50003487
_cell_angle_alpha   126.74621427
_cell_angle_beta   126.10512768
_cell_angle_gamma   79.09352258
_symmetry_Int_Tables_number   1
_chemical_formula_structural   Ta3Nb3Re6Si5B
_chemical_formula_sum   'Ta3 Nb3 Re6 Si5 B1'
_cell_volume   265.36427381
_cell_formula_units_Z   1
loop_
 _symmetry_equiv_pos_site_id
 _symmetry_equiv_pos_as_xyz
  1  'x, y, z'
loop_
 _atom_site_type_symbol
 _atom_site_label
 _atom_site_symmetry_multiplicity
 _atom_site_fract_x
 _atom_site_fract_y
 _atom_site_fract_z
 _atom_site_occupancy
  Ta  Ta0  1  0.547294  0.085544  0.038249  1
  Ta  Ta1  1  0.444268  0.493777  0.549510  1
  Ta  Ta2  1  0.953689  0.494953  0.041265  1
  Nb  Nb3  1  0.050393  0.099251  0.548858  1
  Nb  Nb4  1  0.752579  0.901819  0.649240  1
  Nb  Nb5  1  0.250821  0.904306  0.153486  1
  Re  Re6  1  0.520688  0.252056  0.770853  1
  Re  Re7  1  0.981204  0.252056  0.231368  1
  Re  Re8  1  0.103143  0.742553  0.597176  1
  Re  Re9  1  0.841146  0.495356  0.585092  1
  Re  Re10  1  0.645377  0.742553  0.139409  1
  Re  Re11  1  0.410265  0.495356  0.154210  1
  Si  Si12  1  0.241062  0.501316  0.760254  1
  Si  Si13  1  0.334385  0.828255  0.493211  1
  Si  Si14  1  0.666432  0.163920  0.494085  1
  Si  Si15  1  0.835044  0.828255  0.993871  1
  Si  Si16  1  0.169834  0.163920  0.997488  1
  B  B17  1  0.752378  0.496955  0.244577  1
