# generated using pymatgen
data_Er2Si6SnRh12
_symmetry_space_group_name_H-M   'P 1'
_cell_length_a   9.88744800
_cell_length_b   9.88744837
_cell_length_c   3.84901800
_cell_angle_alpha   90.00000000
_cell_angle_beta   90.00000000
_cell_angle_gamma   120.00000544
_symmetry_Int_Tables_number   1
_chemical_formula_structural   Er2Si6SnRh12
_chemical_formula_sum   'Er2 Si6 Sn1 Rh12'
_cell_volume   325.87345961
_cell_formula_units_Z   1
loop_
 _symmetry_equiv_pos_site_id
 _symmetry_equiv_pos_as_xyz
  1  'x, y, z'
loop_
 _atom_site_type_symbol
 _atom_site_label
 _atom_site_symmetry_multiplicity
 _atom_site_fract_x
 _atom_site_fract_y
 _atom_site_fract_z
 _atom_site_occupancy
  Er  Er0  1  0.333333  0.666667  0.752538  1
  Er  Er1  1  0.000000  0.000000  0.249086  1
  Si  Si2  1  0.957615  0.221430  0.747405  1
  Si  Si3  1  0.778570  0.736184  0.747405  1
  Si  Si4  1  0.263816  0.042385  0.747405  1
  Si  Si5  1  0.374452  0.444556  0.252494  1
  Si  Si6  1  0.555444  0.929897  0.252494  1
  Si  Si7  1  0.070103  0.625548  0.252494  1
  Sn  Sn8  1  0.666667  0.333333  0.603569  1
  Rh  Rh9  1  0.735172  0.953351  0.750092  1
  Rh  Rh10  1  0.046649  0.781820  0.750092  1
  Rh  Rh11  1  0.218180  0.264828  0.750092  1
  Rh  Rh12  1  0.604805  0.719417  0.250206  1
  Rh  Rh13  1  0.280583  0.885389  0.250206  1
  Rh  Rh14  1  0.114611  0.395195  0.250206  1
  Rh  Rh15  1  0.955785  0.464505  0.753829  1
  Rh  Rh16  1  0.535495  0.491280  0.753829  1
  Rh  Rh17  1  0.508720  0.044215  0.753829  1
  Rh  Rh18  1  0.395646  0.210287  0.245637  1
  Rh  Rh19  1  0.789713  0.185359  0.245637  1
  Rh  Rh20  1  0.814641  0.604354  0.245637  1
