# generated using pymatgen
data_DyY5MnB14Ru
_symmetry_space_group_name_H-M   'P 1'
_cell_length_a   8.05147408
_cell_length_b   8.05147461
_cell_length_c   9.31525407
_cell_angle_alpha   89.98605195
_cell_angle_beta   90.01394870
_cell_angle_gamma   155.00660258
_symmetry_Int_Tables_number   1
_chemical_formula_structural   DyY5MnB14Ru
_chemical_formula_sum   'Dy1 Y5 Mn1 B14 Ru1'
_cell_volume   255.14463233
_cell_formula_units_Z   1
loop_
 _symmetry_equiv_pos_site_id
 _symmetry_equiv_pos_as_xyz
  1  'x, y, z'
loop_
 _atom_site_type_symbol
 _atom_site_label
 _atom_site_symmetry_multiplicity
 _atom_site_fract_x
 _atom_site_fract_y
 _atom_site_fract_z
 _atom_site_occupancy
  Dy  Dy0  1  0.894943  0.105057  0.442562  1
  Y  Y1  1  0.104593  0.895407  0.563550  1
  Y  Y2  1  0.894811  0.105189  0.057787  1
  Y  Y3  1  0.104644  0.895356  0.936494  1
  Y  Y4  1  0.243863  0.756137  0.250079  1
  Y  Y5  1  0.759241  0.240759  0.750036  1
  Mn  Mn6  1  0.946729  0.053271  0.749837  1
  B  B7  1  0.727089  0.272911  0.466403  1
  B  B8  1  0.272471  0.727529  0.533804  1
  B  B9  1  0.727029  0.272971  0.033573  1
  B  B10  1  0.272373  0.727627  0.966114  1
  B  B11  1  0.631490  0.368510  0.150700  1
  B  B12  1  0.370187  0.629813  0.846250  1
  B  B13  1  0.631489  0.368511  0.349303  1
  B  B14  1  0.370223  0.629777  0.653533  1
  B  B15  1  0.520574  0.479426  0.096028  1
  B  B16  1  0.478310  0.521690  0.901417  1
  B  B17  1  0.520440  0.479560  0.403885  1
  B  B18  1  0.478184  0.521816  0.598452  1
  B  B19  1  0.457415  0.542585  0.250185  1
  B  B20  1  0.539856  0.460144  0.749972  1
  Ru  Ru21  1  0.054046  0.945954  0.250038  1
