# generated using pymatgen
data_Tb4Er4Sc12Si15Tc
_symmetry_space_group_name_H-M   'P 1'
_cell_length_a   7.08231864
_cell_length_b   7.44301052
_cell_length_c   13.92696830
_cell_angle_alpha   90.00942856
_cell_angle_beta   89.97818726
_cell_angle_gamma   90.17152937
_symmetry_Int_Tables_number   1
_chemical_formula_structural   Tb4Er4Sc12Si15Tc
_chemical_formula_sum   'Tb4 Er4 Sc12 Si15 Tc1'
_cell_volume   734.13968111
_cell_formula_units_Z   1
loop_
 _symmetry_equiv_pos_site_id
 _symmetry_equiv_pos_as_xyz
  1  'x, y, z'
loop_
 _atom_site_type_symbol
 _atom_site_label
 _atom_site_symmetry_multiplicity
 _atom_site_fract_x
 _atom_site_fract_y
 _atom_site_fract_z
 _atom_site_occupancy
  Tb  Tb0  1  0.511479  0.323578  0.094576  1
  Tb  Tb1  1  0.011726  0.178811  0.405147  1
  Tb  Tb2  1  0.511457  0.323602  0.404206  1
  Tb  Tb3  1  0.489128  0.675090  0.596075  1
  Er  Er4  1  0.012451  0.179452  0.095181  1
  Er  Er5  1  0.990169  0.826265  0.904415  1
  Er  Er6  1  0.488572  0.676450  0.903490  1
  Er  Er7  1  0.990066  0.826578  0.596635  1
  Sc  Sc8  1  0.156720  0.499659  0.750442  1
  Sc  Sc9  1  0.838897  0.495783  0.249672  1
  Sc  Sc10  1  0.339992  0.006580  0.249515  1
  Sc  Sc11  1  0.666513  0.997067  0.750287  1
  Sc  Sc12  1  0.314542  0.169999  0.628660  1
  Sc  Sc13  1  0.673216  0.827700  0.373766  1
  Sc  Sc14  1  0.172041  0.678730  0.373806  1
  Sc  Sc15  1  0.672909  0.826736  0.125333  1
  Sc  Sc16  1  0.836922  0.320082  0.628246  1
  Sc  Sc17  1  0.313610  0.169815  0.872018  1
  Sc  Sc18  1  0.837837  0.318676  0.872699  1
  Sc  Sc19  1  0.172142  0.678669  0.125556  1
  Si  Si20  1  0.969389  0.886143  0.249335  1
  Si  Si21  1  0.470556  0.615741  0.249619  1
  Si  Si22  1  0.528571  0.386847  0.750935  1
  Si  Si23  1  0.284831  0.864777  0.750728  1
  Si  Si24  1  0.714885  0.130107  0.249022  1
  Si  Si25  1  0.214614  0.371123  0.249179  1
  Si  Si26  1  0.780254  0.628346  0.751071  1
  Si  Si27  1  0.158849  0.469599  0.537548  1
  Si  Si28  1  0.845391  0.538323  0.462109  1
  Si  Si29  1  0.345254  0.965414  0.460158  1
  Si  Si30  1  0.845979  0.536491  0.038139  1
  Si  Si31  1  0.655445  0.033899  0.539648  1
  Si  Si32  1  0.160735  0.468989  0.962644  1
  Si  Si33  1  0.654718  0.032213  0.960194  1
  Si  Si34  1  0.343662  0.965101  0.039694  1
  Tc  Tc35  1  0.026476  0.107564  0.750254  1
