# generated using pymatgen
data_BaDyAl6Si4Au
_symmetry_space_group_name_H-M   'P 1'
_cell_length_a   4.24103449
_cell_length_b   4.23282597
_cell_length_c   18.08352272
_cell_angle_alpha   89.99846545
_cell_angle_beta   96.45450398
_cell_angle_gamma   119.93462500
_symmetry_Int_Tables_number   1
_chemical_formula_structural   BaDyAl6Si4Au
_chemical_formula_sum   'Ba1 Dy1 Al6 Si4 Au1'
_cell_volume   278.94426256
_cell_formula_units_Z   1
loop_
 _symmetry_equiv_pos_site_id
 _symmetry_equiv_pos_as_xyz
  1  'x, y, z'
loop_
 _atom_site_type_symbol
 _atom_site_label
 _atom_site_symmetry_multiplicity
 _atom_site_fract_x
 _atom_site_fract_y
 _atom_site_fract_z
 _atom_site_occupancy
  Ba  Ba0  1  0.869055  0.434536  0.301736  1
  Dy  Dy1  1  0.134167  0.567086  0.703647  1
  Al  Al2  1  0.356843  0.678394  0.036128  1
  Al  Al3  1  0.095402  0.047705  0.136363  1
  Al  Al4  1  0.642783  0.821404  0.463887  1
  Al  Al5  1  0.380529  0.190274  0.569972  1
  Al  Al6  1  0.890975  0.945486  0.842155  1
  Al  Al7  1  0.627913  0.313944  0.943655  1
  Si  Si8  1  0.456530  0.728272  0.178461  1
  Si  Si9  1  0.286495  0.143261  0.429074  1
  Si  Si10  1  0.739392  0.869700  0.609313  1
  Si  Si11  1  0.529017  0.264507  0.797971  1
  Au  Au12  1  0.990899  0.995429  0.987641  1
