# generated using pymatgen
data_Be2V16FeCoTe16
_symmetry_space_group_name_H-M   'P 1'
_cell_length_a   4.54228200
_cell_length_b   10.38224100
_cell_length_c   18.22232100
_cell_angle_alpha   90.00229824
_cell_angle_beta   90.00000000
_cell_angle_gamma   90.00000000
_symmetry_Int_Tables_number   1
_chemical_formula_structural   Be2V16FeCoTe16
_chemical_formula_sum   'Be2 V16 Fe1 Co1 Te16'
_cell_volume   859.34764595
_cell_formula_units_Z   1
loop_
 _symmetry_equiv_pos_site_id
 _symmetry_equiv_pos_as_xyz
  1  'x, y, z'
loop_
 _atom_site_type_symbol
 _atom_site_label
 _atom_site_symmetry_multiplicity
 _atom_site_fract_x
 _atom_site_fract_y
 _atom_site_fract_z
 _atom_site_occupancy
  Be  Be0  1  0.250048  0.500000  0.500000  1
  Be  Be1  1  0.749952  0.000000  0.000000  1
  V  V2  1  0.494020  0.594429  0.604051  1
  V  V3  1  0.494020  0.405571  0.395949  1
  V  V4  1  0.505269  0.093639  0.896359  1
  V  V5  1  0.505269  0.906361  0.103641  1
  V  V6  1  0.008122  0.302416  0.464134  1
  V  V7  1  0.008122  0.697584  0.535866  1
  V  V8  1  0.994198  0.803742  0.035728  1
  V  V9  1  0.994198  0.196258  0.964272  1
  V  V10  1  0.492440  0.315482  0.553794  1
  V  V11  1  0.492440  0.684518  0.446206  1
  V  V12  1  0.505852  0.816801  0.946341  1
  V  V13  1  0.505852  0.183199  0.053659  1
  V  V14  1  0.005010  0.436585  0.611322  1
  V  V15  1  0.005010  0.563415  0.388678  1
  V  V16  1  0.995168  0.937038  0.889176  1
  V  V17  1  0.995168  0.062962  0.110824  1
  Fe  Fe18  1  0.249903  0.000000  0.000000  1
  Co  Co19  1  0.750011  0.500000  0.500000  1
  Te  Te20  1  0.991731  0.664935  0.683105  1
  Te  Te21  1  0.991731  0.335065  0.316895  1
  Te  Te22  1  0.006363  0.164860  0.816739  1
  Te  Te23  1  0.006363  0.835140  0.183261  1
  Te  Te24  1  0.507207  0.389572  0.696070  1
  Te  Te25  1  0.507207  0.610428  0.303930  1
  Te  Te26  1  0.494321  0.889500  0.803701  1
  Te  Te27  1  0.494321  0.110500  0.196299  1
  Te  Te28  1  0.509580  0.154260  0.436667  1
  Te  Te29  1  0.509580  0.845740  0.563333  1
  Te  Te30  1  0.493859  0.654471  0.063297  1
  Te  Te31  1  0.493859  0.345529  0.936703  1
  Te  Te32  1  0.006257  0.323079  0.094430  1
  Te  Te33  1  0.006257  0.676921  0.905570  1
  Te  Te34  1  0.990647  0.823129  0.405559  1
  Te  Te35  1  0.990647  0.176871  0.594441  1
