# generated using pymatgen
data_Sm4CrB16Mo3
_symmetry_space_group_name_H-M   'P 1'
_cell_length_a   3.63691500
_cell_length_b   6.06258332
_cell_length_c   11.72308550
_cell_angle_alpha   89.89964653
_cell_angle_beta   90.00000000
_cell_angle_gamma   90.00000000
_symmetry_Int_Tables_number   1
_chemical_formula_structural   Sm4CrB16Mo3
_chemical_formula_sum   'Sm4 Cr1 B16 Mo3'
_cell_volume   258.48309064
_cell_formula_units_Z   1
loop_
 _symmetry_equiv_pos_site_id
 _symmetry_equiv_pos_as_xyz
  1  'x, y, z'
loop_
 _atom_site_type_symbol
 _atom_site_label
 _atom_site_symmetry_multiplicity
 _atom_site_fract_x
 _atom_site_fract_y
 _atom_site_fract_z
 _atom_site_occupancy
  Sm  Sm0  1  0.000000  0.625309  0.351818  1
  Sm  Sm1  1  0.000000  0.377049  0.649166  1
  Sm  Sm2  1  0.000000  0.125534  0.151025  1
  Sm  Sm3  1  0.000000  0.874391  0.846722  1
  Cr  Cr4  1  0.000000  0.875616  0.580168  1
  B  B5  1  0.500000  0.783352  0.186405  1
  B  B6  1  0.500000  0.215666  0.813077  1
  B  B7  1  0.500000  0.282465  0.315643  1
  B  B8  1  0.500000  0.721899  0.681964  1
  B  B9  1  0.500000  0.865181  0.031943  1
  B  B10  1  0.500000  0.134722  0.967365  1
  B  B11  1  0.500000  0.363878  0.469104  1
  B  B12  1  0.500000  0.639252  0.533636  1
  B  B13  1  0.500000  0.884421  0.456282  1
  B  B14  1  0.500000  0.109121  0.548816  1
  B  B15  1  0.500000  0.386640  0.046367  1
  B  B16  1  0.500000  0.613564  0.952779  1
  B  B17  1  0.500000  0.973942  0.309299  1
  B  B18  1  0.500000  0.022251  0.690206  1
  B  B19  1  0.500000  0.474109  0.192678  1
  B  B20  1  0.500000  0.526696  0.806567  1
  Mo  Mo21  1  0.000000  0.628104  0.083280  1
  Mo  Mo22  1  0.000000  0.372201  0.915793  1
  Mo  Mo23  1  0.000000  0.124638  0.419898  1
