# generated using pymatgen
data_Yb2(Ga3Pd)3
_symmetry_space_group_name_H-M   'P 1'
_cell_length_a   7.69449700
_cell_length_b   7.69449629
_cell_length_c   9.53407200
_cell_angle_alpha   90.00000000
_cell_angle_beta   90.00000000
_cell_angle_gamma   119.68852150
_symmetry_Int_Tables_number   1
_chemical_formula_structural   Yb2(Ga3Pd)3
_chemical_formula_sum   'Yb4 Ga18 Pd6'
_cell_volume   490.37018152
_cell_formula_units_Z   2
loop_
 _symmetry_equiv_pos_site_id
 _symmetry_equiv_pos_as_xyz
  1  'x, y, z'
loop_
 _atom_site_type_symbol
 _atom_site_label
 _atom_site_symmetry_multiplicity
 _atom_site_fract_x
 _atom_site_fract_y
 _atom_site_fract_z
 _atom_site_occupancy
  Yb  Yb0  1  0.997641  0.668983  0.250000  1
  Yb  Yb1  1  0.002359  0.331017  0.750000  1
  Yb  Yb2  1  0.668983  0.997641  0.250000  1
  Yb  Yb3  1  0.331017  0.002359  0.750000  1
  Ga  Ga4  1  0.127440  0.127440  0.250000  1
  Ga  Ga5  1  0.872560  0.872560  0.750000  1
  Ga  Ga6  1  0.997786  0.334706  0.080690  1
  Ga  Ga7  1  0.002214  0.665294  0.919310  1
  Ga  Ga8  1  0.002214  0.665294  0.580690  1
  Ga  Ga9  1  0.334706  0.997786  0.419310  1
  Ga  Ga10  1  0.997786  0.334706  0.419310  1
  Ga  Ga11  1  0.665294  0.002214  0.580690  1
  Ga  Ga12  1  0.665294  0.002214  0.919310  1
  Ga  Ga13  1  0.334706  0.997786  0.080690  1
  Ga  Ga14  1  0.330290  0.330290  0.567204  1
  Ga  Ga15  1  0.669710  0.669711  0.432796  1
  Ga  Ga16  1  0.669710  0.669711  0.067204  1
  Ga  Ga17  1  0.330290  0.330290  0.932796  1
  Ga  Ga18  1  0.338151  0.544551  0.250000  1
  Ga  Ga19  1  0.661849  0.455449  0.750000  1
  Ga  Ga20  1  0.544551  0.338151  0.250000  1
  Ga  Ga21  1  0.455449  0.661849  0.750000  1
  Pd  Pd22  1  0.669984  0.330016  0.000000  1
  Pd  Pd23  1  0.330016  0.669984  0.000000  1
  Pd  Pd24  1  0.330016  0.669984  0.500000  1
  Pd  Pd25  1  0.669984  0.330016  0.500000  1
  Pd  Pd26  1  0.000000  0.000000  0.000000  1
  Pd  Pd27  1  0.000000  0.000000  0.500000  1
