# generated using pymatgen
data_TbHoNi2(B4Os3)2
_symmetry_space_group_name_H-M   'P 1'
_cell_length_a   7.55778040
_cell_length_b   7.24955566
_cell_length_c   4.00503200
_cell_angle_alpha   90.00000000
_cell_angle_beta   90.00000000
_cell_angle_gamma   87.55118362
_symmetry_Int_Tables_number   1
_chemical_formula_structural   TbHoNi2(B4Os3)2
_chemical_formula_sum   'Tb1 Ho1 Ni2 B8 Os6'
_cell_volume   219.23751186
_cell_formula_units_Z   1
loop_
 _symmetry_equiv_pos_site_id
 _symmetry_equiv_pos_as_xyz
  1  'x, y, z'
loop_
 _atom_site_type_symbol
 _atom_site_label
 _atom_site_symmetry_multiplicity
 _atom_site_fract_x
 _atom_site_fract_y
 _atom_site_fract_z
 _atom_site_occupancy
  Tb  Tb0  1  0.000000  0.000000  0.011257  1
  Ho  Ho1  1  0.500000  0.500000  0.615015  1
  Ni  Ni2  1  0.136091  0.383752  0.879220  1
  Ni  Ni3  1  0.863909  0.616248  0.879220  1
  B  B4  1  0.674078  0.781125  0.106016  1
  B  B5  1  0.325922  0.218875  0.106016  1
  B  B6  1  0.281094  0.834986  0.603020  1
  B  B7  1  0.718906  0.165014  0.603020  1
  B  B8  1  0.844541  0.691007  0.381532  1
  B  B9  1  0.155459  0.308993  0.381532  1
  B  B10  1  0.203812  0.669976  0.880610  1
  B  B11  1  0.796188  0.330024  0.880610  1
  Os  Os12  1  0.879289  0.368264  0.373585  1
  Os  Os13  1  0.120711  0.631736  0.373585  1
  Os  Os14  1  0.346912  0.116170  0.607392  1
  Os  Os15  1  0.653088  0.883830  0.607392  1
  Os  Os16  1  0.603170  0.151850  0.105488  1
  Os  Os17  1  0.396830  0.848150  0.105488  1
