# generated using pymatgen
data_P(S8Cl)3
_symmetry_space_group_name_H-M   'P 1'
_cell_length_a   14.97068080
_cell_length_b   14.97068183
_cell_length_c   14.97068084
_cell_angle_alpha   118.67377902
_cell_angle_beta   118.67378152
_cell_angle_gamma   118.67378136
_symmetry_Int_Tables_number   1
_chemical_formula_structural   P(S8Cl)3
_chemical_formula_sum   'P1 S24 Cl3'
_cell_volume   997.44203871
_cell_formula_units_Z   1
loop_
 _symmetry_equiv_pos_site_id
 _symmetry_equiv_pos_as_xyz
  1  'x, y, z'
loop_
 _atom_site_type_symbol
 _atom_site_label
 _atom_site_symmetry_multiplicity
 _atom_site_fract_x
 _atom_site_fract_y
 _atom_site_fract_z
 _atom_site_occupancy
  P  P0  1  0.798375  0.798375  0.798375  1
  S  S1  1  0.803209  0.521971  0.521971  1
  S  S2  1  0.521971  0.521971  0.803209  1
  S  S3  1  0.521971  0.803209  0.521971  1
  S  S4  1  0.247248  0.377581  0.636011  1
  S  S5  1  0.351365  0.951984  0.351365  1
  S  S6  1  0.351365  0.351365  0.951984  1
  S  S7  1  0.951984  0.351365  0.351365  1
  S  S8  1  0.127147  0.740967  0.257283  1
  S  S9  1  0.257283  0.127147  0.740967  1
  S  S10  1  0.740967  0.257283  0.127147  1
  S  S11  1  0.740967  0.127147  0.257283  1
  S  S12  1  0.257283  0.740967  0.127147  1
  S  S13  1  0.127147  0.257283  0.740967  1
  S  S14  1  0.346238  0.879071  0.530156  1
  S  S15  1  0.530156  0.346238  0.879071  1
  S  S16  1  0.879071  0.530156  0.346238  1
  S  S17  1  0.879071  0.346238  0.530156  1
  S  S18  1  0.530156  0.879071  0.346238  1
  S  S19  1  0.346238  0.530156  0.879071  1
  S  S20  1  0.247248  0.636011  0.377581  1
  S  S21  1  0.377581  0.247248  0.636011  1
  S  S22  1  0.636011  0.377581  0.247248  1
  S  S23  1  0.636011  0.247248  0.377581  1
  S  S24  1  0.377581  0.636011  0.247248  1
  Cl  Cl25  1  0.898087  0.021783  0.021783  1
  Cl  Cl26  1  0.021783  0.021783  0.898087  1
  Cl  Cl27  1  0.021783  0.898087  0.021783  1
