# generated using pymatgen
data_YEr4Lu(Sb4Au3)2
_symmetry_space_group_name_H-M   'P 1'
_cell_length_a   8.58098774
_cell_length_b   8.58098805
_cell_length_c   8.58098774
_cell_angle_alpha   109.47207022
_cell_angle_beta   109.46952002
_cell_angle_gamma   109.47207024
_symmetry_Int_Tables_number   1
_chemical_formula_structural   YEr4Lu(Sb4Au3)2
_chemical_formula_sum   'Y1 Er4 Lu1 Sb8 Au6'
_cell_volume   486.39597999
_cell_formula_units_Z   1
loop_
 _symmetry_equiv_pos_site_id
 _symmetry_equiv_pos_as_xyz
  1  'x, y, z'
loop_
 _atom_site_type_symbol
 _atom_site_label
 _atom_site_symmetry_multiplicity
 _atom_site_fract_x
 _atom_site_fract_y
 _atom_site_fract_z
 _atom_site_occupancy
  Y  Y0  1  0.875000  0.250000  0.125000  1
  Er  Er1  1  0.249887  0.124940  0.874870  1
  Er  Er2  1  0.749929  0.375060  0.624947  1
  Er  Er3  1  0.125130  0.875018  0.250071  1
  Er  Er4  1  0.375053  0.624982  0.750113  1
  Lu  Lu5  1  0.625000  0.750000  0.375000  1
  Sb  Sb6  1  0.678362  0.499080  0.999745  1
  Sb  Sb7  1  0.500665  0.000920  0.679283  1
  Sb  Sb8  1  0.000249  0.679322  0.499750  1
  Sb  Sb9  1  0.820428  0.820678  0.820927  1
  Sb  Sb10  1  0.500250  0.000499  0.179572  1
  Sb  Sb11  1  0.179073  0.499501  0.999751  1
  Sb  Sb12  1  0.000255  0.178617  0.499335  1
  Sb  Sb13  1  0.320717  0.321383  0.321638  1
  Au  Au14  1  0.375000  0.250000  0.625000  1
  Au  Au15  1  0.125000  0.750000  0.875000  1
  Au  Au16  1  0.254273  0.628176  0.376503  1
  Au  Au17  1  0.748327  0.871824  0.126097  1
  Au  Au18  1  0.623497  0.377770  0.251673  1
  Au  Au19  1  0.873903  0.122230  0.745727  1
