# generated using pymatgen
data_DyNi4MoP3
_symmetry_space_group_name_H-M   'P 1'
_cell_length_a   3.68339700
_cell_length_b   10.55159700
_cell_length_c   12.10772200
_cell_angle_alpha   90.00000000
_cell_angle_beta   90.00000000
_cell_angle_gamma   90.00000000
_symmetry_Int_Tables_number   1
_chemical_formula_structural   DyNi4MoP3
_chemical_formula_sum   'Dy4 Ni16 Mo4 P12'
_cell_volume   470.57534199
_cell_formula_units_Z   4
loop_
 _symmetry_equiv_pos_site_id
 _symmetry_equiv_pos_as_xyz
  1  'x, y, z'
loop_
 _atom_site_type_symbol
 _atom_site_label
 _atom_site_symmetry_multiplicity
 _atom_site_fract_x
 _atom_site_fract_y
 _atom_site_fract_z
 _atom_site_occupancy
  Dy  Dy0  1  0.250000  0.584881  0.706853  1
  Dy  Dy1  1  0.250000  0.915119  0.206853  1
  Dy  Dy2  1  0.750000  0.415119  0.293147  1
  Dy  Dy3  1  0.750000  0.084881  0.793147  1
  Ni  Ni4  1  0.250000  0.409652  0.487847  1
  Ni  Ni5  1  0.250000  0.090348  0.987847  1
  Ni  Ni6  1  0.750000  0.590348  0.512153  1
  Ni  Ni7  1  0.750000  0.909652  0.012153  1
  Ni  Ni8  1  0.250000  0.220119  0.176841  1
  Ni  Ni9  1  0.250000  0.279881  0.676841  1
  Ni  Ni10  1  0.750000  0.779881  0.823159  1
  Ni  Ni11  1  0.750000  0.720119  0.323159  1
  Ni  Ni12  1  0.250000  0.884124  0.703664  1
  Ni  Ni13  1  0.250000  0.615876  0.203664  1
  Ni  Ni14  1  0.750000  0.115876  0.296336  1
  Ni  Ni15  1  0.750000  0.384124  0.796336  1
  Ni  Ni16  1  0.250000  0.464482  0.931398  1
  Ni  Ni17  1  0.250000  0.035518  0.431398  1
  Ni  Ni18  1  0.750000  0.535518  0.068602  1
  Ni  Ni19  1  0.750000  0.964482  0.568602  1
  Mo  Mo20  1  0.250000  0.708953  0.988005  1
  Mo  Mo21  1  0.250000  0.791047  0.488005  1
  Mo  Mo22  1  0.750000  0.291047  0.011995  1
  Mo  Mo23  1  0.750000  0.208953  0.511995  1
  P  P24  1  0.250000  0.420383  0.114094  1
  P  P25  1  0.250000  0.079617  0.614094  1
  P  P26  1  0.750000  0.579617  0.885906  1
  P  P27  1  0.750000  0.920383  0.385906  1
  P  P28  1  0.250000  0.267475  0.866379  1
  P  P29  1  0.250000  0.232525  0.366379  1
  P  P30  1  0.750000  0.732525  0.133621  1
  P  P31  1  0.750000  0.767475  0.633621  1
  P  P32  1  0.250000  0.597339  0.389690  1
  P  P33  1  0.250000  0.902661  0.889690  1
  P  P34  1  0.750000  0.402661  0.610310  1
  P  P35  1  0.750000  0.097339  0.110310  1
