# generated using pymatgen
data_AcLu5CuRh17
_symmetry_space_group_name_H-M   'P 1'
_cell_length_a   5.23294200
_cell_length_b   5.23314086
_cell_length_c   17.34043400
_cell_angle_alpha   90.00000000
_cell_angle_beta   90.00000000
_cell_angle_gamma   120.00067724
_symmetry_Int_Tables_number   1
_chemical_formula_structural   AcLu5CuRh17
_chemical_formula_sum   'Ac1 Lu5 Cu1 Rh17'
_cell_volume   411.24059321
_cell_formula_units_Z   1
loop_
 _symmetry_equiv_pos_site_id
 _symmetry_equiv_pos_as_xyz
  1  'x, y, z'
loop_
 _atom_site_type_symbol
 _atom_site_label
 _atom_site_symmetry_multiplicity
 _atom_site_fract_x
 _atom_site_fract_y
 _atom_site_fract_z
 _atom_site_occupancy
  Ac  Ac0  1  0.666664  0.333314  0.250000  1
  Lu  Lu1  1  0.333331  0.666679  0.957205  1
  Lu  Lu2  1  0.666656  0.333337  0.038444  1
  Lu  Lu3  1  0.666656  0.333337  0.461556  1
  Lu  Lu4  1  0.333331  0.666679  0.542795  1
  Lu  Lu5  1  0.333363  0.666652  0.750000  1
  Cu  Cu6  1  0.333375  0.666481  0.250000  1
  Rh  Rh7  1  0.169155  0.830852  0.376963  1
  Rh  Rh8  1  0.169124  0.338266  0.376963  1
  Rh  Rh9  1  0.661717  0.830858  0.376967  1
  Rh  Rh10  1  0.832403  0.167597  0.624114  1
  Rh  Rh11  1  0.832412  0.664882  0.624131  1
  Rh  Rh12  1  0.335147  0.167610  0.624121  1
  Rh  Rh13  1  0.832403  0.167597  0.875886  1
  Rh  Rh14  1  0.832412  0.664882  0.875869  1
  Rh  Rh15  1  0.335147  0.167610  0.875879  1
  Rh  Rh16  1  0.169155  0.830852  0.123037  1
  Rh  Rh17  1  0.169124  0.338266  0.123037  1
  Rh  Rh18  1  0.661717  0.830858  0.123033  1
  Rh  Rh19  1  0.666703  0.333323  0.750000  1
  Rh  Rh20  1  0.999990  0.999996  0.250000  1
  Rh  Rh21  1  0.000014  0.000070  0.750000  1
  Rh  Rh22  1  0.999999  0.000001  0.498818  1
  Rh  Rh23  1  0.999999  0.000001  0.001182  1
