# generated using pymatgen
data_Tb8Hf12Si15Ge
_symmetry_space_group_name_H-M   'P 1'
_cell_length_a   7.29114317
_cell_length_b   7.29758174
_cell_length_c   13.39572194
_cell_angle_alpha   89.92445980
_cell_angle_beta   89.99259550
_cell_angle_gamma   89.97645671
_symmetry_Int_Tables_number   1
_chemical_formula_structural   Tb8Hf12Si15Ge
_chemical_formula_sum   'Tb8 Hf12 Si15 Ge1'
_cell_volume   712.75504615
_cell_formula_units_Z   1
loop_
 _symmetry_equiv_pos_site_id
 _symmetry_equiv_pos_as_xyz
  1  'x, y, z'
loop_
 _atom_site_type_symbol
 _atom_site_label
 _atom_site_symmetry_multiplicity
 _atom_site_fract_x
 _atom_site_fract_y
 _atom_site_fract_z
 _atom_site_occupancy
  Tb  Tb0  1  0.995011  0.343957  0.214684  1
  Tb  Tb1  1  0.003850  0.656123  0.715224  1
  Tb  Tb2  1  0.154997  0.497543  0.466022  1
  Tb  Tb3  1  0.504186  0.843492  0.034558  1
  Tb  Tb4  1  0.843949  0.503953  0.964981  1
  Tb  Tb5  1  0.496640  0.155589  0.535632  1
  Tb  Tb6  1  0.343786  0.996161  0.784857  1
  Tb  Tb7  1  0.657035  0.002849  0.284652  1
  Hf  Hf8  1  0.174357  0.174642  0.999892  1
  Hf  Hf9  1  0.825525  0.825678  0.500176  1
  Hf  Hf10  1  0.325576  0.676841  0.249520  1
  Hf  Hf11  1  0.674542  0.325539  0.749976  1
  Hf  Hf12  1  0.148437  0.994134  0.374262  1
  Hf  Hf13  1  0.850422  0.004305  0.874321  1
  Hf  Hf14  1  0.504294  0.649647  0.624398  1
  Hf  Hf15  1  0.350362  0.495691  0.875659  1
  Hf  Hf16  1  0.495762  0.350365  0.123278  1
  Hf  Hf17  1  0.651934  0.506229  0.376297  1
  Hf  Hf18  1  0.995488  0.149693  0.625784  1
  Hf  Hf19  1  0.003832  0.850108  0.125453  1
  Si  Si20  1  0.636651  0.705086  0.816956  1
  Si  Si21  1  0.204919  0.863413  0.567074  1
  Si  Si22  1  0.136687  0.795010  0.932850  1
  Si  Si23  1  0.794973  0.136679  0.066884  1
  Si  Si24  1  0.863333  0.204682  0.433023  1
  Si  Si25  1  0.295111  0.363328  0.683002  1
  Si  Si26  1  0.704706  0.636452  0.182932  1
  Si  Si27  1  0.294840  0.045921  0.183861  1
  Si  Si28  1  0.705011  0.951247  0.685552  1
  Si  Si29  1  0.451485  0.795134  0.435504  1
  Si  Si30  1  0.204906  0.548464  0.064549  1
  Si  Si31  1  0.548653  0.204838  0.935198  1
  Si  Si32  1  0.794927  0.451378  0.564775  1
  Si  Si33  1  0.048517  0.295059  0.814465  1
  Si  Si34  1  0.951525  0.704584  0.314454  1
  Ge  Ge35  1  0.363772  0.296186  0.319294  1
