# generated using pymatgen
data_Pr4CdIn3
_symmetry_space_group_name_H-M   'P 1'
_cell_length_a   3.83719500
_cell_length_b   3.83719500
_cell_length_c   16.25323600
_cell_angle_alpha   90.00000000
_cell_angle_beta   90.00000000
_cell_angle_gamma   90.00000000
_symmetry_Int_Tables_number   1
_chemical_formula_structural   Pr4CdIn3
_chemical_formula_sum   'Pr4 Cd1 In3'
_cell_volume   239.31371093
_cell_formula_units_Z   1
loop_
 _symmetry_equiv_pos_site_id
 _symmetry_equiv_pos_as_xyz
  1  'x, y, z'
loop_
 _atom_site_type_symbol
 _atom_site_label
 _atom_site_symmetry_multiplicity
 _atom_site_fract_x
 _atom_site_fract_y
 _atom_site_fract_z
 _atom_site_occupancy
  Pr  Pr0  1  0.500000  0.500000  0.122034  1
  Pr  Pr1  1  0.500000  0.500000  0.373146  1
  Pr  Pr2  1  0.500000  0.500000  0.626854  1
  Pr  Pr3  1  0.500000  0.500000  0.877966  1
  Cd  Cd4  1  0.000000  0.000000  0.000000  1
  In  In5  1  0.000000  0.000000  0.245739  1
  In  In6  1  0.000000  0.000000  0.500000  1
  In  In7  1  0.000000  0.000000  0.754261  1
