# generated using pymatgen
data_HfMo(PRu)2
_symmetry_space_group_name_H-M   'P 1'
_cell_length_a   3.91191900
_cell_length_b   6.20610572
_cell_length_c   7.14126633
_cell_angle_alpha   89.96856821
_cell_angle_beta   90.00000000
_cell_angle_gamma   90.00000000
_symmetry_Int_Tables_number   1
_chemical_formula_structural   HfMo(PRu)2
_chemical_formula_sum   'Hf2 Mo2 P4 Ru4'
_cell_volume   173.37408720
_cell_formula_units_Z   2
loop_
 _symmetry_equiv_pos_site_id
 _symmetry_equiv_pos_as_xyz
  1  'x, y, z'
loop_
 _atom_site_type_symbol
 _atom_site_label
 _atom_site_symmetry_multiplicity
 _atom_site_fract_x
 _atom_site_fract_y
 _atom_site_fract_z
 _atom_site_occupancy
  Hf  Hf0  1  0.250000  0.028585  0.812322  1
  Hf  Hf1  1  0.750000  0.971415  0.187678  1
  Mo  Mo2  1  0.250000  0.523338  0.664221  1
  Mo  Mo3  1  0.750000  0.476662  0.335779  1
  P  P4  1  0.250000  0.283295  0.129276  1
  P  P5  1  0.750000  0.716705  0.870724  1
  P  P6  1  0.250000  0.752038  0.387973  1
  P  P7  1  0.750000  0.247962  0.612027  1
  Ru  Ru8  1  0.750000  0.853108  0.567348  1
  Ru  Ru9  1  0.250000  0.146892  0.432652  1
  Ru  Ru10  1  0.750000  0.348682  0.943714  1
  Ru  Ru11  1  0.250000  0.651318  0.056286  1
