# generated using pymatgen
data_Ac2Ce(InAu)3
_symmetry_space_group_name_H-M   'P 1'
_cell_length_a   8.13150400
_cell_length_b   8.13150477
_cell_length_c   4.25933400
_cell_angle_alpha   90.00000000
_cell_angle_beta   90.00000000
_cell_angle_gamma   120.85839933
_symmetry_Int_Tables_number   1
_chemical_formula_structural   Ac2Ce(InAu)3
_chemical_formula_sum   'Ac2 Ce1 In3 Au3'
_cell_volume   241.76431731
_cell_formula_units_Z   1
loop_
 _symmetry_equiv_pos_site_id
 _symmetry_equiv_pos_as_xyz
  1  'x, y, z'
loop_
 _atom_site_type_symbol
 _atom_site_label
 _atom_site_symmetry_multiplicity
 _atom_site_fract_x
 _atom_site_fract_y
 _atom_site_fract_z
 _atom_site_occupancy
  Ac  Ac0  1  0.999799  0.589243  0.500000  1
  Ac  Ac1  1  0.589243  0.999799  0.500000  1
  Ce  Ce2  1  0.409762  0.409762  0.500000  1
  In  In3  1  0.008566  0.248330  0.000000  1
  In  In4  1  0.248330  0.008566  0.000000  1
  In  In5  1  0.748403  0.748403  0.000000  1
  Au  Au6  1  0.003207  0.003207  0.500000  1
  Au  Au7  1  0.656261  0.336429  0.000000  1
  Au  Au8  1  0.336429  0.656261  0.000000  1
