# generated using pymatgen
data_Ti8Al14SiIr7
_symmetry_space_group_name_H-M   'P 1'
_cell_length_a   8.64045605
_cell_length_b   8.64045673
_cell_length_c   8.64045605
_cell_angle_alpha   120.04021171
_cell_angle_beta   119.85867822
_cell_angle_gamma   90.08766082
_symmetry_Int_Tables_number   1
_chemical_formula_structural   Ti8Al14SiIr7
_chemical_formula_sum   'Ti8 Al14 Si1 Ir7'
_cell_volume   456.48324965
_cell_formula_units_Z   1
loop_
 _symmetry_equiv_pos_site_id
 _symmetry_equiv_pos_as_xyz
  1  'x, y, z'
loop_
 _atom_site_type_symbol
 _atom_site_label
 _atom_site_symmetry_multiplicity
 _atom_site_fract_x
 _atom_site_fract_y
 _atom_site_fract_z
 _atom_site_occupancy
  Ti  Ti0  1  0.797739  0.296762  0.087430  1
  Ti  Ti1  1  0.209333  0.296762  0.499023  1
  Ti  Ti2  1  0.202161  0.702161  0.500000  1
  Ti  Ti3  1  0.209333  0.710311  0.912570  1
  Ti  Ti4  1  0.797739  0.710311  0.500977  1
  Ti  Ti5  1  0.790582  0.290582  0.500000  1
  Ti  Ti6  1  0.379327  0.122900  0.743573  1
  Ti  Ti7  1  0.379327  0.635754  0.256427  1
  Al  Al8  1  0.156664  0.340435  0.183770  1
  Al  Al9  1  0.156664  0.972893  0.816230  1
  Al  Al10  1  0.152729  0.343683  0.809046  1
  Al  Al11  1  0.534636  0.343683  0.190954  1
  Al  Al12  1  0.842633  0.655652  0.813020  1
  Al  Al13  1  0.842633  0.029613  0.186980  1
  Al  Al14  1  0.840557  0.657591  0.182966  1
  Al  Al15  1  0.474623  0.657591  0.817034  1
  Al  Al16  1  0.379967  0.120737  0.259230  1
  Al  Al17  1  0.861508  0.120737  0.740770  1
  Al  Al18  1  0.620828  0.878683  0.257855  1
  Al  Al19  1  0.620828  0.362972  0.742145  1
  Al  Al20  1  0.621014  0.878735  0.742278  1
  Al  Al21  1  0.136456  0.878735  0.257722  1
  Si  Si22  1  0.997313  0.497313  0.500000  1
  Ir  Ir23  1  0.001609  0.999757  0.501639  1
  Ir  Ir24  1  0.498118  0.999757  0.998148  1
  Ir  Ir25  1  0.497546  0.497546  0.000000  1
  Ir  Ir26  1  0.498118  0.499969  0.498361  1
  Ir  Ir27  1  0.001609  0.499969  0.001852  1
  Ir  Ir28  1  0.999490  0.999490  0.000000  1
  Ir  Ir29  1  0.498914  0.998914  0.500000  1
