# generated using pymatgen
data_Zr2Ta3Ru
_symmetry_space_group_name_H-M   'P 1'
_cell_length_a   5.64242300
_cell_length_b   5.64242305
_cell_length_c   8.53037800
_cell_angle_alpha   90.00000000
_cell_angle_beta   90.00000000
_cell_angle_gamma   119.99999386
_symmetry_Int_Tables_number   1
_chemical_formula_structural   Zr2Ta3Ru
_chemical_formula_sum   'Zr4 Ta6 Ru2'
_cell_volume   235.19615664
_cell_formula_units_Z   2
loop_
 _symmetry_equiv_pos_site_id
 _symmetry_equiv_pos_as_xyz
  1  'x, y, z'
loop_
 _atom_site_type_symbol
 _atom_site_label
 _atom_site_symmetry_multiplicity
 _atom_site_fract_x
 _atom_site_fract_y
 _atom_site_fract_z
 _atom_site_occupancy
  Zr  Zr0  1  0.666667  0.333333  0.059986  1
  Zr  Zr1  1  0.666667  0.333333  0.440014  1
  Zr  Zr2  1  0.333333  0.666666  0.559986  1
  Zr  Zr3  1  0.333333  0.666666  0.940014  1
  Ta  Ta4  1  0.167829  0.335657  0.250000  1
  Ta  Ta5  1  0.167829  0.832171  0.250000  1
  Ta  Ta6  1  0.664341  0.832171  0.250000  1
  Ta  Ta7  1  0.335657  0.167829  0.750000  1
  Ta  Ta8  1  0.832171  0.167829  0.750000  1
  Ta  Ta9  1  0.832172  0.664342  0.750000  1
  Ru  Ru10  1  0.000000  0.000000  0.000000  1
  Ru  Ru11  1  0.000000  0.000000  0.500000  1
