# generated using pymatgen
data_TbY4IrPt
_symmetry_space_group_name_H-M   'P 1'
_cell_length_a   6.56058705
_cell_length_b   7.19138292
_cell_length_c   8.69704046
_cell_angle_alpha   96.64758197
_cell_angle_beta   112.15870712
_cell_angle_gamma   90.00000131
_symmetry_Int_Tables_number   1
_chemical_formula_structural   TbY4IrPt
_chemical_formula_sum   'Tb2 Y8 Ir2 Pt2'
_cell_volume   377.03800017
_cell_formula_units_Z   2
loop_
 _symmetry_equiv_pos_site_id
 _symmetry_equiv_pos_as_xyz
  1  'x, y, z'
loop_
 _atom_site_type_symbol
 _atom_site_label
 _atom_site_symmetry_multiplicity
 _atom_site_fract_x
 _atom_site_fract_y
 _atom_site_fract_z
 _atom_site_occupancy
  Tb  Tb0  1  0.427169  0.750000  0.000000  1
  Tb  Tb1  1  0.567001  0.250000  0.000000  1
  Y  Y2  1  0.982318  0.923581  0.185483  1
  Y  Y3  1  0.796835  0.576419  0.814517  1
  Y  Y4  1  0.025030  0.083031  0.814317  1
  Y  Y5  1  0.210712  0.416969  0.185683  1
  Y  Y6  1  0.651079  0.817466  0.439665  1
  Y  Y7  1  0.211415  0.682534  0.560335  1
  Y  Y8  1  0.343035  0.187370  0.558036  1
  Y  Y9  1  0.784998  0.312630  0.441964  1
  Ir  Ir10  1  0.179064  0.427183  0.778254  1
  Ir  Ir11  1  0.400810  0.072817  0.221746  1
  Pt  Pt12  1  0.820140  0.572497  0.219746  1
  Pt  Pt13  1  0.600394  0.927503  0.780254  1
