# generated using pymatgen
data_Na5Si2AgS7
_symmetry_space_group_name_H-M   'P 1'
_cell_length_a   6.84297548
_cell_length_b   6.84297550
_cell_length_c   14.80491795
_cell_angle_alpha   80.64937069
_cell_angle_beta   80.64937101
_cell_angle_gamma   96.40239462
_symmetry_Int_Tables_number   1
_chemical_formula_structural   Na5Si2AgS7
_chemical_formula_sum   'Na10 Si4 Ag2 S14'
_cell_volume   668.15323356
_cell_formula_units_Z   2
loop_
 _symmetry_equiv_pos_site_id
 _symmetry_equiv_pos_as_xyz
  1  'x, y, z'
loop_
 _atom_site_type_symbol
 _atom_site_label
 _atom_site_symmetry_multiplicity
 _atom_site_fract_x
 _atom_site_fract_y
 _atom_site_fract_z
 _atom_site_occupancy
  Na  Na0  1  0.022927  0.735437  0.581799  1
  Na  Na1  1  0.264563  0.977073  0.918201  1
  Na  Na2  1  0.977073  0.264563  0.418201  1
  Na  Na3  1  0.735437  0.022927  0.081799  1
  Na  Na4  1  0.500000  0.500000  0.500000  1
  Na  Na5  1  0.500000  0.500000  0.000000  1
  Na  Na6  1  0.962843  0.518172  0.140556  1
  Na  Na7  1  0.481828  0.037157  0.359444  1
  Na  Na8  1  0.037157  0.481828  0.859444  1
  Na  Na9  1  0.518172  0.962843  0.640556  1
  Si  Si10  1  0.919222  0.765122  0.358477  1
  Si  Si11  1  0.234878  0.080778  0.141523  1
  Si  Si12  1  0.080778  0.234878  0.641523  1
  Si  Si13  1  0.765122  0.919222  0.858477  1
  Ag  Ag14  1  0.414672  0.585328  0.250000  1
  Ag  Ag15  1  0.585328  0.414672  0.750000  1
  S  S16  1  0.744111  0.869322  0.469005  1
  S  S17  1  0.130678  0.255889  0.030995  1
  S  S18  1  0.255889  0.130678  0.530995  1
  S  S19  1  0.869322  0.744111  0.969005  1
  S  S20  1  0.192084  0.680334  0.391749  1
  S  S21  1  0.319666  0.807916  0.108251  1
  S  S22  1  0.807916  0.319666  0.608251  1
  S  S23  1  0.680334  0.192084  0.891749  1
  S  S24  1  0.749279  0.525741  0.316900  1
  S  S25  1  0.474259  0.250721  0.183100  1
  S  S26  1  0.250721  0.474259  0.683100  1
  S  S27  1  0.525741  0.749279  0.816900  1
  S  S28  1  0.964148  0.035852  0.250000  1
  S  S29  1  0.035852  0.964148  0.750000  1
