# generated using pymatgen
data_Hf8Fe3Co5Si13Ge
_symmetry_space_group_name_H-M   'P 1'
_cell_length_a   5.09103530
_cell_length_b   9.44510303
_cell_length_c   9.45987155
_cell_angle_alpha   85.83009387
_cell_angle_beta   74.32361510
_cell_angle_gamma   74.36724226
_symmetry_Int_Tables_number   1
_chemical_formula_structural   Hf8Fe3Co5Si13Ge
_chemical_formula_sum   'Hf8 Fe3 Co5 Si13 Ge1'
_cell_volume   421.76036134
_cell_formula_units_Z   1
loop_
 _symmetry_equiv_pos_site_id
 _symmetry_equiv_pos_as_xyz
  1  'x, y, z'
loop_
 _atom_site_type_symbol
 _atom_site_label
 _atom_site_symmetry_multiplicity
 _atom_site_fract_x
 _atom_site_fract_y
 _atom_site_fract_z
 _atom_site_occupancy
  Hf  Hf0  1  0.137110  0.000054  0.722056  1
  Hf  Hf1  1  0.859159  0.000074  0.278045  1
  Hf  Hf2  1  0.858677  0.279023  0.999985  1
  Hf  Hf3  1  0.137801  0.720968  0.999970  1
  Hf  Hf4  1  0.499843  0.198137  0.801474  1
  Hf  Hf5  1  0.500439  0.802456  0.197004  1
  Hf  Hf6  1  0.306259  0.198095  0.198534  1
  Hf  Hf7  1  0.701418  0.802499  0.803020  1
  Fe  Fe8  1  0.899619  0.200383  0.500139  1
  Fe  Fe9  1  0.898784  0.501387  0.199998  1
  Fe  Fe10  1  0.599806  0.501144  0.800010  1
  Co  Co11  1  0.395663  0.498368  0.207350  1
  Co  Co12  1  0.105690  0.498746  0.792653  1
  Co  Co13  1  0.104253  0.791233  0.500216  1
  Co  Co14  1  0.395941  0.208120  0.499797  1
  Co  Co15  1  0.600217  0.799837  0.499717  1
  Si  Si16  1  0.288689  0.999963  0.419427  1
  Si  Si17  1  0.709573  0.999991  0.580680  1
  Si  Si18  1  0.708849  0.580709  0.000026  1
  Si  Si19  1  0.289841  0.418698  0.999998  1
  Si  Si20  1  0.995340  0.301017  0.698993  1
  Si  Si21  1  0.998128  0.698795  0.300599  1
  Si  Si22  1  0.704978  0.301025  0.300991  1
  Si  Si23  1  0.304772  0.698809  0.699289  1
  Si  Si24  1  0.517391  0.409408  0.591453  1
  Si  Si25  1  0.510257  0.590554  0.406467  1
  Si  Si26  1  0.072666  0.409408  0.408543  1
  Si  Si27  1  0.898593  0.590556  0.593534  1
  Si  Si28  1  0.750529  0.000226  0.999742  1
  Ge  Ge29  1  0.249712  0.000318  0.000292  1
