# generated using pymatgen
data_Rb4Hf2Zr4BBr18
_symmetry_space_group_name_H-M   'P 1'
_cell_length_a   10.65621621
_cell_length_b   10.88544745
_cell_length_c   11.00263529
_cell_angle_alpha   118.50663841
_cell_angle_beta   100.51451639
_cell_angle_gamma   104.00839113
_symmetry_Int_Tables_number   1
_chemical_formula_structural   Rb4Hf2Zr4BBr18
_chemical_formula_sum   'Rb4 Hf2 Zr4 B1 Br18'
_cell_volume   1019.55752163
_cell_formula_units_Z   1
loop_
 _symmetry_equiv_pos_site_id
 _symmetry_equiv_pos_as_xyz
  1  'x, y, z'
loop_
 _atom_site_type_symbol
 _atom_site_label
 _atom_site_symmetry_multiplicity
 _atom_site_fract_x
 _atom_site_fract_y
 _atom_site_fract_z
 _atom_site_occupancy
  Rb  Rb0  1  0.188469  0.728021  0.564011  1
  Rb  Rb1  1  0.844090  0.963947  0.771703  1
  Rb  Rb2  1  0.153760  0.035916  0.227127  1
  Rb  Rb3  1  0.809324  0.273165  0.434967  1
  Hf  Hf4  1  0.355188  0.447436  0.777359  1
  Hf  Hf5  1  0.367273  0.622477  0.129003  1
  Zr  Zr6  1  0.642900  0.731623  0.042470  1
  Zr  Zr7  1  0.647256  0.551253  0.223386  1
  Zr  Zr8  1  0.361091  0.268177  0.959106  1
  Zr  Zr9  1  0.635208  0.377049  0.871931  1
  B  B10  1  0.498278  0.500842  0.999648  1
  Br  Br11  1  0.819292  0.425287  0.109479  1
  Br  Br12  1  0.515031  0.701054  0.397905  1
  Br  Br13  1  0.179404  0.988479  0.900659  1
  Br  Br14  1  0.186085  0.573191  0.892405  1
  Br  Br15  1  0.825695  0.826208  0.305255  1
  Br  Br16  1  0.504127  0.297554  0.208031  1
  Br  Br17  1  0.788939  0.231017  0.716573  1
  Br  Br18  1  0.176927  0.178360  0.696917  1
  Br  Br19  1  0.507234  0.898982  0.192485  1
  Br  Br20  1  0.813358  0.625594  0.905054  1
  Br  Br21  1  0.210656  0.764365  0.275523  1
  Br  Br22  1  0.172840  0.382513  0.514182  1
  Br  Br23  1  0.492741  0.698410  0.792780  1
  Br  Br24  1  0.815930  0.013601  0.098286  1
  Br  Br25  1  0.480693  0.300785  0.600480  1
  Br  Br26  1  0.189590  0.378122  0.094803  1
  Br  Br27  1  0.828679  0.620376  0.493574  1
  Br  Br28  1  0.489943  0.096196  0.804899  1
