# generated using pymatgen
data_HoErFe8(P3Ru)2
_symmetry_space_group_name_H-M   'P 1'
_cell_length_a   3.70151200
_cell_length_b   10.34297400
_cell_length_c   11.79328200
_cell_angle_alpha   90.00000000
_cell_angle_beta   90.00000000
_cell_angle_gamma   90.00000000
_symmetry_Int_Tables_number   1
_chemical_formula_structural   HoErFe8(P3Ru)2
_chemical_formula_sum   'Ho2 Er2 Fe16 P12 Ru4'
_cell_volume   451.50158382
_cell_formula_units_Z   2
loop_
 _symmetry_equiv_pos_site_id
 _symmetry_equiv_pos_as_xyz
  1  'x, y, z'
loop_
 _atom_site_type_symbol
 _atom_site_label
 _atom_site_symmetry_multiplicity
 _atom_site_fract_x
 _atom_site_fract_y
 _atom_site_fract_z
 _atom_site_occupancy
  Ho  Ho0  1  0.750000  0.418122  0.296027  1
  Ho  Ho1  1  0.750000  0.081878  0.796027  1
  Er  Er2  1  0.250000  0.581874  0.703985  1
  Er  Er3  1  0.250000  0.918126  0.203985  1
  Fe  Fe4  1  0.250000  0.405573  0.489588  1
  Fe  Fe5  1  0.250000  0.094427  0.989588  1
  Fe  Fe6  1  0.750000  0.594539  0.510765  1
  Fe  Fe7  1  0.750000  0.905461  0.010765  1
  Fe  Fe8  1  0.250000  0.219452  0.175664  1
  Fe  Fe9  1  0.250000  0.280548  0.675664  1
  Fe  Fe10  1  0.750000  0.780226  0.824322  1
  Fe  Fe11  1  0.750000  0.719774  0.324322  1
  Fe  Fe12  1  0.250000  0.877611  0.703578  1
  Fe  Fe13  1  0.250000  0.622389  0.203578  1
  Fe  Fe14  1  0.750000  0.121986  0.296259  1
  Fe  Fe15  1  0.750000  0.378014  0.796259  1
  Fe  Fe16  1  0.250000  0.462818  0.932598  1
  Fe  Fe17  1  0.250000  0.037182  0.432598  1
  Fe  Fe18  1  0.750000  0.537488  0.067192  1
  Fe  Fe19  1  0.750000  0.962512  0.567192  1
  P  P20  1  0.250000  0.424546  0.114535  1
  P  P21  1  0.250000  0.075454  0.614535  1
  P  P22  1  0.750000  0.575527  0.885137  1
  P  P23  1  0.750000  0.924473  0.385137  1
  P  P24  1  0.250000  0.266410  0.867602  1
  P  P25  1  0.250000  0.233590  0.367602  1
  P  P26  1  0.750000  0.733863  0.132545  1
  P  P27  1  0.750000  0.766137  0.632545  1
  P  P28  1  0.250000  0.595712  0.394751  1
  P  P29  1  0.250000  0.904288  0.894751  1
  P  P30  1  0.750000  0.404586  0.605375  1
  P  P31  1  0.750000  0.095414  0.105375  1
  Ru  Ru32  1  0.250000  0.707803  0.988103  1
  Ru  Ru33  1  0.250000  0.792197  0.488103  1
  Ru  Ru34  1  0.750000  0.292204  0.011972  1
  Ru  Ru35  1  0.750000  0.207796  0.511972  1
