# generated using pymatgen
data_YTh2(GaRh)3
_symmetry_space_group_name_H-M   'P 1'
_cell_length_a   7.32879489
_cell_length_b   7.26797526
_cell_length_c   3.95148600
_cell_angle_alpha   90.00000000
_cell_angle_beta   90.00000000
_cell_angle_gamma   119.72585985
_symmetry_Int_Tables_number   1
_chemical_formula_structural   YTh2(GaRh)3
_chemical_formula_sum   'Y1 Th2 Ga3 Rh3'
_cell_volume   182.78063173
_cell_formula_units_Z   1
loop_
 _symmetry_equiv_pos_site_id
 _symmetry_equiv_pos_as_xyz
  1  'x, y, z'
loop_
 _atom_site_type_symbol
 _atom_site_label
 _atom_site_symmetry_multiplicity
 _atom_site_fract_x
 _atom_site_fract_y
 _atom_site_fract_z
 _atom_site_occupancy
  Y  Y0  1  0.000000  0.410547  0.500000  1
  Th  Th1  1  0.584662  0.586775  0.500000  1
  Th  Th2  1  0.415338  0.002113  0.500000  1
  Ga  Ga3  1  0.000000  0.743770  0.000000  1
  Ga  Ga4  1  0.229349  0.243146  0.000000  1
  Ga  Ga5  1  0.770651  0.013796  0.000000  1
  Rh  Rh6  1  0.351054  0.682058  0.000000  1
  Rh  Rh7  1  0.648946  0.331004  0.000000  1
  Rh  Rh8  1  0.000000  0.986791  0.500000  1
