# generated using pymatgen
data_Dy2Sc2ReB12Os
_symmetry_space_group_name_H-M   'P 1'
_cell_length_a   3.57978100
_cell_length_b   8.98554379
_cell_length_c   11.38386277
_cell_angle_alpha   90.06354024
_cell_angle_beta   90.00000000
_cell_angle_gamma   90.00000000
_symmetry_Int_Tables_number   1
_chemical_formula_structural   Dy2Sc2ReB12Os
_chemical_formula_sum   'Dy4 Sc4 Re2 B24 Os2'
_cell_volume   366.17628002
_cell_formula_units_Z   2
loop_
 _symmetry_equiv_pos_site_id
 _symmetry_equiv_pos_as_xyz
  1  'x, y, z'
loop_
 _atom_site_type_symbol
 _atom_site_label
 _atom_site_symmetry_multiplicity
 _atom_site_fract_x
 _atom_site_fract_y
 _atom_site_fract_z
 _atom_site_occupancy
  Dy  Dy0  1  0.000000  0.319335  0.413174  1
  Dy  Dy1  1  0.000000  0.680665  0.586826  1
  Dy  Dy2  1  0.000000  0.822396  0.085413  1
  Dy  Dy3  1  0.000000  0.177604  0.914587  1
  Sc  Sc4  1  0.000000  0.945404  0.371721  1
  Sc  Sc5  1  0.000000  0.054596  0.628279  1
  Sc  Sc6  1  0.000000  0.443178  0.128115  1
  Sc  Sc7  1  0.000000  0.556822  0.871885  1
  Re  Re8  1  0.000000  0.140162  0.181887  1
  Re  Re9  1  0.000000  0.859838  0.818113  1
  B  B10  1  0.500000  0.554737  0.432664  1
  B  B11  1  0.500000  0.445263  0.567336  1
  B  B12  1  0.500000  0.053992  0.067290  1
  B  B13  1  0.500000  0.946008  0.932710  1
  B  B14  1  0.500000  0.753309  0.418355  1
  B  B15  1  0.500000  0.246691  0.581645  1
  B  B16  1  0.500000  0.253522  0.081373  1
  B  B17  1  0.500000  0.746478  0.918627  1
  B  B18  1  0.500000  0.793542  0.265452  1
  B  B19  1  0.500000  0.206458  0.734548  1
  B  B20  1  0.500000  0.294535  0.235047  1
  B  B21  1  0.500000  0.705465  0.764953  1
  B  B22  1  0.500000  0.628573  0.183550  1
  B  B23  1  0.500000  0.371427  0.816450  1
  B  B24  1  0.500000  0.128900  0.317080  1
  B  B25  1  0.500000  0.871100  0.682920  1
  B  B26  1  0.500000  0.980971  0.214459  1
  B  B27  1  0.500000  0.019029  0.785541  1
  B  B28  1  0.500000  0.481452  0.286220  1
  B  B29  1  0.500000  0.518548  0.713780  1
  B  B30  1  0.500000  0.597030  0.026594  1
  B  B31  1  0.500000  0.402970  0.973406  1
  B  B32  1  0.500000  0.097681  0.473627  1
  B  B33  1  0.500000  0.902319  0.526373  1
  Os  Os34  1  0.000000  0.639683  0.318945  1
  Os  Os35  1  0.000000  0.360317  0.681055  1
