# generated using pymatgen
data_DyLu9(In2Co)4
_symmetry_space_group_name_H-M   'P 1'
_cell_length_a   3.49936900
_cell_length_b   7.85636805
_cell_length_c   17.83370830
_cell_angle_alpha   90.08654734
_cell_angle_beta   90.00000000
_cell_angle_gamma   90.00000000
_symmetry_Int_Tables_number   1
_chemical_formula_structural   DyLu9(In2Co)4
_chemical_formula_sum   'Dy1 Lu9 In8 Co4'
_cell_volume   490.28964904
_cell_formula_units_Z   1
loop_
 _symmetry_equiv_pos_site_id
 _symmetry_equiv_pos_as_xyz
  1  'x, y, z'
loop_
 _atom_site_type_symbol
 _atom_site_label
 _atom_site_symmetry_multiplicity
 _atom_site_fract_x
 _atom_site_fract_y
 _atom_site_fract_z
 _atom_site_occupancy
  Dy  Dy0  1  0.500000  0.000000  0.000000  1
  Lu  Lu1  1  0.500000  0.500000  0.500000  1
  Lu  Lu2  1  0.500000  0.879538  0.409129  1
  Lu  Lu3  1  0.500000  0.120462  0.590871  1
  Lu  Lu4  1  0.500000  0.620475  0.908400  1
  Lu  Lu5  1  0.500000  0.379525  0.091600  1
  Lu  Lu6  1  0.500000  0.246968  0.278945  1
  Lu  Lu7  1  0.500000  0.753032  0.721055  1
  Lu  Lu8  1  0.500000  0.253503  0.777360  1
  Lu  Lu9  1  0.500000  0.746497  0.222640  1
  In  In10  1  0.000000  0.200382  0.432894  1
  In  In11  1  0.000000  0.799618  0.567106  1
  In  In12  1  0.000000  0.300326  0.930709  1
  In  In13  1  0.000000  0.699674  0.069291  1
  In  In14  1  0.000000  0.563695  0.348652  1
  In  In15  1  0.000000  0.436305  0.651348  1
  In  In16  1  0.000000  0.934827  0.846569  1
  In  In17  1  0.000000  0.065173  0.153431  1
  Co  Co18  1  0.000000  0.971751  0.304105  1
  Co  Co19  1  0.000000  0.028249  0.695895  1
  Co  Co20  1  0.000000  0.528378  0.802997  1
  Co  Co21  1  0.000000  0.471622  0.197003  1
