# generated using pymatgen
data_NpBrO2
_symmetry_space_group_name_H-M   'P 1'
_cell_length_a   10.69239627
_cell_length_b   10.69239555
_cell_length_c   4.01131100
_cell_angle_alpha   90.00000000
_cell_angle_beta   90.00000000
_cell_angle_gamma   157.79222422
_symmetry_Int_Tables_number   1
_chemical_formula_structural   NpBrO2
_chemical_formula_sum   'Np2 Br2 O4'
_cell_volume   173.33634390
_cell_formula_units_Z   2
loop_
 _symmetry_equiv_pos_site_id
 _symmetry_equiv_pos_as_xyz
  1  'x, y, z'
loop_
 _atom_site_type_symbol
 _atom_site_label
 _atom_site_symmetry_multiplicity
 _atom_site_fract_x
 _atom_site_fract_y
 _atom_site_fract_z
 _atom_site_occupancy
  Np  Np0  1  0.926125  0.073875  0.250000  1
  Np  Np1  1  0.073875  0.926125  0.750000  1
  Br  Br2  1  0.822242  0.177758  0.750000  1
  Br  Br3  1  0.177758  0.822242  0.250000  1
  O  O4  1  0.423603  0.576397  0.250000  1
  O  O5  1  0.576397  0.423603  0.750000  1
  O  O6  1  0.965352  0.034648  0.750000  1
  O  O7  1  0.034648  0.965352  0.250000  1
