# generated using pymatgen
data_NdDy(Lu2Rh9)2
_symmetry_space_group_name_H-M   'P 1'
_cell_length_a   5.25218300
_cell_length_b   5.25218283
_cell_length_c   17.46681000
_cell_angle_alpha   90.00000000
_cell_angle_beta   90.00000000
_cell_angle_gamma   119.99999475
_symmetry_Int_Tables_number   1
_chemical_formula_structural   NdDy(Lu2Rh9)2
_chemical_formula_sum   'Nd1 Dy1 Lu4 Rh18'
_cell_volume   417.27650899
_cell_formula_units_Z   1
loop_
 _symmetry_equiv_pos_site_id
 _symmetry_equiv_pos_as_xyz
  1  'x, y, z'
loop_
 _atom_site_type_symbol
 _atom_site_label
 _atom_site_symmetry_multiplicity
 _atom_site_fract_x
 _atom_site_fract_y
 _atom_site_fract_z
 _atom_site_occupancy
  Nd  Nd0  1  0.666667  0.333333  0.250000  1
  Dy  Dy1  1  0.333333  0.666667  0.750000  1
  Lu  Lu2  1  0.333333  0.666667  0.540969  1
  Lu  Lu3  1  0.666667  0.333333  0.040682  1
  Lu  Lu4  1  0.666667  0.333333  0.459318  1
  Lu  Lu5  1  0.333333  0.666667  0.959031  1
  Rh  Rh6  1  0.167627  0.335253  0.123950  1
  Rh  Rh7  1  0.832318  0.664636  0.624345  1
  Rh  Rh8  1  0.664747  0.832373  0.123950  1
  Rh  Rh9  1  0.167627  0.832373  0.123950  1
  Rh  Rh10  1  0.832318  0.167682  0.624345  1
  Rh  Rh11  1  0.335364  0.167682  0.624345  1
  Rh  Rh12  1  0.832318  0.664636  0.875655  1
  Rh  Rh13  1  0.832318  0.167682  0.875655  1
  Rh  Rh14  1  0.335364  0.167682  0.875655  1
  Rh  Rh15  1  0.664747  0.832373  0.376050  1
  Rh  Rh16  1  0.167627  0.832373  0.376050  1
  Rh  Rh17  1  0.167627  0.335253  0.376050  1
  Rh  Rh18  1  0.000000  0.000000  0.250000  1
  Rh  Rh19  1  0.000000  0.000000  0.750000  1
  Rh  Rh20  1  0.333333  0.666667  0.250000  1
  Rh  Rh21  1  0.666667  0.333333  0.750000  1
  Rh  Rh22  1  0.000000  0.000000  0.999934  1
  Rh  Rh23  1  0.000000  0.000000  0.500066  1
