# generated using pymatgen
data_Zr6Ti7Al9Co8
_symmetry_space_group_name_H-M   'P 1'
_cell_length_a   8.68387217
_cell_length_b   8.68387144
_cell_length_c   8.68387216
_cell_angle_alpha   59.88578117
_cell_angle_beta   59.88578690
_cell_angle_gamma   59.88579036
_symmetry_Int_Tables_number   1
_chemical_formula_structural   Zr6Ti7Al9Co8
_chemical_formula_sum   'Zr6 Ti7 Al9 Co8'
_cell_volume   461.84724019
_cell_formula_units_Z   1
loop_
 _symmetry_equiv_pos_site_id
 _symmetry_equiv_pos_as_xyz
  1  'x, y, z'
loop_
 _atom_site_type_symbol
 _atom_site_label
 _atom_site_symmetry_multiplicity
 _atom_site_fract_x
 _atom_site_fract_y
 _atom_site_fract_z
 _atom_site_occupancy
  Zr  Zr0  1  0.205233  0.205233  0.793944  1
  Zr  Zr1  1  0.793944  0.205233  0.205233  1
  Zr  Zr2  1  0.205233  0.793944  0.205233  1
  Zr  Zr3  1  0.798740  0.798740  0.191265  1
  Zr  Zr4  1  0.191265  0.798740  0.798740  1
  Zr  Zr5  1  0.798740  0.191265  0.798740  1
  Ti  Ti6  1  0.380082  0.380082  0.380082  1
  Ti  Ti7  1  0.380920  0.859667  0.380920  1
  Ti  Ti8  1  0.859667  0.380920  0.380920  1
  Ti  Ti9  1  0.380920  0.380920  0.859667  1
  Ti  Ti10  1  0.835049  0.498190  0.835049  1
  Ti  Ti11  1  0.498190  0.835049  0.835049  1
  Ti  Ti12  1  0.835049  0.835049  0.498190  1
  Al  Al13  1  0.165197  0.165197  0.165197  1
  Al  Al14  1  0.167511  0.499441  0.167511  1
  Al  Al15  1  0.499441  0.167511  0.167511  1
  Al  Al16  1  0.167511  0.167511  0.499441  1
  Al  Al17  1  0.618117  0.618117  0.618117  1
  Al  Al18  1  0.617448  0.147888  0.617448  1
  Al  Al19  1  0.147888  0.617448  0.617448  1
  Al  Al20  1  0.617448  0.617448  0.147888  1
  Al  Al21  1  0.828267  0.828267  0.828267  1
  Co  Co22  1  0.003196  0.003196  0.496421  1
  Co  Co23  1  0.496421  0.003196  0.003196  1
  Co  Co24  1  0.003196  0.496421  0.003196  1
  Co  Co25  1  0.500330  0.500330  0.001249  1
  Co  Co26  1  0.001249  0.500330  0.500330  1
  Co  Co27  1  0.500330  0.001249  0.500330  1
  Co  Co28  1  0.500780  0.500780  0.500780  1
  Co  Co29  1  0.002635  0.002635  0.002635  1
