# generated using pymatgen
data_Sc8Ti4Re7Si16W
_symmetry_space_group_name_H-M   'P 1'
_cell_length_a   6.53110882
_cell_length_b   6.72276032
_cell_length_c   12.68259172
_cell_angle_alpha   90.01498968
_cell_angle_beta   90.05775136
_cell_angle_gamma   90.18468689
_symmetry_Int_Tables_number   1
_chemical_formula_structural   Sc8Ti4Re7Si16W
_chemical_formula_sum   'Sc8 Ti4 Re7 Si16 W1'
_cell_volume   556.85236397
_cell_formula_units_Z   1
loop_
 _symmetry_equiv_pos_site_id
 _symmetry_equiv_pos_as_xyz
  1  'x, y, z'
loop_
 _atom_site_type_symbol
 _atom_site_label
 _atom_site_symmetry_multiplicity
 _atom_site_fract_x
 _atom_site_fract_y
 _atom_site_fract_z
 _atom_site_occupancy
  Sc  Sc0  1  0.494421  0.669931  0.592651  1
  Sc  Sc1  1  0.994637  0.829638  0.906901  1
  Sc  Sc2  1  0.505598  0.327613  0.093193  1
  Sc  Sc3  1  0.003403  0.170948  0.406583  1
  Sc  Sc4  1  0.505640  0.328443  0.407595  1
  Sc  Sc5  1  0.001253  0.168560  0.093177  1
  Sc  Sc6  1  0.496421  0.669846  0.908211  1
  Sc  Sc7  1  0.995585  0.829389  0.592025  1
  Ti  Ti8  1  0.337162  0.830740  0.373559  1
  Ti  Ti9  1  0.838595  0.668542  0.126139  1
  Ti  Ti10  1  0.663282  0.168881  0.872218  1
  Ti  Ti11  1  0.162237  0.330693  0.626674  1
  Re  Re12  1  0.677147  0.161481  0.619992  1
  Re  Re13  1  0.176075  0.339092  0.881023  1
  Re  Re14  1  0.325434  0.842484  0.118519  1
  Re  Re15  1  0.823348  0.664335  0.382329  1
  Re  Re16  1  0.832431  0.510376  0.748948  1
  Re  Re17  1  0.333405  0.990832  0.751519  1
  Re  Re18  1  0.167008  0.495292  0.248593  1
  Si  Si19  1  0.667835  0.959799  0.457031  1
  Si  Si20  1  0.169973  0.541229  0.045085  1
  Si  Si21  1  0.331264  0.042766  0.954991  1
  Si  Si22  1  0.832229  0.458360  0.544903  1
  Si  Si23  1  0.338174  0.035586  0.545420  1
  Si  Si24  1  0.839014  0.464458  0.954848  1
  Si  Si25  1  0.663933  0.963609  0.042501  1
  Si  Si26  1  0.162134  0.535143  0.454723  1
  Si  Si27  1  0.467408  0.375896  0.746366  1
  Si  Si28  1  0.968724  0.124220  0.753760  1
  Si  Si29  1  0.532564  0.621716  0.246555  1
  Si  Si30  1  0.035037  0.875666  0.252834  1
  Si  Si31  1  0.698255  0.860980  0.750308  1
  Si  Si32  1  0.198432  0.638920  0.749602  1
  Si  Si33  1  0.296986  0.141069  0.251229  1
  Si  Si34  1  0.801333  0.363144  0.249999  1
  W  W35  1  0.663619  0.000323  0.249992  1
