# generated using pymatgen
data_RbInSiAs2
_symmetry_space_group_name_H-M   'P 1'
_cell_length_a   8.42725518
_cell_length_b   8.99376388
_cell_length_c   8.56938490
_cell_angle_alpha   86.00522801
_cell_angle_beta   77.15579140
_cell_angle_gamma   72.58902016
_symmetry_Int_Tables_number   1
_chemical_formula_structural   RbInSiAs2
_chemical_formula_sum   'Rb4 In4 Si4 As8'
_cell_volume   604.22868159
_cell_formula_units_Z   4
loop_
 _symmetry_equiv_pos_site_id
 _symmetry_equiv_pos_as_xyz
  1  'x, y, z'
loop_
 _atom_site_type_symbol
 _atom_site_label
 _atom_site_symmetry_multiplicity
 _atom_site_fract_x
 _atom_site_fract_y
 _atom_site_fract_z
 _atom_site_occupancy
  Rb  Rb0  1  0.443054  0.752660  0.391540  1
  Rb  Rb1  1  0.556946  0.247340  0.608460  1
  Rb  Rb2  1  0.427261  0.791205  0.873256  1
  Rb  Rb3  1  0.572739  0.208795  0.126744  1
  In  In4  1  0.939243  0.886002  0.789722  1
  In  In5  1  0.060757  0.113998  0.210278  1
  In  In6  1  0.958639  0.832750  0.247515  1
  In  In7  1  0.041361  0.167250  0.752485  1
  Si  Si8  1  0.945970  0.575779  0.618614  1
  Si  Si9  1  0.054030  0.424221  0.381386  1
  Si  Si10  1  0.147305  0.466841  0.963273  1
  Si  Si11  1  0.852695  0.533159  0.036727  1
  As  As12  1  0.781122  0.828124  0.557469  1
  As  As13  1  0.218878  0.171876  0.442531  1
  As  As14  1  0.810413  0.398744  0.287731  1
  As  As15  1  0.189587  0.601256  0.712269  1
  As  As16  1  0.740488  0.808314  0.063544  1
  As  As17  1  0.259512  0.191686  0.936456  1
  As  As18  1  0.779815  0.441789  0.810925  1
  As  As19  1  0.220185  0.558211  0.189075  1
