# generated using pymatgen
data_Sm8Lu12Si13Au3
_symmetry_space_group_name_H-M   'P 1'
_cell_length_a   7.38143572
_cell_length_b   7.75417404
_cell_length_c   14.60468093
_cell_angle_alpha   89.85193801
_cell_angle_beta   89.64651099
_cell_angle_gamma   90.46004410
_symmetry_Int_Tables_number   1
_chemical_formula_structural   Sm8Lu12Si13Au3
_chemical_formula_sum   'Sm8 Lu12 Si13 Au3'
_cell_volume   835.88145225
_cell_formula_units_Z   1
loop_
 _symmetry_equiv_pos_site_id
 _symmetry_equiv_pos_as_xyz
  1  'x, y, z'
loop_
 _atom_site_type_symbol
 _atom_site_label
 _atom_site_symmetry_multiplicity
 _atom_site_fract_x
 _atom_site_fract_y
 _atom_site_fract_z
 _atom_site_occupancy
  Sm  Sm0  1  0.016593  0.183947  0.092728  1
  Sm  Sm1  1  0.984189  0.820445  0.908225  1
  Sm  Sm2  1  0.482488  0.681289  0.906035  1
  Sm  Sm3  1  0.983874  0.819436  0.592761  1
  Sm  Sm4  1  0.518566  0.319426  0.095038  1
  Sm  Sm5  1  0.015538  0.181017  0.406716  1
  Sm  Sm6  1  0.516790  0.317888  0.401209  1
  Sm  Sm7  1  0.486477  0.679958  0.596679  1
  Lu  Lu8  1  0.156838  0.512069  0.750538  1
  Lu  Lu9  1  0.845481  0.488457  0.251318  1
  Lu  Lu10  1  0.337676  0.007766  0.249095  1
  Lu  Lu11  1  0.661583  0.990256  0.749894  1
  Lu  Lu12  1  0.330784  0.176034  0.622806  1
  Lu  Lu13  1  0.673046  0.824010  0.375990  1
  Lu  Lu14  1  0.178485  0.666946  0.378436  1
  Lu  Lu15  1  0.678126  0.825941  0.122679  1
  Lu  Lu16  1  0.817896  0.330627  0.622664  1
  Lu  Lu17  1  0.322243  0.174828  0.877908  1
  Lu  Lu18  1  0.820588  0.325819  0.878233  1
  Lu  Lu19  1  0.179600  0.674036  0.122183  1
  Si  Si20  1  0.472037  0.607479  0.247899  1
  Si  Si21  1  0.529609  0.393322  0.752733  1
  Si  Si22  1  0.283133  0.871858  0.751549  1
  Si  Si23  1  0.717869  0.128889  0.248046  1
  Si  Si24  1  0.226146  0.374149  0.247535  1
  Si  Si25  1  0.774988  0.625878  0.753412  1
  Si  Si26  1  0.833860  0.531568  0.457807  1
  Si  Si27  1  0.346337  0.965518  0.459201  1
  Si  Si28  1  0.848682  0.531320  0.039680  1
  Si  Si29  1  0.654007  0.032219  0.538889  1
  Si  Si30  1  0.150529  0.471103  0.959881  1
  Si  Si31  1  0.652768  0.032417  0.959910  1
  Si  Si32  1  0.346901  0.968237  0.040158  1
  Au  Au33  1  0.030349  0.118003  0.747930  1
  Au  Au34  1  0.970842  0.882711  0.250717  1
  Au  Au35  1  0.155082  0.465137  0.543523  1
