# generated using pymatgen
data_Th6Cd23Fe
_symmetry_space_group_name_H-M   'P 1'
_cell_length_a   10.08064778
_cell_length_b   10.08064819
_cell_length_c   10.08064800
_cell_angle_alpha   60.00000061
_cell_angle_beta   59.99999928
_cell_angle_gamma   60.00000274
_symmetry_Int_Tables_number   1
_chemical_formula_structural   Th6Cd23Fe
_chemical_formula_sum   'Th6 Cd23 Fe1'
_cell_volume   724.35316102
_cell_formula_units_Z   1
loop_
 _symmetry_equiv_pos_site_id
 _symmetry_equiv_pos_as_xyz
  1  'x, y, z'
loop_
 _atom_site_type_symbol
 _atom_site_label
 _atom_site_symmetry_multiplicity
 _atom_site_fract_x
 _atom_site_fract_y
 _atom_site_fract_z
 _atom_site_occupancy
  Th  Th0  1  0.809744  0.809744  0.190256  1
  Th  Th1  1  0.190256  0.809744  0.190256  1
  Th  Th2  1  0.809744  0.190256  0.190256  1
  Th  Th3  1  0.190256  0.190256  0.809744  1
  Th  Th4  1  0.809744  0.190256  0.809744  1
  Th  Th5  1  0.190256  0.809744  0.809744  1
  Cd  Cd6  1  0.830253  0.830253  0.509241  1
  Cd  Cd7  1  0.830253  0.509241  0.830253  1
  Cd  Cd8  1  0.509241  0.830253  0.830253  1
  Cd  Cd9  1  0.830253  0.830253  0.830253  1
  Cd  Cd10  1  0.169747  0.169747  0.490759  1
  Cd  Cd11  1  0.169747  0.490759  0.169747  1
  Cd  Cd12  1  0.490759  0.169747  0.169747  1
  Cd  Cd13  1  0.169747  0.169747  0.169747  1
  Cd  Cd14  1  0.620411  0.620411  0.138767  1
  Cd  Cd15  1  0.620411  0.138767  0.620411  1
  Cd  Cd16  1  0.138767  0.620411  0.620411  1
  Cd  Cd17  1  0.620411  0.620411  0.620411  1
  Cd  Cd18  1  0.379589  0.379589  0.861233  1
  Cd  Cd19  1  0.379589  0.861233  0.379589  1
  Cd  Cd20  1  0.861233  0.379589  0.379589  1
  Cd  Cd21  1  0.379589  0.379589  0.379589  1
  Cd  Cd22  1  0.000000  0.000000  0.500000  1
  Cd  Cd23  1  0.500000  0.000000  0.500000  1
  Cd  Cd24  1  0.000000  0.500000  0.500000  1
  Cd  Cd25  1  0.500000  0.500000  0.000000  1
  Cd  Cd26  1  0.000000  0.500000  0.000000  1
  Cd  Cd27  1  0.500000  0.000000  0.000000  1
  Cd  Cd28  1  0.500000  0.500000  0.500000  1
  Fe  Fe29  1  0.000000  0.000000  0.000000  1
