# generated using pymatgen
data_Ta6Co16Si2GeP4
_symmetry_space_group_name_H-M   'P 1'
_cell_length_a   7.85931396
_cell_length_b   7.87365569
_cell_length_c   7.88048584
_cell_angle_alpha   59.85089793
_cell_angle_beta   60.04947880
_cell_angle_gamma   60.11770774
_symmetry_Int_Tables_number   1
_chemical_formula_structural   Ta6Co16Si2GeP4
_chemical_formula_sum   'Ta6 Co16 Si2 Ge1 P4'
_cell_volume   344.86833961
_cell_formula_units_Z   1
loop_
 _symmetry_equiv_pos_site_id
 _symmetry_equiv_pos_as_xyz
  1  'x, y, z'
loop_
 _atom_site_type_symbol
 _atom_site_label
 _atom_site_symmetry_multiplicity
 _atom_site_fract_x
 _atom_site_fract_y
 _atom_site_fract_z
 _atom_site_occupancy
  Ta  Ta0  1  0.700009  0.298238  0.299991  1
  Ta  Ta1  1  0.700912  0.299088  0.700912  1
  Ta  Ta2  1  0.299991  0.701762  0.700009  1
  Ta  Ta3  1  0.299088  0.700912  0.299088  1
  Ta  Ta4  1  0.300080  0.298955  0.699920  1
  Ta  Ta5  1  0.699920  0.701045  0.300080  1
  Co  Co6  1  0.881143  0.887843  0.881059  1
  Co  Co7  1  0.996270  0.326108  0.343118  1
  Co  Co8  1  0.118424  0.116260  0.650048  1
  Co  Co9  1  0.656882  0.665495  0.003730  1
  Co  Co10  1  0.343118  0.334505  0.996270  1
  Co  Co11  1  0.660103  0.669293  0.667261  1
  Co  Co12  1  0.339897  0.330707  0.332739  1
  Co  Co13  1  0.881576  0.883740  0.349952  1
  Co  Co14  1  0.332739  0.996658  0.339897  1
  Co  Co15  1  0.118857  0.112157  0.118941  1
  Co  Co16  1  0.881059  0.349954  0.881143  1
  Co  Co17  1  0.650048  0.115269  0.118424  1
  Co  Co18  1  0.118941  0.650046  0.118857  1
  Co  Co19  1  0.667261  0.003342  0.660103  1
  Co  Co20  1  0.349952  0.884731  0.881576  1
  Co  Co21  1  0.003730  0.673892  0.656882  1
  Si  Si22  1  0.000000  0.500000  0.500000  1
  Si  Si23  1  0.500000  0.000000  0.000000  1
  Ge  Ge24  1  0.000000  0.500000  0.000000  1
  P  P25  1  0.500000  0.500000  0.000000  1
  P  P26  1  0.000000  0.000000  0.000000  1
  P  P27  1  0.500000  0.000000  0.500000  1
  P  P28  1  0.000000  0.000000  0.500000  1
