# generated using pymatgen
data_Ho5VMoO12
_symmetry_space_group_name_H-M   'P 1'
_cell_length_a   6.81340204
_cell_length_b   6.81340119
_cell_length_c   7.28528894
_cell_angle_alpha   74.34703415
_cell_angle_beta   74.34703976
_cell_angle_gamma   50.91535112
_symmetry_Int_Tables_number   1
_chemical_formula_structural   Ho5VMoO12
_chemical_formula_sum   'Ho5 V1 Mo1 O12'
_cell_volume   250.52179513
_cell_formula_units_Z   1
loop_
 _symmetry_equiv_pos_site_id
 _symmetry_equiv_pos_as_xyz
  1  'x, y, z'
loop_
 _atom_site_type_symbol
 _atom_site_label
 _atom_site_symmetry_multiplicity
 _atom_site_fract_x
 _atom_site_fract_y
 _atom_site_fract_z
 _atom_site_occupancy
  Ho  Ho0  1  0.314820  0.288552  0.360744  1
  Ho  Ho1  1  0.711448  0.685180  0.639256  1
  Ho  Ho2  1  0.312588  0.305363  0.828034  1
  Ho  Ho3  1  0.694637  0.687412  0.171966  1
  Ho  Ho4  1  0.003848  0.996152  0.500000  1
  V  V5  1  0.746224  0.253776  0.000000  1
  Mo  Mo6  1  0.229865  0.770135  0.000000  1
  O  O7  1  0.903210  0.430303  0.915967  1
  O  O8  1  0.423094  0.900577  0.916505  1
  O  O9  1  0.099423  0.576906  0.083495  1
  O  O10  1  0.569697  0.096790  0.084033  1
  O  O11  1  0.104939  0.593497  0.571296  1
  O  O12  1  0.600199  0.089076  0.576529  1
  O  O13  1  0.910924  0.399801  0.423471  1
  O  O14  1  0.406503  0.895061  0.428704  1
  O  O15  1  0.983121  0.015706  0.812366  1
  O  O16  1  0.984294  0.016879  0.187634  1
  O  O17  1  0.500285  0.499120  0.812943  1
  O  O18  1  0.500880  0.499715  0.187057  1
