# generated using pymatgen
data_Sr2Tb2As7Rh8
_symmetry_space_group_name_H-M   'P 1'
_cell_length_a   4.09774100
_cell_length_b   13.30535867
_cell_length_c   13.71163700
_cell_angle_alpha   81.37115615
_cell_angle_beta   90.00000000
_cell_angle_gamma   90.00000000
_symmetry_Int_Tables_number   1
_chemical_formula_structural   Sr2Tb2As7Rh8
_chemical_formula_sum   'Sr4 Tb4 As14 Rh16'
_cell_volume   739.12276096
_cell_formula_units_Z   2
loop_
 _symmetry_equiv_pos_site_id
 _symmetry_equiv_pos_as_xyz
  1  'x, y, z'
loop_
 _atom_site_type_symbol
 _atom_site_label
 _atom_site_symmetry_multiplicity
 _atom_site_fract_x
 _atom_site_fract_y
 _atom_site_fract_z
 _atom_site_occupancy
  Sr  Sr0  1  0.250000  0.106755  0.787526  1
  Sr  Sr1  1  0.750000  0.893245  0.212474  1
  Sr  Sr2  1  0.250000  0.284303  0.103650  1
  Sr  Sr3  1  0.750000  0.715697  0.896350  1
  Tb  Tb4  1  0.250000  0.518477  0.292084  1
  Tb  Tb5  1  0.750000  0.481523  0.707916  1
  Tb  Tb6  1  0.250000  0.208203  0.441669  1
  Tb  Tb7  1  0.750000  0.791797  0.558331  1
  As  As8  1  0.250000  0.054745  0.101823  1
  As  As9  1  0.750000  0.945255  0.898177  1
  As  As10  1  0.250000  0.319250  0.684782  1
  As  As11  1  0.750000  0.680750  0.315218  1
  As  As12  1  0.250000  0.606805  0.566165  1
  As  As13  1  0.750000  0.393195  0.433835  1
  As  As14  1  0.250000  0.843160  0.713964  1
  As  As15  1  0.750000  0.156840  0.286036  1
  As  As16  1  0.750000  0.259449  0.919039  1
  As  As17  1  0.250000  0.740551  0.080961  1
  As  As18  1  0.750000  0.095231  0.584611  1
  As  As19  1  0.250000  0.904769  0.415389  1
  As  As20  1  0.750000  0.471173  0.130621  1
  As  As21  1  0.250000  0.528827  0.869379  1
  Rh  Rh22  1  0.250000  0.986127  0.572939  1
  Rh  Rh23  1  0.750000  0.013873  0.427061  1
  Rh  Rh24  1  0.250000  0.661357  0.725480  1
  Rh  Rh25  1  0.750000  0.338643  0.274520  1
  Rh  Rh26  1  0.250000  0.550879  0.049409  1
  Rh  Rh27  1  0.750000  0.449121  0.950591  1
  Rh  Rh28  1  0.250000  0.059643  0.280763  1
  Rh  Rh29  1  0.750000  0.940357  0.719237  1
  Rh  Rh30  1  0.250000  0.427018  0.523087  1
  Rh  Rh31  1  0.750000  0.572982  0.476913  1
  Rh  Rh32  1  0.250000  0.919236  0.999001  1
  Rh  Rh33  1  0.750000  0.080764  0.000999  1
  Rh  Rh34  1  0.250000  0.720466  0.405136  1
  Rh  Rh35  1  0.750000  0.279534  0.594864  1
  Rh  Rh36  1  0.250000  0.347421  0.856780  1
  Rh  Rh37  1  0.750000  0.652579  0.143220  1
