# generated using pymatgen
data_LiTb7(Si4W3)4
_symmetry_space_group_name_H-M   'P 1'
_cell_length_a   6.74787468
_cell_length_b   6.92089761
_cell_length_c   12.92890844
_cell_angle_alpha   90.00922057
_cell_angle_beta   89.85175718
_cell_angle_gamma   89.88734837
_symmetry_Int_Tables_number   1
_chemical_formula_structural   LiTb7(Si4W3)4
_chemical_formula_sum   'Li1 Tb7 Si16 W12'
_cell_volume   603.79427829
_cell_formula_units_Z   1
loop_
 _symmetry_equiv_pos_site_id
 _symmetry_equiv_pos_as_xyz
  1  'x, y, z'
loop_
 _atom_site_type_symbol
 _atom_site_label
 _atom_site_symmetry_multiplicity
 _atom_site_fract_x
 _atom_site_fract_y
 _atom_site_fract_z
 _atom_site_occupancy
  Li  Li0  1  0.975940  0.829763  0.590501  1
  Tb  Tb1  1  0.498597  0.668780  0.593563  1
  Tb  Tb2  1  0.998509  0.831340  0.906949  1
  Tb  Tb3  1  0.505127  0.331464  0.093510  1
  Tb  Tb4  1  0.002240  0.163796  0.412579  1
  Tb  Tb5  1  0.500873  0.332123  0.409957  1
  Tb  Tb6  1  0.005144  0.168010  0.093843  1
  Tb  Tb7  1  0.497118  0.670114  0.902909  1
  Si  Si8  1  0.660360  0.956076  0.456479  1
  Si  Si9  1  0.164005  0.544904  0.044890  1
  Si  Si10  1  0.339109  0.045207  0.953133  1
  Si  Si11  1  0.844632  0.466951  0.548729  1
  Si  Si12  1  0.327141  0.033679  0.548643  1
  Si  Si13  1  0.837998  0.454718  0.954398  1
  Si  Si14  1  0.663873  0.955075  0.045253  1
  Si  Si15  1  0.157509  0.550562  0.456678  1
  Si  Si16  1  0.466672  0.371822  0.750098  1
  Si  Si17  1  0.969366  0.121707  0.745253  1
  Si  Si18  1  0.534628  0.628284  0.250823  1
  Si  Si19  1  0.034833  0.870134  0.251651  1
  Si  Si20  1  0.709598  0.866255  0.743999  1
  Si  Si21  1  0.188246  0.644119  0.741984  1
  Si  Si22  1  0.301579  0.133591  0.251573  1
  Si  Si23  1  0.803609  0.364924  0.252772  1
  W  W24  1  0.667470  0.165279  0.624187  1
  W  W25  1  0.168919  0.339257  0.873116  1
  W  W26  1  0.333767  0.837985  0.126167  1
  W  W27  1  0.828699  0.663092  0.375413  1
  W  W28  1  0.333424  0.837122  0.374350  1
  W  W29  1  0.831838  0.660733  0.126435  1
  W  W30  1  0.671279  0.161072  0.872230  1
  W  W31  1  0.171867  0.335456  0.626624  1
  W  W32  1  0.838781  0.493203  0.750723  1
  W  W33  1  0.338931  0.003115  0.750014  1
  W  W34  1  0.164014  0.503549  0.250394  1
  W  W35  1  0.664310  0.996738  0.250176  1
