# generated using pymatgen
data_Zr10In(SnBi2)2
_symmetry_space_group_name_H-M   'P 1'
_cell_length_a   6.02744188
_cell_length_b   8.75686446
_cell_length_c   8.77612674
_cell_angle_alpha   119.92727217
_cell_angle_beta   90.03083183
_cell_angle_gamma   89.93826015
_symmetry_Int_Tables_number   1
_chemical_formula_structural   Zr10In(SnBi2)2
_chemical_formula_sum   'Zr10 In1 Sn2 Bi4'
_cell_volume   401.45117475
_cell_formula_units_Z   1
loop_
 _symmetry_equiv_pos_site_id
 _symmetry_equiv_pos_as_xyz
  1  'x, y, z'
loop_
 _atom_site_type_symbol
 _atom_site_label
 _atom_site_symmetry_multiplicity
 _atom_site_fract_x
 _atom_site_fract_y
 _atom_site_fract_z
 _atom_site_occupancy
  Zr  Zr0  1  0.495566  0.333177  0.664272  1
  Zr  Zr1  1  0.495565  0.668905  0.335728  1
  Zr  Zr2  1  0.006066  0.667640  0.334782  1
  Zr  Zr3  1  0.006064  0.332858  0.665219  1
  Zr  Zr4  1  0.788776  0.263680  0.000000  1
  Zr  Zr5  1  0.782318  0.734013  0.734183  1
  Zr  Zr6  1  0.782317  0.999830  0.265816  1
  Zr  Zr7  1  0.220317  0.729594  0.000000  1
  Zr  Zr8  1  0.218807  0.270679  0.271267  1
  Zr  Zr9  1  0.218807  0.999412  0.728733  1
  In  In10  1  0.259867  0.384718  0.000000  1
  Sn  Sn11  1  0.255863  0.614951  0.615070  1
  Sn  Sn12  1  0.255863  0.999881  0.384930  1
  Bi  Bi13  1  0.740176  0.608158  0.000001  1
  Bi  Bi14  1  0.739514  0.389828  0.388635  1
  Bi  Bi15  1  0.739515  0.001191  0.611364  1
  Bi  Bi16  1  0.494598  0.001490  0.000000  1
