# generated using pymatgen
data_CaCd(ClO4)4
_symmetry_space_group_name_H-M   'P 1'
_cell_length_a   5.24142638
_cell_length_b   7.39514156
_cell_length_c   9.22792030
_cell_angle_alpha   90.05534622
_cell_angle_beta   89.89350526
_cell_angle_gamma   97.95406588
_symmetry_Int_Tables_number   1
_chemical_formula_structural   CaCd(ClO4)4
_chemical_formula_sum   'Ca1 Cd1 Cl4 O16'
_cell_volume   354.24238392
_cell_formula_units_Z   1
loop_
 _symmetry_equiv_pos_site_id
 _symmetry_equiv_pos_as_xyz
  1  'x, y, z'
loop_
 _atom_site_type_symbol
 _atom_site_label
 _atom_site_symmetry_multiplicity
 _atom_site_fract_x
 _atom_site_fract_y
 _atom_site_fract_z
 _atom_site_occupancy
  Ca  Ca0  1  0.500000  0.500000  0.500000  1
  Cd  Cd1  1  0.000000  0.000000  0.000000  1
  Cl  Cl2  1  0.558725  0.246746  0.162939  1
  Cl  Cl3  1  0.946432  0.245476  0.673985  1
  Cl  Cl4  1  0.441275  0.753254  0.837061  1
  Cl  Cl5  1  0.053568  0.754524  0.326015  1
  O  O6  1  0.564455  0.284935  0.319024  1
  O  O7  1  0.942699  0.224881  0.832351  1
  O  O8  1  0.435545  0.715065  0.680976  1
  O  O9  1  0.057301  0.775119  0.167649  1
  O  O10  1  0.286957  0.221734  0.116800  1
  O  O11  1  0.215453  0.275191  0.624945  1
  O  O12  1  0.713043  0.778266  0.883200  1
  O  O13  1  0.784547  0.724809  0.375055  1
  O  O14  1  0.660652  0.070937  0.142391  1
  O  O15  1  0.833873  0.413357  0.642933  1
  O  O16  1  0.339348  0.929063  0.857609  1
  O  O17  1  0.166127  0.586643  0.357067  1
  O  O18  1  0.706806  0.390700  0.083904  1
  O  O19  1  0.805542  0.090639  0.603945  1
  O  O20  1  0.293194  0.609300  0.916096  1
  O  O21  1  0.194458  0.909361  0.396055  1
