# generated using pymatgen
data_Er10(InSb)3
_symmetry_space_group_name_H-M   'P 1'
_cell_length_a   8.89489400
_cell_length_b   8.87732750
_cell_length_c   6.49966100
_cell_angle_alpha   90.00000000
_cell_angle_beta   90.00000000
_cell_angle_gamma   120.06547252
_symmetry_Int_Tables_number   1
_chemical_formula_structural   Er10(InSb)3
_chemical_formula_sum   'Er10 In3 Sb3'
_cell_volume   444.17841985
_cell_formula_units_Z   1
loop_
 _symmetry_equiv_pos_site_id
 _symmetry_equiv_pos_as_xyz
  1  'x, y, z'
loop_
 _atom_site_type_symbol
 _atom_site_label
 _atom_site_symmetry_multiplicity
 _atom_site_fract_x
 _atom_site_fract_y
 _atom_site_fract_z
 _atom_site_occupancy
  Er  Er0  1  0.003041  0.763770  0.750000  1
  Er  Er1  1  0.003652  0.239084  0.250000  1
  Er  Er2  1  0.764568  0.760916  0.250000  1
  Er  Er3  1  0.761747  0.000000  0.750000  1
  Er  Er4  1  0.239271  0.236230  0.750000  1
  Er  Er5  1  0.237446  0.000000  0.250000  1
  Er  Er6  1  0.330839  0.666139  0.499035  1
  Er  Er7  1  0.664701  0.333861  0.000965  1
  Er  Er8  1  0.664701  0.333861  0.499035  1
  Er  Er9  1  0.330839  0.666139  0.000965  1
  In  In10  1  0.396813  0.000000  0.750000  1
  In  In11  1  0.394726  0.397109  0.250000  1
  In  In12  1  0.997617  0.602891  0.250000  1
  Sb  Sb13  1  0.997118  0.391293  0.750000  1
  Sb  Sb14  1  0.605825  0.608707  0.750000  1
  Sb  Sb15  1  0.607095  0.000000  0.250000  1
