# generated using pymatgen
data_ZrScCuS4
_symmetry_space_group_name_H-M   'P 1'
_cell_length_a   7.41375335
_cell_length_b   7.41375348
_cell_length_c   7.41375334
_cell_angle_alpha   120.15079818
_cell_angle_beta   119.85762061
_cell_angle_gamma   89.99289889
_symmetry_Int_Tables_number   1
_chemical_formula_structural   ZrScCuS4
_chemical_formula_sum   'Zr2 Sc2 Cu2 S8'
_cell_volume   288.11655319
_cell_formula_units_Z   2
loop_
 _symmetry_equiv_pos_site_id
 _symmetry_equiv_pos_as_xyz
  1  'x, y, z'
loop_
 _atom_site_type_symbol
 _atom_site_label
 _atom_site_symmetry_multiplicity
 _atom_site_fract_x
 _atom_site_fract_y
 _atom_site_fract_z
 _atom_site_occupancy
  Zr  Zr0  1  0.000000  0.500000  0.000000  1
  Zr  Zr1  1  0.000000  0.000000  0.500000  1
  Sc  Sc2  1  0.500000  0.500000  0.000000  1
  Sc  Sc3  1  0.000000  0.500000  0.500000  1
  Cu  Cu4  1  0.371549  0.121549  0.250000  1
  Cu  Cu5  1  0.628451  0.878451  0.750000  1
  S  S6  1  0.242963  0.748581  0.494382  1
  S  S7  1  0.754199  0.748581  0.005618  1
  S  S8  1  0.754742  0.747755  0.493013  1
  S  S9  1  0.754742  0.261729  0.006987  1
  S  S10  1  0.757037  0.251419  0.505618  1
  S  S11  1  0.245801  0.251419  0.994382  1
  S  S12  1  0.245258  0.252245  0.506987  1
  S  S13  1  0.245258  0.738271  0.993013  1
