# generated using pymatgen
data_Ta2Mn7FeOs2
_symmetry_space_group_name_H-M   'P 1'
_cell_length_a   4.69867400
_cell_length_b   4.69867396
_cell_length_c   7.79432500
_cell_angle_alpha   90.00000000
_cell_angle_beta   90.00000000
_cell_angle_gamma   120.00000029
_symmetry_Int_Tables_number   1
_chemical_formula_structural   Ta2Mn7FeOs2
_chemical_formula_sum   'Ta2 Mn7 Fe1 Os2'
_cell_volume   149.02521790
_cell_formula_units_Z   1
loop_
 _symmetry_equiv_pos_site_id
 _symmetry_equiv_pos_as_xyz
  1  'x, y, z'
loop_
 _atom_site_type_symbol
 _atom_site_label
 _atom_site_symmetry_multiplicity
 _atom_site_fract_x
 _atom_site_fract_y
 _atom_site_fract_z
 _atom_site_occupancy
  Ta  Ta0  1  0.666667  0.333333  0.936163  1
  Ta  Ta1  1  0.333333  0.666667  0.435158  1
  Mn  Mn2  1  0.000000  0.000000  0.498024  1
  Mn  Mn3  1  0.827184  0.654365  0.248527  1
  Mn  Mn4  1  0.174054  0.825946  0.747996  1
  Mn  Mn5  1  0.651889  0.825946  0.747996  1
  Mn  Mn6  1  0.345635  0.172816  0.248527  1
  Mn  Mn7  1  0.827184  0.172816  0.248527  1
  Mn  Mn8  1  0.174054  0.348111  0.747996  1
  Fe  Fe9  1  0.000000  0.000000  0.999362  1
  Os  Os10  1  0.333333  0.666667  0.070947  1
  Os  Os11  1  0.666667  0.333333  0.570781  1
