# generated using pymatgen
data_KAlCr2O8
_symmetry_space_group_name_H-M   'P 1'
_cell_length_a   5.41080101
_cell_length_b   9.15186545
_cell_length_c   8.82524767
_cell_angle_alpha   64.38101662
_cell_angle_beta   90.00391361
_cell_angle_gamma   107.18903598
_symmetry_Int_Tables_number   1
_chemical_formula_structural   KAlCr2O8
_chemical_formula_sum   'K2 Al2 Cr4 O16'
_cell_volume   372.29260057
_cell_formula_units_Z   2
loop_
 _symmetry_equiv_pos_site_id
 _symmetry_equiv_pos_as_xyz
  1  'x, y, z'
loop_
 _atom_site_type_symbol
 _atom_site_label
 _atom_site_symmetry_multiplicity
 _atom_site_fract_x
 _atom_site_fract_y
 _atom_site_fract_z
 _atom_site_occupancy
  K  K0  1  0.500180  0.999961  0.500070  1
  K  K1  1  0.000002  0.000074  0.999845  1
  Al  Al2  1  0.749931  0.499979  0.249989  1
  Al  Al3  1  0.249992  0.499930  0.749984  1
  Cr  Cr4  1  0.648576  0.297068  0.988460  1
  Cr  Cr5  1  0.148408  0.296720  0.488285  1
  Cr  Cr6  1  0.851619  0.703074  0.511560  1
  Cr  Cr7  1  0.351554  0.703410  0.011655  1
  O  O8  1  0.549189  0.098719  0.134217  1
  O  O9  1  0.048994  0.098428  0.633705  1
  O  O10  1  0.950816  0.901214  0.365841  1
  O  O11  1  0.450912  0.901616  0.866187  1
  O  O12  1  0.714745  0.430108  0.075101  1
  O  O13  1  0.214654  0.429511  0.575369  1
  O  O14  1  0.785171  0.569871  0.424940  1
  O  O15  1  0.285372  0.570534  0.924769  1
  O  O16  1  0.921471  0.329929  0.868451  1
  O  O17  1  0.421656  0.329764  0.368390  1
  O  O18  1  0.578642  0.670044  0.631533  1
  O  O19  1  0.078153  0.670158  0.131624  1
  O  O20  1  0.408729  0.329933  0.868260  1
  O  O21  1  0.908872  0.330099  0.367912  1
  O  O22  1  0.091365  0.669982  0.631708  1
  O  O23  1  0.590999  0.669874  0.132142  1
