# generated using pymatgen
data_Sm5Ho(RuBr3)2
_symmetry_space_group_name_H-M   'P 1'
_cell_length_a   4.15647500
_cell_length_b   8.85220869
_cell_length_c   11.96322800
_cell_angle_alpha   87.24993141
_cell_angle_beta   90.00000000
_cell_angle_gamma   90.00000000
_symmetry_Int_Tables_number   1
_chemical_formula_structural   Sm5Ho(RuBr3)2
_chemical_formula_sum   'Sm5 Ho1 Ru2 Br6'
_cell_volume   439.66788450
_cell_formula_units_Z   1
loop_
 _symmetry_equiv_pos_site_id
 _symmetry_equiv_pos_as_xyz
  1  'x, y, z'
loop_
 _atom_site_type_symbol
 _atom_site_label
 _atom_site_symmetry_multiplicity
 _atom_site_fract_x
 _atom_site_fract_y
 _atom_site_fract_z
 _atom_site_occupancy
  Sm  Sm0  1  0.250000  0.302926  0.384115  1
  Sm  Sm1  1  0.750000  0.696954  0.613506  1
  Sm  Sm2  1  0.250000  0.885467  0.374912  1
  Sm  Sm3  1  0.750000  0.116459  0.625081  1
  Sm  Sm4  1  0.250000  0.883612  0.834968  1
  Ho  Ho5  1  0.750000  0.117237  0.168789  1
  Ru  Ru6  1  0.250000  0.910112  0.610455  1
  Ru  Ru7  1  0.750000  0.090410  0.389519  1
  Br  Br8  1  0.250000  0.409278  0.628309  1
  Br  Br9  1  0.750000  0.590154  0.369174  1
  Br  Br10  1  0.250000  0.890570  0.110309  1
  Br  Br11  1  0.750000  0.117734  0.894156  1
  Br  Br12  1  0.250000  0.342445  0.127310  1
  Br  Br13  1  0.750000  0.646643  0.869398  1
