# generated using pymatgen
data_Hf5(In2Co)2
_symmetry_space_group_name_H-M   'P 1'
_cell_length_a   17.11050300
_cell_length_b   7.52980400
_cell_length_c   3.32338900
_cell_angle_alpha   90.00000000
_cell_angle_beta   90.00000000
_cell_angle_gamma   90.00000000
_symmetry_Int_Tables_number   1
_chemical_formula_structural   Hf5(In2Co)2
_chemical_formula_sum   'Hf10 In8 Co4'
_cell_volume   428.18123112
_cell_formula_units_Z   2
loop_
 _symmetry_equiv_pos_site_id
 _symmetry_equiv_pos_as_xyz
  1  'x, y, z'
loop_
 _atom_site_type_symbol
 _atom_site_label
 _atom_site_symmetry_multiplicity
 _atom_site_fract_x
 _atom_site_fract_y
 _atom_site_fract_z
 _atom_site_occupancy
  Hf  Hf0  1  0.000000  0.000000  0.000000  1
  Hf  Hf1  1  0.412929  0.135691  0.000000  1
  Hf  Hf2  1  0.724231  0.239590  0.000000  1
  Hf  Hf3  1  0.224230  0.260409  0.000000  1
  Hf  Hf4  1  0.912929  0.364308  0.000000  1
  Hf  Hf5  1  0.500000  0.500000  0.000000  1
  Hf  Hf6  1  0.087071  0.635691  0.000000  1
  Hf  Hf7  1  0.775770  0.739590  0.000000  1
  Hf  Hf8  1  0.275770  0.760409  0.000000  1
  Hf  Hf9  1  0.587071  0.864308  0.000000  1
  In  In10  1  0.848791  0.057064  0.500000  1
  In  In11  1  0.566854  0.195006  0.500000  1
  In  In12  1  0.066855  0.304994  0.500000  1
  In  In13  1  0.348791  0.442936  0.500000  1
  In  In14  1  0.651210  0.557064  0.500000  1
  In  In15  1  0.933146  0.695007  0.500000  1
  In  In16  1  0.433145  0.804994  0.500000  1
  In  In17  1  0.151210  0.942936  0.500000  1
  Co  Co18  1  0.305815  0.051843  0.500000  1
  Co  Co19  1  0.805816  0.448156  0.500000  1
  Co  Co20  1  0.194185  0.551843  0.500000  1
  Co  Co21  1  0.694185  0.948156  0.500000  1
