# generated using pymatgen
data_ZrPd7Au
_symmetry_space_group_name_H-M   'P 1'
_cell_length_a   6.40113644
_cell_length_b   6.40112745
_cell_length_c   6.25787091
_cell_angle_alpha   95.95335435
_cell_angle_beta   95.95446247
_cell_angle_gamma   142.86219343
_symmetry_Int_Tables_number   1
_chemical_formula_structural   ZrPd7Au
_chemical_formula_sum   'Zr1 Pd7 Au1'
_cell_volume   146.36245642
_cell_formula_units_Z   1
loop_
 _symmetry_equiv_pos_site_id
 _symmetry_equiv_pos_as_xyz
  1  'x, y, z'
loop_
 _atom_site_type_symbol
 _atom_site_label
 _atom_site_symmetry_multiplicity
 _atom_site_fract_x
 _atom_site_fract_y
 _atom_site_fract_z
 _atom_site_occupancy
  Zr  Zr0  1  0.995452  0.004539  0.999990  1
  Pd  Pd1  1  0.335021  0.664962  0.999982  1
  Pd  Pd2  1  0.002460  0.332330  0.334788  1
  Pd  Pd3  1  0.331065  0.001517  0.332581  1
  Pd  Pd4  1  0.665869  0.665625  0.331493  1
  Pd  Pd5  1  0.334375  0.334145  0.668519  1
  Pd  Pd6  1  0.998486  0.668939  0.667425  1
  Pd  Pd7  1  0.667685  0.997546  0.665230  1
  Au  Au8  1  0.669592  0.330401  0.999992  1
