# generated using pymatgen
data_Zr6AlFeSe
_symmetry_space_group_name_H-M   'P 1'
_cell_length_a   7.77222700
_cell_length_b   7.77222723
_cell_length_c   3.43635700
_cell_angle_alpha   90.00000000
_cell_angle_beta   90.00000000
_cell_angle_gamma   120.00000329
_symmetry_Int_Tables_number   1
_chemical_formula_structural   Zr6AlFeSe
_chemical_formula_sum   'Zr6 Al1 Fe1 Se1'
_cell_volume   179.77109291
_cell_formula_units_Z   1
loop_
 _symmetry_equiv_pos_site_id
 _symmetry_equiv_pos_as_xyz
  1  'x, y, z'
loop_
 _atom_site_type_symbol
 _atom_site_label
 _atom_site_symmetry_multiplicity
 _atom_site_fract_x
 _atom_site_fract_y
 _atom_site_fract_z
 _atom_site_occupancy
  Zr  Zr0  1  0.586290  0.988661  0.000000  1
  Zr  Zr1  1  0.402371  0.413710  0.000000  1
  Zr  Zr2  1  0.011339  0.597629  0.000000  1
  Zr  Zr3  1  0.995507  0.244428  0.500000  1
  Zr  Zr4  1  0.755572  0.751079  0.500000  1
  Zr  Zr5  1  0.248921  0.004493  0.500000  1
  Al  Al6  1  0.666667  0.333333  0.500000  1
  Fe  Fe7  1  0.000000  0.000000  0.000000  1
  Se  Se8  1  0.333333  0.666667  0.500000  1
