# generated using pymatgen
data_Tb10Si16H
_symmetry_space_group_name_H-M   'P 1'
_cell_length_a   11.12812760
_cell_length_b   11.11956325
_cell_length_c   11.12813200
_cell_angle_alpha   144.72075000
_cell_angle_beta   136.53357541
_cell_angle_gamma   57.18606667
_symmetry_Int_Tables_number   1
_chemical_formula_structural   Tb10Si16H
_chemical_formula_sum   'Tb10 Si16 H1'
_cell_volume   542.65972659
_cell_formula_units_Z   1
loop_
 _symmetry_equiv_pos_site_id
 _symmetry_equiv_pos_as_xyz
  1  'x, y, z'
loop_
 _atom_site_type_symbol
 _atom_site_label
 _atom_site_symmetry_multiplicity
 _atom_site_fract_x
 _atom_site_fract_y
 _atom_site_fract_z
 _atom_site_occupancy
  Tb  Tb0  1  0.051348  0.568629  0.012402  1
  Tb  Tb1  1  0.351881  0.370571  0.517604  1
  Tb  Tb2  1  0.152078  0.162127  0.510102  1
  Tb  Tb3  1  0.453336  0.968770  0.018031  1
  Tb  Tb4  1  0.652025  0.162127  0.010049  1
  Tb  Tb5  1  0.950739  0.968770  0.515434  1
  Tb  Tb6  1  0.852968  0.370571  0.018691  1
  Tb  Tb7  1  0.556227  0.568629  0.517280  1
  Tb  Tb8  1  0.249336  0.766947  0.011311  1
  Tb  Tb9  1  0.755636  0.766947  0.517611  1
  Si  Si10  1  0.117327  0.069518  0.952191  1
  Si  Si11  1  0.805321  0.209363  0.404041  1
  Si  Si12  1  0.302672  0.902559  0.599887  1
  Si  Si13  1  0.402520  0.501019  0.098499  1
  Si  Si14  1  0.899906  0.821159  0.921254  1
  Si  Si15  1  0.102410  0.701936  0.599525  1
  Si  Si16  1  0.202251  0.592240  0.389990  1
  Si  Si17  1  0.699810  0.295094  0.595284  1
  Si  Si18  1  0.990184  0.441994  0.451810  1
  Si  Si19  1  0.713425  0.666775  0.953351  1
  Si  Si20  1  0.601818  0.700607  0.098789  1
  Si  Si21  1  0.003585  0.101227  0.097642  1
  Si  Si22  1  0.502502  0.391570  0.889066  1
  Si  Si23  1  0.289159  0.244386  0.955227  1
  Si  Si24  1  0.587098  0.039262  0.452164  1
  Si  Si25  1  0.416308  0.869575  0.453266  1
  H  H26  1  0.838130  0.466549  0.628418  1
