# generated using pymatgen
data_Er6Al24Ru5Pt3
_symmetry_space_group_name_H-M   'P 1'
_cell_length_a   8.82773865
_cell_length_b   8.82252126
_cell_length_c   9.49168588
_cell_angle_alpha   90.22868643
_cell_angle_beta   89.98767356
_cell_angle_gamma   119.82320459
_symmetry_Int_Tables_number   1
_chemical_formula_structural   Er6Al24Ru5Pt3
_chemical_formula_sum   'Er6 Al24 Ru5 Pt3'
_cell_volume   641.33176689
_cell_formula_units_Z   1
loop_
 _symmetry_equiv_pos_site_id
 _symmetry_equiv_pos_as_xyz
  1  'x, y, z'
loop_
 _atom_site_type_symbol
 _atom_site_label
 _atom_site_symmetry_multiplicity
 _atom_site_fract_x
 _atom_site_fract_y
 _atom_site_fract_z
 _atom_site_occupancy
  Er  Er0  1  0.189979  0.387481  0.251817  1
  Er  Er1  1  0.810021  0.612519  0.748183  1
  Er  Er2  1  0.613444  0.808498  0.250237  1
  Er  Er3  1  0.386556  0.191502  0.749763  1
  Er  Er4  1  0.192079  0.804126  0.250133  1
  Er  Er5  1  0.807921  0.195874  0.749867  1
  Al  Al6  1  0.327509  0.663394  0.027215  1
  Al  Al7  1  0.672491  0.336606  0.972785  1
  Al  Al8  1  0.669091  0.330143  0.526076  1
  Al  Al9  1  0.330909  0.669857  0.473924  1
  Al  Al10  1  0.157833  0.324578  0.577399  1
  Al  Al11  1  0.842167  0.675422  0.422601  1
  Al  Al12  1  0.676045  0.842577  0.576930  1
  Al  Al13  1  0.842019  0.675481  0.077137  1
  Al  Al14  1  0.323955  0.157423  0.423070  1
  Al  Al15  1  0.157981  0.324519  0.922863  1
  Al  Al16  1  0.162851  0.835942  0.576102  1
  Al  Al17  1  0.321599  0.161450  0.079419  1
  Al  Al18  1  0.837149  0.164058  0.423898  1
  Al  Al19  1  0.678401  0.838550  0.920581  1
  Al  Al20  1  0.842261  0.167361  0.077505  1
  Al  Al21  1  0.157739  0.832639  0.922495  1
  Al  Al22  1  0.561330  0.124680  0.254036  1
  Al  Al23  1  0.438670  0.875320  0.745964  1
  Al  Al24  1  0.877368  0.439420  0.249838  1
  Al  Al25  1  0.122632  0.560580  0.750162  1
  Al  Al26  1  0.563224  0.436316  0.249517  1
  Al  Al27  1  0.436776  0.563684  0.750483  1
  Al  Al28  1  0.998245  0.000128  0.250238  1
  Al  Al29  1  0.001755  0.999872  0.749762  1
  Ru  Ru30  1  0.000000  0.500000  0.000000  1
  Ru  Ru31  1  0.500000  0.000000  0.500000  1
  Ru  Ru32  1  0.000000  0.500000  0.500000  1
  Ru  Ru33  1  0.000000  0.000000  0.000000  1
  Ru  Ru34  1  0.000000  0.000000  0.500000  1
  Pt  Pt35  1  0.500000  0.000000  0.000000  1
  Pt  Pt36  1  0.500000  0.500000  0.000000  1
  Pt  Pt37  1  0.500000  0.500000  0.500000  1
