# generated using pymatgen
data_Ta2AlFe5B2
_symmetry_space_group_name_H-M   'P 1'
_cell_length_a   8.68366200
_cell_length_b   8.68366200
_cell_length_c   2.92731000
_cell_angle_alpha   90.00000000
_cell_angle_beta   90.00000000
_cell_angle_gamma   90.00000000
_symmetry_Int_Tables_number   1
_chemical_formula_structural   Ta2AlFe5B2
_chemical_formula_sum   'Ta4 Al2 Fe10 B4'
_cell_volume   220.73669609
_cell_formula_units_Z   2
loop_
 _symmetry_equiv_pos_site_id
 _symmetry_equiv_pos_as_xyz
  1  'x, y, z'
loop_
 _atom_site_type_symbol
 _atom_site_label
 _atom_site_symmetry_multiplicity
 _atom_site_fract_x
 _atom_site_fract_y
 _atom_site_fract_z
 _atom_site_occupancy
  Ta  Ta0  1  0.822702  0.677298  0.000000  1
  Ta  Ta1  1  0.177298  0.322702  0.000000  1
  Ta  Ta2  1  0.322702  0.822702  0.000000  1
  Ta  Ta3  1  0.677298  0.177298  0.000000  1
  Al  Al4  1  0.500000  0.500000  0.000000  1
  Al  Al5  1  0.000000  0.000000  0.000000  1
  Fe  Fe6  1  0.567927  0.719751  0.500000  1
  Fe  Fe7  1  0.432073  0.280249  0.500000  1
  Fe  Fe8  1  0.067927  0.780249  0.500000  1
  Fe  Fe9  1  0.932073  0.219751  0.500000  1
  Fe  Fe10  1  0.280249  0.567927  0.500000  1
  Fe  Fe11  1  0.719751  0.432073  0.500000  1
  Fe  Fe12  1  0.219751  0.067927  0.500000  1
  Fe  Fe13  1  0.780249  0.932073  0.500000  1
  Fe  Fe14  1  0.500000  0.000000  0.500000  1
  Fe  Fe15  1  0.000000  0.500000  0.500000  1
  B  B16  1  0.621599  0.878401  0.000000  1
  B  B17  1  0.378401  0.121599  0.000000  1
  B  B18  1  0.121599  0.621599  0.000000  1
  B  B19  1  0.878401  0.378401  0.000000  1
