# generated using pymatgen
data_LaGd5(OsO7)2
_symmetry_space_group_name_H-M   'P 1'
_cell_length_a   6.55443793
_cell_length_b   6.55443836
_cell_length_c   7.51419585
_cell_angle_alpha   89.96920278
_cell_angle_beta   89.96919866
_cell_angle_gamma   110.27969348
_symmetry_Int_Tables_number   1
_chemical_formula_structural   LaGd5(OsO7)2
_chemical_formula_sum   'La1 Gd5 Os2 O14'
_cell_volume   302.80397728
_cell_formula_units_Z   1
loop_
 _symmetry_equiv_pos_site_id
 _symmetry_equiv_pos_as_xyz
  1  'x, y, z'
loop_
 _atom_site_type_symbol
 _atom_site_label
 _atom_site_symmetry_multiplicity
 _atom_site_fract_x
 _atom_site_fract_y
 _atom_site_fract_z
 _atom_site_occupancy
  La  La0  1  0.000000  0.000000  0.000000  1
  Gd  Gd1  1  0.062973  0.521041  0.252752  1
  Gd  Gd2  1  0.937027  0.478959  0.747248  1
  Gd  Gd3  1  0.521041  0.062973  0.252752  1
  Gd  Gd4  1  0.478959  0.937027  0.747248  1
  Gd  Gd5  1  0.000000  0.000000  0.500000  1
  Os  Os6  1  0.500000  0.500000  0.500000  1
  Os  Os7  1  0.500000  0.500000  0.000000  1
  O  O8  1  0.560335  0.817592  0.033270  1
  O  O9  1  0.439665  0.182408  0.966730  1
  O  O10  1  0.569446  0.569446  0.750189  1
  O  O11  1  0.563624  0.816938  0.465833  1
  O  O12  1  0.182408  0.439665  0.966730  1
  O  O13  1  0.430554  0.430554  0.249811  1
  O  O14  1  0.841647  0.112032  0.741783  1
  O  O15  1  0.817592  0.560335  0.033270  1
  O  O16  1  0.887968  0.158353  0.258217  1
  O  O17  1  0.112032  0.841647  0.741783  1
  O  O18  1  0.436376  0.183062  0.534167  1
  O  O19  1  0.183062  0.436376  0.534167  1
  O  O20  1  0.816938  0.563624  0.465833  1
  O  O21  1  0.158353  0.887968  0.258217  1
