# generated using pymatgen
data_TbDyNi2Hg
_symmetry_space_group_name_H-M   'P 1'
_cell_length_a   7.25167035
_cell_length_b   7.25167106
_cell_length_c   3.67567300
_cell_angle_alpha   90.00000000
_cell_angle_beta   90.00000000
_cell_angle_gamma   148.72394948
_symmetry_Int_Tables_number   1
_chemical_formula_structural   TbDyNi2Hg
_chemical_formula_sum   'Tb1 Dy1 Ni2 Hg1'
_cell_volume   100.34964379
_cell_formula_units_Z   1
loop_
 _symmetry_equiv_pos_site_id
 _symmetry_equiv_pos_as_xyz
  1  'x, y, z'
loop_
 _atom_site_type_symbol
 _atom_site_label
 _atom_site_symmetry_multiplicity
 _atom_site_fract_x
 _atom_site_fract_y
 _atom_site_fract_z
 _atom_site_occupancy
  Tb  Tb0  1  0.364376  0.635624  0.500000  1
  Dy  Dy1  1  0.636054  0.363946  0.500000  1
  Ni  Ni2  1  0.799492  0.200508  0.000000  1
  Ni  Ni3  1  0.199712  0.800288  0.000000  1
  Hg  Hg4  1  0.000366  0.999634  0.000000  1
