# generated using pymatgen
data_SrLi2(AgSb)2
_symmetry_space_group_name_H-M   'P 1'
_cell_length_a   8.87665761
_cell_length_b   8.87665774
_cell_length_c   8.87665767
_cell_angle_alpha   31.03901655
_cell_angle_beta   31.03901262
_cell_angle_gamma   31.03901726
_symmetry_Int_Tables_number   1
_chemical_formula_structural   SrLi2(AgSb)2
_chemical_formula_sum   'Sr1 Li2 Ag2 Sb2'
_cell_volume   164.97467009
_cell_formula_units_Z   1
loop_
 _symmetry_equiv_pos_site_id
 _symmetry_equiv_pos_as_xyz
  1  'x, y, z'
loop_
 _atom_site_type_symbol
 _atom_site_label
 _atom_site_symmetry_multiplicity
 _atom_site_fract_x
 _atom_site_fract_y
 _atom_site_fract_z
 _atom_site_occupancy
  Sr  Sr0  1  0.000000  0.000000  0.000000  1
  Li  Li1  1  0.861262  0.861262  0.861262  1
  Li  Li2  1  0.138738  0.138738  0.138738  1
  Ag  Ag3  1  0.563808  0.563808  0.563808  1
  Ag  Ag4  1  0.436192  0.436192  0.436192  1
  Sb  Sb5  1  0.749546  0.749546  0.749546  1
  Sb  Sb6  1  0.250454  0.250454  0.250454  1
