# generated using pymatgen
data_Cs6As(IrCl6)3
_symmetry_space_group_name_H-M   'P 1'
_cell_length_a   7.38075000
_cell_length_b   7.38074863
_cell_length_c   18.69739100
_cell_angle_alpha   90.00000000
_cell_angle_beta   90.00000000
_cell_angle_gamma   119.99999715
_symmetry_Int_Tables_number   1
_chemical_formula_structural   Cs6As(IrCl6)3
_chemical_formula_sum   'Cs6 As1 Ir3 Cl18'
_cell_volume   882.08932098
_cell_formula_units_Z   1
loop_
 _symmetry_equiv_pos_site_id
 _symmetry_equiv_pos_as_xyz
  1  'x, y, z'
loop_
 _atom_site_type_symbol
 _atom_site_label
 _atom_site_symmetry_multiplicity
 _atom_site_fract_x
 _atom_site_fract_y
 _atom_site_fract_z
 _atom_site_occupancy
  Cs  Cs0  1  0.666667  0.333333  0.931087  1
  Cs  Cs1  1  0.333333  0.666667  0.436939  1
  Cs  Cs2  1  0.666667  0.333333  0.573938  1
  Cs  Cs3  1  0.333333  0.666667  0.076521  1
  Cs  Cs4  1  0.000000  0.000000  0.738228  1
  Cs  Cs5  1  0.000000  0.000000  0.252708  1
  As  As6  1  0.333333  0.666667  0.843084  1
  Ir  Ir7  1  0.333333  0.666667  0.666350  1
  Ir  Ir8  1  0.666667  0.333333  0.164622  1
  Ir  Ir9  1  0.666667  0.333333  0.333712  1
  Cl  Cl10  1  0.817325  0.634648  0.404504  1
  Cl  Cl11  1  0.178151  0.356304  0.911329  1
  Cl  Cl12  1  0.178151  0.821849  0.911329  1
  Cl  Cl13  1  0.182053  0.364106  0.594658  1
  Cl  Cl14  1  0.643696  0.821849  0.911329  1
  Cl  Cl15  1  0.365352  0.182675  0.404504  1
  Cl  Cl16  1  0.027081  0.513540  0.741352  1
  Cl  Cl17  1  0.817325  0.182675  0.404504  1
  Cl  Cl18  1  0.523317  0.046636  0.248764  1
  Cl  Cl19  1  0.486460  0.513540  0.741352  1
  Cl  Cl20  1  0.523317  0.476683  0.248764  1
  Cl  Cl21  1  0.953364  0.476683  0.248764  1
  Cl  Cl22  1  0.364150  0.182075  0.093665  1
  Cl  Cl23  1  0.486460  0.972919  0.741352  1
  Cl  Cl24  1  0.817925  0.635850  0.093665  1
  Cl  Cl25  1  0.182053  0.817947  0.594658  1
  Cl  Cl26  1  0.635894  0.817947  0.594658  1
  Cl  Cl27  1  0.817925  0.182075  0.093665  1
