# generated using pymatgen
data_Zr2AlFe9
_symmetry_space_group_name_H-M   'P 1'
_cell_length_a   8.39161945
_cell_length_b   8.39161924
_cell_length_c   8.39161966
_cell_angle_alpha   33.49399339
_cell_angle_beta   33.49399820
_cell_angle_gamma   33.49399165
_symmetry_Int_Tables_number   1
_chemical_formula_structural   Zr2AlFe9
_chemical_formula_sum   'Zr2 Al1 Fe9'
_cell_volume   160.27896196
_cell_formula_units_Z   1
loop_
 _symmetry_equiv_pos_site_id
 _symmetry_equiv_pos_as_xyz
  1  'x, y, z'
loop_
 _atom_site_type_symbol
 _atom_site_label
 _atom_site_symmetry_multiplicity
 _atom_site_fract_x
 _atom_site_fract_y
 _atom_site_fract_z
 _atom_site_occupancy
  Zr  Zr0  1  0.999066  0.999066  0.999066  1
  Zr  Zr1  1  0.501065  0.501065  0.501065  1
  Al  Al2  1  0.125138  0.125138  0.125138  1
  Fe  Fe3  1  0.625405  0.625405  0.625405  1
  Fe  Fe4  1  0.563621  0.060564  0.563621  1
  Fe  Fe5  1  0.063654  0.560045  0.063654  1
  Fe  Fe6  1  0.060564  0.563621  0.563621  1
  Fe  Fe7  1  0.560045  0.063654  0.063654  1
  Fe  Fe8  1  0.812032  0.812032  0.812032  1
  Fe  Fe9  1  0.312139  0.312139  0.312139  1
  Fe  Fe10  1  0.563621  0.563621  0.060564  1
  Fe  Fe11  1  0.063654  0.063654  0.560045  1
