# generated using pymatgen
data_Tm2Sn2IrPt
_symmetry_space_group_name_H-M   'P 1'
_cell_length_a   7.56019900
_cell_length_b   7.56019841
_cell_length_c   7.68280600
_cell_angle_alpha   90.00000000
_cell_angle_beta   90.00000000
_cell_angle_gamma   119.99999820
_symmetry_Int_Tables_number   1
_chemical_formula_structural   Tm2Sn2IrPt
_chemical_formula_sum   'Tm6 Sn6 Ir3 Pt3'
_cell_volume   380.29177010
_cell_formula_units_Z   3
loop_
 _symmetry_equiv_pos_site_id
 _symmetry_equiv_pos_as_xyz
  1  'x, y, z'
loop_
 _atom_site_type_symbol
 _atom_site_label
 _atom_site_symmetry_multiplicity
 _atom_site_fract_x
 _atom_site_fract_y
 _atom_site_fract_z
 _atom_site_occupancy
  Tm  Tm0  1  0.404263  0.007020  0.247353  1
  Tm  Tm1  1  0.602756  0.595737  0.247353  1
  Tm  Tm2  1  0.992980  0.397244  0.247353  1
  Tm  Tm3  1  0.402279  0.003089  0.752641  1
  Tm  Tm4  1  0.600810  0.597721  0.752641  1
  Tm  Tm5  1  0.996911  0.399190  0.752641  1
  Sn  Sn6  1  0.263724  0.262152  0.999900  1
  Sn  Sn7  1  0.998428  0.736276  0.999900  1
  Sn  Sn8  1  0.002592  0.740478  0.499837  1
  Sn  Sn9  1  0.737886  0.997408  0.499837  1
  Sn  Sn10  1  0.259522  0.262114  0.499837  1
  Sn  Sn11  1  0.737848  0.001572  0.999900  1
  Ir  Ir12  1  0.000000  0.000000  0.750820  1
  Ir  Ir13  1  0.000000  0.000000  0.248943  1
  Ir  Ir14  1  0.666667  0.333333  0.997448  1
  Pt  Pt15  1  0.333333  0.666667  0.496416  1
  Pt  Pt16  1  0.333333  0.666667  0.003513  1
  Pt  Pt17  1  0.666667  0.333333  0.503670  1
