# generated using pymatgen
data_TbDy3Al5Tc3
_symmetry_space_group_name_H-M   'P 1'
_cell_length_a   5.51089801
_cell_length_b   5.58827206
_cell_length_c   8.78684100
_cell_angle_alpha   90.00000031
_cell_angle_beta   90.00050384
_cell_angle_gamma   120.46551945
_symmetry_Int_Tables_number   1
_chemical_formula_structural   TbDy3Al5Tc3
_chemical_formula_sum   'Tb1 Dy3 Al5 Tc3'
_cell_volume   233.24208630
_cell_formula_units_Z   1
loop_
 _symmetry_equiv_pos_site_id
 _symmetry_equiv_pos_as_xyz
  1  'x, y, z'
loop_
 _atom_site_type_symbol
 _atom_site_label
 _atom_site_symmetry_multiplicity
 _atom_site_fract_x
 _atom_site_fract_y
 _atom_site_fract_z
 _atom_site_occupancy
  Tb  Tb0  1  0.338214  0.669107  0.443746  1
  Dy  Dy1  1  0.664105  0.332052  0.554736  1
  Dy  Dy2  1  0.664115  0.332057  0.945264  1
  Dy  Dy3  1  0.338285  0.669143  0.056223  1
  Al  Al4  1  0.837852  0.161910  0.249954  1
  Al  Al5  1  0.837852  0.675942  0.249954  1
  Al  Al6  1  0.323549  0.161774  0.249979  1
  Al  Al7  1  0.182672  0.840792  0.750048  1
  Al  Al8  1  0.182672  0.341881  0.750048  1
  Tc  Tc9  1  0.976442  0.988221  0.510318  1
  Tc  Tc10  1  0.976441  0.988220  0.989717  1
  Tc  Tc11  1  0.677803  0.838901  0.750012  1
