# generated using pymatgen
data_Tb10Nd6Cd4Ni3Ru
_symmetry_space_group_name_H-M   'P 1'
_cell_length_a   9.71929994
_cell_length_b   9.71929895
_cell_length_c   9.71929926
_cell_angle_alpha   59.71314352
_cell_angle_beta   59.71314735
_cell_angle_gamma   59.71314757
_symmetry_Int_Tables_number   1
_chemical_formula_structural   Tb10Nd6Cd4Ni3Ru
_chemical_formula_sum   'Tb10 Nd6 Cd4 Ni3 Ru1'
_cell_volume   644.98713659
_cell_formula_units_Z   1
loop_
 _symmetry_equiv_pos_site_id
 _symmetry_equiv_pos_as_xyz
  1  'x, y, z'
loop_
 _atom_site_type_symbol
 _atom_site_label
 _atom_site_symmetry_multiplicity
 _atom_site_fract_x
 _atom_site_fract_y
 _atom_site_fract_z
 _atom_site_occupancy
  Tb  Tb0  1  0.597830  0.597830  0.597830  1
  Tb  Tb1  1  0.598804  0.598804  0.208500  1
  Tb  Tb2  1  0.598804  0.208500  0.598804  1
  Tb  Tb3  1  0.208500  0.598804  0.598804  1
  Tb  Tb4  1  0.062332  0.436840  0.436840  1
  Tb  Tb5  1  0.435572  0.061481  0.061481  1
  Tb  Tb6  1  0.436840  0.062332  0.436840  1
  Tb  Tb7  1  0.061481  0.435572  0.061481  1
  Tb  Tb8  1  0.436840  0.436840  0.062332  1
  Tb  Tb9  1  0.061481  0.061481  0.435572  1
  Nd  Nd10  1  0.188039  0.813287  0.813287  1
  Nd  Nd11  1  0.806155  0.190042  0.190042  1
  Nd  Nd12  1  0.813287  0.188039  0.813287  1
  Nd  Nd13  1  0.190042  0.806155  0.190042  1
  Nd  Nd14  1  0.813287  0.813287  0.188039  1
  Nd  Nd15  1  0.190042  0.190042  0.806155  1
  Cd  Cd16  1  0.829463  0.829463  0.829463  1
  Cd  Cd17  1  0.829029  0.829029  0.510728  1
  Cd  Cd18  1  0.829029  0.510728  0.829029  1
  Cd  Cd19  1  0.510728  0.829029  0.829029  1
  Ni  Ni20  1  0.392725  0.392725  0.824954  1
  Ni  Ni21  1  0.392725  0.824954  0.392725  1
  Ni  Ni22  1  0.824954  0.392725  0.392725  1
  Ru  Ru23  1  0.392013  0.392013  0.392013  1
