# generated using pymatgen
data_Ce2Sm9Dy5(CdRu)4
_symmetry_space_group_name_H-M   'P 1'
_cell_length_a   9.82305445
_cell_length_b   9.69458026
_cell_length_c   9.73843263
_cell_angle_alpha   59.85239754
_cell_angle_beta   59.71213526
_cell_angle_gamma   59.56063813
_symmetry_Int_Tables_number   1
_chemical_formula_structural   Ce2Sm9Dy5(CdRu)4
_chemical_formula_sum   'Ce2 Sm9 Dy5 Cd4 Ru4'
_cell_volume   651.41508141
_cell_formula_units_Z   1
loop_
 _symmetry_equiv_pos_site_id
 _symmetry_equiv_pos_as_xyz
  1  'x, y, z'
loop_
 _atom_site_type_symbol
 _atom_site_label
 _atom_site_symmetry_multiplicity
 _atom_site_fract_x
 _atom_site_fract_y
 _atom_site_fract_z
 _atom_site_occupancy
  Ce  Ce0  1  0.973569  0.340660  0.339077  1
  Ce  Ce1  1  0.346694  0.340660  0.339077  1
  Sm  Sm2  1  0.561707  0.560052  0.940562  1
  Sm  Sm3  1  0.937681  0.560052  0.940562  1
  Sm  Sm4  1  0.560679  0.938100  0.940541  1
  Sm  Sm5  1  0.938563  0.939865  0.558494  1
  Sm  Sm6  1  0.563080  0.939865  0.558494  1
  Sm  Sm7  1  0.940297  0.561087  0.558320  1
  Sm  Sm8  1  0.189279  0.189103  0.812826  1
  Sm  Sm9  1  0.808792  0.189103  0.812826  1
  Sm  Sm10  1  0.188812  0.810085  0.812289  1
  Dy  Dy11  1  0.809883  0.812001  0.190316  1
  Dy  Dy12  1  0.187800  0.812000  0.190315  1
  Dy  Dy13  1  0.810655  0.188202  0.190487  1
  Dy  Dy14  1  0.347887  0.347563  0.956663  1
  Dy  Dy15  1  0.348877  0.955332  0.346914  1
  Cd  Cd16  1  0.581104  0.578687  0.259104  1
  Cd  Cd17  1  0.581281  0.259363  0.578075  1
  Cd  Cd18  1  0.260836  0.579651  0.578726  1
  Cd  Cd19  1  0.580785  0.579651  0.578726  1
  Ru  Ru20  1  0.139100  0.152642  0.569159  1
  Ru  Ru21  1  0.138159  0.571073  0.152609  1
  Ru  Ru22  1  0.573133  0.147602  0.147918  1
  Ru  Ru23  1  0.131346  0.147602  0.147918  1
