# generated using pymatgen
data_Sc2Tc3OsO12
_symmetry_space_group_name_H-M   'P 1'
_cell_length_a   4.83251092
_cell_length_b   5.63788006
_cell_length_c   7.58365411
_cell_angle_alpha   83.05750480
_cell_angle_beta   90.09483561
_cell_angle_gamma   90.09367145
_symmetry_Int_Tables_number   1
_chemical_formula_structural   Sc2Tc3OsO12
_chemical_formula_sum   'Sc2 Tc3 Os1 O12'
_cell_volume   205.10212128
_cell_formula_units_Z   1
loop_
 _symmetry_equiv_pos_site_id
 _symmetry_equiv_pos_as_xyz
  1  'x, y, z'
loop_
 _atom_site_type_symbol
 _atom_site_label
 _atom_site_symmetry_multiplicity
 _atom_site_fract_x
 _atom_site_fract_y
 _atom_site_fract_z
 _atom_site_occupancy
  Sc  Sc0  1  0.499707  0.999923  0.499393  1
  Sc  Sc1  1  0.000520  0.500699  0.499088  1
  Tc  Tc2  1  0.008944  0.867316  0.152385  1
  Tc  Tc3  1  0.510120  0.632224  0.847850  1
  Tc  Tc4  1  0.489293  0.368277  0.152224  1
  Os  Os5  1  0.991334  0.132846  0.848866  1
  O  O6  1  0.324471  0.676873  0.616437  1
  O  O7  1  0.225930  0.844739  0.931616  1
  O  O8  1  0.215064  0.573948  0.248631  1
  O  O9  1  0.824726  0.823160  0.382918  1
  O  O10  1  0.715937  0.927682  0.750902  1
  O  O11  1  0.785760  0.424130  0.751725  1
  O  O12  1  0.676210  0.323723  0.383085  1
  O  O13  1  0.285161  0.073497  0.249047  1
  O  O14  1  0.272125  0.344557  0.931310  1
  O  O15  1  0.175521  0.175003  0.617919  1
  O  O16  1  0.773001  0.155366  0.068589  1
  O  O17  1  0.726174  0.656037  0.068016  1
