# generated using pymatgen
data_Dy2Y3Bi2Rh
_symmetry_space_group_name_H-M   'P 1'
_cell_length_a   8.06821100
_cell_length_b   8.98693100
_cell_length_c   12.51649800
_cell_angle_alpha   90.00000000
_cell_angle_beta   89.99767517
_cell_angle_gamma   90.00000000
_symmetry_Int_Tables_number   1
_chemical_formula_structural   Dy2Y3Bi2Rh
_chemical_formula_sum   'Dy8 Y12 Bi8 Rh4'
_cell_volume   907.55193851
_cell_formula_units_Z   4
loop_
 _symmetry_equiv_pos_site_id
 _symmetry_equiv_pos_as_xyz
  1  'x, y, z'
loop_
 _atom_site_type_symbol
 _atom_site_label
 _atom_site_symmetry_multiplicity
 _atom_site_fract_x
 _atom_site_fract_y
 _atom_site_fract_z
 _atom_site_occupancy
  Dy  Dy0  1  0.676320  0.040035  0.565684  1
  Dy  Dy1  1  0.323680  0.959965  0.434316  1
  Dy  Dy2  1  0.176332  0.959923  0.934314  1
  Dy  Dy3  1  0.323680  0.540035  0.434316  1
  Dy  Dy4  1  0.823668  0.040077  0.065686  1
  Dy  Dy5  1  0.676320  0.459965  0.565684  1
  Dy  Dy6  1  0.823668  0.459923  0.065686  1
  Dy  Dy7  1  0.176332  0.540077  0.934314  1
  Y  Y8  1  0.841714  0.750000  0.793673  1
  Y  Y9  1  0.158286  0.250000  0.206327  1
  Y  Y10  1  0.341704  0.250000  0.706350  1
  Y  Y11  1  0.658296  0.750000  0.293650  1
  Y  Y12  1  0.373099  0.750000  0.694716  1
  Y  Y13  1  0.626901  0.250000  0.305284  1
  Y  Y14  1  0.873112  0.250000  0.805290  1
  Y  Y15  1  0.126888  0.750000  0.194710  1
  Y  Y16  1  0.954436  0.750000  0.500984  1
  Y  Y17  1  0.045564  0.250000  0.499016  1
  Y  Y18  1  0.454471  0.250000  0.999021  1
  Y  Y19  1  0.545529  0.750000  0.000979  1
  Bi  Bi20  1  0.568852  0.492021  0.826503  1
  Bi  Bi21  1  0.431148  0.507979  0.173497  1
  Bi  Bi22  1  0.068863  0.507973  0.673523  1
  Bi  Bi23  1  0.431148  0.992021  0.173497  1
  Bi  Bi24  1  0.931137  0.492027  0.326477  1
  Bi  Bi25  1  0.568852  0.007979  0.826503  1
  Bi  Bi26  1  0.931137  0.007973  0.326477  1
  Bi  Bi27  1  0.068863  0.992027  0.673523  1
  Rh  Rh28  1  0.567851  0.750000  0.509823  1
  Rh  Rh29  1  0.432149  0.250000  0.490177  1
  Rh  Rh30  1  0.067812  0.250000  0.990171  1
  Rh  Rh31  1  0.932188  0.750000  0.009829  1
