# generated using pymatgen
data_Li2DyY15(InRh2)2
_symmetry_space_group_name_H-M   'P 1'
_cell_length_a   9.69917549
_cell_length_b   9.74138212
_cell_length_c   9.69973539
_cell_angle_alpha   59.85786828
_cell_angle_beta   60.04662074
_cell_angle_gamma   59.85594546
_symmetry_Int_Tables_number   1
_chemical_formula_structural   Li2DyY15(InRh2)2
_chemical_formula_sum   'Li2 Dy1 Y15 In2 Rh4'
_cell_volume   646.85910301
_cell_formula_units_Z   1
loop_
 _symmetry_equiv_pos_site_id
 _symmetry_equiv_pos_as_xyz
  1  'x, y, z'
loop_
 _atom_site_type_symbol
 _atom_site_label
 _atom_site_symmetry_multiplicity
 _atom_site_fract_x
 _atom_site_fract_y
 _atom_site_fract_z
 _atom_site_occupancy
  Li  Li0  1  0.925029  0.927503  0.219966  1
  Li  Li1  1  0.219965  0.927508  0.925019  1
  Dy  Dy2  1  0.547953  0.152064  0.147918  1
  Y  Y3  1  0.689110  0.311989  0.312158  1
  Y  Y4  1  0.689110  0.686743  0.312158  1
  Y  Y5  1  0.316500  0.683518  0.316465  1
  Y  Y6  1  0.936786  0.935834  0.563936  1
  Y  Y7  1  0.147113  0.151282  0.550323  1
  Y  Y8  1  0.561681  0.938624  0.561071  1
  Y  Y9  1  0.151425  0.155698  0.151473  1
  Y  Y10  1  0.312256  0.311778  0.689183  1
  Y  Y11  1  0.936786  0.563446  0.563936  1
  Y  Y12  1  0.563851  0.563262  0.937133  1
  Y  Y13  1  0.563851  0.935756  0.937133  1
  Y  Y14  1  0.935374  0.564556  0.935513  1
  Y  Y15  1  0.151425  0.541403  0.151473  1
  Y  Y16  1  0.312256  0.686783  0.689183  1
  Y  Y17  1  0.692382  0.307553  0.692513  1
  In  In18  1  0.920540  0.245039  0.920324  1
  In  In19  1  0.920540  0.914096  0.920324  1
  Rh  Rh20  1  0.359506  0.355190  0.357908  1
  Rh  Rh21  1  0.926832  0.357027  0.359117  1
  Rh  Rh22  1  0.360227  0.355954  0.927867  1
  Rh  Rh23  1  0.359506  0.927397  0.357908  1
