# generated using pymatgen
data_Pr5GaBi2Cl
_symmetry_space_group_name_H-M   'P 1'
_cell_length_a   9.62314300
_cell_length_b   9.49767531
_cell_length_c   6.76151900
_cell_angle_alpha   90.00000000
_cell_angle_beta   90.00000000
_cell_angle_gamma   120.43796931
_symmetry_Int_Tables_number   1
_chemical_formula_structural   Pr5GaBi2Cl
_chemical_formula_sum   'Pr10 Ga2 Bi4 Cl2'
_cell_volume   532.81388809
_cell_formula_units_Z   2
loop_
 _symmetry_equiv_pos_site_id
 _symmetry_equiv_pos_as_xyz
  1  'x, y, z'
loop_
 _atom_site_type_symbol
 _atom_site_label
 _atom_site_symmetry_multiplicity
 _atom_site_fract_x
 _atom_site_fract_y
 _atom_site_fract_z
 _atom_site_occupancy
  Pr  Pr0  1  0.725127  0.000000  0.750000  1
  Pr  Pr1  1  0.989128  0.251952  0.250000  1
  Pr  Pr2  1  0.737176  0.748048  0.250000  1
  Pr  Pr3  1  0.341745  0.683491  0.500000  1
  Pr  Pr4  1  0.341745  0.683491  0.000000  1
  Pr  Pr5  1  0.658255  0.316509  0.500000  1
  Pr  Pr6  1  0.658255  0.316509  0.000000  1
  Pr  Pr7  1  0.274873  0.000000  0.250000  1
  Pr  Pr8  1  0.262824  0.251952  0.750000  1
  Pr  Pr9  1  0.010872  0.748048  0.750000  1
  Ga  Ga10  1  0.390689  0.000000  0.750000  1
  Ga  Ga11  1  0.609311  0.000000  0.250000  1
  Bi  Bi12  1  0.996518  0.612363  0.250000  1
  Bi  Bi13  1  0.615845  0.612363  0.750000  1
  Bi  Bi14  1  0.003482  0.387637  0.750000  1
  Bi  Bi15  1  0.384155  0.387637  0.250000  1
  Cl  Cl16  1  0.000000  0.000000  0.500000  1
  Cl  Cl17  1  0.000000  0.000000  0.000000  1
