# generated using pymatgen
data_Er8In3Cu
_symmetry_space_group_name_H-M   'P 1'
_cell_length_a   10.44981700
_cell_length_b   10.44981676
_cell_length_c   6.79568900
_cell_angle_alpha   90.00000000
_cell_angle_beta   90.00000000
_cell_angle_gamma   119.99999759
_symmetry_Int_Tables_number   1
_chemical_formula_structural   Er8In3Cu
_chemical_formula_sum   'Er16 In6 Cu2'
_cell_volume   642.66033763
_cell_formula_units_Z   2
loop_
 _symmetry_equiv_pos_site_id
 _symmetry_equiv_pos_as_xyz
  1  'x, y, z'
loop_
 _atom_site_type_symbol
 _atom_site_label
 _atom_site_symmetry_multiplicity
 _atom_site_fract_x
 _atom_site_fract_y
 _atom_site_fract_z
 _atom_site_occupancy
  Er  Er0  1  0.526613  0.053226  0.796464  1
  Er  Er1  1  0.946774  0.473387  0.796464  1
  Er  Er2  1  0.526613  0.473387  0.796464  1
  Er  Er3  1  0.473387  0.946774  0.296464  1
  Er  Er4  1  0.053226  0.526613  0.296464  1
  Er  Er5  1  0.473387  0.526613  0.296464  1
  Er  Er6  1  0.824513  0.649026  0.506766  1
  Er  Er7  1  0.350974  0.175487  0.506766  1
  Er  Er8  1  0.824513  0.175487  0.506766  1
  Er  Er9  1  0.175487  0.350974  0.006766  1
  Er  Er10  1  0.649026  0.824513  0.006766  1
  Er  Er11  1  0.175487  0.824513  0.006766  1
  Er  Er12  1  0.666667  0.333333  0.168936  1
  Er  Er13  1  0.333333  0.666667  0.668936  1
  Er  Er14  1  0.000000  0.000000  0.774747  1
  Er  Er15  1  0.000000  0.000000  0.274747  1
  In  In16  1  0.836303  0.672608  0.031593  1
  In  In17  1  0.327392  0.163697  0.031593  1
  In  In18  1  0.836303  0.163697  0.031593  1
  In  In19  1  0.163697  0.327392  0.531593  1
  In  In20  1  0.672608  0.836303  0.531593  1
  In  In21  1  0.163697  0.836303  0.531593  1
  Cu  Cu22  1  0.666667  0.333333  0.569802  1
  Cu  Cu23  1  0.333333  0.666667  0.069802  1
