# generated using pymatgen
data_Tb4Lu6InSb5
_symmetry_space_group_name_H-M   'P 1'
_cell_length_a   6.29929600
_cell_length_b   8.88211046
_cell_length_c   8.86109700
_cell_angle_alpha   120.07849311
_cell_angle_beta   90.00001819
_cell_angle_gamma   89.99997153
_symmetry_Int_Tables_number   1
_chemical_formula_structural   Tb4Lu6InSb5
_chemical_formula_sum   'Tb4 Lu6 In1 Sb5'
_cell_volume   429.02466420
_cell_formula_units_Z   1
loop_
 _symmetry_equiv_pos_site_id
 _symmetry_equiv_pos_as_xyz
  1  'x, y, z'
loop_
 _atom_site_type_symbol
 _atom_site_label
 _atom_site_symmetry_multiplicity
 _atom_site_fract_x
 _atom_site_fract_y
 _atom_site_fract_z
 _atom_site_occupancy
  Tb  Tb0  1  0.750001  0.754605  0.759406  1
  Tb  Tb1  1  0.750001  0.995199  0.240594  1
  Tb  Tb2  1  0.250001  0.245915  0.242594  1
  Tb  Tb3  1  0.250001  0.003320  0.757406  1
  Lu  Lu4  1  0.500099  0.334610  0.667762  1
  Lu  Lu5  1  0.500099  0.666848  0.332238  1
  Lu  Lu6  1  0.999900  0.666849  0.332238  1
  Lu  Lu7  1  0.999900  0.334611  0.667762  1
  Lu  Lu8  1  0.750001  0.244544  0.000000  1
  Lu  Lu9  1  0.249999  0.756315  0.000000  1
  In  In10  1  0.749999  0.599925  0.000000  1
  Sb  Sb11  1  0.750001  0.390309  0.389331  1
  Sb  Sb12  1  0.750001  0.000976  0.610669  1
  Sb  Sb13  1  0.250000  0.396635  0.000000  1
  Sb  Sb14  1  0.250000  0.609709  0.610083  1
  Sb  Sb15  1  0.250000  0.999628  0.389917  1
