# generated using pymatgen
data_Tb5Dy3(Si3Pt)4
_symmetry_space_group_name_H-M   'P 1'
_cell_length_a   8.12377400
_cell_length_b   8.12377412
_cell_length_c   8.10028400
_cell_angle_alpha   90.00000000
_cell_angle_beta   90.00000000
_cell_angle_gamma   120.04220221
_symmetry_Int_Tables_number   1
_chemical_formula_structural   Tb5Dy3(Si3Pt)4
_chemical_formula_sum   'Tb5 Dy3 Si12 Pt4'
_cell_volume   462.76627967
_cell_formula_units_Z   1
loop_
 _symmetry_equiv_pos_site_id
 _symmetry_equiv_pos_as_xyz
  1  'x, y, z'
loop_
 _atom_site_type_symbol
 _atom_site_label
 _atom_site_symmetry_multiplicity
 _atom_site_fract_x
 _atom_site_fract_y
 _atom_site_fract_z
 _atom_site_occupancy
  Tb  Tb0  1  0.498444  0.996867  0.250000  1
  Tb  Tb1  1  0.003133  0.501556  0.250000  1
  Tb  Tb2  1  0.501565  0.498435  0.750000  1
  Tb  Tb3  1  0.996874  0.498440  0.750000  1
  Tb  Tb4  1  0.501560  0.003126  0.750000  1
  Dy  Dy5  1  0.999998  0.000002  0.250000  1
  Dy  Dy6  1  0.000016  0.999984  0.750000  1
  Dy  Dy7  1  0.498432  0.501568  0.250000  1
  Si  Si8  1  0.834850  0.165150  0.498731  1
  Si  Si9  1  0.834666  0.669601  0.498762  1
  Si  Si10  1  0.330399  0.165334  0.498762  1
  Si  Si11  1  0.834850  0.165150  0.001269  1
  Si  Si12  1  0.834666  0.669601  0.001238  1
  Si  Si13  1  0.330399  0.165334  0.001238  1
  Si  Si14  1  0.165159  0.834841  0.998824  1
  Si  Si15  1  0.669584  0.834653  0.998771  1
  Si  Si16  1  0.165347  0.330416  0.998771  1
  Si  Si17  1  0.165159  0.834841  0.501176  1
  Si  Si18  1  0.669584  0.834653  0.501229  1
  Si  Si19  1  0.165347  0.330416  0.501229  1
  Pt  Pt20  1  0.666643  0.333357  0.496741  1
  Pt  Pt21  1  0.666643  0.333357  0.003259  1
  Pt  Pt22  1  0.333342  0.666658  0.996833  1
  Pt  Pt23  1  0.333342  0.666658  0.503167  1
