# generated using pymatgen
data_PrGd2CBr5
_symmetry_space_group_name_H-M   'P 1'
_cell_length_a   7.54917891
_cell_length_b   8.98246851
_cell_length_c   9.15541000
_cell_angle_alpha   108.20961836
_cell_angle_beta   96.45213532
_cell_angle_gamma   106.32938988
_symmetry_Int_Tables_number   1
_chemical_formula_structural   PrGd2CBr5
_chemical_formula_sum   'Pr2 Gd4 C2 Br10'
_cell_volume   552.12862896
_cell_formula_units_Z   2
loop_
 _symmetry_equiv_pos_site_id
 _symmetry_equiv_pos_as_xyz
  1  'x, y, z'
loop_
 _atom_site_type_symbol
 _atom_site_label
 _atom_site_symmetry_multiplicity
 _atom_site_fract_x
 _atom_site_fract_y
 _atom_site_fract_z
 _atom_site_occupancy
  Pr  Pr0  1  0.880403  0.952584  0.231873  1
  Pr  Pr1  1  0.119597  0.047416  0.768127  1
  Gd  Gd2  1  0.025749  0.721842  0.915198  1
  Gd  Gd3  1  0.974251  0.278158  0.084802  1
  Gd  Gd4  1  0.613804  0.848685  0.803044  1
  Gd  Gd5  1  0.386196  0.151315  0.196956  1
  C  C6  1  0.906671  0.965849  0.953587  1
  C  C7  1  0.093329  0.034151  0.046413  1
  Br  Br8  1  0.744421  0.912313  0.538563  1
  Br  Br9  1  0.255579  0.087687  0.461437  1
  Br  Br10  1  0.447455  0.817134  0.080653  1
  Br  Br11  1  0.552545  0.182866  0.919347  1
  Br  Br12  1  0.811171  0.273039  0.355128  1
  Br  Br13  1  0.188829  0.726961  0.644872  1
  Br  Br14  1  0.911073  0.619684  0.168892  1
  Br  Br15  1  0.088927  0.380316  0.831108  1
  Br  Br16  1  0.653809  0.533106  0.720334  1
  Br  Br17  1  0.346191  0.466894  0.279666  1
