# generated using pymatgen
data_TmGe3AsRh6
_symmetry_space_group_name_H-M   'P 1'
_cell_length_a   7.20544200
_cell_length_b   7.25807546
_cell_length_c   3.81620800
_cell_angle_alpha   90.00000000
_cell_angle_beta   90.00000000
_cell_angle_gamma   119.76039478
_symmetry_Int_Tables_number   1
_chemical_formula_structural   TmGe3AsRh6
_chemical_formula_sum   'Tm1 Ge3 As1 Rh6'
_cell_volume   173.25600252
_cell_formula_units_Z   1
loop_
 _symmetry_equiv_pos_site_id
 _symmetry_equiv_pos_as_xyz
  1  'x, y, z'
loop_
 _atom_site_type_symbol
 _atom_site_label
 _atom_site_symmetry_multiplicity
 _atom_site_fract_x
 _atom_site_fract_y
 _atom_site_fract_z
 _atom_site_occupancy
  Tm  Tm0  1  0.001356  0.002710  0.000000  1
  Ge  Ge1  1  0.804813  0.192204  0.500000  1
  Ge  Ge2  1  0.387392  0.192204  0.500000  1
  Ge  Ge3  1  0.334013  0.668026  0.000000  1
  As  As4  1  0.806808  0.613615  0.500000  1
  Rh  Rh5  1  0.196270  0.801550  0.500000  1
  Rh  Rh6  1  0.197797  0.395594  0.500000  1
  Rh  Rh7  1  0.534421  0.068843  0.000000  1
  Rh  Rh8  1  0.931284  0.465184  0.000000  1
  Rh  Rh9  1  0.533900  0.465184  0.000000  1
  Rh  Rh10  1  0.605281  0.801550  0.500000  1
