# generated using pymatgen
data_BaLiYS3
_symmetry_space_group_name_H-M   'P 1'
_cell_length_a   7.09471802
_cell_length_b   7.09471803
_cell_length_c   10.35218200
_cell_angle_alpha   90.00000000
_cell_angle_beta   90.00000000
_cell_angle_gamma   146.28861906
_symmetry_Int_Tables_number   1
_chemical_formula_structural   BaLiYS3
_chemical_formula_sum   'Ba2 Li2 Y2 S6'
_cell_volume   289.20295645
_cell_formula_units_Z   2
loop_
 _symmetry_equiv_pos_site_id
 _symmetry_equiv_pos_as_xyz
  1  'x, y, z'
loop_
 _atom_site_type_symbol
 _atom_site_label
 _atom_site_symmetry_multiplicity
 _atom_site_fract_x
 _atom_site_fract_y
 _atom_site_fract_z
 _atom_site_occupancy
  Ba  Ba0  1  0.255789  0.744211  0.250000  1
  Ba  Ba1  1  0.744211  0.255789  0.750000  1
  Li  Li2  1  0.530256  0.469744  0.250000  1
  Li  Li3  1  0.469744  0.530256  0.750000  1
  Y  Y4  1  0.000000  0.000000  0.500000  1
  Y  Y5  1  0.000000  0.000000  0.000000  1
  S  S6  1  0.630239  0.369761  0.438950  1
  S  S7  1  0.369761  0.630239  0.561050  1
  S  S8  1  0.630239  0.369761  0.061050  1
  S  S9  1  0.369761  0.630239  0.938950  1
  S  S10  1  0.934764  0.065236  0.250000  1
  S  S11  1  0.065236  0.934764  0.750000  1
