# generated using pymatgen
data_Yb2(Ga3Ni)3
_symmetry_space_group_name_H-M   'P 1'
_cell_length_a   7.42467619
_cell_length_b   7.42467507
_cell_length_c   9.31611500
_cell_angle_alpha   90.00000000
_cell_angle_beta   90.00000000
_cell_angle_gamma   119.73221651
_symmetry_Int_Tables_number   1
_chemical_formula_structural   Yb2(Ga3Ni)3
_chemical_formula_sum   'Yb4 Ga18 Ni6'
_cell_volume   445.94984169
_cell_formula_units_Z   2
loop_
 _symmetry_equiv_pos_site_id
 _symmetry_equiv_pos_as_xyz
  1  'x, y, z'
loop_
 _atom_site_type_symbol
 _atom_site_label
 _atom_site_symmetry_multiplicity
 _atom_site_fract_x
 _atom_site_fract_y
 _atom_site_fract_z
 _atom_site_occupancy
  Yb  Yb0  1  0.332432  0.002260  0.250000  1
  Yb  Yb1  1  0.997740  0.667568  0.750000  1
  Yb  Yb2  1  0.667568  0.997740  0.750000  1
  Yb  Yb3  1  0.002260  0.332432  0.250000  1
  Ga  Ga4  1  0.333878  0.996801  0.926190  1
  Ga  Ga5  1  0.003199  0.666122  0.073810  1
  Ga  Ga6  1  0.333878  0.996801  0.573810  1
  Ga  Ga7  1  0.003199  0.666122  0.426190  1
  Ga  Ga8  1  0.666122  0.003199  0.073810  1
  Ga  Ga9  1  0.996801  0.333878  0.926190  1
  Ga  Ga10  1  0.666122  0.003199  0.426190  1
  Ga  Ga11  1  0.996801  0.333878  0.573810  1
  Ga  Ga12  1  0.670109  0.670109  0.939072  1
  Ga  Ga13  1  0.329891  0.329891  0.060928  1
  Ga  Ga14  1  0.670109  0.670109  0.560928  1
  Ga  Ga15  1  0.329891  0.329891  0.439072  1
  Ga  Ga16  1  0.119199  0.119199  0.750000  1
  Ga  Ga17  1  0.880801  0.880801  0.250000  1
  Ga  Ga18  1  0.450793  0.663408  0.250000  1
  Ga  Ga19  1  0.336592  0.549207  0.750000  1
  Ga  Ga20  1  0.549207  0.336592  0.750000  1
  Ga  Ga21  1  0.663408  0.450793  0.250000  1
  Ni  Ni22  1  0.000000  0.000000  0.000000  1
  Ni  Ni23  1  0.000000  0.000000  0.500000  1
  Ni  Ni24  1  0.331010  0.668990  0.000000  1
  Ni  Ni25  1  0.331010  0.668990  0.500000  1
  Ni  Ni26  1  0.668990  0.331010  0.000000  1
  Ni  Ni27  1  0.668990  0.331010  0.500000  1
