# generated using pymatgen
data_TmZr2(ZnRh2)3
_symmetry_space_group_name_H-M   'P 1'
_cell_length_a   4.52661300
_cell_length_b   6.29621300
_cell_length_c   13.52528600
_cell_angle_alpha   90.00000000
_cell_angle_beta   90.00005073
_cell_angle_gamma   90.00000000
_symmetry_Int_Tables_number   1
_chemical_formula_structural   TmZr2(ZnRh2)3
_chemical_formula_sum   'Tm2 Zr4 Zn6 Rh12'
_cell_volume   385.47767896
_cell_formula_units_Z   2
loop_
 _symmetry_equiv_pos_site_id
 _symmetry_equiv_pos_as_xyz
  1  'x, y, z'
loop_
 _atom_site_type_symbol
 _atom_site_label
 _atom_site_symmetry_multiplicity
 _atom_site_fract_x
 _atom_site_fract_y
 _atom_site_fract_z
 _atom_site_occupancy
  Tm  Tm0  1  0.000002  0.000000  0.999635  1
  Tm  Tm1  1  0.499973  0.499999  0.166986  1
  Zr  Zr2  1  0.999983  0.000000  0.333696  1
  Zr  Zr3  1  0.499995  0.499999  0.500405  1
  Zr  Zr4  1  0.000020  0.000000  0.666223  1
  Zr  Zr5  1  0.500020  0.499999  0.833030  1
  Zn  Zn6  1  0.000001  0.499999  0.999756  1
  Zn  Zn7  1  0.499982  0.000000  0.166901  1
  Zn  Zn8  1  0.999981  0.499999  0.334172  1
  Zn  Zn9  1  0.500001  0.000000  0.501105  1
  Zn  Zn10  1  0.000029  0.499999  0.665574  1
  Zn  Zn11  1  0.500017  0.000000  0.832519  1
  Rh  Rh12  1  0.499998  0.253597  0.996553  1
  Rh  Rh13  1  0.499998  0.746404  0.996553  1
  Rh  Rh14  1  0.999986  0.246360  0.170148  1
  Rh  Rh15  1  0.999986  0.753640  0.170148  1
  Rh  Rh16  1  0.499976  0.246895  0.337454  1
  Rh  Rh17  1  0.499976  0.753104  0.337454  1
  Rh  Rh18  1  0.999990  0.250560  0.500611  1
  Rh  Rh19  1  0.999990  0.749440  0.500611  1
  Rh  Rh20  1  0.500035  0.249423  0.666066  1
  Rh  Rh21  1  0.500035  0.750576  0.666066  1
  Rh  Rh22  1  0.000014  0.253048  0.829168  1
  Rh  Rh23  1  0.000014  0.746952  0.829168  1
