# generated using pymatgen
data_Dy5Ho3Sc12Si15Bi
_symmetry_space_group_name_H-M   'P 1'
_cell_length_a   7.16916736
_cell_length_b   7.41284152
_cell_length_c   14.06717232
_cell_angle_alpha   90.06007379
_cell_angle_beta   88.72086948
_cell_angle_gamma   90.17467051
_symmetry_Int_Tables_number   1
_chemical_formula_structural   Dy5Ho3Sc12Si15Bi
_chemical_formula_sum   'Dy5 Ho3 Sc12 Si15 Bi1'
_cell_volume   747.39429453
_cell_formula_units_Z   1
loop_
 _symmetry_equiv_pos_site_id
 _symmetry_equiv_pos_as_xyz
  1  'x, y, z'
loop_
 _atom_site_type_symbol
 _atom_site_label
 _atom_site_symmetry_multiplicity
 _atom_site_fract_x
 _atom_site_fract_y
 _atom_site_fract_z
 _atom_site_occupancy
  Dy  Dy0  1  0.012089  0.176668  0.096575  1
  Dy  Dy1  1  0.988256  0.824721  0.904153  1
  Dy  Dy2  1  0.489001  0.675733  0.904093  1
  Dy  Dy3  1  0.993275  0.831435  0.598366  1
  Dy  Dy4  1  0.511519  0.324350  0.097307  1
  Ho  Ho5  1  0.999323  0.170095  0.398912  1
  Ho  Ho6  1  0.511486  0.317084  0.397475  1
  Ho  Ho7  1  0.512053  0.686524  0.601171  1
  Sc  Sc8  1  0.164861  0.501035  0.756160  1
  Sc  Sc9  1  0.834436  0.498925  0.251477  1
  Sc  Sc10  1  0.334541  0.001771  0.250356  1
  Sc  Sc11  1  0.667341  0.998679  0.751213  1
  Sc  Sc12  1  0.349542  0.155813  0.631697  1
  Sc  Sc13  1  0.658037  0.827488  0.372554  1
  Sc  Sc14  1  0.153964  0.683041  0.368970  1
  Sc  Sc15  1  0.667085  0.822779  0.123815  1
  Sc  Sc16  1  0.826820  0.326481  0.625836  1
  Sc  Sc17  1  0.330949  0.175439  0.875537  1
  Sc  Sc18  1  0.831703  0.323672  0.875670  1
  Sc  Sc19  1  0.168125  0.676565  0.124896  1
  Si  Si20  1  0.037141  0.119287  0.751199  1
  Si  Si21  1  0.960262  0.885123  0.246014  1
  Si  Si22  1  0.460726  0.616349  0.247580  1
  Si  Si23  1  0.536236  0.384606  0.752906  1
  Si  Si24  1  0.289654  0.867132  0.753070  1
  Si  Si25  1  0.710576  0.126625  0.246492  1
  Si  Si26  1  0.209327  0.373138  0.248934  1
  Si  Si27  1  0.793641  0.628590  0.751791  1
  Si  Si28  1  0.811942  0.541076  0.456508  1
  Si  Si29  1  0.329199  0.963314  0.459775  1
  Si  Si30  1  0.843569  0.534215  0.039850  1
  Si  Si31  1  0.672106  0.038917  0.538508  1
  Si  Si32  1  0.155701  0.465405  0.961444  1
  Si  Si33  1  0.655563  0.034632  0.960367  1
  Si  Si34  1  0.343138  0.966131  0.040147  1
  Bi  Bi35  1  0.186810  0.457162  0.539181  1
