# generated using pymatgen
data_Ho10OsRh3
_symmetry_space_group_name_H-M   'P 1'
_cell_length_a   6.39593818
_cell_length_b   7.21464379
_cell_length_c   8.51433868
_cell_angle_alpha   96.68308739
_cell_angle_beta   112.28813068
_cell_angle_gamma   90.05972748
_symmetry_Int_Tables_number   1
_chemical_formula_structural   Ho10OsRh3
_chemical_formula_sum   'Ho10 Os1 Rh3'
_cell_volume   360.62895626
_cell_formula_units_Z   1
loop_
 _symmetry_equiv_pos_site_id
 _symmetry_equiv_pos_as_xyz
  1  'x, y, z'
loop_
 _atom_site_type_symbol
 _atom_site_label
 _atom_site_symmetry_multiplicity
 _atom_site_fract_x
 _atom_site_fract_y
 _atom_site_fract_z
 _atom_site_occupancy
  Ho  Ho0  1  0.980055  0.918393  0.188196  1
  Ho  Ho1  1  0.791855  0.583401  0.813005  1
  Ho  Ho2  1  0.025596  0.082538  0.818726  1
  Ho  Ho3  1  0.210073  0.416296  0.188472  1
  Ho  Ho4  1  0.645290  0.816288  0.436017  1
  Ho  Ho5  1  0.208577  0.685534  0.562784  1
  Ho  Ho6  1  0.355705  0.185100  0.559174  1
  Ho  Ho7  1  0.786454  0.312614  0.436013  1
  Ho  Ho8  1  0.423585  0.751819  0.001006  1
  Ho  Ho9  1  0.575632  0.248755  0.000837  1
  Os  Os10  1  0.395536  0.074994  0.216995  1
  Rh  Rh11  1  0.823047  0.575149  0.221882  1
  Rh  Rh12  1  0.601298  0.923580  0.779685  1
  Rh  Rh13  1  0.177298  0.425540  0.777209  1
