# generated using pymatgen
data_Hf6Al16CoNi5Rh
_symmetry_space_group_name_H-M   'P 1'
_cell_length_a   8.52089713
_cell_length_b   8.52449098
_cell_length_c   8.52449088
_cell_angle_alpha   60.01436171
_cell_angle_beta   60.01394348
_cell_angle_gamma   60.01394370
_symmetry_Int_Tables_number   1
_chemical_formula_structural   Hf6Al16CoNi5Rh
_chemical_formula_sum   'Hf6 Al16 Co1 Ni5 Rh1'
_cell_volume   437.97151376
_cell_formula_units_Z   1
loop_
 _symmetry_equiv_pos_site_id
 _symmetry_equiv_pos_as_xyz
  1  'x, y, z'
loop_
 _atom_site_type_symbol
 _atom_site_label
 _atom_site_symmetry_multiplicity
 _atom_site_fract_x
 _atom_site_fract_y
 _atom_site_fract_z
 _atom_site_occupancy
  Hf  Hf0  1  0.686311  0.687210  0.312790  1
  Hf  Hf1  1  0.313689  0.687210  0.312790  1
  Hf  Hf2  1  0.691542  0.308458  0.308458  1
  Hf  Hf3  1  0.313689  0.312790  0.687210  1
  Hf  Hf4  1  0.686311  0.312790  0.687210  1
  Hf  Hf5  1  0.308458  0.691542  0.691542  1
  Al  Al6  1  0.879548  0.879234  0.361669  1
  Al  Al7  1  0.879548  0.361669  0.879234  1
  Al  Al8  1  0.362453  0.881500  0.881500  1
  Al  Al9  1  0.874546  0.881500  0.881500  1
  Al  Al10  1  0.120452  0.120766  0.638331  1
  Al  Al11  1  0.120452  0.638331  0.120766  1
  Al  Al12  1  0.637547  0.118500  0.118500  1
  Al  Al13  1  0.125454  0.118500  0.118500  1
  Al  Al14  1  0.664059  0.666332  0.005551  1
  Al  Al15  1  0.664059  0.005551  0.666332  1
  Al  Al16  1  0.005027  0.665509  0.665509  1
  Al  Al17  1  0.663957  0.665509  0.665509  1
  Al  Al18  1  0.335941  0.333668  0.994449  1
  Al  Al19  1  0.335941  0.994449  0.333668  1
  Al  Al20  1  0.994973  0.334491  0.334491  1
  Al  Al21  1  0.336043  0.334491  0.334491  1
  Co  Co22  1  0.500000  0.000000  0.000000  1
  Ni  Ni23  1  0.000000  0.000000  0.500000  1
  Ni  Ni24  1  0.500000  0.000000  0.500000  1
  Ni  Ni25  1  0.000000  0.500000  0.500000  1
  Ni  Ni26  1  0.500000  0.500000  0.000000  1
  Ni  Ni27  1  0.000000  0.500000  0.000000  1
  Rh  Rh28  1  0.000000  0.000000  0.000000  1
