# generated using pymatgen
data_PrTh7(Si3Ru)4
_symmetry_space_group_name_H-M   'P 1'
_cell_length_a   8.30617100
_cell_length_b   8.30617117
_cell_length_c   8.27753900
_cell_angle_alpha   90.00000000
_cell_angle_beta   90.00000000
_cell_angle_gamma   120.00000331
_symmetry_Int_Tables_number   1
_chemical_formula_structural   PrTh7(Si3Ru)4
_chemical_formula_sum   'Pr1 Th7 Si12 Ru4'
_cell_volume   494.57663695
_cell_formula_units_Z   1
loop_
 _symmetry_equiv_pos_site_id
 _symmetry_equiv_pos_as_xyz
  1  'x, y, z'
loop_
 _atom_site_type_symbol
 _atom_site_label
 _atom_site_symmetry_multiplicity
 _atom_site_fract_x
 _atom_site_fract_y
 _atom_site_fract_z
 _atom_site_occupancy
  Pr  Pr0  1  0.000000  0.000000  0.250000  1
  Th  Th1  1  0.499935  0.500065  0.750000  1
  Th  Th2  1  0.499940  0.500060  0.250000  1
  Th  Th3  1  0.000129  0.500065  0.750000  1
  Th  Th4  1  0.000118  0.500060  0.250000  1
  Th  Th5  1  0.499935  0.999871  0.750000  1
  Th  Th6  1  0.499940  0.999882  0.250000  1
  Th  Th7  1  0.000000  0.000000  0.750000  1
  Si  Si8  1  0.833641  0.166359  0.997391  1
  Si  Si9  1  0.166341  0.833659  0.997368  1
  Si  Si10  1  0.332718  0.166359  0.997391  1
  Si  Si11  1  0.166341  0.833659  0.502632  1
  Si  Si12  1  0.667316  0.833659  0.997368  1
  Si  Si13  1  0.833641  0.166359  0.502609  1
  Si  Si14  1  0.833641  0.667282  0.997391  1
  Si  Si15  1  0.667316  0.833659  0.502632  1
  Si  Si16  1  0.166341  0.332684  0.997368  1
  Si  Si17  1  0.332718  0.166359  0.502609  1
  Si  Si18  1  0.166341  0.332684  0.502632  1
  Si  Si19  1  0.833641  0.667282  0.502609  1
  Ru  Ru20  1  0.666667  0.333333  0.006750  1
  Ru  Ru21  1  0.333333  0.666667  0.007158  1
  Ru  Ru22  1  0.333333  0.666667  0.492842  1
  Ru  Ru23  1  0.666667  0.333333  0.493250  1
