# generated using pymatgen
data_Tb6Dy6Os3Rh
_symmetry_space_group_name_H-M   'P 1'
_cell_length_a   6.39484889
_cell_length_b   7.37661327
_cell_length_c   9.12401415
_cell_angle_alpha   90.00315255
_cell_angle_beta   90.05745180
_cell_angle_gamma   90.20425867
_symmetry_Int_Tables_number   1
_chemical_formula_structural   Tb6Dy6Os3Rh
_chemical_formula_sum   'Tb6 Dy6 Os3 Rh1'
_cell_volume   430.39802878
_cell_formula_units_Z   1
loop_
 _symmetry_equiv_pos_site_id
 _symmetry_equiv_pos_as_xyz
  1  'x, y, z'
loop_
 _atom_site_type_symbol
 _atom_site_label
 _atom_site_symmetry_multiplicity
 _atom_site_fract_x
 _atom_site_fract_y
 _atom_site_fract_z
 _atom_site_occupancy
  Tb  Tb0  1  0.333202  0.673034  0.061851  1
  Tb  Tb1  1  0.170074  0.177428  0.437893  1
  Tb  Tb2  1  0.868406  0.537831  0.250071  1
  Tb  Tb3  1  0.631195  0.039944  0.249940  1
  Tb  Tb4  1  0.130377  0.461964  0.749991  1
  Tb  Tb5  1  0.368574  0.961797  0.750002  1
  Dy  Dy6  1  0.670196  0.324755  0.564034  1
  Dy  Dy7  1  0.826731  0.824473  0.933208  1
  Dy  Dy8  1  0.670261  0.324610  0.936002  1
  Dy  Dy9  1  0.826693  0.824308  0.566740  1
  Dy  Dy10  1  0.333294  0.672906  0.438232  1
  Dy  Dy11  1  0.170036  0.177292  0.062019  1
  Os  Os12  1  0.459463  0.383357  0.249990  1
  Os  Os13  1  0.960752  0.115660  0.750211  1
  Os  Os14  1  0.539523  0.616772  0.749829  1
  Rh  Rh15  1  0.041223  0.883870  0.249987  1
