# generated using pymatgen
data_Hf4Nb2Ga5Cu
_symmetry_space_group_name_H-M   'P 1'
_cell_length_a   5.50581900
_cell_length_b   8.36897300
_cell_length_c   9.15053300
_cell_angle_alpha   90.00000000
_cell_angle_beta   90.00000000
_cell_angle_gamma   90.00000000
_symmetry_Int_Tables_number   1
_chemical_formula_structural   Hf4Nb2Ga5Cu
_chemical_formula_sum   'Hf8 Nb4 Ga10 Cu2'
_cell_volume   421.63872217
_cell_formula_units_Z   2
loop_
 _symmetry_equiv_pos_site_id
 _symmetry_equiv_pos_as_xyz
  1  'x, y, z'
loop_
 _atom_site_type_symbol
 _atom_site_label
 _atom_site_symmetry_multiplicity
 _atom_site_fract_x
 _atom_site_fract_y
 _atom_site_fract_z
 _atom_site_occupancy
  Hf  Hf0  1  0.751959  0.471453  0.622033  1
  Hf  Hf1  1  0.251959  0.528547  0.377967  1
  Hf  Hf2  1  0.748041  0.971453  0.377967  1
  Hf  Hf3  1  0.248041  0.028547  0.622033  1
  Hf  Hf4  1  0.746667  0.364702  0.183222  1
  Hf  Hf5  1  0.246667  0.635298  0.816778  1
  Hf  Hf6  1  0.753333  0.864702  0.816778  1
  Hf  Hf7  1  0.253333  0.135298  0.183222  1
  Nb  Nb8  1  0.000000  0.750000  0.114884  1
  Nb  Nb9  1  0.500000  0.250000  0.885116  1
  Nb  Nb10  1  0.000000  0.250000  0.885415  1
  Nb  Nb11  1  0.500000  0.750000  0.114585  1
  Ga  Ga12  1  0.000000  0.250000  0.427012  1
  Ga  Ga13  1  0.500000  0.750000  0.572988  1
  Ga  Ga14  1  0.750544  0.046471  0.081725  1
  Ga  Ga15  1  0.250544  0.953529  0.918275  1
  Ga  Ga16  1  0.749456  0.546471  0.918275  1
  Ga  Ga17  1  0.249456  0.453529  0.081725  1
  Ga  Ga18  1  0.750075  0.130998  0.648097  1
  Ga  Ga19  1  0.250075  0.869002  0.351903  1
  Ga  Ga20  1  0.749925  0.630998  0.351903  1
  Ga  Ga21  1  0.249925  0.369002  0.648097  1
  Cu  Cu22  1  0.000000  0.750000  0.561609  1
  Cu  Cu23  1  0.500000  0.250000  0.438391  1
