# generated using pymatgen
data_Ac12Ni(OsI4)3
_symmetry_space_group_name_H-M   'P 1'
_cell_length_a   11.35431311
_cell_length_b   11.35306806
_cell_length_c   11.35380086
_cell_angle_alpha   109.50423329
_cell_angle_beta   109.51123625
_cell_angle_gamma   109.48852300
_symmetry_Int_Tables_number   1
_chemical_formula_structural   Ac12Ni(OsI4)3
_chemical_formula_sum   'Ac12 Ni1 Os3 I12'
_cell_volume   1125.40380161
_cell_formula_units_Z   1
loop_
 _symmetry_equiv_pos_site_id
 _symmetry_equiv_pos_as_xyz
  1  'x, y, z'
loop_
 _atom_site_type_symbol
 _atom_site_label
 _atom_site_symmetry_multiplicity
 _atom_site_fract_x
 _atom_site_fract_y
 _atom_site_fract_z
 _atom_site_occupancy
  Ac  Ac0  1  0.456617  0.481333  0.226227  1
  Ac  Ac1  1  0.750514  0.229943  0.270744  1
  Ac  Ac2  1  0.749507  0.021488  0.478276  1
  Ac  Ac3  1  0.226692  0.456364  0.480996  1
  Ac  Ac4  1  0.270043  0.749447  0.229139  1
  Ac  Ac5  1  0.043641  0.273334  0.019064  1
  Ac  Ac6  1  0.018592  0.043331  0.273964  1
  Ac  Ac7  1  0.478433  0.750403  0.021616  1
  Ac  Ac8  1  0.481304  0.226180  0.456490  1
  Ac  Ac9  1  0.021573  0.478430  0.749973  1
  Ac  Ac10  1  0.273867  0.018691  0.043528  1
  Ac  Ac11  1  0.229434  0.270562  0.750026  1
  Ni  Ni12  1  0.250471  0.249436  0.250222  1
  Os  Os13  1  0.497906  0.002077  0.249944  1
  Os  Os14  1  0.002178  0.250167  0.497910  1
  Os  Os15  1  0.249850  0.497775  0.002133  1
  I  I16  1  0.249825  0.761146  0.738579  1
  I  I17  1  0.520769  0.510308  0.760341  1
  I  I18  1  0.979144  0.739900  0.989670  1
  I  I19  1  0.738926  0.250180  0.761371  1
  I  I20  1  0.989709  0.979282  0.739656  1
  I  I21  1  0.250031  0.989549  0.510576  1
  I  I22  1  0.760154  0.520915  0.510210  1
  I  I23  1  0.510464  0.250040  0.989430  1
  I  I24  1  0.761121  0.738785  0.249965  1
  I  I25  1  0.739681  0.989888  0.979082  1
  I  I26  1  0.989375  0.510672  0.249948  1
  I  I27  1  0.510181  0.760378  0.520922  1
