# generated using pymatgen
data_Er12CdCo4Ir
_symmetry_space_group_name_H-M   'P 1'
_cell_length_a   8.20649462
_cell_length_b   8.20649337
_cell_length_c   8.20649381
_cell_angle_alpha   111.32888223
_cell_angle_beta   110.46932790
_cell_angle_gamma   106.65290789
_symmetry_Int_Tables_number   1
_chemical_formula_structural   Er12CdCo4Ir
_chemical_formula_sum   'Er12 Cd1 Co4 Ir1'
_cell_volume   424.66007103
_cell_formula_units_Z   1
loop_
 _symmetry_equiv_pos_site_id
 _symmetry_equiv_pos_as_xyz
  1  'x, y, z'
loop_
 _atom_site_type_symbol
 _atom_site_label
 _atom_site_symmetry_multiplicity
 _atom_site_fract_x
 _atom_site_fract_y
 _atom_site_fract_z
 _atom_site_occupancy
  Er  Er0  1  0.182835  0.284308  0.467143  1
  Er  Er1  1  0.817165  0.715692  0.532857  1
  Er  Er2  1  0.182835  0.715692  0.898528  1
  Er  Er3  1  0.817165  0.284308  0.101472  1
  Er  Er4  1  0.314890  0.620152  0.305262  1
  Er  Er5  1  0.685110  0.379848  0.694738  1
  Er  Er6  1  0.314890  0.009628  0.694738  1
  Er  Er7  1  0.685110  0.990372  0.305262  1
  Er  Er8  1  0.413495  0.218558  0.194937  1
  Er  Er9  1  0.586505  0.781442  0.805063  1
  Er  Er10  1  0.023622  0.218558  0.805063  1
  Er  Er11  1  0.976378  0.781442  0.194937  1
  Cd  Cd12  1  0.500000  0.500000  0.000000  1
  Co  Co13  1  0.112672  0.612672  0.500000  1
  Co  Co14  1  0.887328  0.387328  0.500000  1
  Co  Co15  1  0.376374  0.000000  0.376374  1
  Co  Co16  1  0.623626  0.000000  0.623626  1
  Ir  Ir17  1  0.000000  0.000000  0.000000  1
