# generated using pymatgen
data_Hf6Ti4Al12Fe6Ir
_symmetry_space_group_name_H-M   'P 1'
_cell_length_a   8.57811447
_cell_length_b   8.59423707
_cell_length_c   8.59423916
_cell_angle_alpha   59.94152402
_cell_angle_beta   60.06204123
_cell_angle_gamma   60.06203704
_symmetry_Int_Tables_number   1
_chemical_formula_structural   Hf6Ti4Al12Fe6Ir
_chemical_formula_sum   'Hf6 Ti4 Al12 Fe6 Ir1'
_cell_volume   448.23478901
_cell_formula_units_Z   1
loop_
 _symmetry_equiv_pos_site_id
 _symmetry_equiv_pos_as_xyz
  1  'x, y, z'
loop_
 _atom_site_type_symbol
 _atom_site_label
 _atom_site_symmetry_multiplicity
 _atom_site_fract_x
 _atom_site_fract_y
 _atom_site_fract_z
 _atom_site_occupancy
  Hf  Hf0  1  0.703343  0.699313  0.300627  1
  Hf  Hf1  1  0.296717  0.699313  0.300627  1
  Hf  Hf2  1  0.699535  0.300465  0.300465  1
  Hf  Hf3  1  0.296717  0.300627  0.699313  1
  Hf  Hf4  1  0.703343  0.300627  0.699313  1
  Hf  Hf5  1  0.301288  0.698712  0.698712  1
  Ti  Ti6  1  0.881988  0.881455  0.354569  1
  Ti  Ti7  1  0.881988  0.354569  0.881455  1
  Ti  Ti8  1  0.354023  0.879173  0.879173  1
  Ti  Ti9  1  0.887631  0.879173  0.879173  1
  Al  Al10  1  0.118123  0.118790  0.644965  1
  Al  Al11  1  0.118123  0.644965  0.118790  1
  Al  Al12  1  0.645779  0.120246  0.120246  1
  Al  Al13  1  0.113729  0.120246  0.120246  1
  Al  Al14  1  0.668299  0.658840  0.004563  1
  Al  Al15  1  0.668299  0.004563  0.658840  1
  Al  Al16  1  0.002208  0.665727  0.665727  1
  Al  Al17  1  0.666340  0.665727  0.665727  1
  Al  Al18  1  0.330532  0.340214  0.998719  1
  Al  Al19  1  0.330532  0.998719  0.340214  1
  Al  Al20  1  0.999952  0.333176  0.333176  1
  Al  Al21  1  0.333696  0.333176  0.333176  1
  Fe  Fe22  1  0.000367  0.999633  0.999633  1
  Fe  Fe23  1  0.998363  0.997475  0.502995  1
  Fe  Fe24  1  0.501166  0.997475  0.502995  1
  Fe  Fe25  1  0.998064  0.501936  0.501936  1
  Fe  Fe26  1  0.501166  0.502995  0.997475  1
  Fe  Fe27  1  0.998363  0.502995  0.997475  1
  Ir  Ir28  1  0.500323  0.999677  0.999677  1
