# generated using pymatgen
data_Er8ZnInRh2
_symmetry_space_group_name_H-M   'P 1'
_cell_length_a   9.51379908
_cell_length_b   9.49333387
_cell_length_c   9.49333349
_cell_angle_alpha   59.97066839
_cell_angle_beta   59.92866613
_cell_angle_gamma   59.92866583
_symmetry_Int_Tables_number   1
_chemical_formula_structural   Er8ZnInRh2
_chemical_formula_sum   'Er16 Zn2 In2 Rh4'
_cell_volume   605.49590348
_cell_formula_units_Z   2
loop_
 _symmetry_equiv_pos_site_id
 _symmetry_equiv_pos_as_xyz
  1  'x, y, z'
loop_
 _atom_site_type_symbol
 _atom_site_label
 _atom_site_symmetry_multiplicity
 _atom_site_fract_x
 _atom_site_fract_y
 _atom_site_fract_z
 _atom_site_occupancy
  Er  Er0  1  0.189044  0.189978  0.811075  1
  Er  Er1  1  0.436522  0.063478  0.063478  1
  Er  Er2  1  0.436755  0.059383  0.435659  1
  Er  Er3  1  0.068203  0.435659  0.059383  1
  Er  Er4  1  0.648502  0.053832  0.649164  1
  Er  Er5  1  0.189695  0.810305  0.810305  1
  Er  Er6  1  0.068203  0.059383  0.435659  1
  Er  Er7  1  0.810292  0.189708  0.189708  1
  Er  Er8  1  0.809902  0.811075  0.189978  1
  Er  Er9  1  0.648502  0.649164  0.053832  1
  Er  Er10  1  0.647600  0.648297  0.648297  1
  Er  Er11  1  0.063657  0.436343  0.436343  1
  Er  Er12  1  0.055805  0.648297  0.648297  1
  Er  Er13  1  0.809902  0.189978  0.811075  1
  Er  Er14  1  0.436755  0.435659  0.059383  1
  Er  Er15  1  0.189044  0.811075  0.189978  1
  Zn  Zn16  1  0.416601  0.747938  0.418859  1
  Zn  Zn17  1  0.416601  0.418859  0.747938  1
  In  In18  1  0.742124  0.420470  0.420470  1
  In  In19  1  0.416935  0.420470  0.420470  1
  Rh  Rh20  1  0.856876  0.430021  0.856227  1
  Rh  Rh21  1  0.856876  0.856227  0.430021  1
  Rh  Rh22  1  0.428413  0.857200  0.857200  1
  Rh  Rh23  1  0.857188  0.857200  0.857200  1
