# generated using pymatgen
data_YbTePtO6
_symmetry_space_group_name_H-M   'P 1'
_cell_length_a   5.25912701
_cell_length_b   5.25975601
_cell_length_c   9.96800300
_cell_angle_alpha   90.00824056
_cell_angle_beta   89.99607489
_cell_angle_gamma   120.00389464
_symmetry_Int_Tables_number   1
_chemical_formula_structural   YbTePtO6
_chemical_formula_sum   'Yb2 Te2 Pt2 O12'
_cell_volume   238.78167816
_cell_formula_units_Z   2
loop_
 _symmetry_equiv_pos_site_id
 _symmetry_equiv_pos_as_xyz
  1  'x, y, z'
loop_
 _atom_site_type_symbol
 _atom_site_label
 _atom_site_symmetry_multiplicity
 _atom_site_fract_x
 _atom_site_fract_y
 _atom_site_fract_z
 _atom_site_occupancy
  Yb  Yb0  1  0.999999  0.000002  0.000002  1
  Yb  Yb1  1  0.000003  0.000001  0.499997  1
  Te  Te2  1  0.666839  0.333418  0.250000  1
  Te  Te3  1  0.333162  0.666581  0.749999  1
  Pt  Pt4  1  0.333197  0.666600  0.250001  1
  Pt  Pt5  1  0.666800  0.333397  0.750000  1
  O  O6  1  0.365262  0.009164  0.141291  1
  O  O7  1  0.643904  0.634740  0.141284  1
  O  O8  1  0.990836  0.356101  0.141301  1
  O  O9  1  0.990843  0.634739  0.358699  1
  O  O10  1  0.643913  0.009173  0.358717  1
  O  O11  1  0.365269  0.356100  0.358710  1
  O  O12  1  0.634736  0.643904  0.641289  1
  O  O13  1  0.356085  0.990827  0.641283  1
  O  O14  1  0.009157  0.365258  0.641302  1
  O  O15  1  0.009166  0.643902  0.858700  1
  O  O16  1  0.356094  0.365260  0.858714  1
  O  O17  1  0.634734  0.990831  0.858710  1
