# generated using pymatgen
data_Er2Sc6Re11Si16Ru
_symmetry_space_group_name_H-M   'P 1'
_cell_length_a   6.66139371
_cell_length_b   6.65447871
_cell_length_c   12.54467311
_cell_angle_alpha   89.93673222
_cell_angle_beta   90.07174709
_cell_angle_gamma   90.13576911
_symmetry_Int_Tables_number   1
_chemical_formula_structural   Er2Sc6Re11Si16Ru
_chemical_formula_sum   'Er2 Sc6 Re11 Si16 Ru1'
_cell_volume   556.07922302
_cell_formula_units_Z   1
loop_
 _symmetry_equiv_pos_site_id
 _symmetry_equiv_pos_as_xyz
  1  'x, y, z'
loop_
 _atom_site_type_symbol
 _atom_site_label
 _atom_site_symmetry_multiplicity
 _atom_site_fract_x
 _atom_site_fract_y
 _atom_site_fract_z
 _atom_site_occupancy
  Er  Er0  1  0.005229  0.661646  0.030644  1
  Er  Er1  1  0.994676  0.335672  0.531478  1
  Sc  Sc2  1  0.338714  0.992468  0.467712  1
  Sc  Sc3  1  0.157367  0.491788  0.781706  1
  Sc  Sc4  1  0.841968  0.505603  0.279501  1
  Sc  Sc5  1  0.491809  0.156965  0.218910  1
  Sc  Sc6  1  0.505661  0.842206  0.721297  1
  Sc  Sc7  1  0.656101  0.008529  0.968856  1
  Re  Re8  1  0.168507  0.833023  0.251311  1
  Re  Re9  1  0.333425  0.330148  0.999377  1
  Re  Re10  1  0.020690  0.816636  0.630251  1
  Re  Re11  1  0.978840  0.188177  0.133947  1
  Re  Re12  1  0.814627  0.020215  0.368855  1
  Re  Re13  1  0.317947  0.483837  0.382600  1
  Re  Re14  1  0.685616  0.515033  0.881028  1
  Re  Re15  1  0.483050  0.315478  0.616337  1
  Re  Re16  1  0.515989  0.687890  0.118223  1
  Re  Re17  1  0.190521  0.978843  0.865323  1
  Re  Re18  1  0.830593  0.166082  0.751678  1
  Si  Si19  1  0.025978  0.723852  0.436782  1
  Si  Si20  1  0.616838  0.303528  0.430454  1
  Si  Si21  1  0.384663  0.695208  0.929975  1
  Si  Si22  1  0.199720  0.118739  0.682113  1
  Si  Si23  1  0.308271  0.622909  0.568631  1
  Si  Si24  1  0.691702  0.378904  0.069349  1
  Si  Si25  1  0.801644  0.882901  0.183030  1
  Si  Si26  1  0.122542  0.194952  0.318425  1
  Si  Si27  1  0.974860  0.269724  0.937648  1
  Si  Si28  1  0.715654  0.021587  0.562516  1
  Si  Si29  1  0.224271  0.472969  0.189753  1
  Si  Si30  1  0.776073  0.527603  0.688945  1
  Si  Si31  1  0.474880  0.222361  0.811595  1
  Si  Si32  1  0.525885  0.778283  0.312463  1
  Si  Si33  1  0.277914  0.978365  0.062049  1
  Si  Si34  1  0.879239  0.806217  0.817579  1
  Ru  Ru35  1  0.668535  0.671657  0.499658  1
