# generated using pymatgen
data_Sm2Tm2LuSn4
_symmetry_space_group_name_H-M   'P 1'
_cell_length_a   8.02346600
_cell_length_b   8.17283600
_cell_length_c   15.44223000
_cell_angle_alpha   90.00000000
_cell_angle_beta   90.00000000
_cell_angle_gamma   90.00000000
_symmetry_Int_Tables_number   1
_chemical_formula_structural   Sm2Tm2LuSn4
_chemical_formula_sum   'Sm8 Tm8 Lu4 Sn16'
_cell_volume   1012.61607519
_cell_formula_units_Z   4
loop_
 _symmetry_equiv_pos_site_id
 _symmetry_equiv_pos_as_xyz
  1  'x, y, z'
loop_
 _atom_site_type_symbol
 _atom_site_label
 _atom_site_symmetry_multiplicity
 _atom_site_fract_x
 _atom_site_fract_y
 _atom_site_fract_z
 _atom_site_occupancy
  Sm  Sm0  1  0.518672  0.321435  0.903199  1
  Sm  Sm1  1  0.018672  0.178565  0.596801  1
  Sm  Sm2  1  0.481328  0.678565  0.403199  1
  Sm  Sm3  1  0.981328  0.821435  0.096801  1
  Sm  Sm4  1  0.481328  0.678565  0.096801  1
  Sm  Sm5  1  0.981328  0.821435  0.403199  1
  Sm  Sm6  1  0.518672  0.321435  0.596801  1
  Sm  Sm7  1  0.018672  0.178565  0.903199  1
  Tm  Tm8  1  0.364393  0.836493  0.876969  1
  Tm  Tm9  1  0.864393  0.663507  0.623031  1
  Tm  Tm10  1  0.635607  0.163507  0.376969  1
  Tm  Tm11  1  0.135607  0.336493  0.123031  1
  Tm  Tm12  1  0.635607  0.163507  0.123031  1
  Tm  Tm13  1  0.135607  0.336493  0.376969  1
  Tm  Tm14  1  0.364393  0.836493  0.623031  1
  Tm  Tm15  1  0.864393  0.663507  0.876969  1
  Lu  Lu16  1  0.196384  0.504541  0.750000  1
  Lu  Lu17  1  0.696384  0.995459  0.750000  1
  Lu  Lu18  1  0.803616  0.495459  0.250000  1
  Lu  Lu19  1  0.303616  0.004541  0.250000  1
  Sn  Sn20  1  0.299108  0.039474  0.042093  1
  Sn  Sn21  1  0.799108  0.460526  0.457907  1
  Sn  Sn22  1  0.700892  0.960526  0.542093  1
  Sn  Sn23  1  0.200892  0.539474  0.957907  1
  Sn  Sn24  1  0.700892  0.960526  0.957907  1
  Sn  Sn25  1  0.200892  0.539474  0.542093  1
  Sn  Sn26  1  0.299108  0.039474  0.457907  1
  Sn  Sn27  1  0.799108  0.460526  0.042093  1
  Sn  Sn28  1  0.562211  0.623180  0.750000  1
  Sn  Sn29  1  0.062211  0.876820  0.750000  1
  Sn  Sn30  1  0.437789  0.376820  0.250000  1
  Sn  Sn31  1  0.937789  0.123180  0.250000  1
  Sn  Sn32  1  0.327724  0.145622  0.750000  1
  Sn  Sn33  1  0.827724  0.354378  0.750000  1
  Sn  Sn34  1  0.672276  0.854378  0.250000  1
  Sn  Sn35  1  0.172276  0.645622  0.250000  1
