# generated using pymatgen
data_TbLu5Tc2
_symmetry_space_group_name_H-M   'P 1'
_cell_length_a   6.17633900
_cell_length_b   7.36354300
_cell_length_c   8.93308300
_cell_angle_alpha   90.00000000
_cell_angle_beta   90.00000000
_cell_angle_gamma   90.00000000
_symmetry_Int_Tables_number   1
_chemical_formula_structural   TbLu5Tc2
_chemical_formula_sum   'Tb2 Lu10 Tc4'
_cell_volume   406.27427267
_cell_formula_units_Z   2
loop_
 _symmetry_equiv_pos_site_id
 _symmetry_equiv_pos_as_xyz
  1  'x, y, z'
loop_
 _atom_site_type_symbol
 _atom_site_label
 _atom_site_symmetry_multiplicity
 _atom_site_fract_x
 _atom_site_fract_y
 _atom_site_fract_z
 _atom_site_occupancy
  Tb  Tb0  1  0.874180  0.540950  0.250000  1
  Tb  Tb1  1  0.625820  0.040950  0.250000  1
  Lu  Lu2  1  0.343550  0.675500  0.060991  1
  Lu  Lu3  1  0.156450  0.175500  0.439009  1
  Lu  Lu4  1  0.656186  0.324892  0.563621  1
  Lu  Lu5  1  0.843814  0.824892  0.936379  1
  Lu  Lu6  1  0.656186  0.324892  0.936379  1
  Lu  Lu7  1  0.843814  0.824892  0.563621  1
  Lu  Lu8  1  0.343550  0.675500  0.439009  1
  Lu  Lu9  1  0.156450  0.175500  0.060991  1
  Lu  Lu10  1  0.128146  0.458718  0.750000  1
  Lu  Lu11  1  0.371854  0.958718  0.750000  1
  Tc  Tc12  1  0.044021  0.884038  0.250000  1
  Tc  Tc13  1  0.455979  0.384038  0.250000  1
  Tc  Tc14  1  0.957779  0.115507  0.750000  1
  Tc  Tc15  1  0.542221  0.615507  0.750000  1
