# generated using pymatgen
data_Dy20CuIr7Os4
_symmetry_space_group_name_H-M   'P 1'
_cell_length_a   10.87117678
_cell_length_b   10.87117717
_cell_length_c   6.43983000
_cell_angle_alpha   90.06854723
_cell_angle_beta   90.06854723
_cell_angle_gamma   89.98453889
_symmetry_Int_Tables_number   1
_chemical_formula_structural   Dy20CuIr7Os4
_chemical_formula_sum   'Dy20 Cu1 Ir7 Os4'
_cell_volume   761.07402035
_cell_formula_units_Z   1
loop_
 _symmetry_equiv_pos_site_id
 _symmetry_equiv_pos_as_xyz
  1  'x, y, z'
loop_
 _atom_site_type_symbol
 _atom_site_label
 _atom_site_symmetry_multiplicity
 _atom_site_fract_x
 _atom_site_fract_y
 _atom_site_fract_z
 _atom_site_occupancy
  Dy  Dy0  1  0.293075  0.086059  0.377777  1
  Dy  Dy1  1  0.294022  0.913585  0.877201  1
  Dy  Dy2  1  0.703259  0.084703  0.870904  1
  Dy  Dy3  1  0.704530  0.909155  0.380043  1
  Dy  Dy4  1  0.586353  0.793719  0.878440  1
  Dy  Dy5  1  0.581587  0.206461  0.378347  1
  Dy  Dy6  1  0.412945  0.793473  0.378186  1
  Dy  Dy7  1  0.413367  0.206277  0.878637  1
  Dy  Dy8  1  0.206281  0.413647  0.621560  1
  Dy  Dy9  1  0.206527  0.587055  0.121814  1
  Dy  Dy10  1  0.793539  0.418413  0.121653  1
  Dy  Dy11  1  0.793723  0.586633  0.621363  1
  Dy  Dy12  1  0.913941  0.706925  0.122223  1
  Dy  Dy13  1  0.915297  0.296741  0.629096  1
  Dy  Dy14  1  0.086415  0.705978  0.622799  1
  Dy  Dy15  1  0.090845  0.295470  0.119957  1
  Dy  Dy16  1  0.001536  0.997927  0.501204  1
  Dy  Dy17  1  0.002073  0.998464  0.998796  1
  Dy  Dy18  1  0.499789  0.500257  0.999520  1
  Dy  Dy19  1  0.499743  0.500211  0.500480  1
  Cu  Cu20  1  0.847105  0.152895  0.250000  1
  Ir  Ir21  1  0.848865  0.849922  0.750328  1
  Ir  Ir22  1  0.150078  0.151135  0.749672  1
  Ir  Ir23  1  0.151659  0.848341  0.250000  1
  Ir  Ir24  1  0.653452  0.346548  0.750000  1
  Ir  Ir25  1  0.651950  0.651839  0.250330  1
  Ir  Ir26  1  0.348161  0.348050  0.249670  1
  Ir  Ir27  1  0.348050  0.651950  0.750000  1
  Os  Os28  1  0.501352  0.000304  0.125901  1
  Os  Os29  1  0.500852  0.000065  0.623959  1
  Os  Os30  1  0.999935  0.499148  0.876041  1
  Os  Os31  1  0.999696  0.498648  0.374099  1
