# generated using pymatgen
data_Ce5TcB6Mo
_symmetry_space_group_name_H-M   'P 1'
_cell_length_a   5.50819832
_cell_length_b   5.50819873
_cell_length_c   8.60304771
_cell_angle_alpha   71.32917927
_cell_angle_beta   71.32917405
_cell_angle_gamma   59.99999666
_symmetry_Int_Tables_number   1
_chemical_formula_structural   Ce5TcB6Mo
_chemical_formula_sum   'Ce5 Tc1 B6 Mo1'
_cell_volume   210.03751550
_cell_formula_units_Z   1
loop_
 _symmetry_equiv_pos_site_id
 _symmetry_equiv_pos_as_xyz
  1  'x, y, z'
loop_
 _atom_site_type_symbol
 _atom_site_label
 _atom_site_symmetry_multiplicity
 _atom_site_fract_x
 _atom_site_fract_y
 _atom_site_fract_z
 _atom_site_occupancy
  Ce  Ce0  1  0.000798  0.000798  0.997606  1
  Ce  Ce1  1  0.748885  0.748885  0.753344  1
  Ce  Ce2  1  0.251224  0.251224  0.246328  1
  Ce  Ce3  1  0.584713  0.584713  0.245861  1
  Ce  Ce4  1  0.415005  0.415005  0.754986  1
  Tc  Tc5  1  0.109281  0.109281  0.672157  1
  B  B6  1  0.499248  0.170763  0.500546  1
  B  B7  1  0.829443  0.499248  0.500546  1
  B  B8  1  0.170763  0.829443  0.500546  1
  B  B9  1  0.170763  0.499248  0.500546  1
  B  B10  1  0.829443  0.170763  0.500546  1
  B  B11  1  0.499248  0.829443  0.500546  1
  Mo  Mo12  1  0.891187  0.891187  0.326442  1
