# generated using pymatgen
data_RbTi6O12
_symmetry_space_group_name_H-M   'P 1'
_cell_length_a   8.94749140
_cell_length_b   10.42131420
_cell_length_c   8.55772951
_cell_angle_alpha   67.91262385
_cell_angle_beta   58.48249301
_cell_angle_gamma   44.33854845
_symmetry_Int_Tables_number   1
_chemical_formula_structural   RbTi6O12
_chemical_formula_sum   'Rb2 Ti12 O24'
_cell_volume   475.41945696
_cell_formula_units_Z   2
loop_
 _symmetry_equiv_pos_site_id
 _symmetry_equiv_pos_as_xyz
  1  'x, y, z'
loop_
 _atom_site_type_symbol
 _atom_site_label
 _atom_site_symmetry_multiplicity
 _atom_site_fract_x
 _atom_site_fract_y
 _atom_site_fract_z
 _atom_site_occupancy
  Rb  Rb0  1  0.211824  0.997957  0.999421  1
  Rb  Rb1  1  0.790876  0.002243  0.000837  1
  Ti  Ti2  1  0.008448  0.482745  0.181107  1
  Ti  Ti3  1  0.258002  0.183587  0.514254  1
  Ti  Ti4  1  0.336283  0.489639  0.182762  1
  Ti  Ti5  1  0.075499  0.818162  0.486349  1
  Ti  Ti6  1  0.589840  0.182527  0.517966  1
  Ti  Ti7  1  0.332126  0.514012  0.816815  1
  Ti  Ti8  1  0.671649  0.485692  0.183736  1
  Ti  Ti9  1  0.412272  0.817474  0.483179  1
  Ti  Ti10  1  0.927442  0.181528  0.513873  1
  Ti  Ti11  1  0.668089  0.510066  0.816968  1
  Ti  Ti12  1  0.745064  0.816681  0.484908  1
  Ti  Ti13  1  0.994410  0.517786  0.819254  1
  O  O14  1  0.006616  0.363759  0.051051  1
  O  O15  1  0.141799  0.049006  0.638430  1
  O  O16  1  0.065757  0.297896  0.375343  1
  O  O17  1  0.995495  0.630557  0.292298  1
  O  O18  1  0.338815  0.365403  0.050753  1
  O  O19  1  0.477096  0.048547  0.635532  1
  O  O20  1  0.402002  0.296068  0.372146  1
  O  O21  1  0.338373  0.373786  0.703912  1
  O  O22  1  0.331102  0.631660  0.291692  1
  O  O23  1  0.675018  0.361468  0.049840  1
  O  O24  1  0.265604  0.705799  0.628602  1
  O  O25  1  0.193262  0.951744  0.364608  1
  O  O26  1  0.809339  0.048271  0.635882  1
  O  O27  1  0.736478  0.294912  0.372366  1
  O  O28  1  0.329388  0.638274  0.949908  1
  O  O29  1  0.672431  0.368379  0.708338  1
  O  O30  1  0.664920  0.626501  0.296164  1
  O  O31  1  0.602262  0.703297  0.627231  1
  O  O32  1  0.526017  0.951370  0.364408  1
  O  O33  1  0.664783  0.634782  0.948799  1
  O  O34  1  0.008383  0.369593  0.707015  1
  O  O35  1  0.938076  0.701429  0.623798  1
  O  O36  1  0.861473  0.950932  0.361683  1
  O  O37  1  0.996688  0.636466  0.948773  1
