# generated using pymatgen
data_Li2YbPrPd2
_symmetry_space_group_name_H-M   'P 1'
_cell_length_a   4.08664600
_cell_length_b   7.26581856
_cell_length_c   8.61724700
_cell_angle_alpha   90.89000357
_cell_angle_beta   90.00000000
_cell_angle_gamma   90.00000000
_symmetry_Int_Tables_number   1
_chemical_formula_structural   Li2YbPrPd2
_chemical_formula_sum   'Li4 Yb2 Pr2 Pd4'
_cell_volume   255.83956744
_cell_formula_units_Z   2
loop_
 _symmetry_equiv_pos_site_id
 _symmetry_equiv_pos_as_xyz
  1  'x, y, z'
loop_
 _atom_site_type_symbol
 _atom_site_label
 _atom_site_symmetry_multiplicity
 _atom_site_fract_x
 _atom_site_fract_y
 _atom_site_fract_z
 _atom_site_occupancy
  Li  Li0  1  0.250000  0.880049  0.944141  1
  Li  Li1  1  0.750000  0.119951  0.055859  1
  Li  Li2  1  0.250000  0.366992  0.554289  1
  Li  Li3  1  0.750000  0.633008  0.445711  1
  Yb  Yb4  1  0.250000  0.952938  0.321659  1
  Yb  Yb5  1  0.750000  0.047062  0.678341  1
  Pr  Pr6  1  0.250000  0.451492  0.183692  1
  Pr  Pr7  1  0.750000  0.548508  0.816308  1
  Pd  Pd8  1  0.750000  0.749436  0.126134  1
  Pd  Pd9  1  0.250000  0.250564  0.873866  1
  Pd  Pd10  1  0.750000  0.242794  0.376969  1
  Pd  Pd11  1  0.250000  0.757206  0.623031  1
