# generated using pymatgen
data_LiEr4B16Mo2Ir
_symmetry_space_group_name_H-M   'P 1'
_cell_length_a   3.58330300
_cell_length_b   5.95985910
_cell_length_c   11.50649448
_cell_angle_alpha   89.88068403
_cell_angle_beta   90.00000000
_cell_angle_gamma   90.00000000
_symmetry_Int_Tables_number   1
_chemical_formula_structural   LiEr4B16Mo2Ir
_chemical_formula_sum   'Li1 Er4 B16 Mo2 Ir1'
_cell_volume   245.73194458
_cell_formula_units_Z   1
loop_
 _symmetry_equiv_pos_site_id
 _symmetry_equiv_pos_as_xyz
  1  'x, y, z'
loop_
 _atom_site_type_symbol
 _atom_site_label
 _atom_site_symmetry_multiplicity
 _atom_site_fract_x
 _atom_site_fract_y
 _atom_site_fract_z
 _atom_site_occupancy
  Li  Li0  1  0.000000  0.637623  0.087340  1
  Er  Er1  1  0.000000  0.626384  0.347759  1
  Er  Er2  1  0.000000  0.371551  0.651007  1
  Er  Er3  1  0.000000  0.126773  0.146368  1
  Er  Er4  1  0.000000  0.873510  0.854676  1
  B  B5  1  0.500000  0.783974  0.182276  1
  B  B6  1  0.500000  0.213087  0.816865  1
  B  B7  1  0.500000  0.292339  0.310205  1
  B  B8  1  0.500000  0.708795  0.688559  1
  B  B9  1  0.500000  0.863856  0.032384  1
  B  B10  1  0.500000  0.134592  0.969544  1
  B  B11  1  0.500000  0.367209  0.467438  1
  B  B12  1  0.500000  0.631246  0.532008  1
  B  B13  1  0.500000  0.884106  0.452249  1
  B  B14  1  0.500000  0.114380  0.547656  1
  B  B15  1  0.500000  0.384979  0.046696  1
  B  B16  1  0.500000  0.614240  0.952468  1
  B  B17  1  0.500000  0.972462  0.303198  1
  B  B18  1  0.500000  0.025039  0.695753  1
  B  B19  1  0.500000  0.482441  0.190955  1
  B  B20  1  0.500000  0.521392  0.809157  1
  Mo  Mo21  1  0.000000  0.128132  0.414672  1
  Mo  Mo22  1  0.000000  0.870524  0.586706  1
  Ir  Ir23  1  0.000000  0.371363  0.914063  1
