# generated using pymatgen
data_Er16Al4RuPt3
_symmetry_space_group_name_H-M   'P 1'
_cell_length_a   9.48439561
_cell_length_b   9.51869143
_cell_length_c   9.48439600
_cell_angle_alpha   60.11912037
_cell_angle_beta   60.00000561
_cell_angle_gamma   60.11912051
_symmetry_Int_Tables_number   1
_chemical_formula_structural   Er16Al4RuPt3
_chemical_formula_sum   'Er16 Al4 Ru1 Pt3'
_cell_volume   606.54247019
_cell_formula_units_Z   1
loop_
 _symmetry_equiv_pos_site_id
 _symmetry_equiv_pos_as_xyz
  1  'x, y, z'
loop_
 _atom_site_type_symbol
 _atom_site_label
 _atom_site_symmetry_multiplicity
 _atom_site_fract_x
 _atom_site_fract_y
 _atom_site_fract_z
 _atom_site_occupancy
  Er  Er0  1  0.064257  0.062863  0.436440  1
  Er  Er1  1  0.645218  0.064346  0.645218  1
  Er  Er2  1  0.193642  0.806251  0.193642  1
  Er  Er3  1  0.436440  0.062863  0.436440  1
  Er  Er4  1  0.187805  0.195853  0.808171  1
  Er  Er5  1  0.648707  0.643758  0.648707  1
  Er  Er6  1  0.058829  0.643758  0.648707  1
  Er  Er7  1  0.436440  0.062863  0.064257  1
  Er  Er8  1  0.648707  0.643758  0.058829  1
  Er  Er9  1  0.193642  0.806251  0.806464  1
  Er  Er10  1  0.808171  0.195853  0.808171  1
  Er  Er11  1  0.808171  0.195853  0.187805  1
  Er  Er12  1  0.806464  0.806251  0.193642  1
  Er  Er13  1  0.062497  0.435262  0.439745  1
  Er  Er14  1  0.439745  0.435262  0.062497  1
  Er  Er15  1  0.062497  0.435262  0.062497  1
  Al  Al16  1  0.735213  0.421422  0.421683  1
  Al  Al17  1  0.421683  0.421422  0.735213  1
  Al  Al18  1  0.420756  0.737731  0.420756  1
  Al  Al19  1  0.421683  0.421422  0.421683  1
  Ru  Ru20  1  0.857419  0.427745  0.857419  1
  Pt  Pt21  1  0.856804  0.857985  0.856804  1
  Pt  Pt22  1  0.428409  0.857985  0.856804  1
  Pt  Pt23  1  0.856804  0.857985  0.428409  1
