# generated using pymatgen
data_LiLa6TcBr12
_symmetry_space_group_name_H-M   'P 1'
_cell_length_a   9.84879554
_cell_length_b   9.64235349
_cell_length_c   9.82967973
_cell_angle_alpha   107.98863582
_cell_angle_beta   108.25114650
_cell_angle_gamma   108.15291139
_symmetry_Int_Tables_number   1
_chemical_formula_structural   LiLa6TcBr12
_chemical_formula_sum   'Li1 La6 Tc1 Br12'
_cell_volume   752.13834503
_cell_formula_units_Z   1
loop_
 _symmetry_equiv_pos_site_id
 _symmetry_equiv_pos_as_xyz
  1  'x, y, z'
loop_
 _atom_site_type_symbol
 _atom_site_label
 _atom_site_symmetry_multiplicity
 _atom_site_fract_x
 _atom_site_fract_y
 _atom_site_fract_z
 _atom_site_occupancy
  Li  Li0  1  0.500000  0.500000  0.500000  1
  La  La1  1  0.328476  0.127554  0.035819  1
  La  La2  1  0.033545  0.311338  0.116610  1
  La  La3  1  0.125908  0.035395  0.327614  1
  La  La4  1  0.874092  0.964605  0.672387  1
  La  La5  1  0.966455  0.688663  0.883391  1
  La  La6  1  0.671525  0.872446  0.964182  1
  Tc  Tc7  1  0.000000  0.000000  0.000000  1
  Br  Br8  1  0.685854  0.209488  0.067146  1
  Br  Br9  1  0.382364  0.471596  0.184367  1
  Br  Br10  1  0.066171  0.682643  0.209733  1
  Br  Br11  1  0.792452  0.933377  0.315399  1
  Br  Br12  1  0.466919  0.182840  0.380834  1
  Br  Br13  1  0.184588  0.383666  0.466575  1
  Br  Br14  1  0.815412  0.616335  0.533425  1
  Br  Br15  1  0.533081  0.817161  0.619166  1
  Br  Br16  1  0.207549  0.066624  0.684601  1
  Br  Br17  1  0.933829  0.317357  0.790268  1
  Br  Br18  1  0.617637  0.528404  0.815633  1
  Br  Br19  1  0.314147  0.790512  0.932854  1
