# generated using pymatgen
data_La6Ga8SBr
_symmetry_space_group_name_H-M   'P 1'
_cell_length_a   8.15338035
_cell_length_b   8.15338031
_cell_length_c   8.15337900
_cell_angle_alpha   119.27858177
_cell_angle_beta   119.27858968
_cell_angle_gamma   91.25413383
_symmetry_Int_Tables_number   1
_chemical_formula_structural   La6Ga8SBr
_chemical_formula_sum   'La6 Ga8 S1 Br1'
_cell_volume   387.34275418
_cell_formula_units_Z   1
loop_
 _symmetry_equiv_pos_site_id
 _symmetry_equiv_pos_as_xyz
  1  'x, y, z'
loop_
 _atom_site_type_symbol
 _atom_site_label
 _atom_site_symmetry_multiplicity
 _atom_site_fract_x
 _atom_site_fract_y
 _atom_site_fract_z
 _atom_site_occupancy
  La  La0  1  0.846686  0.669955  0.516640  1
  La  La1  1  0.669955  0.153314  0.823269  1
  La  La2  1  0.330045  0.846686  0.176731  1
  La  La3  1  0.153314  0.330045  0.483360  1
  La  La4  1  0.243623  0.243623  0.000000  1
  La  La5  1  0.756377  0.756377  0.000000  1
  Ga  Ga6  1  0.160878  0.946012  0.502045  1
  Ga  Ga7  1  0.443966  0.658833  0.497955  1
  Ga  Ga8  1  0.556034  0.341167  0.502045  1
  Ga  Ga9  1  0.658833  0.160878  0.214865  1
  Ga  Ga10  1  0.839122  0.053988  0.497955  1
  Ga  Ga11  1  0.053988  0.556034  0.214865  1
  Ga  Ga12  1  0.341167  0.839122  0.785135  1
  Ga  Ga13  1  0.946012  0.443966  0.785135  1
  S  S14  1  0.000000  0.000000  0.000000  1
  Br  Br15  1  0.500000  0.500000  0.000000  1
