# generated using pymatgen
data_SrLa4(PtO6)2
_symmetry_space_group_name_H-M   'P 1'
_cell_length_a   7.22422755
_cell_length_b   7.22422733
_cell_length_c   7.73321500
_cell_angle_alpha   74.63436521
_cell_angle_beta   74.63436570
_cell_angle_gamma   50.71335895
_symmetry_Int_Tables_number   1
_chemical_formula_structural   SrLa4(PtO6)2
_chemical_formula_sum   'Sr1 La4 Pt2 O12'
_cell_volume   298.64437448
_cell_formula_units_Z   1
loop_
 _symmetry_equiv_pos_site_id
 _symmetry_equiv_pos_as_xyz
  1  'x, y, z'
loop_
 _atom_site_type_symbol
 _atom_site_label
 _atom_site_symmetry_multiplicity
 _atom_site_fract_x
 _atom_site_fract_y
 _atom_site_fract_z
 _atom_site_occupancy
  Sr  Sr0  1  0.000000  0.000000  0.500000  1
  La  La1  1  0.302568  0.302568  0.361535  1
  La  La2  1  0.697432  0.697432  0.638465  1
  La  La3  1  0.695699  0.695699  0.168997  1
  La  La4  1  0.304301  0.304301  0.831003  1
  Pt  Pt5  1  0.753354  0.246646  0.000000  1
  Pt  Pt6  1  0.246646  0.753354  0.000000  1
  O  O7  1  0.095704  0.582644  0.583844  1
  O  O8  1  0.998838  0.998838  0.166453  1
  O  O9  1  0.417356  0.904296  0.416156  1
  O  O10  1  0.500052  0.500052  0.170673  1
  O  O11  1  0.103589  0.577569  0.076928  1
  O  O12  1  0.904296  0.417356  0.416156  1
  O  O13  1  0.001162  0.001162  0.833547  1
  O  O14  1  0.582644  0.095703  0.583844  1
  O  O15  1  0.499948  0.499948  0.829327  1
  O  O16  1  0.577569  0.103589  0.076928  1
  O  O17  1  0.422431  0.896411  0.923072  1
  O  O18  1  0.896411  0.422431  0.923072  1
