# generated using pymatgen
data_CaEu3(CdIn)4
_symmetry_space_group_name_H-M   'P 1'
_cell_length_a   7.62198420
_cell_length_b   5.11588700
_cell_length_c   8.82978700
_cell_angle_alpha   89.99997760
_cell_angle_beta   89.95648308
_cell_angle_gamma   89.99998878
_symmetry_Int_Tables_number   1
_chemical_formula_structural   CaEu3(CdIn)4
_chemical_formula_sum   'Ca1 Eu3 Cd4 In4'
_cell_volume   344.30163833
_cell_formula_units_Z   1
loop_
 _symmetry_equiv_pos_site_id
 _symmetry_equiv_pos_as_xyz
  1  'x, y, z'
loop_
 _atom_site_type_symbol
 _atom_site_label
 _atom_site_symmetry_multiplicity
 _atom_site_fract_x
 _atom_site_fract_y
 _atom_site_fract_z
 _atom_site_occupancy
  Ca  Ca0  1  0.999695  0.500004  0.775605  1
  Eu  Eu1  1  0.000778  0.999998  0.224871  1
  Eu  Eu2  1  0.500634  0.000001  0.273368  1
  Eu  Eu3  1  0.498902  0.500000  0.726576  1
  Cd  Cd4  1  0.714128  0.499999  0.083709  1
  Cd  Cd5  1  0.214211  0.499999  0.415724  1
  Cd  Cd6  1  0.782229  0.000000  0.583938  1
  Cd  Cd7  1  0.286860  0.000000  0.916299  1
  In  In8  1  0.288106  0.499999  0.084200  1
  In  In9  1  0.786559  0.499999  0.415761  1
  In  In10  1  0.217330  0.000001  0.584174  1
  In  In11  1  0.710572  0.999999  0.915960  1
