# generated using pymatgen
data_Bi14SeO24
_symmetry_space_group_name_H-M   'P 1'
_cell_length_a   8.86830278
_cell_length_b   8.88072548
_cell_length_c   10.62638620
_cell_angle_alpha   114.28874072
_cell_angle_beta   114.43660702
_cell_angle_gamma   90.25100682
_symmetry_Int_Tables_number   1
_chemical_formula_structural   Bi14SeO24
_chemical_formula_sum   'Bi14 Se1 O24'
_cell_volume   678.95232366
_cell_formula_units_Z   1
loop_
 _symmetry_equiv_pos_site_id
 _symmetry_equiv_pos_as_xyz
  1  'x, y, z'
loop_
 _atom_site_type_symbol
 _atom_site_label
 _atom_site_symmetry_multiplicity
 _atom_site_fract_x
 _atom_site_fract_y
 _atom_site_fract_z
 _atom_site_occupancy
  Bi  Bi0  1  0.057972  0.872375  0.341180  1
  Bi  Bi1  1  0.531869  0.948849  0.667620  1
  Bi  Bi2  1  0.661082  0.660914  0.321258  1
  Bi  Bi3  1  0.131897  0.728211  0.669765  1
  Bi  Bi4  1  0.559393  0.787488  0.003487  1
  Bi  Bi5  1  0.281064  0.476737  0.346819  1
  Bi  Bi6  1  0.720360  0.534765  0.666882  1
  Bi  Bi7  1  0.216496  0.560455  0.004725  1
  Bi  Bi8  1  0.868682  0.284938  0.341664  1
  Bi  Bi9  1  0.340545  0.347414  0.683174  1
  Bi  Bi10  1  0.784087  0.443759  0.002117  1
  Bi  Bi11  1  0.470776  0.063717  0.344260  1
  Bi  Bi12  1  0.941898  0.136306  0.668258  1
  Bi  Bi13  1  0.439600  0.217484  0.001918  1
  Se  Se14  1  0.009418  0.022947  0.026564  1
  O  O15  1  0.900141  0.830560  0.963909  1
  O  O16  1  0.670996  0.001052  0.503481  1
  O  O17  1  0.457201  0.764727  0.160787  1
  O  O18  1  0.760010  0.704874  0.162155  1
  O  O19  1  0.993575  0.828196  0.499082  1
  O  O20  1  0.380149  0.890778  0.769861  1
  O  O21  1  0.117520  0.622110  0.240235  1
  O  O22  1  0.501835  0.676218  0.503797  1
  O  O23  1  0.395307  0.460823  0.161222  1
  O  O24  1  0.698149  0.403707  0.161511  1
  O  O25  1  0.179846  0.508692  0.515418  1
  O  O26  1  0.821795  0.503534  0.495963  1
  O  O27  1  0.300831  0.608338  0.846922  1
  O  O28  1  0.598616  0.545129  0.842769  1
  O  O29  1  0.873210  0.144175  0.978982  1
  O  O30  1  0.499256  0.333228  0.511870  1
  O  O31  1  0.881577  0.385282  0.769294  1
  O  O32  1  0.618866  0.123138  0.238675  1
  O  O33  1  0.121732  0.110303  0.221384  1
  O  O34  1  0.001145  0.179862  0.509285  1
  O  O35  1  0.237671  0.305800  0.846834  1
  O  O36  1  0.539369  0.244189  0.843111  1
  O  O37  1  0.330719  0.007295  0.508060  1
  O  O38  1  0.143044  0.010332  0.949100  1
