# generated using pymatgen
data_Nd2Co3Si4(PRu3)3
_symmetry_space_group_name_H-M   'P 1'
_cell_length_a   9.45583000
_cell_length_b   9.45583087
_cell_length_c   3.87209700
_cell_angle_alpha   90.00000000
_cell_angle_beta   90.00000000
_cell_angle_gamma   119.99999695
_symmetry_Int_Tables_number   1
_chemical_formula_structural   Nd2Co3Si4(PRu3)3
_chemical_formula_sum   'Nd2 Co3 Si4 P3 Ru9'
_cell_volume   299.83078706
_cell_formula_units_Z   1
loop_
 _symmetry_equiv_pos_site_id
 _symmetry_equiv_pos_as_xyz
  1  'x, y, z'
loop_
 _atom_site_type_symbol
 _atom_site_label
 _atom_site_symmetry_multiplicity
 _atom_site_fract_x
 _atom_site_fract_y
 _atom_site_fract_z
 _atom_site_occupancy
  Nd  Nd0  1  0.000000  0.000000  0.000000  1
  Nd  Nd1  1  0.333333  0.666667  0.500000  1
  Co  Co2  1  0.823931  0.605056  0.000000  1
  Co  Co3  1  0.394944  0.218875  0.000000  1
  Co  Co4  1  0.781125  0.176069  0.000000  1
  Si  Si5  1  0.775194  0.723751  0.500000  1
  Si  Si6  1  0.276249  0.051443  0.500000  1
  Si  Si7  1  0.948557  0.224806  0.500000  1
  Si  Si8  1  0.666667  0.333333  0.000000  1
  P  P9  1  0.073101  0.636640  0.000000  1
  P  P10  1  0.363360  0.436461  0.000000  1
  P  P11  1  0.563539  0.926899  0.000000  1
  Ru  Ru12  1  0.089425  0.396295  0.000000  1
  Ru  Ru13  1  0.603705  0.693129  0.000000  1
  Ru  Ru14  1  0.306871  0.910575  0.000000  1
  Ru  Ru15  1  0.052014  0.765298  0.500000  1
  Ru  Ru16  1  0.234702  0.286713  0.500000  1
  Ru  Ru17  1  0.713287  0.947986  0.500000  1
  Ru  Ru18  1  0.868016  0.425492  0.500000  1
  Ru  Ru19  1  0.574508  0.442524  0.500000  1
  Ru  Ru20  1  0.557476  0.131984  0.500000  1
