# generated using pymatgen
data_HoEr5(TmIn2)4
_symmetry_space_group_name_H-M   'P 1'
_cell_length_a   9.19149600
_cell_length_b   9.19460431
_cell_length_c   6.63566400
_cell_angle_alpha   90.00000000
_cell_angle_beta   90.00000000
_cell_angle_gamma   119.98881776
_symmetry_Int_Tables_number   1
_chemical_formula_structural   HoEr5(TmIn2)4
_chemical_formula_sum   'Ho1 Er5 Tm4 In8'
_cell_volume   485.71687330
_cell_formula_units_Z   1
loop_
 _symmetry_equiv_pos_site_id
 _symmetry_equiv_pos_as_xyz
  1  'x, y, z'
loop_
 _atom_site_type_symbol
 _atom_site_label
 _atom_site_symmetry_multiplicity
 _atom_site_fract_x
 _atom_site_fract_y
 _atom_site_fract_z
 _atom_site_occupancy
  Ho  Ho0  1  0.289146  0.000000  0.750000  1
  Er  Er1  1  0.710789  0.000000  0.250000  1
  Er  Er2  1  0.000035  0.289177  0.750000  1
  Er  Er3  1  0.000030  0.710849  0.250000  1
  Er  Er4  1  0.710858  0.710823  0.750000  1
  Er  Er5  1  0.289181  0.289151  0.250000  1
  Tm  Tm6  1  0.333307  0.666551  0.499947  1
  Tm  Tm7  1  0.666757  0.333449  0.499947  1
  Tm  Tm8  1  0.666757  0.333449  0.000053  1
  Tm  Tm9  1  0.333307  0.666551  0.000053  1
  In  In10  1  0.999884  0.000000  0.499884  1
  In  In11  1  0.999884  0.000000  0.000116  1
  In  In12  1  0.628192  0.000000  0.750000  1
  In  In13  1  0.372004  0.000000  0.250000  1
  In  In14  1  0.999816  0.627703  0.750000  1
  In  In15  1  0.000016  0.372093  0.250000  1
  In  In16  1  0.372113  0.372297  0.750000  1
  In  In17  1  0.627923  0.627907  0.250000  1
