# generated using pymatgen
data_Tb6EuNiI12
_symmetry_space_group_name_H-M   'P 1'
_cell_length_a   9.79076304
_cell_length_b   9.79076246
_cell_length_c   9.79076349
_cell_angle_alpha   106.53310605
_cell_angle_beta   106.53310466
_cell_angle_gamma   106.53311176
_symmetry_Int_Tables_number   1
_chemical_formula_structural   Tb6EuNiI12
_chemical_formula_sum   'Tb6 Eu1 Ni1 I12'
_cell_volume   791.36332925
_cell_formula_units_Z   1
loop_
 _symmetry_equiv_pos_site_id
 _symmetry_equiv_pos_as_xyz
  1  'x, y, z'
loop_
 _atom_site_type_symbol
 _atom_site_label
 _atom_site_symmetry_multiplicity
 _atom_site_fract_x
 _atom_site_fract_y
 _atom_site_fract_z
 _atom_site_occupancy
  Tb  Tb0  1  0.905785  0.976429  0.706880  1
  Tb  Tb1  1  0.706880  0.905785  0.976429  1
  Tb  Tb2  1  0.976429  0.706880  0.905785  1
  Tb  Tb3  1  0.094215  0.023571  0.293120  1
  Tb  Tb4  1  0.293120  0.094215  0.023571  1
  Tb  Tb5  1  0.023571  0.293120  0.094215  1
  Eu  Eu6  1  0.500000  0.500000  0.500000  1
  Ni  Ni7  1  0.000000  0.000000  0.000000  1
  I  I8  1  0.926114  0.321242  0.776678  1
  I  I9  1  0.776678  0.926114  0.321242  1
  I  I10  1  0.321242  0.776678  0.926114  1
  I  I11  1  0.073886  0.678758  0.223322  1
  I  I12  1  0.223322  0.073886  0.678758  1
  I  I13  1  0.678758  0.223322  0.073886  1
  I  I14  1  0.546515  0.858830  0.625562  1
  I  I15  1  0.625562  0.546515  0.858830  1
  I  I16  1  0.858830  0.625562  0.546515  1
  I  I17  1  0.453485  0.141170  0.374438  1
  I  I18  1  0.374438  0.453485  0.141170  1
  I  I19  1  0.141170  0.374438  0.453485  1
