# generated using pymatgen
data_Dy2Tm4Al24Ru5Pt3
_symmetry_space_group_name_H-M   'P 1'
_cell_length_a   8.79072731
_cell_length_b   8.82059885
_cell_length_c   9.52130661
_cell_angle_alpha   89.82939981
_cell_angle_beta   90.15423854
_cell_angle_gamma   119.62876789
_symmetry_Int_Tables_number   1
_chemical_formula_structural   Dy2Tm4Al24Ru5Pt3
_chemical_formula_sum   'Dy2 Tm4 Al24 Ru5 Pt3'
_cell_volume   641.74158977
_cell_formula_units_Z   1
loop_
 _symmetry_equiv_pos_site_id
 _symmetry_equiv_pos_as_xyz
  1  'x, y, z'
loop_
 _atom_site_type_symbol
 _atom_site_label
 _atom_site_symmetry_multiplicity
 _atom_site_fract_x
 _atom_site_fract_y
 _atom_site_fract_z
 _atom_site_occupancy
  Dy  Dy0  1  0.805806  0.191243  0.749081  1
  Dy  Dy1  1  0.194194  0.808757  0.250919  1
  Tm  Tm2  1  0.389398  0.191420  0.750140  1
  Tm  Tm3  1  0.610602  0.808580  0.249860  1
  Tm  Tm4  1  0.806016  0.613336  0.750077  1
  Tm  Tm5  1  0.193984  0.386664  0.249923  1
  Al  Al6  1  0.664366  0.327631  0.970528  1
  Al  Al7  1  0.335634  0.672369  0.029472  1
  Al  Al8  1  0.338325  0.669491  0.471902  1
  Al  Al9  1  0.661675  0.330509  0.528098  1
  Al  Al10  1  0.832524  0.158300  0.421541  1
  Al  Al11  1  0.167476  0.841700  0.578459  1
  Al  Al12  1  0.327253  0.164903  0.423332  1
  Al  Al13  1  0.167339  0.842148  0.920717  1
  Al  Al14  1  0.672747  0.835097  0.576668  1
  Al  Al15  1  0.832661  0.157852  0.079283  1
  Al  Al16  1  0.831108  0.675144  0.424089  1
  Al  Al17  1  0.673904  0.841021  0.921900  1
  Al  Al18  1  0.168892  0.324856  0.575911  1
  Al  Al19  1  0.326096  0.158979  0.078100  1
  Al  Al20  1  0.162422  0.323397  0.921858  1
  Al  Al21  1  0.837578  0.676603  0.078142  1
  Al  Al22  1  0.438054  0.562714  0.746618  1
  Al  Al23  1  0.561946  0.437286  0.253382  1
  Al  Al24  1  0.127666  0.564343  0.750388  1
  Al  Al25  1  0.872334  0.435657  0.249612  1
  Al  Al26  1  0.439004  0.877017  0.750576  1
  Al  Al27  1  0.560996  0.122983  0.249424  1
  Al  Al28  1  0.999077  0.996138  0.749840  1
  Al  Al29  1  0.000923  0.003862  0.250160  1
  Ru  Ru30  1  0.500000  0.500000  0.500000  1
  Ru  Ru31  1  0.500000  0.000000  0.000000  1
  Ru  Ru32  1  0.500000  0.000000  0.500000  1
  Ru  Ru33  1  0.000000  0.000000  0.000000  1
  Ru  Ru34  1  0.000000  0.000000  0.500000  1
  Pt  Pt35  1  0.500000  0.500000  0.000000  1
  Pt  Pt36  1  0.000000  0.500000  0.000000  1
  Pt  Pt37  1  0.000000  0.500000  0.500000  1
