# generated using pymatgen
data_Sm6P12Ru5Rh13
_symmetry_space_group_name_H-M   'P 1'
_cell_length_a   3.96027200
_cell_length_b   11.30979852
_cell_length_c   12.74931321
_cell_angle_alpha   89.63384012
_cell_angle_beta   90.00000000
_cell_angle_gamma   90.00000000
_symmetry_Int_Tables_number   1
_chemical_formula_structural   Sm6P12Ru5Rh13
_chemical_formula_sum   'Sm6 P12 Ru5 Rh13'
_cell_volume   571.02852758
_cell_formula_units_Z   1
loop_
 _symmetry_equiv_pos_site_id
 _symmetry_equiv_pos_as_xyz
  1  'x, y, z'
loop_
 _atom_site_type_symbol
 _atom_site_label
 _atom_site_symmetry_multiplicity
 _atom_site_fract_x
 _atom_site_fract_y
 _atom_site_fract_z
 _atom_site_occupancy
  Sm  Sm0  1  0.000000  0.498462  0.519320  1
  Sm  Sm1  1  0.500000  0.001635  0.479458  1
  Sm  Sm2  1  0.500000  0.816779  0.204169  1
  Sm  Sm3  1  0.500000  0.181325  0.204199  1
  Sm  Sm4  1  0.000000  0.682068  0.796140  1
  Sm  Sm5  1  0.000000  0.318944  0.796701  1
  P  P6  1  0.500000  0.497906  0.884672  1
  P  P7  1  0.000000  0.998564  0.117365  1
  P  P8  1  0.500000  0.499271  0.343702  1
  P  P9  1  0.000000  0.000571  0.655975  1
  P  P10  1  0.500000  0.312662  0.619277  1
  P  P11  1  0.500000  0.686893  0.618817  1
  P  P12  1  0.000000  0.188071  0.381056  1
  P  P13  1  0.000000  0.813239  0.381651  1
  P  P14  1  0.500000  0.849887  0.891332  1
  P  P15  1  0.500000  0.156663  0.896312  1
  P  P16  1  0.000000  0.651099  0.108346  1
  P  P17  1  0.000000  0.343352  0.101747  1
  Ru  Ru18  1  0.500000  0.509565  0.159493  1
  Ru  Ru19  1  0.000000  0.992802  0.839471  1
  Ru  Ru20  1  0.000000  0.502065  0.990673  1
  Ru  Ru21  1  0.500000  0.998587  0.010084  1
  Ru  Ru22  1  0.500000  0.333048  0.995857  1
  Rh  Rh23  1  0.500000  0.500113  0.701081  1
  Rh  Rh24  1  0.000000  0.000258  0.299694  1
  Rh  Rh25  1  0.500000  0.670661  0.986387  1
  Rh  Rh26  1  0.000000  0.164007  0.005948  1
  Rh  Rh27  1  0.000000  0.830405  0.012568  1
  Rh  Rh28  1  0.500000  0.295755  0.429609  1
  Rh  Rh29  1  0.500000  0.706451  0.430270  1
  Rh  Rh30  1  0.000000  0.204907  0.569983  1
  Rh  Rh31  1  0.000000  0.793140  0.569813  1
  Rh  Rh32  1  0.500000  0.876226  0.709867  1
  Rh  Rh33  1  0.500000  0.124349  0.714599  1
  Rh  Rh34  1  0.000000  0.624334  0.290293  1
  Rh  Rh35  1  0.000000  0.375936  0.284073  1
