# generated using pymatgen
data_Tb4MnFeRu6
_symmetry_space_group_name_H-M   'P 1'
_cell_length_a   5.19832549
_cell_length_b   5.19832512
_cell_length_c   8.88558800
_cell_angle_alpha   90.00000000
_cell_angle_beta   90.00000000
_cell_angle_gamma   117.79705271
_symmetry_Int_Tables_number   1
_chemical_formula_structural   Tb4MnFeRu6
_chemical_formula_sum   'Tb4 Mn1 Fe1 Ru6'
_cell_volume   212.40388331
_cell_formula_units_Z   1
loop_
 _symmetry_equiv_pos_site_id
 _symmetry_equiv_pos_as_xyz
  1  'x, y, z'
loop_
 _atom_site_type_symbol
 _atom_site_label
 _atom_site_symmetry_multiplicity
 _atom_site_fract_x
 _atom_site_fract_y
 _atom_site_fract_z
 _atom_site_occupancy
  Tb  Tb0  1  0.330354  0.669646  0.435142  1
  Tb  Tb1  1  0.669273  0.330727  0.566847  1
  Tb  Tb2  1  0.669273  0.330727  0.933153  1
  Tb  Tb3  1  0.330354  0.669646  0.064858  1
  Mn  Mn4  1  0.840774  0.159226  0.250000  1
  Fe  Fe5  1  0.159290  0.840710  0.750000  1
  Ru  Ru6  1  0.000686  0.999314  0.499570  1
  Ru  Ru7  1  0.000686  0.999314  0.000430  1
  Ru  Ru8  1  0.822361  0.650023  0.250000  1
  Ru  Ru9  1  0.349977  0.177639  0.250000  1
  Ru  Ru10  1  0.175898  0.348926  0.750000  1
  Ru  Ru11  1  0.651074  0.824102  0.750000  1
