# generated using pymatgen
data_Pa5Bi3Os
_symmetry_space_group_name_H-M   'P 1'
_cell_length_a   6.17213900
_cell_length_b   9.44100537
_cell_length_c   9.44231606
_cell_angle_alpha   119.99540654
_cell_angle_beta   90.00031555
_cell_angle_gamma   89.99937845
_symmetry_Int_Tables_number   1
_chemical_formula_structural   Pa5Bi3Os
_chemical_formula_sum   'Pa10 Bi6 Os2'
_cell_volume   476.52227624
_cell_formula_units_Z   2
loop_
 _symmetry_equiv_pos_site_id
 _symmetry_equiv_pos_as_xyz
  1  'x, y, z'
loop_
 _atom_site_type_symbol
 _atom_site_label
 _atom_site_symmetry_multiplicity
 _atom_site_fract_x
 _atom_site_fract_y
 _atom_site_fract_z
 _atom_site_occupancy
  Pa  Pa0  1  0.499888  0.333310  0.666689  1
  Pa  Pa1  1  0.499888  0.666621  0.333311  1
  Pa  Pa2  1  0.000116  0.666626  0.333313  1
  Pa  Pa3  1  0.000116  0.333314  0.666687  1
  Pa  Pa4  1  0.749944  0.248886  0.000000  1
  Pa  Pa5  1  0.749963  0.750984  0.751005  1
  Pa  Pa6  1  0.749963  0.999979  0.248995  1
  Pa  Pa7  1  0.250027  0.751060  0.000000  1
  Pa  Pa8  1  0.250036  0.249076  0.248999  1
  Pa  Pa9  1  0.250036  0.000076  0.751001  1
  Bi  Bi10  1  0.749956  0.608199  0.000000  1
  Bi  Bi11  1  0.749973  0.391686  0.391686  1
  Bi  Bi12  1  0.749973  0.000001  0.608314  1
  Bi  Bi13  1  0.250035  0.391733  0.000000  1
  Bi  Bi14  1  0.250047  0.608285  0.608254  1
  Bi  Bi15  1  0.250047  0.000030  0.391746  1
  Os  Os16  1  0.500085  0.000065  0.000000  1
  Os  Os17  1  0.999907  0.000069  0.000000  1
