# generated using pymatgen
data_YbLu4HfH18
_symmetry_space_group_name_H-M   'P 1'
_cell_length_a   6.10550355
_cell_length_b   6.11323470
_cell_length_c   6.37221402
_cell_angle_alpha   89.89545081
_cell_angle_beta   90.03271551
_cell_angle_gamma   119.92279012
_symmetry_Int_Tables_number   1
_chemical_formula_structural   YbLu4HfH18
_chemical_formula_sum   'Yb1 Lu4 Hf1 H18'
_cell_volume   206.13424645
_cell_formula_units_Z   1
loop_
 _symmetry_equiv_pos_site_id
 _symmetry_equiv_pos_as_xyz
  1  'x, y, z'
loop_
 _atom_site_type_symbol
 _atom_site_label
 _atom_site_symmetry_multiplicity
 _atom_site_fract_x
 _atom_site_fract_y
 _atom_site_fract_z
 _atom_site_occupancy
  Yb  Yb0  1  0.335127  0.337883  0.750170  1
  Lu  Lu1  1  0.995031  0.656672  0.749701  1
  Lu  Lu2  1  0.661756  0.662175  0.253077  1
  Lu  Lu3  1  0.002625  0.335250  0.245706  1
  Lu  Lu4  1  0.336542  0.002717  0.251252  1
  Hf  Hf5  1  0.657024  0.998180  0.750234  1
  H  H6  1  0.341618  0.954542  0.906416  1
  H  H7  1  0.646104  0.703182  0.907144  1
  H  H8  1  0.016788  0.355582  0.910229  1
  H  H9  1  0.314827  0.342011  0.403558  1
  H  H10  1  0.033510  0.682241  0.410741  1
  H  H11  1  0.657997  0.971980  0.419914  1
  H  H12  1  0.683845  0.029985  0.080609  1
  H  H13  1  0.347587  0.318340  0.096301  1
  H  H14  1  0.972005  0.660813  0.088867  1
  H  H15  1  0.685766  0.655412  0.589462  1
  H  H16  1  0.936379  0.307630  0.593418  1
  H  H17  1  0.381160  0.028501  0.592336  1
  H  H18  1  0.976923  0.992220  0.750887  1
  H  H19  1  0.999034  0.998395  0.250689  1
  H  H20  1  0.669199  0.314950  0.821274  1
  H  H21  1  0.669006  0.334409  0.308067  1
  H  H22  1  0.333674  0.667765  0.191420  1
  H  H23  1  0.346472  0.689165  0.678526  1
