# generated using pymatgen
data_Dy4Ho4Lu4Co5Sn
_symmetry_space_group_name_H-M   'P 1'
_cell_length_a   8.20881649
_cell_length_b   8.20881499
_cell_length_c   8.20881532
_cell_angle_alpha   106.81734942
_cell_angle_beta   110.70965078
_cell_angle_gamma   110.91888986
_symmetry_Int_Tables_number   1
_chemical_formula_structural   Dy4Ho4Lu4Co5Sn
_chemical_formula_sum   'Dy4 Ho4 Lu4 Co5 Sn1'
_cell_volume   425.13100859
_cell_formula_units_Z   1
loop_
 _symmetry_equiv_pos_site_id
 _symmetry_equiv_pos_as_xyz
  1  'x, y, z'
loop_
 _atom_site_type_symbol
 _atom_site_label
 _atom_site_symmetry_multiplicity
 _atom_site_fract_x
 _atom_site_fract_y
 _atom_site_fract_z
 _atom_site_occupancy
  Dy  Dy0  1  0.193407  0.210781  0.404188  1
  Dy  Dy1  1  0.806593  0.789219  0.595812  1
  Dy  Dy2  1  0.193407  0.789219  0.982625  1
  Dy  Dy3  1  0.806593  0.210781  0.017375  1
  Ho  Ho4  1  0.476584  0.290792  0.185792  1
  Ho  Ho5  1  0.105000  0.290792  0.814208  1
  Ho  Ho6  1  0.895000  0.709208  0.185792  1
  Ho  Ho7  1  0.523416  0.709208  0.814208  1
  Lu  Lu8  1  0.308195  0.623369  0.315174  1
  Lu  Lu9  1  0.308195  0.993022  0.684826  1
  Lu  Lu10  1  0.691805  0.376631  0.684826  1
  Lu  Lu11  1  0.691805  0.006978  0.315174  1
  Co  Co12  1  0.500000  0.613087  0.113087  1
  Co  Co13  1  0.500000  0.386913  0.886913  1
  Co  Co14  1  0.377520  0.000000  0.377520  1
  Co  Co15  1  0.622480  0.000000  0.622480  1
  Co  Co16  1  0.000000  0.000000  0.000000  1
  Sn  Sn17  1  0.000000  0.500000  0.500000  1
