# generated using pymatgen
data_Nb12Ga9Fe2CoN4
_symmetry_space_group_name_H-M   'P 1'
_cell_length_a   8.21932286
_cell_length_b   8.23758774
_cell_length_c   8.23758734
_cell_angle_alpha   60.09165152
_cell_angle_beta   60.00168881
_cell_angle_gamma   60.00169022
_symmetry_Int_Tables_number   1
_chemical_formula_structural   Nb12Ga9Fe2CoN4
_chemical_formula_sum   'Nb12 Ga9 Fe2 Co1 N4'
_cell_volume   394.66821146
_cell_formula_units_Z   1
loop_
 _symmetry_equiv_pos_site_id
 _symmetry_equiv_pos_as_xyz
  1  'x, y, z'
loop_
 _atom_site_type_symbol
 _atom_site_label
 _atom_site_symmetry_multiplicity
 _atom_site_fract_x
 _atom_site_fract_y
 _atom_site_fract_z
 _atom_site_occupancy
  Nb  Nb0  1  0.813072  0.809176  0.186627  1
  Nb  Nb1  1  0.192784  0.196201  0.805843  1
  Nb  Nb2  1  0.813072  0.186627  0.809176  1
  Nb  Nb3  1  0.192784  0.805843  0.196201  1
  Nb  Nb4  1  0.188020  0.807411  0.807411  1
  Nb  Nb5  1  0.811750  0.190063  0.190063  1
  Nb  Nb6  1  0.436928  0.440824  0.063373  1
  Nb  Nb7  1  0.057216  0.053799  0.444157  1
  Nb  Nb8  1  0.436928  0.063373  0.440824  1
  Nb  Nb9  1  0.057216  0.444157  0.053799  1
  Nb  Nb10  1  0.061980  0.442589  0.442589  1
  Nb  Nb11  1  0.438250  0.059937  0.059937  1
  Ga  Ga12  1  0.125000  0.625000  0.625000  1
  Ga  Ga13  1  0.757600  0.415321  0.415321  1
  Ga  Ga14  1  0.429976  0.755609  0.409143  1
  Ga  Ga15  1  0.429976  0.409143  0.755609  1
  Ga  Ga16  1  0.429884  0.408297  0.408297  1
  Ga  Ga17  1  0.492400  0.834679  0.834679  1
  Ga  Ga18  1  0.820024  0.494391  0.840857  1
  Ga  Ga19  1  0.820024  0.840857  0.494391  1
  Ga  Ga20  1  0.820116  0.841703  0.841703  1
  Fe  Fe21  1  0.625000  0.125000  0.625000  1
  Fe  Fe22  1  0.625000  0.625000  0.125000  1
  Co  Co23  1  0.625000  0.625000  0.625000  1
  N  N24  1  0.625000  0.125000  0.125000  1
  N  N25  1  0.125000  0.625000  0.125000  1
  N  N26  1  0.125000  0.125000  0.625000  1
  N  N27  1  0.125000  0.125000  0.125000  1
