# generated using pymatgen
data_AcCeNi7Rh3
_symmetry_space_group_name_H-M   'P 1'
_cell_length_a   4.03736900
_cell_length_b   5.10682008
_cell_length_c   8.85729499
_cell_angle_alpha   93.13199847
_cell_angle_beta   90.00000000
_cell_angle_gamma   90.00000000
_symmetry_Int_Tables_number   1
_chemical_formula_structural   AcCeNi7Rh3
_chemical_formula_sum   'Ac1 Ce1 Ni7 Rh3'
_cell_volume   182.34796690
_cell_formula_units_Z   1
loop_
 _symmetry_equiv_pos_site_id
 _symmetry_equiv_pos_as_xyz
  1  'x, y, z'
loop_
 _atom_site_type_symbol
 _atom_site_label
 _atom_site_symmetry_multiplicity
 _atom_site_fract_x
 _atom_site_fract_y
 _atom_site_fract_z
 _atom_site_occupancy
  Ac  Ac0  1  0.000000  0.000000  0.500000  1
  Ce  Ce1  1  0.000000  0.500000  0.000000  1
  Ni  Ni2  1  0.000000  0.479818  0.314751  1
  Ni  Ni3  1  0.000000  0.983944  0.849513  1
  Ni  Ni4  1  0.000000  0.016056  0.150487  1
  Ni  Ni5  1  0.000000  0.520182  0.685249  1
  Ni  Ni6  1  0.500000  0.000000  0.000000  1
  Ni  Ni7  1  0.500000  0.244259  0.241219  1
  Ni  Ni8  1  0.500000  0.755741  0.758781  1
  Rh  Rh9  1  0.500000  0.500000  0.500000  1
  Rh  Rh10  1  0.500000  0.743363  0.234864  1
  Rh  Rh11  1  0.500000  0.256637  0.765136  1
