# generated using pymatgen
data_YEr3(Sc4Bi3)4
_symmetry_space_group_name_H-M   'P 1'
_cell_length_a   7.87987810
_cell_length_b   9.05870100
_cell_length_c   11.54085014
_cell_angle_alpha   90.00000000
_cell_angle_beta   89.98204412
_cell_angle_gamma   90.00000000
_symmetry_Int_Tables_number   1
_chemical_formula_structural   YEr3(Sc4Bi3)4
_chemical_formula_sum   'Y1 Er3 Sc16 Bi12'
_cell_volume   823.80268762
_cell_formula_units_Z   1
loop_
 _symmetry_equiv_pos_site_id
 _symmetry_equiv_pos_as_xyz
  1  'x, y, z'
loop_
 _atom_site_type_symbol
 _atom_site_label
 _atom_site_symmetry_multiplicity
 _atom_site_fract_x
 _atom_site_fract_y
 _atom_site_fract_z
 _atom_site_occupancy
  Y  Y0  1  0.315404  0.250000  0.218436  1
  Er  Er1  1  0.815270  0.250000  0.281835  1
  Er  Er2  1  0.684810  0.750000  0.781815  1
  Er  Er3  1  0.184815  0.750000  0.718253  1
  Sc  Sc4  1  0.349152  0.750000  0.220005  1
  Sc  Sc5  1  0.849098  0.750000  0.280029  1
  Sc  Sc6  1  0.650896  0.250000  0.779975  1
  Sc  Sc7  1  0.150820  0.250000  0.720018  1
  Sc  Sc8  1  0.692721  0.567734  0.061516  1
  Sc  Sc9  1  0.192778  0.932223  0.438539  1
  Sc  Sc10  1  0.307240  0.067699  0.938314  1
  Sc  Sc11  1  0.807193  0.432262  0.561514  1
  Sc  Sc12  1  0.307240  0.432301  0.938314  1
  Sc  Sc13  1  0.807193  0.067738  0.561514  1
  Sc  Sc14  1  0.692721  0.932266  0.061516  1
  Sc  Sc15  1  0.192778  0.567777  0.438539  1
  Sc  Sc16  1  0.482139  0.250000  0.489360  1
  Sc  Sc17  1  0.981658  0.250000  0.010705  1
  Sc  Sc18  1  0.518115  0.750000  0.510918  1
  Sc  Sc19  1  0.018019  0.750000  0.989047  1
  Bi  Bi20  1  0.401452  0.750000  0.965502  1
  Bi  Bi21  1  0.901503  0.750000  0.534504  1
  Bi  Bi22  1  0.599054  0.250000  0.034019  1
  Bi  Bi23  1  0.098282  0.250000  0.465746  1
  Bi  Bi24  1  0.564015  0.990505  0.327866  1
  Bi  Bi25  1  0.063114  0.509635  0.172184  1
  Bi  Bi26  1  0.436333  0.490847  0.672321  1
  Bi  Bi27  1  0.936364  0.009155  0.827663  1
  Bi  Bi28  1  0.436333  0.009153  0.672321  1
  Bi  Bi29  1  0.936364  0.490845  0.827663  1
  Bi  Bi30  1  0.564015  0.509495  0.327866  1
  Bi  Bi31  1  0.063114  0.990365  0.172184  1
