# generated using pymatgen
data_Ho9ErIrRh5
_symmetry_space_group_name_H-M   'P 1'
_cell_length_a   10.84506110
_cell_length_b   10.84653400
_cell_length_c   6.33337401
_cell_angle_alpha   90.00000000
_cell_angle_beta   90.00435205
_cell_angle_gamma   90.00000000
_symmetry_Int_Tables_number   1
_chemical_formula_structural   Ho9ErIrRh5
_chemical_formula_sum   'Ho18 Er2 Ir2 Rh10'
_cell_volume   745.00316836
_cell_formula_units_Z   2
loop_
 _symmetry_equiv_pos_site_id
 _symmetry_equiv_pos_as_xyz
  1  'x, y, z'
loop_
 _atom_site_type_symbol
 _atom_site_label
 _atom_site_symmetry_multiplicity
 _atom_site_fract_x
 _atom_site_fract_y
 _atom_site_fract_z
 _atom_site_occupancy
  Ho  Ho0  1  0.290995  0.089659  0.377944  1
  Ho  Ho1  1  0.290995  0.910341  0.877944  1
  Ho  Ho2  1  0.709030  0.088251  0.877696  1
  Ho  Ho3  1  0.709030  0.911749  0.377696  1
  Ho  Ho4  1  0.586889  0.790111  0.877872  1
  Ho  Ho5  1  0.586889  0.209889  0.377872  1
  Ho  Ho6  1  0.411178  0.790328  0.378629  1
  Ho  Ho7  1  0.411178  0.209672  0.878629  1
  Ho  Ho8  1  0.210417  0.412759  0.621490  1
  Ho  Ho9  1  0.210417  0.587241  0.121490  1
  Ho  Ho10  1  0.790898  0.411502  0.121938  1
  Ho  Ho11  1  0.790898  0.588498  0.621938  1
  Ho  Ho12  1  0.911861  0.709202  0.122088  1
  Ho  Ho13  1  0.911861  0.290798  0.622088  1
  Ho  Ho14  1  0.089870  0.708814  0.622314  1
  Ho  Ho15  1  0.089870  0.291186  0.122314  1
  Ho  Ho16  1  0.999890  0.999739  0.500022  1
  Ho  Ho17  1  0.999890  0.000261  0.000022  1
  Er  Er18  1  0.499608  0.499764  0.999987  1
  Er  Er19  1  0.499608  0.500236  0.499987  1
  Ir  Ir20  1  0.346260  0.345567  0.249938  1
  Ir  Ir21  1  0.346260  0.654433  0.749938  1
  Rh  Rh22  1  0.845536  0.154077  0.250204  1
  Rh  Rh23  1  0.845536  0.845923  0.750204  1
  Rh  Rh24  1  0.153363  0.153702  0.749770  1
  Rh  Rh25  1  0.153363  0.846298  0.249770  1
  Rh  Rh26  1  0.654767  0.345890  0.750123  1
  Rh  Rh27  1  0.654767  0.654110  0.250123  1
  Rh  Rh28  1  0.500562  0.999783  0.123270  1
  Rh  Rh29  1  0.500562  0.000217  0.623270  1
  Rh  Rh30  1  0.998880  0.499900  0.876717  1
  Rh  Rh31  1  0.998880  0.500100  0.376717  1
