# generated using pymatgen
data_Y3Sn3IrPdRh
_symmetry_space_group_name_H-M   'P 1'
_cell_length_a   7.61104400
_cell_length_b   7.61104361
_cell_length_c   3.88841700
_cell_angle_alpha   90.00000000
_cell_angle_beta   90.00000000
_cell_angle_gamma   120.00000171
_symmetry_Int_Tables_number   1
_chemical_formula_structural   Y3Sn3IrPdRh
_chemical_formula_sum   'Y3 Sn3 Ir1 Pd1 Rh1'
_cell_volume   195.07063616
_cell_formula_units_Z   1
loop_
 _symmetry_equiv_pos_site_id
 _symmetry_equiv_pos_as_xyz
  1  'x, y, z'
loop_
 _atom_site_type_symbol
 _atom_site_label
 _atom_site_symmetry_multiplicity
 _atom_site_fract_x
 _atom_site_fract_y
 _atom_site_fract_z
 _atom_site_occupancy
  Y  Y0  1  0.411395  0.012132  0.500000  1
  Y  Y1  1  0.987868  0.399263  0.500000  1
  Y  Y2  1  0.600737  0.588605  0.500000  1
  Sn  Sn3  1  0.739912  0.998501  0.000000  1
  Sn  Sn4  1  0.001499  0.741411  0.000000  1
  Sn  Sn5  1  0.258589  0.260088  0.000000  1
  Ir  Ir6  1  0.666667  0.333333  0.000000  1
  Pd  Pd7  1  0.333333  0.666667  0.000000  1
  Rh  Rh8  1  0.000000  0.000000  0.500000  1
