# generated using pymatgen
data_U2Cr6Co6P7
_symmetry_space_group_name_H-M   'P 1'
_cell_length_a   9.16816904
_cell_length_b   9.17031734
_cell_length_c   3.60590300
_cell_angle_alpha   90.00000000
_cell_angle_beta   90.00000000
_cell_angle_gamma   119.88297620
_symmetry_Int_Tables_number   1
_chemical_formula_structural   U2Cr6Co6P7
_chemical_formula_sum   'U2 Cr6 Co6 P7'
_cell_volume   262.85882690
_cell_formula_units_Z   1
loop_
 _symmetry_equiv_pos_site_id
 _symmetry_equiv_pos_as_xyz
  1  'x, y, z'
loop_
 _atom_site_type_symbol
 _atom_site_label
 _atom_site_symmetry_multiplicity
 _atom_site_fract_x
 _atom_site_fract_y
 _atom_site_fract_z
 _atom_site_occupancy
  U  U0  1  0.998162  0.998176  0.000000  1
  U  U1  1  0.333420  0.667674  0.500000  1
  Cr  Cr2  1  0.052158  0.770047  0.500000  1
  Cr  Cr3  1  0.230645  0.283168  0.500000  1
  Cr  Cr4  1  0.717163  0.947238  0.500000  1
  Cr  Cr5  1  0.885549  0.431156  0.500000  1
  Cr  Cr6  1  0.565774  0.451888  0.500000  1
  Cr  Cr7  1  0.551998  0.120589  0.500000  1
  Co  Co8  1  0.099771  0.396227  0.000000  1
  Co  Co9  1  0.600583  0.702058  0.000000  1
  Co  Co10  1  0.299959  0.897909  0.000000  1
  Co  Co11  1  0.821148  0.607984  0.000000  1
  Co  Co12  1  0.392122  0.213454  0.000000  1
  Co  Co13  1  0.785814  0.180643  0.000000  1
  P  P14  1  0.779658  0.734757  0.500000  1
  P  P15  1  0.263046  0.043660  0.500000  1
  P  P16  1  0.955049  0.217328  0.500000  1
  P  P17  1  0.666586  0.336256  0.000000  1
  P  P18  1  0.072971  0.625636  0.000000  1
  P  P19  1  0.373331  0.447363  0.000000  1
  P  P20  1  0.555095  0.926787  0.000000  1
