# generated using pymatgen
data_Zr6Si(Ni5As3)4
_symmetry_space_group_name_H-M   'P 1'
_cell_length_a   12.95586600
_cell_length_b   12.95586679
_cell_length_c   3.75431900
_cell_angle_alpha   90.00000000
_cell_angle_beta   90.00000000
_cell_angle_gamma   119.99999797
_symmetry_Int_Tables_number   1
_chemical_formula_structural   Zr6Si(Ni5As3)4
_chemical_formula_sum   'Zr6 Si1 Ni20 As12'
_cell_volume   545.75124304
_cell_formula_units_Z   1
loop_
 _symmetry_equiv_pos_site_id
 _symmetry_equiv_pos_as_xyz
  1  'x, y, z'
loop_
 _atom_site_type_symbol
 _atom_site_label
 _atom_site_symmetry_multiplicity
 _atom_site_fract_x
 _atom_site_fract_y
 _atom_site_fract_z
 _atom_site_occupancy
  Zr  Zr0  1  0.805598  0.280282  0.500000  1
  Zr  Zr1  1  0.719718  0.525316  0.500000  1
  Zr  Zr2  1  0.474684  0.194402  0.500000  1
  Zr  Zr3  1  0.192778  0.718107  0.000000  1
  Zr  Zr4  1  0.281893  0.474671  0.000000  1
  Zr  Zr5  1  0.525329  0.807222  0.000000  1
  Si  Si6  1  0.000000  0.000000  0.000000  1
  Ni  Ni7  1  0.415024  0.980574  0.000000  1
  Ni  Ni8  1  0.019426  0.434451  0.000000  1
  Ni  Ni9  1  0.584073  0.019759  0.500000  1
  Ni  Ni10  1  0.565549  0.584976  0.000000  1
  Ni  Ni11  1  0.980241  0.564315  0.500000  1
  Ni  Ni12  1  0.933082  0.073355  0.500000  1
  Ni  Ni13  1  0.140273  0.066918  0.500000  1
  Ni  Ni14  1  0.926645  0.859727  0.500000  1
  Ni  Ni15  1  0.092746  0.894233  0.000000  1
  Ni  Ni16  1  0.801487  0.907254  0.000000  1
  Ni  Ni17  1  0.105767  0.198513  0.000000  1
  Ni  Ni18  1  0.333333  0.666667  0.500000  1
  Ni  Ni19  1  0.666667  0.333333  0.000000  1
  Ni  Ni20  1  0.680685  0.749955  0.500000  1
  Ni  Ni21  1  0.250045  0.930729  0.500000  1
  Ni  Ni22  1  0.924514  0.674963  0.000000  1
  Ni  Ni23  1  0.325037  0.249551  0.000000  1
  Ni  Ni24  1  0.750449  0.075486  0.000000  1
  Ni  Ni25  1  0.435685  0.415927  0.500000  1
  Ni  Ni26  1  0.069271  0.319315  0.500000  1
  As  As27  1  0.231703  0.283899  0.500000  1
  As  As28  1  0.716101  0.947802  0.500000  1
  As  As29  1  0.052198  0.768297  0.500000  1
  As  As30  1  0.771709  0.714677  0.000000  1
  As  As31  1  0.285323  0.057033  0.000000  1
  As  As32  1  0.473943  0.614202  0.500000  1
  As  As33  1  0.385798  0.859740  0.500000  1
  As  As34  1  0.860482  0.471316  0.000000  1
  As  As35  1  0.528684  0.389167  0.000000  1
  As  As36  1  0.610833  0.139518  0.000000  1
  As  As37  1  0.942967  0.228291  0.000000  1
  As  As38  1  0.140260  0.526057  0.500000  1
