# generated using pymatgen
data_Er9Lu3Co4SnRu
_symmetry_space_group_name_H-M   'P 1'
_cell_length_a   8.18585934
_cell_length_b   8.18946119
_cell_length_c   8.18585872
_cell_angle_alpha   111.41476325
_cell_angle_beta   110.72310873
_cell_angle_gamma   106.30479646
_symmetry_Int_Tables_number   1
_chemical_formula_structural   Er9Lu3Co4SnRu
_chemical_formula_sum   'Er9 Lu3 Co4 Sn1 Ru1'
_cell_volume   421.55337647
_cell_formula_units_Z   1
loop_
 _symmetry_equiv_pos_site_id
 _symmetry_equiv_pos_as_xyz
  1  'x, y, z'
loop_
 _atom_site_type_symbol
 _atom_site_label
 _atom_site_symmetry_multiplicity
 _atom_site_fract_x
 _atom_site_fract_y
 _atom_site_fract_z
 _atom_site_occupancy
  Er  Er0  1  0.413631  0.218377  0.194420  1
  Er  Er1  1  0.586872  0.781343  0.806204  1
  Er  Er2  1  0.023957  0.218377  0.804748  1
  Er  Er3  1  0.975138  0.781343  0.194469  1
  Er  Er4  1  0.183794  0.282356  0.467253  1
  Er  Er5  1  0.816739  0.717118  0.533259  1
  Er  Er6  1  0.183859  0.717118  0.900379  1
  Er  Er7  1  0.815103  0.282356  0.098561  1
  Er  Er8  1  0.313453  0.620461  0.307008  1
  Lu  Lu9  1  0.686114  0.378195  0.692082  1
  Lu  Lu10  1  0.314019  0.006144  0.692124  1
  Lu  Lu11  1  0.686451  0.994781  0.308330  1
  Co  Co12  1  0.376767  0.001339  0.376895  1
  Co  Co13  1  0.624443  0.001339  0.624572  1
  Co  Co14  1  0.111710  0.612010  0.500301  1
  Co  Co15  1  0.887273  0.387028  0.499755  1
  Sn  Sn16  1  0.500378  0.499821  0.999443  1
  Ru  Ru17  1  0.000300  0.000496  0.000196  1
