# generated using pymatgen
data_Y4B4AsIr9
_symmetry_space_group_name_H-M   'P 1'
_cell_length_a   10.79836114
_cell_length_b   10.79836150
_cell_length_c   10.79836212
_cell_angle_alpha   29.66453049
_cell_angle_beta   29.66452535
_cell_angle_gamma   29.66452640
_symmetry_Int_Tables_number   1
_chemical_formula_structural   Y4B4AsIr9
_chemical_formula_sum   'Y4 B4 As1 Ir9'
_cell_volume   273.05930612
_cell_formula_units_Z   1
loop_
 _symmetry_equiv_pos_site_id
 _symmetry_equiv_pos_as_xyz
  1  'x, y, z'
loop_
 _atom_site_type_symbol
 _atom_site_label
 _atom_site_symmetry_multiplicity
 _atom_site_fract_x
 _atom_site_fract_y
 _atom_site_fract_z
 _atom_site_occupancy
  Y  Y0  1  0.149462  0.149462  0.149462  1
  Y  Y1  1  0.950166  0.950166  0.950166  1
  Y  Y2  1  0.850538  0.850538  0.850538  1
  Y  Y3  1  0.049834  0.049834  0.049834  1
  B  B4  1  0.615971  0.615971  0.615971  1
  B  B5  1  0.718170  0.718170  0.718170  1
  B  B6  1  0.384029  0.384029  0.384029  1
  B  B7  1  0.281830  0.281830  0.281830  1
  As  As8  1  0.500000  0.500000  0.500000  1
  Ir  Ir9  1  0.402253  0.901877  0.402253  1
  Ir  Ir10  1  0.901877  0.402253  0.402253  1
  Ir  Ir11  1  0.500000  0.500000  0.000000  1
  Ir  Ir12  1  0.500000  0.000000  0.500000  1
  Ir  Ir13  1  0.000000  0.500000  0.500000  1
  Ir  Ir14  1  0.597747  0.098123  0.597747  1
  Ir  Ir15  1  0.597747  0.597747  0.098123  1
  Ir  Ir16  1  0.098123  0.597747  0.597747  1
  Ir  Ir17  1  0.402253  0.402253  0.901877  1
