# generated using pymatgen
data_Pr6InSn5Rh6
_symmetry_space_group_name_H-M   'P 1'
_cell_length_a   7.62860200
_cell_length_b   7.62697255
_cell_length_c   8.21412532
_cell_angle_alpha   90.02954915
_cell_angle_beta   90.00000000
_cell_angle_gamma   120.00706752
_symmetry_Int_Tables_number   1
_chemical_formula_structural   Pr6InSn5Rh6
_chemical_formula_sum   'Pr6 In1 Sn5 Rh6'
_cell_volume   413.86441492
_cell_formula_units_Z   1
loop_
 _symmetry_equiv_pos_site_id
 _symmetry_equiv_pos_as_xyz
  1  'x, y, z'
loop_
 _atom_site_type_symbol
 _atom_site_label
 _atom_site_symmetry_multiplicity
 _atom_site_fract_x
 _atom_site_fract_y
 _atom_site_fract_z
 _atom_site_occupancy
  Pr  Pr0  1  0.587688  0.999876  0.749726  1
  Pr  Pr1  1  0.411917  0.413062  0.749768  1
  Pr  Pr2  1  0.998847  0.586943  0.749787  1
  Pr  Pr3  1  0.587812  0.000124  0.250274  1
  Pr  Pr4  1  0.411904  0.413057  0.250213  1
  Pr  Pr5  1  0.998855  0.586938  0.250232  1
  In  In6  1  0.250637  0.000000  0.000000  1
  Sn  Sn7  1  0.747418  0.747954  0.499960  1
  Sn  Sn8  1  0.999464  0.252046  0.500040  1
  Sn  Sn9  1  0.999503  0.248916  0.999927  1
  Sn  Sn10  1  0.750587  0.751084  0.000073  1
  Sn  Sn11  1  0.252120  0.000000  0.500000  1
  Rh  Rh12  1  0.672955  0.337166  0.999839  1
  Rh  Rh13  1  0.667007  0.334314  0.500158  1
  Rh  Rh14  1  0.335787  0.662834  0.000161  1
  Rh  Rh15  1  0.332692  0.665686  0.499842  1
  Rh  Rh16  1  0.997374  0.999940  0.747263  1
  Rh  Rh17  1  0.997434  0.000060  0.252737  1
