# generated using pymatgen
data_TbEr3Cd2CuNi3
_symmetry_space_group_name_H-M   'P 1'
_cell_length_a   7.39338454
_cell_length_b   7.39972487
_cell_length_c   3.63327700
_cell_angle_alpha   90.00000000
_cell_angle_beta   90.00000000
_cell_angle_gamma   89.74178793
_symmetry_Int_Tables_number   1
_chemical_formula_structural   TbEr3Cd2CuNi3
_chemical_formula_sum   'Tb1 Er3 Cd2 Cu1 Ni3'
_cell_volume   198.77097451
_cell_formula_units_Z   1
loop_
 _symmetry_equiv_pos_site_id
 _symmetry_equiv_pos_as_xyz
  1  'x, y, z'
loop_
 _atom_site_type_symbol
 _atom_site_label
 _atom_site_symmetry_multiplicity
 _atom_site_fract_x
 _atom_site_fract_y
 _atom_site_fract_z
 _atom_site_occupancy
  Tb  Tb0  1  0.814627  0.671776  0.500000  1
  Er  Er1  1  0.674790  0.175242  0.500000  1
  Er  Er2  1  0.336119  0.837084  0.500000  1
  Er  Er3  1  0.171684  0.314425  0.500000  1
  Cd  Cd4  1  0.999728  0.997916  0.000000  1
  Cd  Cd5  1  0.494458  0.497541  0.000000  1
  Cu  Cu6  1  0.122839  0.619326  0.000000  1
  Ni  Ni7  1  0.881967  0.379298  0.000000  1
  Ni  Ni8  1  0.621376  0.883996  0.000000  1
  Ni  Ni9  1  0.382412  0.123397  0.000000  1
