# generated using pymatgen
data_Mg4Ga7SiIr4
_symmetry_space_group_name_H-M   'P 1'
_cell_length_a   5.15243677
_cell_length_b   7.40851517
_cell_length_c   7.19624600
_cell_angle_alpha   89.87423327
_cell_angle_beta   90.22512766
_cell_angle_gamma   90.67035736
_symmetry_Int_Tables_number   1
_chemical_formula_structural   Mg4Ga7SiIr4
_chemical_formula_sum   'Mg4 Ga7 Si1 Ir4'
_cell_volume   274.67287026
_cell_formula_units_Z   1
loop_
 _symmetry_equiv_pos_site_id
 _symmetry_equiv_pos_as_xyz
  1  'x, y, z'
loop_
 _atom_site_type_symbol
 _atom_site_label
 _atom_site_symmetry_multiplicity
 _atom_site_fract_x
 _atom_site_fract_y
 _atom_site_fract_z
 _atom_site_occupancy
  Mg  Mg0  1  0.407369  0.243428  0.023399  1
  Mg  Mg1  1  0.890055  0.752137  0.473924  1
  Mg  Mg2  1  0.105003  0.250165  0.521625  1
  Mg  Mg3  1  0.604547  0.754034  0.972701  1
  Ga  Ga4  1  0.883827  0.052798  0.178276  1
  Ga  Ga5  1  0.887637  0.450152  0.164202  1
  Ga  Ga6  1  0.378584  0.553238  0.328458  1
  Ga  Ga7  1  0.382390  0.951676  0.332974  1
  Ga  Ga8  1  0.608644  0.052057  0.668318  1
  Ga  Ga9  1  0.617618  0.452713  0.674198  1
  Ga  Ga10  1  0.114886  0.541331  0.830223  1
  Si  Si11  1  0.119729  0.944865  0.837985  1
  Ir  Ir12  1  0.104975  0.757788  0.115363  1
  Ir  Ir13  1  0.606139  0.256838  0.376945  1
  Ir  Ir14  1  0.379006  0.754048  0.629159  1
  Ir  Ir15  1  0.909590  0.232732  0.872253  1
