# generated using pymatgen
data_La10Si16Ge
_symmetry_space_group_name_H-M   'P 1'
_cell_length_a   11.60030786
_cell_length_b   11.57460601
_cell_length_c   11.60030755
_cell_angle_alpha   144.77053746
_cell_angle_beta   135.44341688
_cell_angle_gamma   58.07773929
_symmetry_Int_Tables_number   1
_chemical_formula_structural   La10Si16Ge
_chemical_formula_sum   'La10 Si16 Ge1'
_cell_volume   624.90077074
_cell_formula_units_Z   1
loop_
 _symmetry_equiv_pos_site_id
 _symmetry_equiv_pos_as_xyz
  1  'x, y, z'
loop_
 _atom_site_type_symbol
 _atom_site_label
 _atom_site_symmetry_multiplicity
 _atom_site_fract_x
 _atom_site_fract_y
 _atom_site_fract_z
 _atom_site_occupancy
  La  La0  1  0.753445  0.760964  0.514820  1
  La  La1  1  0.448296  0.964782  0.014127  1
  La  La2  1  0.847838  0.366961  0.015800  1
  La  La3  1  0.950655  0.964782  0.516487  1
  La  La4  1  0.151398  0.165669  0.517339  1
  La  La5  1  0.351161  0.366961  0.519122  1
  La  La6  1  0.246144  0.760964  0.007520  1
  La  La7  1  0.548533  0.561507  0.509206  1
  La  La8  1  0.052300  0.561507  0.012974  1
  La  La9  1  0.648329  0.165669  0.014270  1
  Si  Si10  1  0.198470  0.607643  0.409172  1
  Si  Si11  1  0.000143  0.088658  0.088515  1
  Si  Si12  1  0.699806  0.293012  0.593207  1
  Si  Si13  1  0.800928  0.208868  0.407940  1
  Si  Si14  1  0.897433  0.501830  0.604397  1
  Si  Si15  1  0.407003  0.847831  0.440829  1
  Si  Si16  1  0.102207  0.707511  0.605304  1
  Si  Si17  1  0.299985  0.895156  0.595171  1
  Si  Si18  1  0.591841  0.034562  0.442721  1
  Si  Si19  1  0.999898  0.430487  0.430589  1
  Si  Si20  1  0.890416  0.834946  0.944530  1
  Si  Si21  1  0.399849  0.500236  0.100388  1
  Si  Si22  1  0.109746  0.056248  0.946501  1
  Si  Si23  1  0.295425  0.235789  0.940364  1
  Si  Si24  1  0.499572  0.415770  0.916198  1
  Si  Si25  1  0.599105  0.702022  0.102918  1
  Ge  Ge26  1  0.710072  0.661162  0.951090  1
