# generated using pymatgen
data_La3Mg3CuSiGe
_symmetry_space_group_name_H-M   'P 1'
_cell_length_a   7.51364600
_cell_length_b   7.51364660
_cell_length_c   4.48173800
_cell_angle_alpha   90.00000000
_cell_angle_beta   90.00000000
_cell_angle_gamma   119.99999737
_symmetry_Int_Tables_number   1
_chemical_formula_structural   La3Mg3CuSiGe
_chemical_formula_sum   'La3 Mg3 Cu1 Si1 Ge1'
_cell_volume   219.11827560
_cell_formula_units_Z   1
loop_
 _symmetry_equiv_pos_site_id
 _symmetry_equiv_pos_as_xyz
  1  'x, y, z'
loop_
 _atom_site_type_symbol
 _atom_site_label
 _atom_site_symmetry_multiplicity
 _atom_site_fract_x
 _atom_site_fract_y
 _atom_site_fract_z
 _atom_site_occupancy
  La  La0  1  0.587904  0.001715  0.000000  1
  La  La1  1  0.998285  0.586190  0.000000  1
  La  La2  1  0.413810  0.412096  0.000000  1
  Mg  Mg3  1  0.240516  0.001153  0.500000  1
  Mg  Mg4  1  0.998847  0.239363  0.500000  1
  Mg  Mg5  1  0.760637  0.759484  0.500000  1
  Cu  Cu6  1  0.000000  0.000000  0.000000  1
  Si  Si7  1  0.666667  0.333333  0.500000  1
  Ge  Ge8  1  0.333333  0.666667  0.500000  1
