# generated using pymatgen
data_Sc10(SnSb)3
_symmetry_space_group_name_H-M   'P 1'
_cell_length_a   8.46938500
_cell_length_b   8.46475837
_cell_length_c   6.00436100
_cell_angle_alpha   90.00000000
_cell_angle_beta   90.00000000
_cell_angle_gamma   120.01807829
_symmetry_Int_Tables_number   1
_chemical_formula_structural   Sc10(SnSb)3
_chemical_formula_sum   'Sc10 Sn3 Sb3'
_cell_volume   372.72173969
_cell_formula_units_Z   1
loop_
 _symmetry_equiv_pos_site_id
 _symmetry_equiv_pos_as_xyz
  1  'x, y, z'
loop_
 _atom_site_type_symbol
 _atom_site_label
 _atom_site_symmetry_multiplicity
 _atom_site_fract_x
 _atom_site_fract_y
 _atom_site_fract_z
 _atom_site_occupancy
  Sc  Sc0  1  0.333387  0.666551  0.499788  1
  Sc  Sc1  1  0.666837  0.333449  0.000212  1
  Sc  Sc2  1  0.666837  0.333449  0.499788  1
  Sc  Sc3  1  0.333387  0.666551  0.000212  1
  Sc  Sc4  1  0.761972  0.000000  0.750000  1
  Sc  Sc5  1  0.760824  0.761590  0.250000  1
  Sc  Sc6  1  0.240153  0.000000  0.250000  1
  Sc  Sc7  1  0.239091  0.239970  0.750000  1
  Sc  Sc8  1  0.999121  0.760030  0.750000  1
  Sc  Sc9  1  0.999234  0.238410  0.250000  1
  Sn  Sn10  1  0.000372  0.392552  0.750000  1
  Sn  Sn11  1  0.607820  0.607448  0.750000  1
  Sn  Sn12  1  0.607619  0.000000  0.250000  1
  Sb  Sb13  1  0.391303  0.000000  0.750000  1
  Sb  Sb14  1  0.391632  0.391224  0.250000  1
  Sb  Sb15  1  0.000409  0.608776  0.250000  1
