# generated using pymatgen
data_TbLu2Co8P6W
_symmetry_space_group_name_H-M   'P 1'
_cell_length_a   3.70534300
_cell_length_b   10.51890400
_cell_length_c   12.19404400
_cell_angle_alpha   90.00000000
_cell_angle_beta   90.00000000
_cell_angle_gamma   90.00000000
_symmetry_Int_Tables_number   1
_chemical_formula_structural   TbLu2Co8P6W
_chemical_formula_sum   'Tb2 Lu4 Co16 P12 W2'
_cell_volume   475.27685518
_cell_formula_units_Z   2
loop_
 _symmetry_equiv_pos_site_id
 _symmetry_equiv_pos_as_xyz
  1  'x, y, z'
loop_
 _atom_site_type_symbol
 _atom_site_label
 _atom_site_symmetry_multiplicity
 _atom_site_fract_x
 _atom_site_fract_y
 _atom_site_fract_z
 _atom_site_occupancy
  Tb  Tb0  1  0.000000  0.500000  0.525390  1
  Tb  Tb1  1  0.500000  0.000000  0.474610  1
  Lu  Lu2  1  0.500000  0.820082  0.204488  1
  Lu  Lu3  1  0.500000  0.179918  0.204488  1
  Lu  Lu4  1  0.000000  0.679918  0.795512  1
  Lu  Lu5  1  0.000000  0.320082  0.795512  1
  Co  Co6  1  0.500000  0.500000  0.702995  1
  Co  Co7  1  0.000000  0.000000  0.297005  1
  Co  Co8  1  0.000000  0.500000  0.986920  1
  Co  Co9  1  0.500000  0.000000  0.013080  1
  Co  Co10  1  0.500000  0.332501  0.989906  1
  Co  Co11  1  0.500000  0.667499  0.989906  1
  Co  Co12  1  0.000000  0.167499  0.010094  1
  Co  Co13  1  0.000000  0.832501  0.010094  1
  Co  Co14  1  0.500000  0.295627  0.430924  1
  Co  Co15  1  0.500000  0.704373  0.430924  1
  Co  Co16  1  0.000000  0.204373  0.569076  1
  Co  Co17  1  0.000000  0.795627  0.569076  1
  Co  Co18  1  0.500000  0.877171  0.708166  1
  Co  Co19  1  0.500000  0.122829  0.708166  1
  Co  Co20  1  0.000000  0.622829  0.291834  1
  Co  Co21  1  0.000000  0.377171  0.291834  1
  P  P22  1  0.500000  0.500000  0.879770  1
  P  P23  1  0.000000  0.000000  0.120230  1
  P  P24  1  0.500000  0.500000  0.350373  1
  P  P25  1  0.000000  0.000000  0.649627  1
  P  P26  1  0.500000  0.311593  0.617528  1
  P  P27  1  0.500000  0.688407  0.617528  1
  P  P28  1  0.000000  0.188407  0.382472  1
  P  P29  1  0.000000  0.811593  0.382472  1
  P  P30  1  0.500000  0.842953  0.891761  1
  P  P31  1  0.500000  0.157047  0.891761  1
  P  P32  1  0.000000  0.657047  0.108239  1
  P  P33  1  0.000000  0.342953  0.108239  1
  W  W34  1  0.500000  0.500000  0.156181  1
  W  W35  1  0.000000  0.000000  0.843819  1
