# generated using pymatgen
data_Hf3In3IrPd
_symmetry_space_group_name_H-M   'P 1'
_cell_length_a   7.49242100
_cell_length_b   7.49242132
_cell_length_c   3.34838200
_cell_angle_alpha   90.00000000
_cell_angle_beta   90.00000000
_cell_angle_gamma   120.00000301
_symmetry_Int_Tables_number   1
_chemical_formula_structural   Hf3In3IrPd
_chemical_formula_sum   'Hf3 In3 Ir1 Pd1'
_cell_volume   162.78334949
_cell_formula_units_Z   1
loop_
 _symmetry_equiv_pos_site_id
 _symmetry_equiv_pos_as_xyz
  1  'x, y, z'
loop_
 _atom_site_type_symbol
 _atom_site_label
 _atom_site_symmetry_multiplicity
 _atom_site_fract_x
 _atom_site_fract_y
 _atom_site_fract_z
 _atom_site_occupancy
  Hf  Hf0  1  0.574825  0.987299  0.500001  1
  Hf  Hf1  1  0.412475  0.425174  0.500001  1
  Hf  Hf2  1  0.012701  0.587526  0.500001  1
  In  In3  1  0.235816  0.006561  0.000000  1
  In  In4  1  0.993439  0.229256  0.000000  1
  In  In5  1  0.770744  0.764184  0.000000  1
  Ir  Ir6  1  0.333333  0.666666  0.000000  1
  Pd  Pd7  1  0.666666  0.333334  0.000000  1
