# generated using pymatgen
data_Sr6Ti2CrH27
_symmetry_space_group_name_H-M   'P 1'
_cell_length_a   8.86447500
_cell_length_b   8.86447428
_cell_length_c   5.12149000
_cell_angle_alpha   90.00000000
_cell_angle_beta   90.00000000
_cell_angle_gamma   119.99999895
_symmetry_Int_Tables_number   1
_chemical_formula_structural   Sr6Ti2CrH27
_chemical_formula_sum   'Sr6 Ti2 Cr1 H27'
_cell_volume   348.52422426
_cell_formula_units_Z   1
loop_
 _symmetry_equiv_pos_site_id
 _symmetry_equiv_pos_as_xyz
  1  'x, y, z'
loop_
 _atom_site_type_symbol
 _atom_site_label
 _atom_site_symmetry_multiplicity
 _atom_site_fract_x
 _atom_site_fract_y
 _atom_site_fract_z
 _atom_site_occupancy
  Sr  Sr0  1  0.264444  0.005600  0.500000  1
  Sr  Sr1  1  0.994400  0.258845  0.500000  1
  Sr  Sr2  1  0.741155  0.735556  0.500000  1
  Sr  Sr3  1  0.595491  0.983723  0.000000  1
  Sr  Sr4  1  0.016277  0.611768  0.000000  1
  Sr  Sr5  1  0.388232  0.404509  0.000000  1
  Ti  Ti6  1  0.000000  0.000000  0.000000  1
  Ti  Ti7  1  0.333333  0.666667  0.500000  1
  Cr  Cr8  1  0.666667  0.333333  0.500000  1
  H  H9  1  0.845319  0.998083  0.240723  1
  H  H10  1  0.001917  0.847236  0.240723  1
  H  H11  1  0.845319  0.998083  0.759277  1
  H  H12  1  0.001917  0.847236  0.759277  1
  H  H13  1  0.152764  0.154681  0.240723  1
  H  H14  1  0.152764  0.154681  0.759277  1
  H  H15  1  0.210735  0.000511  0.000000  1
  H  H16  1  0.999489  0.210224  0.000000  1
  H  H17  1  0.789776  0.789265  0.000000  1
  H  H18  1  0.187948  0.509473  0.253266  1
  H  H19  1  0.490527  0.678474  0.253266  1
  H  H20  1  0.187948  0.509473  0.746734  1
  H  H21  1  0.533673  0.213918  0.732522  1
  H  H22  1  0.321526  0.812052  0.253266  1
  H  H23  1  0.490527  0.678474  0.746734  1
  H  H24  1  0.680245  0.466327  0.732522  1
  H  H25  1  0.533673  0.213918  0.267478  1
  H  H26  1  0.321526  0.812052  0.746734  1
  H  H27  1  0.680245  0.466327  0.267478  1
  H  H28  1  0.786082  0.319755  0.732522  1
  H  H29  1  0.786082  0.319755  0.267478  1
  H  H30  1  0.341232  0.464340  0.500000  1
  H  H31  1  0.535660  0.876892  0.500000  1
  H  H32  1  0.496284  0.352341  0.500000  1
  H  H33  1  0.123108  0.658768  0.500000  1
  H  H34  1  0.856056  0.503716  0.500000  1
  H  H35  1  0.647659  0.143944  0.500000  1
