# generated using pymatgen
data_Y3Mg2ZnPt3
_symmetry_space_group_name_H-M   'P 1'
_cell_length_a   7.33843600
_cell_length_b   7.37151429
_cell_length_c   4.03215700
_cell_angle_alpha   90.00000000
_cell_angle_beta   90.00000000
_cell_angle_gamma   119.85167156
_symmetry_Int_Tables_number   1
_chemical_formula_structural   Y3Mg2ZnPt3
_chemical_formula_sum   'Y3 Mg2 Zn1 Pt3'
_cell_volume   189.18010876
_cell_formula_units_Z   1
loop_
 _symmetry_equiv_pos_site_id
 _symmetry_equiv_pos_as_xyz
  1  'x, y, z'
loop_
 _atom_site_type_symbol
 _atom_site_label
 _atom_site_symmetry_multiplicity
 _atom_site_fract_x
 _atom_site_fract_y
 _atom_site_fract_z
 _atom_site_occupancy
  Y  Y0  1  0.422291  0.000000  0.500001  1
  Y  Y1  1  0.991015  0.397513  0.500001  1
  Y  Y2  1  0.593502  0.602486  0.500001  1
  Mg  Mg3  1  0.246186  0.244863  0.000000  1
  Mg  Mg4  1  0.001322  0.755137  0.000000  1
  Zn  Zn5  1  0.749745  0.000000  0.000000  1
  Pt  Pt6  1  0.666346  0.334331  0.000000  1
  Pt  Pt7  1  0.332016  0.665669  0.000000  1
  Pt  Pt8  1  0.997576  0.000000  0.500001  1
