# generated using pymatgen
data_TaCo2SiPW
_symmetry_space_group_name_H-M   'P 1'
_cell_length_a   6.08769200
_cell_length_b   3.62003900
_cell_length_c   6.93679800
_cell_angle_alpha   90.00000000
_cell_angle_beta   90.00000000
_cell_angle_gamma   90.00000000
_symmetry_Int_Tables_number   1
_chemical_formula_structural   TaCo2SiPW
_chemical_formula_sum   'Ta2 Co4 Si2 P2 W2'
_cell_volume   152.87095161
_cell_formula_units_Z   2
loop_
 _symmetry_equiv_pos_site_id
 _symmetry_equiv_pos_as_xyz
  1  'x, y, z'
loop_
 _atom_site_type_symbol
 _atom_site_label
 _atom_site_symmetry_multiplicity
 _atom_site_fract_x
 _atom_site_fract_y
 _atom_site_fract_z
 _atom_site_occupancy
  Ta  Ta0  1  0.976241  0.750000  0.173252  1
  Ta  Ta1  1  0.476241  0.750000  0.326748  1
  Co  Co2  1  0.145778  0.250000  0.430034  1
  Co  Co3  1  0.645778  0.250000  0.069966  1
  Co  Co4  1  0.851900  0.750000  0.557267  1
  Co  Co5  1  0.351900  0.750000  0.942733  1
  Si  Si6  1  0.221352  0.750000  0.628714  1
  Si  Si7  1  0.721352  0.750000  0.871286  1
  P  P8  1  0.777733  0.250000  0.384297  1
  P  P9  1  0.277733  0.250000  0.115703  1
  W  W10  1  0.026997  0.250000  0.833449  1
  W  W11  1  0.526997  0.250000  0.666551  1
