# generated using pymatgen
data_LaPr5(Sn5Pd6)2
_symmetry_space_group_name_H-M   'P 1'
_cell_length_a   4.52723300
_cell_length_b   9.75146800
_cell_length_c   14.10610900
_cell_angle_alpha   90.00000000
_cell_angle_beta   90.00000000
_cell_angle_gamma   90.00000000
_symmetry_Int_Tables_number   1
_chemical_formula_structural   LaPr5(Sn5Pd6)2
_chemical_formula_sum   'La1 Pr5 Sn10 Pd12'
_cell_volume   622.74476001
_cell_formula_units_Z   1
loop_
 _symmetry_equiv_pos_site_id
 _symmetry_equiv_pos_as_xyz
  1  'x, y, z'
loop_
 _atom_site_type_symbol
 _atom_site_label
 _atom_site_symmetry_multiplicity
 _atom_site_fract_x
 _atom_site_fract_y
 _atom_site_fract_z
 _atom_site_occupancy
  La  La0  1  0.000000  0.229676  0.000000  1
  Pr  Pr1  1  0.500000  0.770857  0.500000  1
  Pr  Pr2  1  0.000000  0.245462  0.323123  1
  Pr  Pr3  1  0.500000  0.754949  0.177533  1
  Pr  Pr4  1  0.000000  0.245462  0.676877  1
  Pr  Pr5  1  0.500000  0.754949  0.822467  1
  Sn  Sn6  1  0.000000  0.523507  0.118489  1
  Sn  Sn7  1  0.500000  0.477899  0.381924  1
  Sn  Sn8  1  0.000000  0.523507  0.881511  1
  Sn  Sn9  1  0.500000  0.477899  0.618076  1
  Sn  Sn10  1  0.000000  0.870614  0.327805  1
  Sn  Sn11  1  0.500000  0.128087  0.173710  1
  Sn  Sn12  1  0.000000  0.870614  0.672195  1
  Sn  Sn13  1  0.500000  0.128087  0.826290  1
  Sn  Sn14  1  0.000000  0.805832  0.000000  1
  Sn  Sn15  1  0.500000  0.193699  0.500000  1
  Pd  Pd16  1  0.000000  0.990753  0.145080  1
  Pd  Pd17  1  0.500000  0.008731  0.355125  1
  Pd  Pd18  1  0.000000  0.990753  0.854920  1
  Pd  Pd19  1  0.500000  0.008731  0.644875  1
  Pd  Pd20  1  0.500000  0.984147  0.000000  1
  Pd  Pd21  1  0.000000  0.015110  0.500000  1
  Pd  Pd22  1  0.000000  0.593742  0.307288  1
  Pd  Pd23  1  0.500000  0.406126  0.192712  1
  Pd  Pd24  1  0.000000  0.593742  0.692712  1
  Pd  Pd25  1  0.500000  0.406126  0.807288  1
  Pd  Pd26  1  0.500000  0.498303  0.000000  1
  Pd  Pd27  1  0.000000  0.502634  0.500000  1
