# generated using pymatgen
data_Dy2Hf2Sc(Co2Si5)2
_symmetry_space_group_name_H-M   'P 1'
_cell_length_a   12.12484400
_cell_length_b   12.12484400
_cell_length_c   3.97286400
_cell_angle_alpha   90.00000000
_cell_angle_beta   90.00000000
_cell_angle_gamma   90.00000000
_symmetry_Int_Tables_number   1
_chemical_formula_structural   Dy2Hf2Sc(Co2Si5)2
_chemical_formula_sum   'Dy4 Hf4 Sc2 Co8 Si20'
_cell_volume   584.05805475
_cell_formula_units_Z   2
loop_
 _symmetry_equiv_pos_site_id
 _symmetry_equiv_pos_as_xyz
  1  'x, y, z'
loop_
 _atom_site_type_symbol
 _atom_site_label
 _atom_site_symmetry_multiplicity
 _atom_site_fract_x
 _atom_site_fract_y
 _atom_site_fract_z
 _atom_site_occupancy
  Dy  Dy0  1  0.886801  0.386801  0.500000  1
  Dy  Dy1  1  0.386801  0.113199  0.500000  1
  Dy  Dy2  1  0.613199  0.886801  0.500000  1
  Dy  Dy3  1  0.113199  0.613199  0.500000  1
  Hf  Hf4  1  0.677071  0.177071  0.500000  1
  Hf  Hf5  1  0.177071  0.322929  0.500000  1
  Hf  Hf6  1  0.822929  0.677071  0.500000  1
  Hf  Hf7  1  0.322929  0.822929  0.500000  1
  Sc  Sc8  1  0.000000  0.000000  0.000000  1
  Sc  Sc9  1  0.500000  0.500000  0.000000  1
  Co  Co10  1  0.526733  0.257234  0.000000  1
  Co  Co11  1  0.257234  0.473267  0.000000  1
  Co  Co12  1  0.742766  0.526733  0.000000  1
  Co  Co13  1  0.473267  0.742766  0.000000  1
  Co  Co14  1  0.973267  0.757234  0.000000  1
  Co  Co15  1  0.026733  0.242766  0.000000  1
  Co  Co16  1  0.757234  0.026733  0.000000  1
  Co  Co17  1  0.242766  0.973267  0.000000  1
  Si  Si18  1  0.569946  0.069946  0.000000  1
  Si  Si19  1  0.069946  0.430054  0.000000  1
  Si  Si20  1  0.930054  0.569946  0.000000  1
  Si  Si21  1  0.430054  0.930054  0.000000  1
  Si  Si22  1  0.197033  0.155461  0.000000  1
  Si  Si23  1  0.155461  0.802967  0.000000  1
  Si  Si24  1  0.844539  0.197033  0.000000  1
  Si  Si25  1  0.802967  0.844539  0.000000  1
  Si  Si26  1  0.302967  0.655461  0.000000  1
  Si  Si27  1  0.697033  0.344539  0.000000  1
  Si  Si28  1  0.655461  0.697033  0.000000  1
  Si  Si29  1  0.344539  0.302967  0.000000  1
  Si  Si30  1  0.006983  0.161258  0.500000  1
  Si  Si31  1  0.161258  0.993017  0.500000  1
  Si  Si32  1  0.838742  0.006983  0.500000  1
  Si  Si33  1  0.993017  0.838742  0.500000  1
  Si  Si34  1  0.493017  0.661258  0.500000  1
  Si  Si35  1  0.506983  0.338742  0.500000  1
  Si  Si36  1  0.661258  0.506983  0.500000  1
  Si  Si37  1  0.338742  0.493017  0.500000  1
