# generated using pymatgen
data_Er12InTcNi4
_symmetry_space_group_name_H-M   'P 1'
_cell_length_a   8.22571611
_cell_length_b   8.22571595
_cell_length_c   8.22571674
_cell_angle_alpha   111.33617334
_cell_angle_beta   109.92268276
_cell_angle_gamma   107.18205872
_symmetry_Int_Tables_number   1
_chemical_formula_structural   Er12InTcNi4
_chemical_formula_sum   'Er12 In1 Tc1 Ni4'
_cell_volume   427.87077666
_cell_formula_units_Z   1
loop_
 _symmetry_equiv_pos_site_id
 _symmetry_equiv_pos_as_xyz
  1  'x, y, z'
loop_
 _atom_site_type_symbol
 _atom_site_label
 _atom_site_symmetry_multiplicity
 _atom_site_fract_x
 _atom_site_fract_y
 _atom_site_fract_z
 _atom_site_occupancy
  Er  Er0  1  0.414852  0.222909  0.191943  1
  Er  Er1  1  0.585148  0.777091  0.808057  1
  Er  Er2  1  0.030965  0.222909  0.808057  1
  Er  Er3  1  0.969035  0.777091  0.191943  1
  Er  Er4  1  0.180950  0.280585  0.461534  1
  Er  Er5  1  0.819050  0.719415  0.538466  1
  Er  Er6  1  0.180950  0.719415  0.900366  1
  Er  Er7  1  0.819050  0.280585  0.099634  1
  Er  Er8  1  0.320574  0.624401  0.303826  1
  Er  Er9  1  0.679426  0.375599  0.696174  1
  Er  Er10  1  0.320574  0.016749  0.696174  1
  Er  Er11  1  0.679426  0.983251  0.303826  1
  In  In12  1  0.500000  0.500000  0.000000  1
  Tc  Tc13  1  0.000000  0.000000  0.000000  1
  Ni  Ni14  1  0.361218  0.000000  0.361218  1
  Ni  Ni15  1  0.638782  0.000000  0.638782  1
  Ni  Ni16  1  0.118888  0.618888  0.500000  1
  Ni  Ni17  1  0.881112  0.381112  0.500000  1
