# generated using pymatgen
data_Cr2Fe4ReMoP4
_symmetry_space_group_name_H-M   'P 1'
_cell_length_a   3.63240000
_cell_length_b   5.82024052
_cell_length_c   6.62196392
_cell_angle_alpha   90.18629828
_cell_angle_beta   90.00000000
_cell_angle_gamma   90.00000000
_symmetry_Int_Tables_number   1
_chemical_formula_structural   Cr2Fe4ReMoP4
_chemical_formula_sum   'Cr2 Fe4 Re1 Mo1 P4'
_cell_volume   139.99712383
_cell_formula_units_Z   1
loop_
 _symmetry_equiv_pos_site_id
 _symmetry_equiv_pos_as_xyz
  1  'x, y, z'
loop_
 _atom_site_type_symbol
 _atom_site_label
 _atom_site_symmetry_multiplicity
 _atom_site_fract_x
 _atom_site_fract_y
 _atom_site_fract_z
 _atom_site_occupancy
  Cr  Cr0  1  0.250000  0.471350  0.173463  1
  Cr  Cr1  1  0.750000  0.027564  0.670493  1
  Fe  Fe2  1  0.250000  0.860101  0.936793  1
  Fe  Fe3  1  0.250000  0.355225  0.560892  1
  Fe  Fe4  1  0.750000  0.143268  0.064316  1
  Fe  Fe5  1  0.750000  0.642142  0.433711  1
  Re  Re6  1  0.250000  0.976306  0.333953  1
  Mo  Mo7  1  0.750000  0.522950  0.830158  1
  P  P8  1  0.250000  0.227739  0.876623  1
  P  P9  1  0.250000  0.736488  0.619824  1
  P  P10  1  0.750000  0.766975  0.122757  1
  P  P11  1  0.750000  0.269893  0.377015  1
