# generated using pymatgen
data_Dy3Tm9(TcRu)2
_symmetry_space_group_name_H-M   'P 1'
_cell_length_a   6.23608155
_cell_length_b   7.30290665
_cell_length_c   9.01160400
_cell_angle_alpha   90.00000000
_cell_angle_beta   90.00000000
_cell_angle_gamma   90.04822864
_symmetry_Int_Tables_number   1
_chemical_formula_structural   Dy3Tm9(TcRu)2
_chemical_formula_sum   'Dy3 Tm9 Tc2 Ru2'
_cell_volume   410.40201119
_cell_formula_units_Z   1
loop_
 _symmetry_equiv_pos_site_id
 _symmetry_equiv_pos_as_xyz
  1  'x, y, z'
loop_
 _atom_site_type_symbol
 _atom_site_label
 _atom_site_symmetry_multiplicity
 _atom_site_fract_x
 _atom_site_fract_y
 _atom_site_fract_z
 _atom_site_occupancy
  Dy  Dy0  1  0.875714  0.540034  0.250000  1
  Dy  Dy1  1  0.623917  0.039777  0.250000  1
  Dy  Dy2  1  0.368546  0.956347  0.750000  1
  Tm  Tm3  1  0.335291  0.676145  0.063088  1
  Tm  Tm4  1  0.164585  0.176942  0.436721  1
  Tm  Tm5  1  0.663928  0.324426  0.563234  1
  Tm  Tm6  1  0.836712  0.824045  0.936954  1
  Tm  Tm7  1  0.663928  0.324426  0.936766  1
  Tm  Tm8  1  0.836712  0.824045  0.563046  1
  Tm  Tm9  1  0.335291  0.676145  0.436912  1
  Tm  Tm10  1  0.164585  0.176942  0.063279  1
  Tm  Tm11  1  0.131907  0.456261  0.750000  1
  Tc  Tc12  1  0.038842  0.886246  0.250000  1
  Tc  Tc13  1  0.461210  0.386340  0.250000  1
  Ru  Ru14  1  0.959112  0.116716  0.750000  1
  Ru  Ru15  1  0.539718  0.615159  0.750000  1
