# generated using pymatgen
data_Ta2BeCo2P
_symmetry_space_group_name_H-M   'P 1'
_cell_length_a   3.53761600
_cell_length_b   6.05489800
_cell_length_c   6.95467500
_cell_angle_alpha   90.00000000
_cell_angle_beta   90.00000000
_cell_angle_gamma   90.00000000
_symmetry_Int_Tables_number   1
_chemical_formula_structural   Ta2BeCo2P
_chemical_formula_sum   'Ta4 Be2 Co4 P2'
_cell_volume   148.96847115
_cell_formula_units_Z   2
loop_
 _symmetry_equiv_pos_site_id
 _symmetry_equiv_pos_as_xyz
  1  'x, y, z'
loop_
 _atom_site_type_symbol
 _atom_site_label
 _atom_site_symmetry_multiplicity
 _atom_site_fract_x
 _atom_site_fract_y
 _atom_site_fract_z
 _atom_site_occupancy
  Ta  Ta0  1  0.250000  0.027796  0.824961  1
  Ta  Ta1  1  0.250000  0.527796  0.675039  1
  Ta  Ta2  1  0.750000  0.983019  0.185745  1
  Ta  Ta3  1  0.750000  0.483019  0.314255  1
  Be  Be4  1  0.250000  0.274854  0.122342  1
  Be  Be5  1  0.250000  0.774854  0.377658  1
  Co  Co6  1  0.250000  0.139000  0.436276  1
  Co  Co7  1  0.250000  0.639000  0.063724  1
  Co  Co8  1  0.750000  0.852113  0.563175  1
  Co  Co9  1  0.750000  0.352113  0.936825  1
  P  P10  1  0.750000  0.723219  0.886383  1
  P  P11  1  0.750000  0.223219  0.613617  1
