# generated using pymatgen
data_Cs(Cr5Se8)2
_symmetry_space_group_name_H-M   'P 1'
_cell_length_a   7.30321289
_cell_length_b   9.69804210
_cell_length_c   9.85906611
_cell_angle_alpha   72.83654465
_cell_angle_beta   68.28103906
_cell_angle_gamma   79.12481191
_symmetry_Int_Tables_number   1
_chemical_formula_structural   Cs(Cr5Se8)2
_chemical_formula_sum   'Cs1 Cr10 Se16'
_cell_volume   617.33711796
_cell_formula_units_Z   1
loop_
 _symmetry_equiv_pos_site_id
 _symmetry_equiv_pos_as_xyz
  1  'x, y, z'
loop_
 _atom_site_type_symbol
 _atom_site_label
 _atom_site_symmetry_multiplicity
 _atom_site_fract_x
 _atom_site_fract_y
 _atom_site_fract_z
 _atom_site_occupancy
  Cs  Cs0  1  0.000000  0.000000  0.000000  1
  Cr  Cr1  1  0.839491  0.685779  0.476501  1
  Cr  Cr2  1  0.340271  0.684318  0.476355  1
  Cr  Cr3  1  0.659729  0.315682  0.523645  1
  Cr  Cr4  1  0.160509  0.314221  0.523499  1
  Cr  Cr5  1  0.815933  0.410416  0.163362  1
  Cr  Cr6  1  0.316205  0.406990  0.163712  1
  Cr  Cr7  1  0.683795  0.593010  0.836288  1
  Cr  Cr8  1  0.184067  0.589584  0.836638  1
  Cr  Cr9  1  0.500000  0.000000  0.500000  1
  Cr  Cr10  1  0.000000  0.000000  0.500000  1
  Se  Se11  1  0.788006  0.151619  0.347535  1
  Se  Se12  1  0.288542  0.150926  0.347145  1
  Se  Se13  1  0.711458  0.849074  0.652855  1
  Se  Se14  1  0.211994  0.848381  0.652465  1
  Se  Se15  1  0.958942  0.476022  0.344317  1
  Se  Se16  1  0.459251  0.476083  0.343928  1
  Se  Se17  1  0.540749  0.523917  0.656072  1
  Se  Se18  1  0.041058  0.523978  0.655683  1
  Se  Se19  1  0.627399  0.825455  0.328017  1
  Se  Se20  1  0.130201  0.825293  0.328329  1
  Se  Se21  1  0.869799  0.174707  0.671671  1
  Se  Se22  1  0.372601  0.174545  0.671983  1
  Se  Se23  1  0.339467  0.654674  0.993233  1
  Se  Se24  1  0.840120  0.656915  0.992194  1
  Se  Se25  1  0.159880  0.343085  0.007806  1
  Se  Se26  1  0.660533  0.345326  0.006767  1
