# generated using pymatgen
data_Sc3Al2PtN
_symmetry_space_group_name_H-M   'P 1'
_cell_length_a   8.60196370
_cell_length_b   8.60196381
_cell_length_c   8.60196400
_cell_angle_alpha   59.99999926
_cell_angle_beta   59.99999885
_cell_angle_gamma   59.99999964
_symmetry_Int_Tables_number   1
_chemical_formula_structural   Sc3Al2PtN
_chemical_formula_sum   'Sc12 Al8 Pt4 N4'
_cell_volume   450.06768531
_cell_formula_units_Z   4
loop_
 _symmetry_equiv_pos_site_id
 _symmetry_equiv_pos_as_xyz
  1  'x, y, z'
loop_
 _atom_site_type_symbol
 _atom_site_label
 _atom_site_symmetry_multiplicity
 _atom_site_fract_x
 _atom_site_fract_y
 _atom_site_fract_z
 _atom_site_occupancy
  Sc  Sc0  1  0.813900  0.813900  0.186100  1
  Sc  Sc1  1  0.063900  0.436100  0.436100  1
  Sc  Sc2  1  0.436100  0.063900  0.063900  1
  Sc  Sc3  1  0.063900  0.063900  0.436100  1
  Sc  Sc4  1  0.063900  0.436100  0.063900  1
  Sc  Sc5  1  0.436100  0.063900  0.436100  1
  Sc  Sc6  1  0.186100  0.813900  0.186100  1
  Sc  Sc7  1  0.186100  0.813900  0.813900  1
  Sc  Sc8  1  0.813900  0.186100  0.186100  1
  Sc  Sc9  1  0.813900  0.186100  0.813900  1
  Sc  Sc10  1  0.436100  0.436100  0.063900  1
  Sc  Sc11  1  0.186100  0.186100  0.813900  1
  Al  Al12  1  0.419491  0.741526  0.419491  1
  Al  Al13  1  0.830509  0.830509  0.508474  1
  Al  Al14  1  0.508474  0.830509  0.830509  1
  Al  Al15  1  0.830509  0.830509  0.830509  1
  Al  Al16  1  0.741526  0.419491  0.419491  1
  Al  Al17  1  0.419491  0.419491  0.419491  1
  Al  Al18  1  0.419491  0.419491  0.741526  1
  Al  Al19  1  0.830509  0.508474  0.830509  1
  Pt  Pt20  1  0.625000  0.125000  0.625000  1
  Pt  Pt21  1  0.625000  0.625000  0.125000  1
  Pt  Pt22  1  0.125000  0.625000  0.625000  1
  Pt  Pt23  1  0.625000  0.625000  0.625000  1
  N  N24  1  0.125000  0.625000  0.125000  1
  N  N25  1  0.125000  0.125000  0.625000  1
  N  N26  1  0.625000  0.125000  0.125000  1
  N  N27  1  0.125000  0.125000  0.125000  1
