# generated using pymatgen
data_CaPa7TiSe17
_symmetry_space_group_name_H-M   'P 1'
_cell_length_a   8.22001444
_cell_length_b   8.23583049
_cell_length_c   10.91447700
_cell_angle_alpha   80.79449131
_cell_angle_beta   80.48793398
_cell_angle_gamma   65.37772146
_symmetry_Int_Tables_number   1
_chemical_formula_structural   CaPa7TiSe17
_chemical_formula_sum   'Ca1 Pa7 Ti1 Se17'
_cell_volume   659.04459361
_cell_formula_units_Z   1
loop_
 _symmetry_equiv_pos_site_id
 _symmetry_equiv_pos_as_xyz
  1  'x, y, z'
loop_
 _atom_site_type_symbol
 _atom_site_label
 _atom_site_symmetry_multiplicity
 _atom_site_fract_x
 _atom_site_fract_y
 _atom_site_fract_z
 _atom_site_occupancy
  Ca  Ca0  1  0.810472  0.310898  0.292861  1
  Pa  Pa1  1  0.299051  0.819020  0.295026  1
  Pa  Pa2  1  0.179565  0.698432  0.702558  1
  Pa  Pa3  1  0.701893  0.180025  0.703401  1
  Pa  Pa4  1  0.204378  0.198816  0.539461  1
  Pa  Pa5  1  0.799724  0.795112  0.459077  1
  Pa  Pa6  1  0.683431  0.683279  0.986575  1
  Pa  Pa7  1  0.314311  0.319776  0.015253  1
  Ti  Ti8  1  0.001829  0.001240  0.000415  1
  Se  Se9  1  0.825236  0.431220  0.542803  1
  Se  Se10  1  0.435472  0.814802  0.535800  1
  Se  Se11  1  0.183736  0.561333  0.463404  1
  Se  Se12  1  0.569188  0.172089  0.471880  1
  Se  Se13  1  0.940160  0.329834  0.020098  1
  Se  Se14  1  0.326731  0.943717  0.023676  1
  Se  Se15  1  0.056722  0.676580  0.972706  1
  Se  Se16  1  0.673554  0.062383  0.974255  1
  Se  Se17  1  0.225833  0.204633  0.275425  1
  Se  Se18  1  0.782479  0.787131  0.726441  1
  Se  Se19  1  0.064742  0.060637  0.771098  1
  Se  Se20  1  0.943613  0.933070  0.230452  1
  Se  Se21  1  0.302064  0.301633  0.753245  1
  Se  Se22  1  0.687800  0.713680  0.245090  1
  Se  Se23  1  0.520157  0.521197  0.830910  1
  Se  Se24  1  0.460659  0.493645  0.160150  1
  Se  Se25  1  0.007202  0.985817  0.507938  1
