# generated using pymatgen
data_ErMnF7
_symmetry_space_group_name_H-M   'P 1'
_cell_length_a   5.39124400
_cell_length_b   8.60859545
_cell_length_c   11.61272106
_cell_angle_alpha   62.64544649
_cell_angle_beta   90.00000000
_cell_angle_gamma   90.00000000
_symmetry_Int_Tables_number   1
_chemical_formula_structural   ErMnF7
_chemical_formula_sum   'Er4 Mn4 F28'
_cell_volume   478.69218261
_cell_formula_units_Z   4
loop_
 _symmetry_equiv_pos_site_id
 _symmetry_equiv_pos_as_xyz
  1  'x, y, z'
loop_
 _atom_site_type_symbol
 _atom_site_label
 _atom_site_symmetry_multiplicity
 _atom_site_fract_x
 _atom_site_fract_y
 _atom_site_fract_z
 _atom_site_occupancy
  Er  Er0  1  0.760001  0.809314  0.765045  1
  Er  Er1  1  0.260001  0.190686  0.734955  1
  Er  Er2  1  0.239999  0.190686  0.234955  1
  Er  Er3  1  0.739999  0.809314  0.265045  1
  Mn  Mn4  1  0.758699  0.272297  0.957063  1
  Mn  Mn5  1  0.258699  0.727703  0.542937  1
  Mn  Mn6  1  0.241301  0.727703  0.042937  1
  Mn  Mn7  1  0.741301  0.272297  0.457063  1
  F  F8  1  0.428693  0.703513  0.920458  1
  F  F9  1  0.928693  0.296487  0.579542  1
  F  F10  1  0.571307  0.296487  0.079542  1
  F  F11  1  0.071307  0.703513  0.420458  1
  F  F12  1  0.448718  0.277238  0.538829  1
  F  F13  1  0.948718  0.722762  0.961171  1
  F  F14  1  0.551282  0.722762  0.461171  1
  F  F15  1  0.051282  0.277238  0.038829  1
  F  F16  1  0.777134  0.512959  0.862142  1
  F  F17  1  0.277134  0.487041  0.637858  1
  F  F18  1  0.222866  0.487041  0.137858  1
  F  F19  1  0.722866  0.512959  0.362142  1
  F  F20  1  0.753750  0.033698  0.045906  1
  F  F21  1  0.253750  0.966302  0.454094  1
  F  F22  1  0.246250  0.966302  0.954094  1
  F  F23  1  0.746250  0.033698  0.545906  1
  F  F24  1  0.975571  0.724133  0.633294  1
  F  F25  1  0.475571  0.275867  0.866706  1
  F  F26  1  0.024429  0.275867  0.366706  1
  F  F27  1  0.524429  0.724133  0.133294  1
  F  F28  1  0.058283  0.744828  0.171709  1
  F  F29  1  0.558283  0.255172  0.328291  1
  F  F30  1  0.941717  0.255172  0.828291  1
  F  F31  1  0.441717  0.744828  0.671709  1
  F  F32  1  0.412695  0.969227  0.231295  1
  F  F33  1  0.912695  0.030773  0.268705  1
  F  F34  1  0.587305  0.030773  0.768705  1
  F  F35  1  0.087305  0.969227  0.731295  1
