# generated using pymatgen
data_TbCe3(Rh2Pb)2
_symmetry_space_group_name_H-M   'P 1'
_cell_length_a   7.76870575
_cell_length_b   7.76870532
_cell_length_c   3.70818200
_cell_angle_alpha   90.00000000
_cell_angle_beta   90.00000000
_cell_angle_gamma   88.40269513
_symmetry_Int_Tables_number   1
_chemical_formula_structural   TbCe3(Rh2Pb)2
_chemical_formula_sum   'Tb1 Ce3 Rh4 Pb2'
_cell_volume   223.71215131
_cell_formula_units_Z   1
loop_
 _symmetry_equiv_pos_site_id
 _symmetry_equiv_pos_as_xyz
  1  'x, y, z'
loop_
 _atom_site_type_symbol
 _atom_site_label
 _atom_site_symmetry_multiplicity
 _atom_site_fract_x
 _atom_site_fract_y
 _atom_site_fract_z
 _atom_site_occupancy
  Tb  Tb0  1  0.669126  0.169126  0.500000  1
  Ce  Ce1  1  0.329722  0.829722  0.500000  1
  Ce  Ce2  1  0.167867  0.326337  0.500000  1
  Ce  Ce3  1  0.826337  0.667867  0.500000  1
  Rh  Rh4  1  0.141959  0.641959  0.000000  1
  Rh  Rh5  1  0.882784  0.382784  0.000000  1
  Rh  Rh6  1  0.629405  0.859480  0.000000  1
  Rh  Rh7  1  0.359480  0.129405  0.000000  1
  Pb  Pb8  1  0.993738  0.999584  0.000000  1
  Pb  Pb9  1  0.499584  0.493738  0.000000  1
