# generated using pymatgen
data_P2Ir(O3F)2
_symmetry_space_group_name_H-M   'P 1'
_cell_length_a   5.02069400
_cell_length_b   5.02069360
_cell_length_c   6.86945300
_cell_angle_alpha   90.00000000
_cell_angle_beta   90.00000000
_cell_angle_gamma   120.00000455
_symmetry_Int_Tables_number   1
_chemical_formula_structural   P2Ir(O3F)2
_chemical_formula_sum   'P2 Ir1 O6 F2'
_cell_volume   149.96166000
_cell_formula_units_Z   1
loop_
 _symmetry_equiv_pos_site_id
 _symmetry_equiv_pos_as_xyz
  1  'x, y, z'
loop_
 _atom_site_type_symbol
 _atom_site_label
 _atom_site_symmetry_multiplicity
 _atom_site_fract_x
 _atom_site_fract_y
 _atom_site_fract_z
 _atom_site_occupancy
  P  P0  1  0.333333  0.666666  0.224935  1
  P  P1  1  0.666667  0.333334  0.775065  1
  Ir  Ir2  1  0.000000  0.000000  0.000000  1
  O  O3  1  0.290086  0.351097  0.169899  1
  O  O4  1  0.061010  0.709914  0.169899  1
  O  O5  1  0.648904  0.938990  0.169899  1
  O  O6  1  0.351097  0.061010  0.830101  1
  O  O7  1  0.938990  0.290086  0.830101  1
  O  O8  1  0.709914  0.648903  0.830101  1
  F  F9  1  0.666667  0.333334  0.547691  1
  F  F10  1  0.333333  0.666666  0.452309  1
