# generated using pymatgen
data_Dy7Tm3(RuRh)2
_symmetry_space_group_name_H-M   'P 1'
_cell_length_a   6.36792451
_cell_length_b   7.22307728
_cell_length_c   8.47323538
_cell_angle_alpha   96.82388697
_cell_angle_beta   111.85248903
_cell_angle_gamma   89.94066820
_symmetry_Int_Tables_number   1
_chemical_formula_structural   Dy7Tm3(RuRh)2
_chemical_formula_sum   'Dy7 Tm3 Ru2 Rh2'
_cell_volume   358.77355920
_cell_formula_units_Z   1
loop_
 _symmetry_equiv_pos_site_id
 _symmetry_equiv_pos_as_xyz
  1  'x, y, z'
loop_
 _atom_site_type_symbol
 _atom_site_label
 _atom_site_symmetry_multiplicity
 _atom_site_fract_x
 _atom_site_fract_y
 _atom_site_fract_z
 _atom_site_occupancy
  Dy  Dy0  1  0.791274  0.081295  0.812745  1
  Dy  Dy1  1  0.979571  0.418788  0.187880  1
  Dy  Dy2  1  0.210331  0.914668  0.184858  1
  Dy  Dy3  1  0.026382  0.585123  0.815049  1
  Dy  Dy4  1  0.208429  0.184105  0.565983  1
  Dy  Dy5  1  0.642063  0.316924  0.434337  1
  Dy  Dy6  1  0.791741  0.811819  0.436445  1
  Tm  Tm7  1  0.356005  0.686939  0.564665  1
  Tm  Tm8  1  0.421528  0.249754  0.999840  1
  Tm  Tm9  1  0.575447  0.749869  0.999003  1
  Ru  Ru10  1  0.397190  0.574424  0.219635  1
  Ru  Ru11  1  0.179911  0.925366  0.780420  1
  Rh  Rh12  1  0.600238  0.425736  0.780203  1
  Rh  Rh13  1  0.819889  0.075189  0.218938  1
