# generated using pymatgen
data_Nd6Th2Zn8Ir3Rh5
_symmetry_space_group_name_H-M   'P 1'
_cell_length_a   3.96479200
_cell_length_b   7.44693997
_cell_length_c   16.61469314
_cell_angle_alpha   90.05834709
_cell_angle_beta   90.00000000
_cell_angle_gamma   90.00000000
_symmetry_Int_Tables_number   1
_chemical_formula_structural   Nd6Th2Zn8Ir3Rh5
_chemical_formula_sum   'Nd6 Th2 Zn8 Ir3 Rh5'
_cell_volume   490.55799813
_cell_formula_units_Z   1
loop_
 _symmetry_equiv_pos_site_id
 _symmetry_equiv_pos_as_xyz
  1  'x, y, z'
loop_
 _atom_site_type_symbol
 _atom_site_label
 _atom_site_symmetry_multiplicity
 _atom_site_fract_x
 _atom_site_fract_y
 _atom_site_fract_z
 _atom_site_occupancy
  Nd  Nd0  1  0.750000  0.330110  0.437681  1
  Nd  Nd1  1  0.750000  0.947136  0.284786  1
  Nd  Nd2  1  0.750000  0.828634  0.062402  1
  Nd  Nd3  1  0.750000  0.446887  0.215379  1
  Nd  Nd4  1  0.250000  0.050525  0.714432  1
  Nd  Nd5  1  0.250000  0.550850  0.785646  1
  Th  Th6  1  0.250000  0.171457  0.939667  1
  Th  Th7  1  0.250000  0.671849  0.560083  1
  Zn  Zn8  1  0.750000  0.009534  0.559878  1
  Zn  Zn9  1  0.250000  0.618250  0.348515  1
  Zn  Zn10  1  0.750000  0.380021  0.654196  1
  Zn  Zn11  1  0.250000  0.502129  0.059966  1
  Zn  Zn12  1  0.750000  0.510383  0.940070  1
  Zn  Zn13  1  0.250000  0.002001  0.440126  1
  Zn  Zn14  1  0.250000  0.119012  0.151807  1
  Zn  Zn15  1  0.750000  0.880401  0.845787  1
  Ir  Ir16  1  0.750000  0.749539  0.439832  1
  Ir  Ir17  1  0.750000  0.247453  0.821089  1
  Ir  Ir18  1  0.750000  0.747322  0.680103  1
  Rh  Rh19  1  0.250000  0.241184  0.311549  1
  Rh  Rh20  1  0.250000  0.252558  0.565387  1
  Rh  Rh21  1  0.250000  0.740951  0.188001  1
  Rh  Rh22  1  0.750000  0.248254  0.058936  1
  Rh  Rh23  1  0.250000  0.753562  0.934684  1
