# generated using pymatgen
data_AcGa2Rh3
_symmetry_space_group_name_H-M   'P 1'
_cell_length_a   5.80594800
_cell_length_b   5.80594897
_cell_length_c   3.82427300
_cell_angle_alpha   90.00000000
_cell_angle_beta   90.00000000
_cell_angle_gamma   120.00000589
_symmetry_Int_Tables_number   1
_chemical_formula_structural   AcGa2Rh3
_chemical_formula_sum   'Ac1 Ga2 Rh3'
_cell_volume   111.64154787
_cell_formula_units_Z   1
loop_
 _symmetry_equiv_pos_site_id
 _symmetry_equiv_pos_as_xyz
  1  'x, y, z'
loop_
 _atom_site_type_symbol
 _atom_site_label
 _atom_site_symmetry_multiplicity
 _atom_site_fract_x
 _atom_site_fract_y
 _atom_site_fract_z
 _atom_site_occupancy
  Ac  Ac0  1  0.000000  0.000000  0.000000  1
  Ga  Ga1  1  0.333333  0.666667  0.000000  1
  Ga  Ga2  1  0.666667  0.333333  0.000000  1
  Rh  Rh3  1  0.500000  0.000000  0.500000  1
  Rh  Rh4  1  0.000000  0.500000  0.500000  1
  Rh  Rh5  1  0.500000  0.500000  0.500000  1
