# generated using pymatgen
data_Nd2Cl3O
_symmetry_space_group_name_H-M   'P 1'
_cell_length_a   8.17969532
_cell_length_b   8.17969503
_cell_length_c   10.61219252
_cell_angle_alpha   62.37916310
_cell_angle_beta   62.37916535
_cell_angle_gamma   28.99301152
_symmetry_Int_Tables_number   1
_chemical_formula_structural   Nd2Cl3O
_chemical_formula_sum   'Nd4 Cl6 O2'
_cell_volume   302.13058494
_cell_formula_units_Z   2
loop_
 _symmetry_equiv_pos_site_id
 _symmetry_equiv_pos_as_xyz
  1  'x, y, z'
loop_
 _atom_site_type_symbol
 _atom_site_label
 _atom_site_symmetry_multiplicity
 _atom_site_fract_x
 _atom_site_fract_y
 _atom_site_fract_z
 _atom_site_occupancy
  Nd  Nd0  1  0.864516  0.864516  0.287785  1
  Nd  Nd1  1  0.135484  0.135484  0.712215  1
  Nd  Nd2  1  0.587561  0.587561  0.050375  1
  Nd  Nd3  1  0.412439  0.412439  0.949625  1
  Cl  Cl4  1  0.048596  0.048596  0.264577  1
  Cl  Cl5  1  0.951404  0.951404  0.735423  1
  Cl  Cl6  1  0.662195  0.662195  0.490577  1
  Cl  Cl7  1  0.337805  0.337805  0.509423  1
  Cl  Cl8  1  0.768522  0.768522  0.114948  1
  Cl  Cl9  1  0.231478  0.231478  0.885052  1
  O  O10  1  0.415927  0.415927  0.170245  1
  O  O11  1  0.584073  0.584073  0.829755  1
