# generated using pymatgen
data_CsK3Mn2(BSe)18
_symmetry_space_group_name_H-M   'P 1'
_cell_length_a   9.87139183
_cell_length_b   10.69383022
_cell_length_c   11.01213746
_cell_angle_alpha   100.04622979
_cell_angle_beta   92.25224393
_cell_angle_gamma   115.29323612
_symmetry_Int_Tables_number   1
_chemical_formula_structural   CsK3Mn2(BSe)18
_chemical_formula_sum   'Cs1 K3 Mn2 B18 Se18'
_cell_volume   1026.42176450
_cell_formula_units_Z   1
loop_
 _symmetry_equiv_pos_site_id
 _symmetry_equiv_pos_as_xyz
  1  'x, y, z'
loop_
 _atom_site_type_symbol
 _atom_site_label
 _atom_site_symmetry_multiplicity
 _atom_site_fract_x
 _atom_site_fract_y
 _atom_site_fract_z
 _atom_site_occupancy
  Cs  Cs0  1  0.829630  0.656408  0.489938  1
  K  K1  1  0.792618  0.173935  0.007927  1
  K  K2  1  0.207417  0.826277  0.991152  1
  K  K3  1  0.180546  0.348316  0.501697  1
  Mn  Mn4  1  0.317089  0.314407  0.082505  1
  Mn  Mn5  1  0.681818  0.685757  0.917881  1
  B  B6  1  0.513715  0.162640  0.552726  1
  B  B7  1  0.486190  0.836577  0.447450  1
  B  B8  1  0.663767  0.120508  0.590415  1
  B  B9  1  0.335770  0.878645  0.409138  1
  B  B10  1  0.488329  0.042918  0.651790  1
  B  B11  1  0.510800  0.955912  0.348021  1
  B  B12  1  0.337430  0.008789  0.537919  1
  B  B13  1  0.662337  0.991384  0.461856  1
  B  B14  1  0.418802  0.062308  0.402610  1
  B  B15  1  0.580477  0.937001  0.597530  1
  B  B16  1  0.618280  0.130220  0.435112  1
  B  B17  1  0.380322  0.868588  0.564496  1
  B  B18  1  0.749452  0.415769  0.720401  1
  B  B19  1  0.249598  0.581454  0.281577  1
  B  B20  1  0.256198  0.090704  0.787006  1
  B  B21  1  0.745485  0.913745  0.212538  1
  B  B22  1  0.563147  0.282706  0.254204  1
  B  B23  1  0.434714  0.716271  0.746591  1
  Se  Se24  1  0.551094  0.361137  0.629474  1
  Se  Se25  1  0.447635  0.636907  0.373076  1
  Se  Se26  1  0.842002  0.282354  0.702240  1
  Se  Se27  1  0.160029  0.716809  0.294362  1
  Se  Se28  1  0.453917  0.095665  0.828132  1
  Se  Se29  1  0.544165  0.901232  0.171750  1
  Se  Se30  1  0.164874  0.035722  0.611229  1
  Se  Se31  1  0.840289  0.976747  0.387674  1
  Se  Se32  1  0.355382  0.157469  0.283415  1
  Se  Se33  1  0.642473  0.844949  0.720930  1
  Se  Se34  1  0.739148  0.281664  0.344382  1
  Se  Se35  1  0.258765  0.713963  0.652702  1
  Se  Se36  1  0.863662  0.603812  0.824272  1
  Se  Se37  1  0.133855  0.390008  0.184003  1
  Se  Se38  1  0.136597  0.123742  0.912960  1
  Se  Se39  1  0.863726  0.877946  0.086586  1
  Se  Se40  1  0.595564  0.403384  0.135058  1
  Se  Se41  1  0.402888  0.595255  0.865277  1
