# generated using pymatgen
data_SmCdCuNiPt2
_symmetry_space_group_name_H-M   'P 1'
_cell_length_a   5.11751391
_cell_length_b   5.25969200
_cell_length_c   5.25969254
_cell_angle_alpha   62.88241380
_cell_angle_beta   60.21225649
_cell_angle_gamma   60.21225198
_symmetry_Int_Tables_number   1
_chemical_formula_structural   SmCdCuNiPt2
_chemical_formula_sum   'Sm1 Cd1 Cu1 Ni1 Pt2'
_cell_volume   102.44460813
_cell_formula_units_Z   1
loop_
 _symmetry_equiv_pos_site_id
 _symmetry_equiv_pos_as_xyz
  1  'x, y, z'
loop_
 _atom_site_type_symbol
 _atom_site_label
 _atom_site_symmetry_multiplicity
 _atom_site_fract_x
 _atom_site_fract_y
 _atom_site_fract_z
 _atom_site_occupancy
  Sm  Sm0  1  0.250547  0.250803  0.250803  1
  Cd  Cd1  1  0.006286  0.993023  0.993023  1
  Cu  Cu2  1  0.122918  0.627718  0.627718  1
  Ni  Ni3  1  0.621748  0.628083  0.628083  1
  Pt  Pt4  1  0.624251  0.626553  0.123822  1
  Pt  Pt5  1  0.624251  0.123822  0.626553  1
