# generated using pymatgen
data_MnNb8SbS16
_symmetry_space_group_name_H-M   'P 1'
_cell_length_a   6.71847700
_cell_length_b   6.71847746
_cell_length_c   13.08604400
_cell_angle_alpha   90.00000000
_cell_angle_beta   90.00000000
_cell_angle_gamma   120.00000266
_symmetry_Int_Tables_number   1
_chemical_formula_structural   MnNb8SbS16
_chemical_formula_sum   'Mn1 Nb8 Sb1 S16'
_cell_volume   511.54129143
_cell_formula_units_Z   1
loop_
 _symmetry_equiv_pos_site_id
 _symmetry_equiv_pos_as_xyz
  1  'x, y, z'
loop_
 _atom_site_type_symbol
 _atom_site_label
 _atom_site_symmetry_multiplicity
 _atom_site_fract_x
 _atom_site_fract_y
 _atom_site_fract_z
 _atom_site_occupancy
  Mn  Mn0  1  0.000000  0.000000  0.500000  1
  Nb  Nb1  1  0.987631  0.493816  0.268141  1
  Nb  Nb2  1  0.012369  0.506184  0.731859  1
  Nb  Nb3  1  0.493816  0.506184  0.731859  1
  Nb  Nb4  1  0.506184  0.012369  0.268141  1
  Nb  Nb5  1  0.000000  0.000000  0.731543  1
  Nb  Nb6  1  0.000000  0.000000  0.268457  1
  Nb  Nb7  1  0.506184  0.493816  0.268141  1
  Nb  Nb8  1  0.493816  0.987631  0.731859  1
  Sb  Sb9  1  0.000000  0.000000  0.000000  1
  S  S10  1  0.333333  0.666667  0.609166  1
  S  S11  1  0.666667  0.333333  0.144340  1
  S  S12  1  0.666667  0.333333  0.390834  1
  S  S13  1  0.333333  0.666667  0.855660  1
  S  S14  1  0.167993  0.335986  0.386378  1
  S  S15  1  0.831472  0.168528  0.851752  1
  S  S16  1  0.337056  0.168528  0.851752  1
  S  S17  1  0.664014  0.832007  0.386378  1
  S  S18  1  0.167993  0.832007  0.386378  1
  S  S19  1  0.831472  0.662944  0.851752  1
  S  S20  1  0.168528  0.337056  0.148248  1
  S  S21  1  0.832007  0.167993  0.613622  1
  S  S22  1  0.335986  0.167993  0.613622  1
  S  S23  1  0.662944  0.831472  0.148248  1
  S  S24  1  0.168528  0.831472  0.148248  1
  S  S25  1  0.832007  0.664014  0.613622  1
