# generated using pymatgen
data_Dy11Er9CoBi8Ir3
_symmetry_space_group_name_H-M   'P 1'
_cell_length_a   7.96098874
_cell_length_b   8.97265900
_cell_length_c   12.46856000
_cell_angle_alpha   90.00000000
_cell_angle_beta   90.18512518
_cell_angle_gamma   90.00000000
_symmetry_Int_Tables_number   1
_chemical_formula_structural   Dy11Er9CoBi8Ir3
_chemical_formula_sum   'Dy11 Er9 Co1 Bi8 Ir3'
_cell_volume   890.64001931
_cell_formula_units_Z   1
loop_
 _symmetry_equiv_pos_site_id
 _symmetry_equiv_pos_as_xyz
  1  'x, y, z'
loop_
 _atom_site_type_symbol
 _atom_site_label
 _atom_site_symmetry_multiplicity
 _atom_site_fract_x
 _atom_site_fract_y
 _atom_site_fract_z
 _atom_site_occupancy
  Dy  Dy0  1  0.657630  0.750000  0.699944  1
  Dy  Dy1  1  0.338755  0.250000  0.292749  1
  Dy  Dy2  1  0.161001  0.250000  0.792901  1
  Dy  Dy3  1  0.839236  0.750000  0.207111  1
  Dy  Dy4  1  0.123447  0.750000  0.807977  1
  Dy  Dy5  1  0.874894  0.250000  0.191580  1
  Dy  Dy6  1  0.624637  0.250000  0.691562  1
  Dy  Dy7  1  0.380388  0.750000  0.314342  1
  Dy  Dy8  1  0.556005  0.750000  0.997426  1
  Dy  Dy9  1  0.447088  0.250000  0.001250  1
  Dy  Dy10  1  0.054915  0.250000  0.501544  1
  Er  Er11  1  0.946770  0.750000  0.498360  1
  Er  Er12  1  0.825825  0.457252  0.933097  1
  Er  Er13  1  0.175318  0.542174  0.066759  1
  Er  Er14  1  0.325413  0.544018  0.565648  1
  Er  Er15  1  0.175318  0.957826  0.066759  1
  Er  Er16  1  0.672848  0.464562  0.435781  1
  Er  Er17  1  0.825825  0.042748  0.933097  1
  Er  Er18  1  0.672848  0.035438  0.435781  1
  Er  Er19  1  0.325413  0.955982  0.565648  1
  Co  Co20  1  0.567622  0.750000  0.492232  1
  Bi  Bi21  1  0.932551  0.008464  0.671938  1
  Bi  Bi22  1  0.066151  0.990665  0.327820  1
  Bi  Bi23  1  0.433979  0.990582  0.826443  1
  Bi  Bi24  1  0.066151  0.509335  0.327820  1
  Bi  Bi25  1  0.565705  0.007935  0.173639  1
  Bi  Bi26  1  0.932551  0.491536  0.671938  1
  Bi  Bi27  1  0.565705  0.492065  0.173639  1
  Bi  Bi28  1  0.433979  0.509418  0.826443  1
  Ir  Ir29  1  0.929718  0.750000  0.991891  1
  Ir  Ir30  1  0.071985  0.250000  0.008896  1
  Ir  Ir31  1  0.430330  0.250000  0.507981  1
