# generated using pymatgen
data_CaAgGePd3
_symmetry_space_group_name_H-M   'P 1'
_cell_length_a   5.14530928
_cell_length_b   5.14530892
_cell_length_c   5.14530758
_cell_angle_alpha   65.68458729
_cell_angle_beta   65.68458844
_cell_angle_gamma   65.68458160
_symmetry_Int_Tables_number   1
_chemical_formula_structural   CaAgGePd3
_chemical_formula_sum   'Ca1 Ag1 Ge1 Pd3'
_cell_volume   108.20425296
_cell_formula_units_Z   1
loop_
 _symmetry_equiv_pos_site_id
 _symmetry_equiv_pos_as_xyz
  1  'x, y, z'
loop_
 _atom_site_type_symbol
 _atom_site_label
 _atom_site_symmetry_multiplicity
 _atom_site_fract_x
 _atom_site_fract_y
 _atom_site_fract_z
 _atom_site_occupancy
  Ca  Ca0  1  0.123718  0.123718  0.123718  1
  Ag  Ag1  1  0.873666  0.873666  0.873666  1
  Ge  Ge2  1  0.500919  0.500919  0.500919  1
  Pd  Pd3  1  0.501224  0.501224  0.999249  1
  Pd  Pd4  1  0.999249  0.501224  0.501224  1
  Pd  Pd5  1  0.501224  0.999249  0.501224  1
