# generated using pymatgen
data_Li12Eu6Si4N
_symmetry_space_group_name_H-M   'P 1'
_cell_length_a   8.61892649
_cell_length_b   8.61892765
_cell_length_c   8.61892700
_cell_angle_alpha   109.47121442
_cell_angle_beta   109.47121713
_cell_angle_gamma   109.47122807
_symmetry_Int_Tables_number   1
_chemical_formula_structural   Li12Eu6Si4N
_chemical_formula_sum   'Li12 Eu6 Si4 N1'
_cell_volume   492.87607291
_cell_formula_units_Z   1
loop_
 _symmetry_equiv_pos_site_id
 _symmetry_equiv_pos_as_xyz
  1  'x, y, z'
loop_
 _atom_site_type_symbol
 _atom_site_label
 _atom_site_symmetry_multiplicity
 _atom_site_fract_x
 _atom_site_fract_y
 _atom_site_fract_z
 _atom_site_occupancy
  Li  Li0  1  0.652551  0.326276  0.326276  1
  Li  Li1  1  0.326276  0.000000  0.673724  1
  Li  Li2  1  0.326276  0.652551  0.326276  1
  Li  Li3  1  0.326276  0.326276  0.652551  1
  Li  Li4  1  0.326276  0.673724  0.000000  1
  Li  Li5  1  0.000000  0.326276  0.673724  1
  Li  Li6  1  0.000000  0.673724  0.326276  1
  Li  Li7  1  0.673724  0.673724  0.347449  1
  Li  Li8  1  0.673724  0.000000  0.326276  1
  Li  Li9  1  0.673724  0.326276  0.000000  1
  Li  Li10  1  0.673724  0.347449  0.673724  1
  Li  Li11  1  0.347449  0.673724  0.673724  1
  Eu  Eu12  1  0.000000  0.252384  0.252384  1
  Eu  Eu13  1  0.252384  0.000000  0.252384  1
  Eu  Eu14  1  0.747616  0.000000  0.747616  1
  Eu  Eu15  1  0.747616  0.747616  0.000000  1
  Eu  Eu16  1  0.252384  0.252384  0.000000  1
  Eu  Eu17  1  0.000000  0.747616  0.747616  1
  Si  Si18  1  0.500000  0.500000  0.500000  1
  Si  Si19  1  0.500000  0.000000  0.000000  1
  Si  Si20  1  0.000000  0.500000  0.000000  1
  Si  Si21  1  0.000000  0.000000  0.500000  1
  N  N22  1  0.000000  0.000000  0.000000  1
