# generated using pymatgen
data_Dy20(NiRh3)3
_symmetry_space_group_name_H-M   'P 1'
_cell_length_a   10.89593735
_cell_length_b   10.89593671
_cell_length_c   6.31489252
_cell_angle_alpha   89.85793416
_cell_angle_beta   89.85793195
_cell_angle_gamma   90.10749793
_symmetry_Int_Tables_number   1
_chemical_formula_structural   Dy20(NiRh3)3
_chemical_formula_sum   'Dy20 Ni3 Rh9'
_cell_volume   749.70721914
_cell_formula_units_Z   1
loop_
 _symmetry_equiv_pos_site_id
 _symmetry_equiv_pos_as_xyz
  1  'x, y, z'
loop_
 _atom_site_type_symbol
 _atom_site_label
 _atom_site_symmetry_multiplicity
 _atom_site_fract_x
 _atom_site_fract_y
 _atom_site_fract_z
 _atom_site_occupancy
  Dy  Dy0  1  0.292488  0.089899  0.378571  1
  Dy  Dy1  1  0.292870  0.909903  0.879102  1
  Dy  Dy2  1  0.707645  0.089308  0.878710  1
  Dy  Dy3  1  0.707238  0.910090  0.379046  1
  Dy  Dy4  1  0.589187  0.790796  0.881382  1
  Dy  Dy5  1  0.589674  0.209602  0.378212  1
  Dy  Dy6  1  0.410048  0.790603  0.381343  1
  Dy  Dy7  1  0.411351  0.210186  0.879273  1
  Dy  Dy8  1  0.209204  0.410813  0.618618  1
  Dy  Dy9  1  0.209397  0.589952  0.118657  1
  Dy  Dy10  1  0.790398  0.410326  0.121788  1
  Dy  Dy11  1  0.789814  0.588649  0.620727  1
  Dy  Dy12  1  0.910101  0.707512  0.121429  1
  Dy  Dy13  1  0.910692  0.292355  0.621290  1
  Dy  Dy14  1  0.090097  0.707130  0.620898  1
  Dy  Dy15  1  0.089910  0.292762  0.120954  1
  Dy  Dy16  1  0.000273  0.999971  0.500061  1
  Dy  Dy17  1  0.000029  0.999727  0.999939  1
  Dy  Dy18  1  0.498957  0.501814  0.001791  1
  Dy  Dy19  1  0.498186  0.501043  0.498209  1
  Ni  Ni20  1  0.651983  0.652706  0.250180  1
  Ni  Ni21  1  0.347294  0.348017  0.249820  1
  Ni  Ni22  1  0.348075  0.651925  0.750000  1
  Rh  Rh23  1  0.845715  0.154285  0.250000  1
  Rh  Rh24  1  0.844513  0.844060  0.749679  1
  Rh  Rh25  1  0.155940  0.155487  0.750321  1
  Rh  Rh26  1  0.155575  0.844425  0.250000  1
  Rh  Rh27  1  0.652628  0.347372  0.750000  1
  Rh  Rh28  1  0.499477  0.999119  0.125525  1
  Rh  Rh29  1  0.499809  0.999452  0.624568  1
  Rh  Rh30  1  0.000548  0.500191  0.875432  1
  Rh  Rh31  1  0.000881  0.500523  0.374475  1
