# generated using pymatgen
data_Dy4Y2Mn3(Co5P4)3
_symmetry_space_group_name_H-M   'P 1'
_cell_length_a   3.70428900
_cell_length_b   10.54622300
_cell_length_c   12.17994800
_cell_angle_alpha   90.00000000
_cell_angle_beta   90.00000000
_cell_angle_gamma   90.00000000
_symmetry_Int_Tables_number   1
_chemical_formula_structural   Dy4Y2Mn3(Co5P4)3
_chemical_formula_sum   'Dy4 Y2 Mn3 Co15 P12'
_cell_volume   475.82498917
_cell_formula_units_Z   1
loop_
 _symmetry_equiv_pos_site_id
 _symmetry_equiv_pos_as_xyz
  1  'x, y, z'
loop_
 _atom_site_type_symbol
 _atom_site_label
 _atom_site_symmetry_multiplicity
 _atom_site_fract_x
 _atom_site_fract_y
 _atom_site_fract_z
 _atom_site_occupancy
  Dy  Dy0  1  0.500000  0.818673  0.204749  1
  Dy  Dy1  1  0.500000  0.181327  0.204749  1
  Dy  Dy2  1  0.000000  0.680537  0.795816  1
  Dy  Dy3  1  0.000000  0.319463  0.795816  1
  Y  Y4  1  0.000000  0.500000  0.523473  1
  Y  Y5  1  0.500000  0.000000  0.477390  1
  Mn  Mn6  1  0.500000  0.500000  0.154337  1
  Mn  Mn7  1  0.000000  0.000000  0.841604  1
  Mn  Mn8  1  0.000000  0.500000  0.988749  1
  Co  Co9  1  0.500000  0.500000  0.699995  1
  Co  Co10  1  0.000000  0.000000  0.297552  1
  Co  Co11  1  0.500000  0.000000  0.013260  1
  Co  Co12  1  0.500000  0.330394  0.994336  1
  Co  Co13  1  0.500000  0.669606  0.994336  1
  Co  Co14  1  0.000000  0.164944  0.005011  1
  Co  Co15  1  0.000000  0.835056  0.005011  1
  Co  Co16  1  0.500000  0.295870  0.430526  1
  Co  Co17  1  0.500000  0.704130  0.430526  1
  Co  Co18  1  0.000000  0.203457  0.570100  1
  Co  Co19  1  0.000000  0.796543  0.570100  1
  Co  Co20  1  0.500000  0.879774  0.709625  1
  Co  Co21  1  0.500000  0.120226  0.709625  1
  Co  Co22  1  0.000000  0.621251  0.291458  1
  Co  Co23  1  0.000000  0.378749  0.291458  1
  P  P24  1  0.500000  0.500000  0.882799  1
  P  P25  1  0.000000  0.000000  0.117223  1
  P  P26  1  0.500000  0.500000  0.345904  1
  P  P27  1  0.000000  0.000000  0.655307  1
  P  P28  1  0.500000  0.310208  0.616665  1
  P  P29  1  0.500000  0.689792  0.616665  1
  P  P30  1  0.000000  0.188875  0.384025  1
  P  P31  1  0.000000  0.811125  0.384025  1
  P  P32  1  0.500000  0.847162  0.892875  1
  P  P33  1  0.500000  0.152838  0.892875  1
  P  P34  1  0.000000  0.655105  0.106016  1
  P  P35  1  0.000000  0.344895  0.106016  1
