# generated using pymatgen
data_GdTlBr4
_symmetry_space_group_name_H-M   'P 1'
_cell_length_a   7.70360700
_cell_length_b   7.31258000
_cell_length_c   18.75007900
_cell_angle_alpha   90.00000000
_cell_angle_beta   90.00000000
_cell_angle_gamma   90.00000000
_symmetry_Int_Tables_number   1
_chemical_formula_structural   GdTlBr4
_chemical_formula_sum   'Gd4 Tl4 Br16'
_cell_volume   1056.25274675
_cell_formula_units_Z   4
loop_
 _symmetry_equiv_pos_site_id
 _symmetry_equiv_pos_as_xyz
  1  'x, y, z'
loop_
 _atom_site_type_symbol
 _atom_site_label
 _atom_site_symmetry_multiplicity
 _atom_site_fract_x
 _atom_site_fract_y
 _atom_site_fract_z
 _atom_site_occupancy
  Gd  Gd0  1  0.000000  0.250000  0.067334  1
  Gd  Gd1  1  0.500000  0.250000  0.567334  1
  Gd  Gd2  1  0.000000  0.750000  0.932666  1
  Gd  Gd3  1  0.500000  0.750000  0.432666  1
  Tl  Tl4  1  0.000000  0.250000  0.313692  1
  Tl  Tl5  1  0.500000  0.750000  0.186308  1
  Tl  Tl6  1  0.000000  0.750000  0.686308  1
  Tl  Tl7  1  0.500000  0.250000  0.813692  1
  Br  Br8  1  0.281570  0.617989  0.325925  1
  Br  Br9  1  0.793573  0.428528  0.955387  1
  Br  Br10  1  0.293573  0.571472  0.544613  1
  Br  Br11  1  0.706427  0.928528  0.544613  1
  Br  Br12  1  0.781570  0.382011  0.174075  1
  Br  Br13  1  0.218430  0.617989  0.825925  1
  Br  Br14  1  0.718430  0.882011  0.325925  1
  Br  Br15  1  0.218430  0.117989  0.174075  1
  Br  Br16  1  0.281570  0.117989  0.674075  1
  Br  Br17  1  0.718430  0.382011  0.674075  1
  Br  Br18  1  0.206427  0.571472  0.044613  1
  Br  Br19  1  0.781570  0.882011  0.825925  1
  Br  Br20  1  0.793573  0.928528  0.044613  1
  Br  Br21  1  0.293573  0.071472  0.455387  1
  Br  Br22  1  0.706427  0.428528  0.455387  1
  Br  Br23  1  0.206427  0.071472  0.955387  1
