# generated using pymatgen
data_Li6YPu2N6
_symmetry_space_group_name_H-M   'P 1'
_cell_length_a   6.00777200
_cell_length_b   6.00777372
_cell_length_c   5.46562200
_cell_angle_alpha   90.00000000
_cell_angle_beta   90.00000000
_cell_angle_gamma   120.00001257
_symmetry_Int_Tables_number   1
_chemical_formula_structural   Li6YPu2N6
_chemical_formula_sum   'Li6 Y1 Pu2 N6'
_cell_volume   170.84299587
_cell_formula_units_Z   1
loop_
 _symmetry_equiv_pos_site_id
 _symmetry_equiv_pos_as_xyz
  1  'x, y, z'
loop_
 _atom_site_type_symbol
 _atom_site_label
 _atom_site_symmetry_multiplicity
 _atom_site_fract_x
 _atom_site_fract_y
 _atom_site_fract_z
 _atom_site_occupancy
  Li  Li0  1  0.989782  0.659411  0.608614  1
  Li  Li1  1  0.340589  0.330371  0.608614  1
  Li  Li2  1  0.669629  0.010218  0.608614  1
  Li  Li3  1  0.010218  0.340589  0.391386  1
  Li  Li4  1  0.659411  0.669629  0.391386  1
  Li  Li5  1  0.330371  0.989782  0.391386  1
  Y  Y6  1  0.000000  0.000000  0.000000  1
  Pu  Pu7  1  0.333333  0.666667  0.996235  1
  Pu  Pu8  1  0.666667  0.333333  0.003765  1
  N  N9  1  0.001008  0.652446  0.223530  1
  N  N10  1  0.347554  0.348562  0.223530  1
  N  N11  1  0.651438  0.998992  0.223530  1
  N  N12  1  0.998992  0.347554  0.776470  1
  N  N13  1  0.652446  0.651438  0.776470  1
  N  N14  1  0.348562  0.001008  0.776470  1
