# generated using pymatgen
data_AcGe3Ru
_symmetry_space_group_name_H-M   'P 1'
_cell_length_a   6.06879530
_cell_length_b   6.06879541
_cell_length_c   6.06879612
_cell_angle_alpha   136.13632406
_cell_angle_beta   136.13632933
_cell_angle_gamma   63.76963840
_symmetry_Int_Tables_number   1
_chemical_formula_structural   AcGe3Ru
_chemical_formula_sum   'Ac1 Ge3 Ru1'
_cell_volume   105.90614947
_cell_formula_units_Z   1
loop_
 _symmetry_equiv_pos_site_id
 _symmetry_equiv_pos_as_xyz
  1  'x, y, z'
loop_
 _atom_site_type_symbol
 _atom_site_label
 _atom_site_symmetry_multiplicity
 _atom_site_fract_x
 _atom_site_fract_y
 _atom_site_fract_z
 _atom_site_occupancy
  Ac  Ac0  1  0.000766  0.000766  0.000000  1
  Ge  Ge1  1  0.423775  0.423775  0.000000  1
  Ge  Ge2  1  0.258710  0.758710  0.500000  1
  Ge  Ge3  1  0.758710  0.258710  0.500000  1
  Ru  Ru4  1  0.659039  0.659039  0.000000  1
