# generated using pymatgen
data_Ce7GdPa2O20
_symmetry_space_group_name_H-M   'P 1'
_cell_length_a   6.68021342
_cell_length_b   7.73287085
_cell_length_c   8.64270109
_cell_angle_alpha   102.95196831
_cell_angle_beta   97.27549313
_cell_angle_gamma   106.83583167
_symmetry_Int_Tables_number   1
_chemical_formula_structural   Ce7GdPa2O20
_chemical_formula_sum   'Ce7 Gd1 Pa2 O20'
_cell_volume   407.57440385
_cell_formula_units_Z   1
loop_
 _symmetry_equiv_pos_site_id
 _symmetry_equiv_pos_as_xyz
  1  'x, y, z'
loop_
 _atom_site_type_symbol
 _atom_site_label
 _atom_site_symmetry_multiplicity
 _atom_site_fract_x
 _atom_site_fract_y
 _atom_site_fract_z
 _atom_site_occupancy
  Ce  Ce0  1  0.002056  0.500948  0.000943  1
  Ce  Ce1  1  0.800811  0.100147  0.602846  1
  Ce  Ce2  1  0.199559  0.398962  0.398704  1
  Ce  Ce3  1  0.601888  0.700930  0.198205  1
  Ce  Ce4  1  0.395615  0.298194  0.799667  1
  Ce  Ce5  1  0.199677  0.899858  0.398344  1
  Ce  Ce6  1  0.400186  0.801099  0.800961  1
  Gd  Gd7  1  0.000090  0.999931  0.000142  1
  Pa  Pa8  1  0.800810  0.601933  0.602410  1
  Pa  Pa9  1  0.599312  0.198039  0.197814  1
  O  O10  1  0.842582  0.329114  0.449750  1
  O  O11  1  0.645230  0.931599  0.053550  1
  O  O12  1  0.949223  0.772487  0.152296  1
  O  O13  1  0.457653  0.526783  0.645719  1
  O  O14  1  0.846918  0.818522  0.455067  1
  O  O15  1  0.264506  0.130758  0.250590  1
  O  O16  1  0.749588  0.381938  0.746431  1
  O  O17  1  0.646779  0.417911  0.053177  1
  O  O18  1  0.555536  0.982061  0.346651  1
  O  O19  1  0.449744  0.023832  0.649596  1
  O  O20  1  0.044890  0.719725  0.841786  1
  O  O21  1  0.939740  0.275438  0.155812  1
  O  O22  1  0.352693  0.576513  0.948944  1
  O  O23  1  0.255248  0.624597  0.251914  1
  O  O24  1  0.748216  0.865640  0.744979  1
  O  O25  1  0.559149  0.472339  0.352157  1
  O  O26  1  0.145970  0.174718  0.546931  1
  O  O27  1  0.048378  0.227628  0.849089  1
  O  O28  1  0.358678  0.077742  0.954930  1
  O  O29  1  0.139274  0.670616  0.550598  1
