# generated using pymatgen
data_Ti3Al3(Cu2Ru)2
_symmetry_space_group_name_H-M   'P 1'
_cell_length_a   4.27390800
_cell_length_b   6.10771000
_cell_length_c   12.79348100
_cell_angle_alpha   90.00000000
_cell_angle_beta   90.00005368
_cell_angle_gamma   90.00000000
_symmetry_Int_Tables_number   1
_chemical_formula_structural   Ti3Al3(Cu2Ru)2
_chemical_formula_sum   'Ti6 Al6 Cu8 Ru4'
_cell_volume   333.95834946
_cell_formula_units_Z   2
loop_
 _symmetry_equiv_pos_site_id
 _symmetry_equiv_pos_as_xyz
  1  'x, y, z'
loop_
 _atom_site_type_symbol
 _atom_site_label
 _atom_site_symmetry_multiplicity
 _atom_site_fract_x
 _atom_site_fract_y
 _atom_site_fract_z
 _atom_site_occupancy
  Ti  Ti0  1  0.999988  0.000000  0.998139  1
  Ti  Ti1  1  0.499849  0.499999  0.170766  1
  Ti  Ti2  1  0.999830  0.000000  0.329314  1
  Ti  Ti3  1  0.500011  0.499999  0.501841  1
  Ti  Ti4  1  0.000170  0.000000  0.670400  1
  Ti  Ti5  1  0.500181  0.499999  0.829555  1
  Al  Al6  1  0.999975  0.499999  0.001146  1
  Al  Al7  1  0.499861  0.000000  0.163298  1
  Al  Al8  1  0.999845  0.499999  0.336697  1
  Al  Al9  1  0.500000  0.000000  0.498917  1
  Al  Al10  1  0.000169  0.499999  0.666326  1
  Al  Al11  1  0.500182  0.000000  0.833617  1
  Cu  Cu12  1  0.499961  0.256154  0.998456  1
  Cu  Cu13  1  0.499961  0.743847  0.998456  1
  Cu  Cu14  1  0.999877  0.253433  0.167942  1
  Cu  Cu15  1  0.999877  0.746565  0.167942  1
  Cu  Cu16  1  0.499793  0.246067  0.332214  1
  Cu  Cu17  1  0.499793  0.753932  0.332214  1
  Cu  Cu18  1  0.999994  0.243797  0.501414  1
  Cu  Cu19  1  0.999994  0.756203  0.501414  1
  Ru  Ru20  1  0.500167  0.253018  0.663462  1
  Ru  Ru21  1  0.500167  0.746981  0.663462  1
  Ru  Ru22  1  0.000177  0.246990  0.836505  1
  Ru  Ru23  1  0.000177  0.753008  0.836505  1
