# generated using pymatgen
data_Zr4In2Pd3Rh
_symmetry_space_group_name_H-M   'P 1'
_cell_length_a   7.59984932
_cell_length_b   7.59984882
_cell_length_c   3.39733700
_cell_angle_alpha   90.00000000
_cell_angle_beta   90.00000000
_cell_angle_gamma   90.02692956
_symmetry_Int_Tables_number   1
_chemical_formula_structural   Zr4In2Pd3Rh
_chemical_formula_sum   'Zr4 In2 Pd3 Rh1'
_cell_volume   196.22236978
_cell_formula_units_Z   1
loop_
 _symmetry_equiv_pos_site_id
 _symmetry_equiv_pos_as_xyz
  1  'x, y, z'
loop_
 _atom_site_type_symbol
 _atom_site_label
 _atom_site_symmetry_multiplicity
 _atom_site_fract_x
 _atom_site_fract_y
 _atom_site_fract_z
 _atom_site_occupancy
  Zr  Zr0  1  0.177342  0.322658  0.000000  1
  Zr  Zr1  1  0.833156  0.666844  0.000000  1
  Zr  Zr2  1  0.658880  0.174022  0.000000  1
  Zr  Zr3  1  0.325978  0.841120  0.000000  1
  In  In4  1  0.997325  0.000448  0.500000  1
  In  In5  1  0.499552  0.502675  0.500000  1
  Pd  Pd6  1  0.631243  0.868757  0.500000  1
  Pd  Pd7  1  0.873381  0.370224  0.500000  1
  Pd  Pd8  1  0.129776  0.626619  0.500000  1
  Rh  Rh9  1  0.373366  0.126634  0.500000  1
