# generated using pymatgen
data_Dy3Y4ErPt4
_symmetry_space_group_name_H-M   'P 1'
_cell_length_a   4.76635000
_cell_length_b   7.17633794
_cell_length_c   8.81256451
_cell_angle_alpha   89.95119157
_cell_angle_beta   90.00000000
_cell_angle_gamma   90.00000000
_symmetry_Int_Tables_number   1
_chemical_formula_structural   Dy3Y4ErPt4
_chemical_formula_sum   'Dy3 Y4 Er1 Pt4'
_cell_volume   301.43311632
_cell_formula_units_Z   1
loop_
 _symmetry_equiv_pos_site_id
 _symmetry_equiv_pos_as_xyz
  1  'x, y, z'
loop_
 _atom_site_type_symbol
 _atom_site_label
 _atom_site_symmetry_multiplicity
 _atom_site_fract_x
 _atom_site_fract_y
 _atom_site_fract_z
 _atom_site_occupancy
  Dy  Dy0  1  0.250000  0.855408  0.919941  1
  Dy  Dy1  1  0.250000  0.355572  0.579723  1
  Dy  Dy2  1  0.750000  0.144795  0.080143  1
  Y  Y3  1  0.250000  0.989560  0.331648  1
  Y  Y4  1  0.250000  0.490158  0.168642  1
  Y  Y5  1  0.750000  0.009833  0.668832  1
  Y  Y6  1  0.750000  0.510428  0.831107  1
  Er  Er7  1  0.750000  0.644631  0.420126  1
  Pt  Pt8  1  0.250000  0.257228  0.906269  1
  Pt  Pt9  1  0.250000  0.756884  0.593626  1
  Pt  Pt10  1  0.750000  0.742825  0.093718  1
  Pt  Pt11  1  0.750000  0.242675  0.406225  1
