# generated using pymatgen
data_Al2Ni8Mo13WC4
_symmetry_space_group_name_H-M   'P 1'
_cell_length_a   8.02976342
_cell_length_b   7.96327550
_cell_length_c   7.96366322
_cell_angle_alpha   59.51403382
_cell_angle_beta   59.71655249
_cell_angle_gamma   59.71392506
_symmetry_Int_Tables_number   1
_chemical_formula_structural   Al2Ni8Mo13WC4
_chemical_formula_sum   'Al2 Ni8 Mo13 W1 C4'
_cell_volume   357.19299552
_cell_formula_units_Z   1
loop_
 _symmetry_equiv_pos_site_id
 _symmetry_equiv_pos_as_xyz
  1  'x, y, z'
loop_
 _atom_site_type_symbol
 _atom_site_label
 _atom_site_symmetry_multiplicity
 _atom_site_fract_x
 _atom_site_fract_y
 _atom_site_fract_z
 _atom_site_occupancy
  Al  Al0  1  0.125000  0.125000  0.625000  1
  Al  Al1  1  0.125000  0.625000  0.125000  1
  Ni  Ni2  1  0.921932  0.912057  0.243905  1
  Ni  Ni3  1  0.327678  0.336644  0.336703  1
  Ni  Ni4  1  0.251127  0.913228  0.913189  1
  Ni  Ni5  1  0.328005  0.006094  0.338095  1
  Ni  Ni6  1  0.998873  0.336772  0.336811  1
  Ni  Ni7  1  0.328068  0.337943  0.006095  1
  Ni  Ni8  1  0.922322  0.913356  0.913297  1
  Ni  Ni9  1  0.921995  0.243906  0.911905  1
  Mo  Mo10  1  0.693219  0.306651  0.306662  1
  Mo  Mo11  1  0.935953  0.938280  0.559396  1
  Mo  Mo12  1  0.683621  0.690855  0.311627  1
  Mo  Mo13  1  0.683680  0.311595  0.690844  1
  Mo  Mo14  1  0.314071  0.690614  0.311753  1
  Mo  Mo15  1  0.566320  0.938405  0.559156  1
  Mo  Mo16  1  0.556781  0.943349  0.943338  1
  Mo  Mo17  1  0.932871  0.567099  0.567090  1
  Mo  Mo18  1  0.935929  0.559386  0.938247  1
  Mo  Mo19  1  0.314047  0.311720  0.690604  1
  Mo  Mo20  1  0.566379  0.559145  0.938373  1
  Mo  Mo21  1  0.625000  0.125000  0.125000  1
  Mo  Mo22  1  0.317129  0.682901  0.682910  1
  W  W23  1  0.125000  0.125000  0.125000  1
  C  C24  1  0.625000  0.625000  0.625000  1
  C  C25  1  0.625000  0.625000  0.125000  1
  C  C26  1  0.125000  0.625000  0.625000  1
  C  C27  1  0.625000  0.125000  0.625000  1
