# generated using pymatgen
data_Tm3Lu(Pa2Ga5)4
_symmetry_space_group_name_H-M   'P 1'
_cell_length_a   6.04922302
_cell_length_b   9.48490100
_cell_length_c   11.63531603
_cell_angle_alpha   90.00000000
_cell_angle_beta   90.00827057
_cell_angle_gamma   90.00000000
_symmetry_Int_Tables_number   1
_chemical_formula_structural   Tm3Lu(Pa2Ga5)4
_chemical_formula_sum   'Tm3 Lu1 Pa8 Ga20'
_cell_volume   667.59116014
_cell_formula_units_Z   1
loop_
 _symmetry_equiv_pos_site_id
 _symmetry_equiv_pos_as_xyz
  1  'x, y, z'
loop_
 _atom_site_type_symbol
 _atom_site_label
 _atom_site_symmetry_multiplicity
 _atom_site_fract_x
 _atom_site_fract_y
 _atom_site_fract_z
 _atom_site_occupancy
  Tm  Tm0  1  0.643076  0.750000  0.572113  1
  Tm  Tm1  1  0.143073  0.250000  0.927914  1
  Tm  Tm2  1  0.356855  0.250000  0.427929  1
  Lu  Lu3  1  0.856557  0.750000  0.072177  1
  Pa  Pa4  1  0.880679  0.502512  0.352182  1
  Pa  Pa5  1  0.619352  0.997398  0.852317  1
  Pa  Pa6  1  0.119301  0.002506  0.647805  1
  Pa  Pa7  1  0.380757  0.497577  0.147750  1
  Pa  Pa8  1  0.119301  0.497494  0.647805  1
  Pa  Pa9  1  0.380757  0.002423  0.147750  1
  Pa  Pa10  1  0.880679  0.997488  0.352182  1
  Pa  Pa11  1  0.619352  0.502602  0.852317  1
  Ga  Ga12  1  0.872826  0.050977  0.090384  1
  Ga  Ga13  1  0.627192  0.448464  0.590561  1
  Ga  Ga14  1  0.127033  0.551616  0.909576  1
  Ga  Ga15  1  0.372803  0.948447  0.409524  1
  Ga  Ga16  1  0.127033  0.948384  0.909576  1
  Ga  Ga17  1  0.372803  0.551553  0.409524  1
  Ga  Ga18  1  0.872826  0.449023  0.090384  1
  Ga  Ga19  1  0.627192  0.051536  0.590561  1
  Ga  Ga20  1  0.154144  0.750000  0.262992  1
  Ga  Ga21  1  0.345396  0.750000  0.763414  1
  Ga  Ga22  1  0.845350  0.250000  0.736653  1
  Ga  Ga23  1  0.654653  0.250000  0.236657  1
  Ga  Ga24  1  0.392305  0.750000  0.994050  1
  Ga  Ga25  1  0.108445  0.750000  0.494018  1
  Ga  Ga26  1  0.608507  0.250000  0.005977  1
  Ga  Ga27  1  0.891628  0.250000  0.506034  1
  Ga  Ga28  1  0.596320  0.750000  0.291329  1
  Ga  Ga29  1  0.903839  0.750000  0.791716  1
  Ga  Ga30  1  0.403861  0.250000  0.708432  1
  Ga  Ga31  1  0.096108  0.250000  0.208398  1
