# generated using pymatgen
data_LiDyPa2Ge6Ir7
_symmetry_space_group_name_H-M   'P 1'
_cell_length_a   7.29205142
_cell_length_b   7.20426946
_cell_length_c   7.22803977
_cell_angle_alpha   109.11188902
_cell_angle_beta   109.60561480
_cell_angle_gamma   109.80880768
_symmetry_Int_Tables_number   1
_chemical_formula_structural   LiDyPa2Ge6Ir7
_chemical_formula_sum   'Li1 Dy1 Pa2 Ge6 Ir7'
_cell_volume   291.89075413
_cell_formula_units_Z   1
loop_
 _symmetry_equiv_pos_site_id
 _symmetry_equiv_pos_as_xyz
  1  'x, y, z'
loop_
 _atom_site_type_symbol
 _atom_site_label
 _atom_site_symmetry_multiplicity
 _atom_site_fract_x
 _atom_site_fract_y
 _atom_site_fract_z
 _atom_site_occupancy
  Li  Li0  1  0.500000  0.000000  0.000000  1
  Dy  Dy1  1  0.000000  0.500000  0.000000  1
  Pa  Pa2  1  0.000000  0.000000  0.500000  1
  Pa  Pa3  1  0.500000  0.500000  0.500000  1
  Ge  Ge4  1  0.679782  0.693074  0.000000  1
  Ge  Ge5  1  0.321472  0.994826  0.301685  1
  Ge  Ge6  1  0.980212  0.306859  0.301685  1
  Ge  Ge7  1  0.320218  0.306926  0.000000  1
  Ge  Ge8  1  0.678528  0.005174  0.698315  1
  Ge  Ge9  1  0.019788  0.693141  0.698315  1
  Ir  Ir10  1  0.748484  0.248484  0.496969  1
  Ir  Ir11  1  0.748801  0.503811  0.254362  1
  Ir  Ir12  1  0.494439  0.249449  0.745638  1
  Ir  Ir13  1  0.251199  0.496189  0.745638  1
  Ir  Ir14  1  0.251516  0.751516  0.503031  1
  Ir  Ir15  1  0.505561  0.750551  0.254362  1
  Ir  Ir16  1  0.000000  0.000000  0.000000  1
