# generated using pymatgen
data_Tc(SeCl6)2
_symmetry_space_group_name_H-M   'P 1'
_cell_length_a   12.82191313
_cell_length_b   12.64290294
_cell_length_c   8.94452148
_cell_angle_alpha   70.51259120
_cell_angle_beta   68.36596092
_cell_angle_gamma   41.12518732
_symmetry_Int_Tables_number   1
_chemical_formula_structural   Tc(SeCl6)2
_chemical_formula_sum   'Tc2 Se4 Cl24'
_cell_volume   882.76106278
_cell_formula_units_Z   2
loop_
 _symmetry_equiv_pos_site_id
 _symmetry_equiv_pos_as_xyz
  1  'x, y, z'
loop_
 _atom_site_type_symbol
 _atom_site_label
 _atom_site_symmetry_multiplicity
 _atom_site_fract_x
 _atom_site_fract_y
 _atom_site_fract_z
 _atom_site_occupancy
  Tc  Tc0  1  0.834955  0.834962  0.665044  1
  Tc  Tc1  1  0.584964  0.584955  0.415041  1
  Se  Se2  1  0.026643  0.477297  0.013438  1
  Se  Se3  1  0.236570  0.767408  0.223377  1
  Se  Se4  1  0.767413  0.236544  0.772726  1
  Se  Se5  1  0.477287  0.026670  0.482565  1
  Cl  Cl6  1  0.358723  0.794720  0.991625  1
  Cl  Cl7  1  0.995533  0.018958  0.214566  1
  Cl  Cl8  1  0.695860  0.622232  0.152459  1
  Cl  Cl9  1  0.258370  0.395069  0.891278  1
  Cl  Cl10  1  0.571030  0.944228  0.773938  1
  Cl  Cl11  1  0.720546  0.097535  0.627772  1
  Cl  Cl12  1  0.649902  0.207204  0.012313  1
  Cl  Cl13  1  0.322121  0.843358  0.379626  1
  Cl  Cl14  1  0.395067  0.258379  0.455275  1
  Cl  Cl15  1  0.479067  0.035414  0.230983  1
  Cl  Cl16  1  0.870374  0.795115  0.927888  1
  Cl  Cl17  1  0.539164  0.476093  0.305789  1
  Cl  Cl18  1  0.119414  0.237691  0.042795  1
  Cl  Cl19  1  0.207206  0.649900  0.130588  1
  Cl  Cl20  1  0.097538  0.720547  0.554141  1
  Cl  Cl21  1  0.795115  0.870368  0.406625  1
  Cl  Cl22  1  0.035422  0.479061  0.254516  1
  Cl  Cl23  1  0.944231  0.571024  0.710809  1
  Cl  Cl24  1  0.476086  0.539176  0.678945  1
  Cl  Cl25  1  0.843358  0.322117  0.454895  1
  Cl  Cl26  1  0.622223  0.695867  0.529445  1
  Cl  Cl27  1  0.794720  0.358730  0.854938  1
  Cl  Cl28  1  0.018968  0.995521  0.770948  1
  Cl  Cl29  1  0.237690  0.119417  0.600093  1
