# generated using pymatgen
data_HoMg(ZnNi)2
_symmetry_space_group_name_H-M   'P 1'
_cell_length_a   5.08022193
_cell_length_b   5.08022183
_cell_length_c   5.08022244
_cell_angle_alpha   119.77066196
_cell_angle_beta   118.44512554
_cell_angle_gamma   91.55598316
_symmetry_Int_Tables_number   1
_chemical_formula_structural   HoMg(ZnNi)2
_chemical_formula_sum   'Ho1 Mg1 Zn2 Ni2'
_cell_volume   93.90884271
_cell_formula_units_Z   1
loop_
 _symmetry_equiv_pos_site_id
 _symmetry_equiv_pos_as_xyz
  1  'x, y, z'
loop_
 _atom_site_type_symbol
 _atom_site_label
 _atom_site_symmetry_multiplicity
 _atom_site_fract_x
 _atom_site_fract_y
 _atom_site_fract_z
 _atom_site_occupancy
  Ho  Ho0  1  0.006808  0.006808  0.000000  1
  Mg  Mg1  1  0.248544  0.748544  0.500000  1
  Zn  Zn2  1  0.623085  0.871768  0.248685  1
  Zn  Zn3  1  0.623085  0.374400  0.751315  1
  Ni  Ni4  1  0.127879  0.374240  0.753639  1
  Ni  Ni5  1  0.620601  0.374240  0.246361  1
