# generated using pymatgen
data_Tm8Ga12Ag3Pt
_symmetry_space_group_name_H-M   'P 1'
_cell_length_a   6.95811400
_cell_length_b   8.88716691
_cell_length_c   8.88716600
_cell_angle_alpha   120.00000405
_cell_angle_beta   90.00000000
_cell_angle_gamma   90.00000000
_symmetry_Int_Tables_number   1
_chemical_formula_structural   Tm8Ga12Ag3Pt
_chemical_formula_sum   'Tm8 Ga12 Ag3 Pt1'
_cell_volume   475.93624843
_cell_formula_units_Z   1
loop_
 _symmetry_equiv_pos_site_id
 _symmetry_equiv_pos_as_xyz
  1  'x, y, z'
loop_
 _atom_site_type_symbol
 _atom_site_label
 _atom_site_symmetry_multiplicity
 _atom_site_fract_x
 _atom_site_fract_y
 _atom_site_fract_z
 _atom_site_occupancy
  Tm  Tm0  1  0.745982  0.000000  0.000000  1
  Tm  Tm1  1  0.252371  0.000000  0.000000  1
  Tm  Tm2  1  0.748170  0.488768  0.511232  1
  Tm  Tm3  1  0.252406  0.518447  0.481553  1
  Tm  Tm4  1  0.748170  0.022462  0.511232  1
  Tm  Tm5  1  0.252406  0.963106  0.481553  1
  Tm  Tm6  1  0.748170  0.488768  0.977538  1
  Tm  Tm7  1  0.252406  0.518447  0.036894  1
  Ga  Ga8  1  0.965224  0.836445  0.163555  1
  Ga  Ga9  1  0.039971  0.165311  0.834689  1
  Ga  Ga10  1  0.965224  0.327110  0.163555  1
  Ga  Ga11  1  0.464418  0.165152  0.834848  1
  Ga  Ga12  1  0.039971  0.669377  0.834689  1
  Ga  Ga13  1  0.538989  0.833461  0.166539  1
  Ga  Ga14  1  0.965224  0.836445  0.672890  1
  Ga  Ga15  1  0.464418  0.669694  0.834848  1
  Ga  Ga16  1  0.039971  0.165311  0.330623  1
  Ga  Ga17  1  0.538989  0.333078  0.166539  1
  Ga  Ga18  1  0.464418  0.165152  0.330306  1
  Ga  Ga19  1  0.538989  0.833461  0.666922  1
  Ag  Ag20  1  0.950253  0.666667  0.333333  1
  Ag  Ag21  1  0.033562  0.333333  0.666667  1
  Ag  Ag22  1  0.471341  0.333333  0.666667  1
  Pt  Pt23  1  0.518961  0.666667  0.333333  1
