# generated using pymatgen
data_Tm8Zr12Si15Ge
_symmetry_space_group_name_H-M   'P 1'
_cell_length_a   7.09808846
_cell_length_b   7.27479829
_cell_length_c   13.90455781
_cell_angle_alpha   90.02425087
_cell_angle_beta   89.85470606
_cell_angle_gamma   90.01514644
_symmetry_Int_Tables_number   1
_chemical_formula_structural   Tm8Zr12Si15Ge
_chemical_formula_sum   'Tm8 Zr12 Si15 Ge1'
_cell_volume   717.98950323
_cell_formula_units_Z   1
loop_
 _symmetry_equiv_pos_site_id
 _symmetry_equiv_pos_as_xyz
  1  'x, y, z'
loop_
 _atom_site_type_symbol
 _atom_site_label
 _atom_site_symmetry_multiplicity
 _atom_site_fract_x
 _atom_site_fract_y
 _atom_site_fract_z
 _atom_site_occupancy
  Tm  Tm0  1  0.013266  0.177382  0.096579  1
  Tm  Tm1  1  0.986881  0.822856  0.903622  1
  Tm  Tm2  1  0.487109  0.677217  0.903657  1
  Tm  Tm3  1  0.986510  0.824086  0.596761  1
  Tm  Tm4  1  0.512979  0.322685  0.096735  1
  Tm  Tm5  1  0.011492  0.176414  0.402822  1
  Tm  Tm6  1  0.512976  0.321861  0.402662  1
  Tm  Tm7  1  0.490261  0.678773  0.597046  1
  Zr  Zr8  1  0.157719  0.499604  0.751620  1
  Zr  Zr9  1  0.842024  0.500571  0.249952  1
  Zr  Zr10  1  0.342264  0.999841  0.249808  1
  Zr  Zr11  1  0.657810  0.000180  0.750273  1
  Zr  Zr12  1  0.332579  0.174576  0.626055  1
  Zr  Zr13  1  0.669283  0.822997  0.374641  1
  Zr  Zr14  1  0.168274  0.679028  0.374073  1
  Zr  Zr15  1  0.669781  0.822364  0.124769  1
  Zr  Zr16  1  0.828352  0.322260  0.625039  1
  Zr  Zr17  1  0.330101  0.177469  0.875213  1
  Zr  Zr18  1  0.829918  0.322514  0.875168  1
  Zr  Zr19  1  0.169968  0.677474  0.124975  1
  Si  Si20  1  0.033446  0.114786  0.750036  1
  Si  Si21  1  0.966043  0.885849  0.249459  1
  Si  Si22  1  0.466049  0.614776  0.249798  1
  Si  Si23  1  0.533376  0.385561  0.750263  1
  Si  Si24  1  0.284432  0.869574  0.750405  1
  Si  Si25  1  0.715404  0.129638  0.249545  1
  Si  Si26  1  0.215141  0.370458  0.249902  1
  Si  Si27  1  0.785448  0.629640  0.750029  1
  Si  Si28  1  0.837263  0.532614  0.459637  1
  Si  Si29  1  0.341982  0.967901  0.460281  1
  Si  Si30  1  0.842904  0.531595  0.039805  1
  Si  Si31  1  0.657830  0.032178  0.539303  1
  Si  Si32  1  0.157116  0.468373  0.960446  1
  Si  Si33  1  0.656681  0.031721  0.960269  1
  Si  Si34  1  0.343221  0.968209  0.039789  1
  Ge  Ge35  1  0.164119  0.466976  0.539562  1
