# generated using pymatgen
data_La5Tb2Ho13Pt16
_symmetry_space_group_name_H-M   'P 1'
_cell_length_a   7.58141179
_cell_length_b   7.67982569
_cell_length_c   14.79046100
_cell_angle_alpha   90.00681149
_cell_angle_beta   90.04918358
_cell_angle_gamma   89.93055875
_symmetry_Int_Tables_number   1
_chemical_formula_structural   La5Tb2Ho13Pt16
_chemical_formula_sum   'La5 Tb2 Ho13 Pt16'
_cell_volume   861.15767834
_cell_formula_units_Z   1
loop_
 _symmetry_equiv_pos_site_id
 _symmetry_equiv_pos_as_xyz
  1  'x, y, z'
loop_
 _atom_site_type_symbol
 _atom_site_label
 _atom_site_symmetry_multiplicity
 _atom_site_fract_x
 _atom_site_fract_y
 _atom_site_fract_z
 _atom_site_occupancy
  La  La0  1  0.498993  0.679858  0.095058  1
  La  La1  1  0.500487  0.325267  0.593416  1
  La  La2  1  0.000887  0.175059  0.907433  1
  La  La3  1  0.000356  0.174608  0.592300  1
  La  La4  1  0.501326  0.323041  0.905139  1
  Tb  Tb5  1  0.497711  0.680916  0.403463  1
  Tb  Tb6  1  0.998282  0.821222  0.098500  1
  Ho  Ho7  1  0.680986  0.991443  0.251945  1
  Ho  Ho8  1  0.180131  0.509645  0.251874  1
  Ho  Ho9  1  0.821455  0.492713  0.749256  1
  Ho  Ho10  1  0.320445  0.007043  0.749245  1
  Ho  Ho11  1  0.654953  0.831133  0.620715  1
  Ho  Ho12  1  0.154111  0.668938  0.878280  1
  Ho  Ho13  1  0.841083  0.333795  0.376668  1
  Ho  Ho14  1  0.340236  0.165994  0.124939  1
  Ho  Ho15  1  0.339551  0.165007  0.377090  1
  Ho  Ho16  1  0.842793  0.332438  0.125836  1
  Ho  Ho17  1  0.155025  0.668252  0.620763  1
  Ho  Ho18  1  0.658003  0.833444  0.876736  1
  Ho  Ho19  1  0.997806  0.817915  0.403303  1
  Pt  Pt20  1  0.818376  0.642482  0.252486  1
  Pt  Pt21  1  0.312241  0.860537  0.252862  1
  Pt  Pt22  1  0.687484  0.137111  0.749164  1
  Pt  Pt23  1  0.186352  0.362903  0.749454  1
  Pt  Pt24  1  0.547105  0.379974  0.252067  1
  Pt  Pt25  1  0.044778  0.117149  0.251041  1
  Pt  Pt26  1  0.953170  0.873428  0.749056  1
  Pt  Pt27  1  0.452881  0.626717  0.749695  1
  Pt  Pt28  1  0.821649  0.541940  0.538988  1
  Pt  Pt29  1  0.320739  0.961862  0.958579  1
  Pt  Pt30  1  0.684805  0.025128  0.452694  1
  Pt  Pt31  1  0.174566  0.469408  0.046650  1
  Pt  Pt32  1  0.181674  0.475028  0.452390  1
  Pt  Pt33  1  0.685128  0.032210  0.045450  1
  Pt  Pt34  1  0.321984  0.957518  0.539201  1
  Pt  Pt35  1  0.822445  0.538878  0.958258  1
