# generated using pymatgen
data_Tm4Ga24IrPt8
_symmetry_space_group_name_H-M   'P 1'
_cell_length_a   7.48970344
_cell_length_b   7.56837921
_cell_length_c   13.27486000
_cell_angle_alpha   84.81989893
_cell_angle_beta   79.55793421
_cell_angle_gamma   60.19905835
_symmetry_Int_Tables_number   1
_chemical_formula_structural   Tm4Ga24IrPt8
_chemical_formula_sum   'Tm4 Ga24 Ir1 Pt8'
_cell_volume   642.15961979
_cell_formula_units_Z   1
loop_
 _symmetry_equiv_pos_site_id
 _symmetry_equiv_pos_as_xyz
  1  'x, y, z'
loop_
 _atom_site_type_symbol
 _atom_site_label
 _atom_site_symmetry_multiplicity
 _atom_site_fract_x
 _atom_site_fract_y
 _atom_site_fract_z
 _atom_site_occupancy
  Tm  Tm0  1  0.397156  0.168090  0.810325  1
  Tm  Tm1  1  0.602844  0.831910  0.189675  1
  Tm  Tm2  1  0.730897  0.499347  0.810964  1
  Tm  Tm3  1  0.269103  0.500653  0.189036  1
  Ga  Ga4  1  0.687818  0.831438  0.938651  1
  Ga  Ga5  1  0.312182  0.168562  0.061349  1
  Ga  Ga6  1  0.143792  0.833325  0.560282  1
  Ga  Ga7  1  0.856208  0.166675  0.439718  1
  Ga  Ga8  1  0.477748  0.166396  0.556739  1
  Ga  Ga9  1  0.522252  0.833604  0.443261  1
  Ga  Ga10  1  0.222269  0.165579  0.320466  1
  Ga  Ga11  1  0.777731  0.834421  0.679534  1
  Ga  Ga12  1  0.435815  0.503837  0.678117  1
  Ga  Ga13  1  0.564185  0.496163  0.321883  1
  Ga  Ga14  1  0.105787  0.163727  0.676922  1
  Ga  Ga15  1  0.894213  0.836273  0.323078  1
  Ga  Ga16  1  0.356589  0.497243  0.939649  1
  Ga  Ga17  1  0.643411  0.502757  0.060351  1
  Ga  Ga18  1  0.021054  0.174464  0.943563  1
  Ga  Ga19  1  0.978946  0.825536  0.056437  1
  Ga  Ga20  1  0.188136  0.499065  0.442803  1
  Ga  Ga21  1  0.811864  0.500935  0.557197  1
  Ga  Ga22  1  0.734390  0.164007  0.181417  1
  Ga  Ga23  1  0.265610  0.835993  0.818583  1
  Ga  Ga24  1  0.061947  0.626859  0.818851  1
  Ga  Ga25  1  0.938053  0.373141  0.181149  1
  Ga  Ga26  1  0.858537  0.039751  0.817108  1
  Ga  Ga27  1  0.141463  0.960249  0.182892  1
  Ir  Ir28  1  0.000000  0.500000  0.000000  1
  Pt  Pt29  1  0.116170  0.494463  0.640171  1
  Pt  Pt30  1  0.883830  0.505537  0.359829  1
  Pt  Pt31  1  0.660589  0.169357  0.998750  1
  Pt  Pt32  1  0.339411  0.830643  0.001250  1
  Pt  Pt33  1  0.541402  0.166914  0.359531  1
  Pt  Pt34  1  0.458598  0.833086  0.640469  1
  Pt  Pt35  1  0.777300  0.173351  0.637837  1
  Pt  Pt36  1  0.222700  0.826649  0.362163  1
