# generated using pymatgen
data_Co3NiSn16
_symmetry_space_group_name_H-M   'P 1'
_cell_length_a   12.59144588
_cell_length_b   12.59144587
_cell_length_c   12.59627756
_cell_angle_alpha   151.33011575
_cell_angle_beta   151.33011556
_cell_angle_gamma   40.93353962
_symmetry_Int_Tables_number   1
_chemical_formula_structural   Co3NiSn16
_chemical_formula_sum   'Co3 Ni1 Sn16'
_cell_volume   458.77444021
_cell_formula_units_Z   1
loop_
 _symmetry_equiv_pos_site_id
 _symmetry_equiv_pos_as_xyz
  1  'x, y, z'
loop_
 _atom_site_type_symbol
 _atom_site_label
 _atom_site_symmetry_multiplicity
 _atom_site_fract_x
 _atom_site_fract_y
 _atom_site_fract_z
 _atom_site_occupancy
  Co  Co0  1  0.750000  0.750000  0.000000  1
  Co  Co1  1  0.250000  0.250000  0.000000  1
  Co  Co2  1  0.000000  0.500000  0.500000  1
  Ni  Ni3  1  0.500000  0.000000  0.500000  1
  Sn  Sn4  1  0.996619  0.495503  0.868439  1
  Sn  Sn5  1  0.371818  0.872935  0.868439  1
  Sn  Sn6  1  0.004497  0.503381  0.131561  1
  Sn  Sn7  1  0.250662  0.618740  0.994682  1
  Sn  Sn8  1  0.120264  0.122448  0.368029  1
  Sn  Sn9  1  0.871783  0.003564  0.499335  1
  Sn  Sn10  1  0.504229  0.372448  0.500665  1
  Sn  Sn11  1  0.127552  0.995771  0.499335  1
  Sn  Sn12  1  0.496436  0.628217  0.500665  1
  Sn  Sn13  1  0.747765  0.745582  0.368029  1
  Sn  Sn14  1  0.377552  0.379736  0.631971  1
  Sn  Sn15  1  0.754418  0.752235  0.631971  1
  Sn  Sn16  1  0.627065  0.128182  0.131561  1
  Sn  Sn17  1  0.881260  0.249338  0.005318  1
  Sn  Sn18  1  0.244019  0.875942  0.994682  1
  Sn  Sn19  1  0.624058  0.255981  0.005318  1
