# generated using pymatgen
data_Er5In4PtAu
_symmetry_space_group_name_H-M   'P 1'
_cell_length_a   3.63406400
_cell_length_b   8.13932212
_cell_length_c   18.24012749
_cell_angle_alpha   90.05998518
_cell_angle_beta   90.00000000
_cell_angle_gamma   90.00000000
_symmetry_Int_Tables_number   1
_chemical_formula_structural   Er5In4PtAu
_chemical_formula_sum   'Er10 In8 Pt2 Au2'
_cell_volume   539.52110649
_cell_formula_units_Z   2
loop_
 _symmetry_equiv_pos_site_id
 _symmetry_equiv_pos_as_xyz
  1  'x, y, z'
loop_
 _atom_site_type_symbol
 _atom_site_label
 _atom_site_symmetry_multiplicity
 _atom_site_fract_x
 _atom_site_fract_y
 _atom_site_fract_z
 _atom_site_occupancy
  Er  Er0  1  0.000000  0.120027  0.418559  1
  Er  Er1  1  0.000000  0.879973  0.581441  1
  Er  Er2  1  0.000000  0.384329  0.915649  1
  Er  Er3  1  0.000000  0.615671  0.084351  1
  Er  Er4  1  0.000000  0.251359  0.217634  1
  Er  Er5  1  0.000000  0.748641  0.782366  1
  Er  Er6  1  0.000000  0.267706  0.721117  1
  Er  Er7  1  0.000000  0.732294  0.278883  1
  Er  Er8  1  0.000000  0.000000  0.000000  1
  Er  Er9  1  0.000000  0.500000  0.500000  1
  In  In10  1  0.500000  0.424010  0.352550  1
  In  In11  1  0.500000  0.575990  0.647450  1
  In  In12  1  0.500000  0.077178  0.852977  1
  In  In13  1  0.500000  0.922822  0.147023  1
  In  In14  1  0.500000  0.291761  0.065810  1
  In  In15  1  0.500000  0.708239  0.934190  1
  In  In16  1  0.500000  0.209580  0.565943  1
  In  In17  1  0.500000  0.790420  0.434057  1
  Pt  Pt18  1  0.500000  0.473791  0.803347  1
  Pt  Pt19  1  0.500000  0.526209  0.196653  1
  Au  Au20  1  0.500000  0.026796  0.302573  1
  Au  Au21  1  0.500000  0.973204  0.697427  1
