# generated using pymatgen
data_Ho4Th6Si5GeC2
_symmetry_space_group_name_H-M   'P 1'
_cell_length_a   8.75699418
_cell_length_b   8.75999295
_cell_length_c   6.36532500
_cell_angle_alpha   90.00000000
_cell_angle_beta   90.00000000
_cell_angle_gamma   120.01165184
_symmetry_Int_Tables_number   1
_chemical_formula_structural   Ho4Th6Si5GeC2
_chemical_formula_sum   'Ho4 Th6 Si5 Ge1 C2'
_cell_volume   422.82341402
_cell_formula_units_Z   1
loop_
 _symmetry_equiv_pos_site_id
 _symmetry_equiv_pos_as_xyz
  1  'x, y, z'
loop_
 _atom_site_type_symbol
 _atom_site_label
 _atom_site_symmetry_multiplicity
 _atom_site_fract_x
 _atom_site_fract_y
 _atom_site_fract_z
 _atom_site_occupancy
  Ho  Ho0  1  0.665301  0.333022  0.999008  1
  Ho  Ho1  1  0.334698  0.667722  0.999008  1
  Ho  Ho2  1  0.334698  0.667722  0.500992  1
  Ho  Ho3  1  0.665301  0.333022  0.500992  1
  Th  Th4  1  0.766630  0.766498  0.750000  1
  Th  Th5  1  0.233369  0.999864  0.750000  1
  Th  Th6  1  0.000000  0.232709  0.750000  1
  Th  Th7  1  0.234455  0.232809  0.250000  1
  Th  Th8  1  0.765544  0.998353  0.250000  1
  Th  Th9  1  0.999998  0.767540  0.250000  1
  Si  Si10  1  0.402401  0.402527  0.750000  1
  Si  Si11  1  0.597597  0.000125  0.750000  1
  Si  Si12  1  0.999999  0.597727  0.750000  1
  Si  Si13  1  0.597337  0.597358  0.250000  1
  Si  Si14  1  0.402662  0.000020  0.250000  1
  Ge  Ge15  1  0.000012  0.402386  0.250000  1
  C  C16  1  0.000000  0.000298  0.000317  1
  C  C17  1  0.000000  0.000298  0.499683  1
