# generated using pymatgen
data_DyHoTiCo16
_symmetry_space_group_name_H-M   'P 1'
_cell_length_a   6.29379311
_cell_length_b   6.29379320
_cell_length_c   6.29379184
_cell_angle_alpha   82.89021887
_cell_angle_beta   82.89021881
_cell_angle_gamma   82.89022269
_symmetry_Int_Tables_number   1
_chemical_formula_structural   DyHoTiCo16
_chemical_formula_sum   'Dy1 Ho1 Ti1 Co16'
_cell_volume   243.99590558
_cell_formula_units_Z   1
loop_
 _symmetry_equiv_pos_site_id
 _symmetry_equiv_pos_as_xyz
  1  'x, y, z'
loop_
 _atom_site_type_symbol
 _atom_site_label
 _atom_site_symmetry_multiplicity
 _atom_site_fract_x
 _atom_site_fract_y
 _atom_site_fract_z
 _atom_site_occupancy
  Dy  Dy0  1  0.656238  0.656238  0.656238  1
  Ho  Ho1  1  0.351752  0.351752  0.351752  1
  Ti  Ti2  1  0.092405  0.092405  0.092405  1
  Co  Co3  1  0.292307  0.706681  0.998212  1
  Co  Co4  1  0.706681  0.998212  0.292307  1
  Co  Co5  1  0.998212  0.292307  0.706681  1
  Co  Co6  1  0.292307  0.998212  0.706681  1
  Co  Co7  1  0.998212  0.706681  0.292307  1
  Co  Co8  1  0.706681  0.292307  0.998212  1
  Co  Co9  1  0.998824  0.998824  0.504426  1
  Co  Co10  1  0.998824  0.504426  0.998824  1
  Co  Co11  1  0.504426  0.998824  0.998824  1
  Co  Co12  1  0.347313  0.347313  0.848098  1
  Co  Co13  1  0.347313  0.848098  0.347313  1
  Co  Co14  1  0.848098  0.347313  0.347313  1
  Co  Co15  1  0.654908  0.654908  0.150229  1
  Co  Co16  1  0.654908  0.150229  0.654908  1
  Co  Co17  1  0.150229  0.654908  0.654908  1
  Co  Co18  1  0.900354  0.900354  0.900354  1
