# generated using pymatgen
data_Pr3In2HgPd3
_symmetry_space_group_name_H-M   'P 1'
_cell_length_a   7.90756029
_cell_length_b   7.90756008
_cell_length_c   3.94564900
_cell_angle_alpha   90.00000000
_cell_angle_beta   90.00000000
_cell_angle_gamma   119.17630205
_symmetry_Int_Tables_number   1
_chemical_formula_structural   Pr3In2HgPd3
_chemical_formula_sum   'Pr3 In2 Hg1 Pd3'
_cell_volume   215.41665573
_cell_formula_units_Z   1
loop_
 _symmetry_equiv_pos_site_id
 _symmetry_equiv_pos_as_xyz
  1  'x, y, z'
loop_
 _atom_site_type_symbol
 _atom_site_label
 _atom_site_symmetry_multiplicity
 _atom_site_fract_x
 _atom_site_fract_y
 _atom_site_fract_z
 _atom_site_occupancy
  Pr  Pr0  1  0.414620  0.414620  0.500000  1
  Pr  Pr1  1  0.593117  0.996808  0.500000  1
  Pr  Pr2  1  0.996808  0.593117  0.500000  1
  In  In3  1  0.255940  0.002073  0.000000  1
  In  In4  1  0.002073  0.255940  0.000000  1
  Hg  Hg5  1  0.739600  0.739600  0.000000  1
  Pd  Pd6  1  0.664715  0.323253  0.000000  1
  Pd  Pd7  1  0.323253  0.664715  0.000000  1
  Pd  Pd8  1  0.009874  0.009874  0.500000  1
