# generated using pymatgen
data_GeSb7Au4
_symmetry_space_group_name_H-M   'P 1'
_cell_length_a   6.72987852
_cell_length_b   6.72987852
_cell_length_c   6.72987852
_cell_angle_alpha   90.73954047
_cell_angle_beta   90.73954047
_cell_angle_gamma   89.26045953
_symmetry_Int_Tables_number   1
_chemical_formula_structural   GeSb7Au4
_chemical_formula_sum   'Ge1 Sb7 Au4'
_cell_volume   304.72918976
_cell_formula_units_Z   1
loop_
 _symmetry_equiv_pos_site_id
 _symmetry_equiv_pos_as_xyz
  1  'x, y, z'
loop_
 _atom_site_type_symbol
 _atom_site_label
 _atom_site_symmetry_multiplicity
 _atom_site_fract_x
 _atom_site_fract_y
 _atom_site_fract_z
 _atom_site_occupancy
  Ge  Ge0  1  0.879931  0.379932  0.120068  1
  Sb  Sb1  1  0.628666  0.875193  0.123568  1
  Sb  Sb2  1  0.375194  0.376432  0.371335  1
  Sb  Sb3  1  0.120979  0.873446  0.374380  1
  Sb  Sb4  1  0.876431  0.128665  0.624807  1
  Sb  Sb5  1  0.625621  0.620980  0.626554  1
  Sb  Sb6  1  0.373447  0.125620  0.879020  1
  Sb  Sb7  1  0.115693  0.615694  0.884306  1
  Au  Au8  1  0.996767  0.011675  0.004000  1
  Au  Au9  1  0.511674  0.495999  0.003233  1
  Au  Au10  1  0.499596  0.999597  0.500402  1
  Au  Au11  1  0.996000  0.496766  0.488324  1
