# generated using pymatgen
data_Rb3LuRhBr9
_symmetry_space_group_name_H-M   'P 1'
_cell_length_a   7.71818300
_cell_length_b   7.71818364
_cell_length_c   19.50285400
_cell_angle_alpha   90.00000000
_cell_angle_beta   90.00000000
_cell_angle_gamma   120.00000154
_symmetry_Int_Tables_number   1
_chemical_formula_structural   Rb3LuRhBr9
_chemical_formula_sum   'Rb6 Lu2 Rh2 Br18'
_cell_volume   1006.14129427
_cell_formula_units_Z   2
loop_
 _symmetry_equiv_pos_site_id
 _symmetry_equiv_pos_as_xyz
  1  'x, y, z'
loop_
 _atom_site_type_symbol
 _atom_site_label
 _atom_site_symmetry_multiplicity
 _atom_site_fract_x
 _atom_site_fract_y
 _atom_site_fract_z
 _atom_site_occupancy
  Rb  Rb0  1  0.333333  0.666667  0.064479  1
  Rb  Rb1  1  0.666667  0.333333  0.935521  1
  Rb  Rb2  1  0.666667  0.333333  0.566007  1
  Rb  Rb3  1  0.333333  0.666667  0.433993  1
  Rb  Rb4  1  0.000000  0.000000  0.255172  1
  Rb  Rb5  1  0.000000  0.000000  0.744828  1
  Lu  Lu6  1  0.666667  0.333333  0.160988  1
  Lu  Lu7  1  0.333333  0.666667  0.839012  1
  Rh  Rh8  1  0.333333  0.666667  0.665334  1
  Rh  Rh9  1  0.666667  0.333333  0.334666  1
  Br  Br10  1  0.180426  0.360852  0.592535  1
  Br  Br11  1  0.819574  0.639148  0.407465  1
  Br  Br12  1  0.639148  0.819574  0.592535  1
  Br  Br13  1  0.834811  0.669620  0.088695  1
  Br  Br14  1  0.360852  0.180426  0.407465  1
  Br  Br15  1  0.165189  0.330380  0.911305  1
  Br  Br16  1  0.180426  0.819574  0.592535  1
  Br  Br17  1  0.330380  0.165189  0.088695  1
  Br  Br18  1  0.819574  0.180426  0.407465  1
  Br  Br19  1  0.669620  0.834811  0.911305  1
  Br  Br20  1  0.834811  0.165189  0.088695  1
  Br  Br21  1  0.165189  0.834811  0.911305  1
  Br  Br22  1  0.509352  0.018705  0.258509  1
  Br  Br23  1  0.490648  0.981295  0.741491  1
  Br  Br24  1  0.981295  0.490648  0.258509  1
  Br  Br25  1  0.018705  0.509352  0.741491  1
  Br  Br26  1  0.509352  0.490648  0.258509  1
  Br  Br27  1  0.490648  0.509352  0.741491  1
