# generated using pymatgen
data_Sr2BiRh4PbO14
_symmetry_space_group_name_H-M   'P 1'
_cell_length_a   7.38243680
_cell_length_b   7.33660290
_cell_length_c   7.33660245
_cell_angle_alpha   59.60830106
_cell_angle_beta   60.33418453
_cell_angle_gamma   60.33418025
_symmetry_Int_Tables_number   1
_chemical_formula_structural   Sr2BiRh4PbO14
_chemical_formula_sum   'Sr2 Bi1 Rh4 Pb1 O14'
_cell_volume   281.53682646
_cell_formula_units_Z   1
loop_
 _symmetry_equiv_pos_site_id
 _symmetry_equiv_pos_as_xyz
  1  'x, y, z'
loop_
 _atom_site_type_symbol
 _atom_site_label
 _atom_site_symmetry_multiplicity
 _atom_site_fract_x
 _atom_site_fract_y
 _atom_site_fract_z
 _atom_site_occupancy
  Sr  Sr0  1  0.125000  0.625000  0.125000  1
  Sr  Sr1  1  0.125000  0.125000  0.625000  1
  Bi  Bi2  1  0.625000  0.125000  0.125000  1
  Rh  Rh3  1  0.625000  0.625000  0.625000  1
  Rh  Rh4  1  0.625000  0.625000  0.125000  1
  Rh  Rh5  1  0.125000  0.625000  0.625000  1
  Rh  Rh6  1  0.625000  0.125000  0.625000  1
  Pb  Pb7  1  0.125000  0.125000  0.125000  1
  O  O8  1  0.267578  0.232622  0.232622  1
  O  O9  1  0.299871  0.714559  0.295347  1
  O  O10  1  0.950129  0.954653  0.535441  1
  O  O11  1  0.555833  0.956515  0.534500  1
  O  O12  1  0.694167  0.715500  0.293485  1
  O  O13  1  0.947815  0.551647  0.551647  1
  O  O14  1  0.694167  0.293485  0.715500  1
  O  O15  1  0.299871  0.295347  0.714559  1
  O  O16  1  0.703669  0.295933  0.295933  1
  O  O17  1  0.302185  0.698353  0.698353  1
  O  O18  1  0.950129  0.535441  0.954653  1
  O  O19  1  0.555833  0.534500  0.956515  1
  O  O20  1  0.982422  0.017378  0.017378  1
  O  O21  1  0.546331  0.954067  0.954067  1
