# generated using pymatgen
data_Tb4HgPd4Pb
_symmetry_space_group_name_H-M   'P 1'
_cell_length_a   7.85592800
_cell_length_b   7.85592800
_cell_length_c   3.68192400
_cell_angle_alpha   90.00000000
_cell_angle_beta   90.00000000
_cell_angle_gamma   90.00000000
_symmetry_Int_Tables_number   1
_chemical_formula_structural   Tb4HgPd4Pb
_chemical_formula_sum   'Tb4 Hg1 Pd4 Pb1'
_cell_volume   227.23216627
_cell_formula_units_Z   1
loop_
 _symmetry_equiv_pos_site_id
 _symmetry_equiv_pos_as_xyz
  1  'x, y, z'
loop_
 _atom_site_type_symbol
 _atom_site_label
 _atom_site_symmetry_multiplicity
 _atom_site_fract_x
 _atom_site_fract_y
 _atom_site_fract_z
 _atom_site_occupancy
  Tb  Tb0  1  0.679565  0.167014  0.500000  1
  Tb  Tb1  1  0.167014  0.320435  0.500000  1
  Tb  Tb2  1  0.832986  0.679565  0.500000  1
  Tb  Tb3  1  0.320435  0.832986  0.500000  1
  Hg  Hg4  1  0.000000  0.000000  0.000000  1
  Pd  Pd5  1  0.373395  0.122488  0.000000  1
  Pd  Pd6  1  0.122488  0.626605  0.000000  1
  Pd  Pd7  1  0.626605  0.877512  0.000000  1
  Pd  Pd8  1  0.877512  0.373395  0.000000  1
  Pb  Pb9  1  0.500000  0.500000  0.000000  1
