# generated using pymatgen
data_Li3Ce3SmSi8Rh
_symmetry_space_group_name_H-M   'P 1'
_cell_length_a   3.88802500
_cell_length_b   7.42360050
_cell_length_c   10.30859677
_cell_angle_alpha   89.85319788
_cell_angle_beta   90.00000000
_cell_angle_gamma   90.00000000
_symmetry_Int_Tables_number   1
_chemical_formula_structural   Li3Ce3SmSi8Rh
_chemical_formula_sum   'Li3 Ce3 Sm1 Si8 Rh1'
_cell_volume   297.53753999
_cell_formula_units_Z   1
loop_
 _symmetry_equiv_pos_site_id
 _symmetry_equiv_pos_as_xyz
  1  'x, y, z'
loop_
 _atom_site_type_symbol
 _atom_site_label
 _atom_site_symmetry_multiplicity
 _atom_site_fract_x
 _atom_site_fract_y
 _atom_site_fract_z
 _atom_site_occupancy
  Li  Li0  1  0.250000  0.492391  0.109908  1
  Li  Li1  1  0.750000  0.007282  0.603738  1
  Li  Li2  1  0.750000  0.502479  0.891549  1
  Ce  Ce3  1  0.250000  0.644395  0.628283  1
  Ce  Ce4  1  0.750000  0.858739  0.133845  1
  Ce  Ce5  1  0.750000  0.365976  0.366724  1
  Sm  Sm6  1  0.250000  0.139436  0.867515  1
  Si  Si7  1  0.250000  0.221766  0.563338  1
  Si  Si8  1  0.250000  0.729100  0.925864  1
  Si  Si9  1  0.750000  0.786981  0.428124  1
  Si  Si10  1  0.750000  0.266012  0.078691  1
  Si  Si11  1  0.250000  0.667755  0.322010  1
  Si  Si12  1  0.250000  0.156519  0.193091  1
  Si  Si13  1  0.750000  0.335112  0.676316  1
  Si  Si14  1  0.750000  0.836388  0.815396  1
  Rh  Rh15  1  0.250000  0.989668  0.395609  1
