# generated using pymatgen
data_TaTi3B12(Ru3W2)4
_symmetry_space_group_name_H-M   'P 1'
_cell_length_a   3.04462500
_cell_length_b   8.91066906
_cell_length_c   15.70182403
_cell_angle_alpha   90.19624246
_cell_angle_beta   90.00000000
_cell_angle_gamma   90.00000000
_symmetry_Int_Tables_number   1
_chemical_formula_structural   TaTi3B12(Ru3W2)4
_chemical_formula_sum   'Ta1 Ti3 B12 Ru12 W8'
_cell_volume   425.98242567
_cell_formula_units_Z   1
loop_
 _symmetry_equiv_pos_site_id
 _symmetry_equiv_pos_as_xyz
  1  'x, y, z'
loop_
 _atom_site_type_symbol
 _atom_site_label
 _atom_site_symmetry_multiplicity
 _atom_site_fract_x
 _atom_site_fract_y
 _atom_site_fract_z
 _atom_site_occupancy
  Ta  Ta0  1  0.000000  0.805193  0.700718  1
  Ti  Ti1  1  0.000000  0.692875  0.202071  1
  Ti  Ti2  1  0.000000  0.305775  0.799298  1
  Ti  Ti3  1  0.000000  0.193367  0.297938  1
  B  B4  1  0.500000  0.605687  0.495577  1
  B  B5  1  0.500000  0.396022  0.503662  1
  B  B6  1  0.500000  0.105609  0.004318  1
  B  B7  1  0.500000  0.893686  0.996298  1
  B  B8  1  0.000000  0.601501  0.831701  1
  B  B9  1  0.000000  0.396322  0.169853  1
  B  B10  1  0.000000  0.104756  0.668958  1
  B  B11  1  0.000000  0.897196  0.330202  1
  B  B12  1  0.500000  0.715587  0.594010  1
  B  B13  1  0.500000  0.286797  0.402642  1
  B  B14  1  0.500000  0.213368  0.904287  1
  B  B15  1  0.500000  0.786562  0.097366  1
  Ru  Ru16  1  0.500000  0.723017  0.351368  1
  Ru  Ru17  1  0.500000  0.277901  0.648393  1
  Ru  Ru18  1  0.500000  0.222606  0.148162  1
  Ru  Ru19  1  0.500000  0.776389  0.852037  1
  Ru  Ru20  1  0.500000  0.519821  0.092877  1
  Ru  Ru21  1  0.500000  0.479566  0.909403  1
  Ru  Ru22  1  0.500000  0.021060  0.407224  1
  Ru  Ru23  1  0.500000  0.983233  0.589685  1
  Ru  Ru24  1  0.500000  0.549132  0.734886  1
  Ru  Ru25  1  0.500000  0.443931  0.267394  1
  Ru  Ru26  1  0.500000  0.054316  0.766729  1
  Ru  Ru27  1  0.500000  0.943638  0.232426  1
  W  W28  1  0.000000  0.793890  0.492062  1
  W  W29  1  0.000000  0.209560  0.505753  1
  W  W30  1  0.000000  0.292852  0.007061  1
  W  W31  1  0.000000  0.706139  0.994978  1
  W  W32  1  0.000000  0.516803  0.591016  1
  W  W33  1  0.000000  0.485789  0.408977  1
  W  W34  1  0.000000  0.014929  0.909864  1
  W  W35  1  0.000000  0.985125  0.090806  1
