# generated using pymatgen
data_Ba4CuH12Rh
_symmetry_space_group_name_H-M   'P 1'
_cell_length_a   8.03593972
_cell_length_b   8.03593941
_cell_length_c   5.84078444
_cell_angle_alpha   90.10122624
_cell_angle_beta   90.10122616
_cell_angle_gamma   137.46721381
_symmetry_Int_Tables_number   1
_chemical_formula_structural   Ba4CuH12Rh
_chemical_formula_sum   'Ba4 Cu1 H12 Rh1'
_cell_volume   254.97273760
_cell_formula_units_Z   1
loop_
 _symmetry_equiv_pos_site_id
 _symmetry_equiv_pos_as_xyz
  1  'x, y, z'
loop_
 _atom_site_type_symbol
 _atom_site_label
 _atom_site_symmetry_multiplicity
 _atom_site_fract_x
 _atom_site_fract_y
 _atom_site_fract_z
 _atom_site_occupancy
  Ba  Ba0  1  0.356659  0.643341  0.000000  1
  Ba  Ba1  1  0.858048  0.141952  0.500000  1
  Ba  Ba2  1  0.643341  0.356659  0.000000  1
  Ba  Ba3  1  0.141952  0.858048  0.500000  1
  Cu  Cu4  1  0.500000  0.500000  0.500000  1
  H  H5  1  0.001170  0.498936  0.253531  1
  H  H6  1  0.501064  0.998830  0.746469  1
  H  H7  1  0.998830  0.501064  0.746469  1
  H  H8  1  0.498936  0.001170  0.253531  1
  H  H9  1  0.112279  0.887721  0.000000  1
  H  H10  1  0.604716  0.395284  0.500000  1
  H  H11  1  0.887721  0.112279  0.000000  1
  H  H12  1  0.395284  0.604716  0.500000  1
  H  H13  1  0.793400  0.793400  0.205574  1
  H  H14  1  0.206600  0.206600  0.794426  1
  H  H15  1  0.792591  0.792591  0.792858  1
  H  H16  1  0.207409  0.207409  0.207142  1
  Rh  Rh17  1  0.000000  0.000000  0.000000  1
