# generated using pymatgen
data_Hf16TlNi4Mo3
_symmetry_space_group_name_H-M   'P 1'
_cell_length_a   8.74860000
_cell_length_b   8.74831060
_cell_length_c   8.74794000
_cell_angle_alpha   60.10053320
_cell_angle_beta   60.09860872
_cell_angle_gamma   60.09736193
_symmetry_Int_Tables_number   1
_chemical_formula_structural   Hf16TlNi4Mo3
_chemical_formula_sum   'Hf16 Tl1 Ni4 Mo3'
_cell_volume   474.48778310
_cell_formula_units_Z   1
loop_
 _symmetry_equiv_pos_site_id
 _symmetry_equiv_pos_as_xyz
  1  'x, y, z'
loop_
 _atom_site_type_symbol
 _atom_site_label
 _atom_site_symmetry_multiplicity
 _atom_site_fract_x
 _atom_site_fract_y
 _atom_site_fract_z
 _atom_site_occupancy
  Hf  Hf0  1  0.698580  0.097546  0.097540  1
  Hf  Hf1  1  0.097538  0.698570  0.097548  1
  Hf  Hf2  1  0.097531  0.097546  0.698581  1
  Hf  Hf3  1  0.102882  0.102894  0.102892  1
  Hf  Hf4  1  0.315627  0.315619  0.697379  1
  Hf  Hf5  1  0.686134  0.686128  0.314920  1
  Hf  Hf6  1  0.315620  0.697389  0.315618  1
  Hf  Hf7  1  0.686138  0.314918  0.686122  1
  Hf  Hf8  1  0.697396  0.315613  0.315619  1
  Hf  Hf9  1  0.314913  0.686136  0.686126  1
  Hf  Hf10  1  0.954510  0.954497  0.543881  1
  Hf  Hf11  1  0.556346  0.556360  0.937012  1
  Hf  Hf12  1  0.954503  0.543884  0.954498  1
  Hf  Hf13  1  0.556356  0.937009  0.556351  1
  Hf  Hf14  1  0.543889  0.954493  0.954500  1
  Hf  Hf15  1  0.937010  0.556362  0.556345  1
  Tl  Tl16  1  0.330825  0.330822  0.330819  1
  Ni  Ni17  1  0.323918  0.890525  0.890538  1
  Ni  Ni18  1  0.890510  0.323924  0.890546  1
  Ni  Ni19  1  0.890525  0.890539  0.323938  1
  Ni  Ni20  1  0.890427  0.890412  0.890402  1
  Mo  Mo21  1  0.992324  0.333249  0.333250  1
  Mo  Mo22  1  0.333249  0.992321  0.333246  1
  Mo  Mo23  1  0.333242  0.333237  0.992327  1
