# generated using pymatgen
data_Cs3Sm(AsSe2)6
_symmetry_space_group_name_H-M   'P 1'
_cell_length_a   10.13444400
_cell_length_b   10.13444267
_cell_length_c   8.76517900
_cell_angle_alpha   90.00000000
_cell_angle_beta   90.00000000
_cell_angle_gamma   119.99999781
_symmetry_Int_Tables_number   1
_chemical_formula_structural   Cs3Sm(AsSe2)6
_chemical_formula_sum   'Cs3 Sm1 As6 Se12'
_cell_volume   779.63482190
_cell_formula_units_Z   1
loop_
 _symmetry_equiv_pos_site_id
 _symmetry_equiv_pos_as_xyz
  1  'x, y, z'
loop_
 _atom_site_type_symbol
 _atom_site_label
 _atom_site_symmetry_multiplicity
 _atom_site_fract_x
 _atom_site_fract_y
 _atom_site_fract_z
 _atom_site_occupancy
  Cs  Cs0  1  0.000000  0.000000  0.000000  1
  Cs  Cs1  1  0.333333  0.666667  0.852721  1
  Cs  Cs2  1  0.666667  0.333333  0.147279  1
  Sm  Sm3  1  0.000000  0.000000  0.500000  1
  As  As4  1  0.286747  0.835004  0.394381  1
  As  As5  1  0.164996  0.451744  0.394381  1
  As  As6  1  0.548256  0.713253  0.394381  1
  As  As7  1  0.713253  0.164996  0.605619  1
  As  As8  1  0.835004  0.548256  0.605619  1
  As  As9  1  0.451744  0.286747  0.605619  1
  Se  Se10  1  0.258949  0.042980  0.308320  1
  Se  Se11  1  0.957020  0.215970  0.308320  1
  Se  Se12  1  0.784030  0.741051  0.308320  1
  Se  Se13  1  0.741051  0.957020  0.691680  1
  Se  Se14  1  0.042980  0.784030  0.691680  1
  Se  Se15  1  0.215970  0.258949  0.691680  1
  Se  Se16  1  0.521735  0.904177  0.243797  1
  Se  Se17  1  0.095823  0.617556  0.243797  1
  Se  Se18  1  0.382444  0.478265  0.243797  1
  Se  Se19  1  0.478265  0.095823  0.756203  1
  Se  Se20  1  0.904177  0.382444  0.756203  1
  Se  Se21  1  0.617556  0.521735  0.756203  1
