# generated using pymatgen
data_Mg4As6Ir2RuRh4
_symmetry_space_group_name_H-M   'P 1'
_cell_length_a   7.05953546
_cell_length_b   7.05881829
_cell_length_c   7.05881755
_cell_angle_alpha   109.39532480
_cell_angle_beta   109.50711654
_cell_angle_gamma   109.50712159
_symmetry_Int_Tables_number   1
_chemical_formula_structural   Mg4As6Ir2RuRh4
_chemical_formula_sum   'Mg4 As6 Ir2 Ru1 Rh4'
_cell_volume   270.79444250
_cell_formula_units_Z   1
loop_
 _symmetry_equiv_pos_site_id
 _symmetry_equiv_pos_as_xyz
  1  'x, y, z'
loop_
 _atom_site_type_symbol
 _atom_site_label
 _atom_site_symmetry_multiplicity
 _atom_site_fract_x
 _atom_site_fract_y
 _atom_site_fract_z
 _atom_site_occupancy
  Mg  Mg0  1  0.000000  0.000011  0.499998  1
  Mg  Mg1  1  0.500000  0.999990  0.000010  1
  Mg  Mg2  1  0.000000  0.500002  0.999989  1
  Mg  Mg3  1  0.500000  0.499990  0.500010  1
  As  As4  1  0.688527  0.688415  0.000111  1
  As  As5  1  0.311716  0.311580  0.000136  1
  As  As6  1  0.000000  0.688787  0.688532  1
  As  As7  1  0.000000  0.311468  0.311213  1
  As  As8  1  0.688284  0.999864  0.688420  1
  As  As9  1  0.311473  0.999889  0.311585  1
  Ir  Ir10  1  0.250122  0.500059  0.750063  1
  Ir  Ir11  1  0.749878  0.249937  0.499941  1
  Ru  Ru12  1  0.000000  0.999930  0.000070  1
  Rh  Rh13  1  0.500000  0.250065  0.749935  1
  Rh  Rh14  1  0.500000  0.750065  0.249935  1
  Rh  Rh15  1  0.750042  0.499994  0.250047  1
  Rh  Rh16  1  0.249958  0.749953  0.500006  1
