# generated using pymatgen
data_Dy4Y12In3HgRh4
_symmetry_space_group_name_H-M   'P 1'
_cell_length_a   9.68087522
_cell_length_b   9.68087586
_cell_length_c   9.66042304
_cell_angle_alpha   60.02378511
_cell_angle_beta   60.02379034
_cell_angle_gamma   60.18557545
_symmetry_Int_Tables_number   1
_chemical_formula_structural   Dy4Y12In3HgRh4
_chemical_formula_sum   'Dy4 Y12 In3 Hg1 Rh4'
_cell_volume   641.31634680
_cell_formula_units_Z   1
loop_
 _symmetry_equiv_pos_site_id
 _symmetry_equiv_pos_as_xyz
  1  'x, y, z'
loop_
 _atom_site_type_symbol
 _atom_site_label
 _atom_site_symmetry_multiplicity
 _atom_site_fract_x
 _atom_site_fract_y
 _atom_site_fract_z
 _atom_site_occupancy
  Dy  Dy0  1  0.148517  0.549524  0.147843  1
  Dy  Dy1  1  0.311539  0.691360  0.690162  1
  Dy  Dy2  1  0.691360  0.311539  0.690162  1
  Dy  Dy3  1  0.549524  0.148517  0.147843  1
  Y  Y4  1  0.689877  0.311163  0.309297  1
  Y  Y5  1  0.690244  0.690244  0.311562  1
  Y  Y6  1  0.311163  0.689877  0.309297  1
  Y  Y7  1  0.935869  0.935869  0.560180  1
  Y  Y8  1  0.147328  0.147328  0.552494  1
  Y  Y9  1  0.562546  0.939090  0.557966  1
  Y  Y10  1  0.152863  0.152863  0.150554  1
  Y  Y11  1  0.309923  0.309923  0.689669  1
  Y  Y12  1  0.939090  0.562546  0.557966  1
  Y  Y13  1  0.561113  0.561113  0.937458  1
  Y  Y14  1  0.564830  0.936787  0.933587  1
  Y  Y15  1  0.936787  0.564830  0.933587  1
  In  In16  1  0.246519  0.917825  0.921295  1
  In  In17  1  0.917825  0.246519  0.921295  1
  In  In18  1  0.917074  0.917074  0.919540  1
  Hg  Hg19  1  0.914168  0.914168  0.259728  1
  Rh  Rh20  1  0.356675  0.356675  0.354596  1
  Rh  Rh21  1  0.925595  0.358574  0.360065  1
  Rh  Rh22  1  0.361001  0.361001  0.923787  1
  Rh  Rh23  1  0.358574  0.925595  0.360065  1
