# generated using pymatgen
data_Ba2(PtO3)3
_symmetry_space_group_name_H-M   'P 1'
_cell_length_a   8.30779793
_cell_length_b   8.30779802
_cell_length_c   8.30779700
_cell_angle_alpha   109.47122058
_cell_angle_beta   109.47122080
_cell_angle_gamma   109.47121681
_symmetry_Int_Tables_number   1
_chemical_formula_structural   Ba2(PtO3)3
_chemical_formula_sum   'Ba4 Pt6 O18'
_cell_volume   441.40358869
_cell_formula_units_Z   2
loop_
 _symmetry_equiv_pos_site_id
 _symmetry_equiv_pos_as_xyz
  1  'x, y, z'
loop_
 _atom_site_type_symbol
 _atom_site_label
 _atom_site_symmetry_multiplicity
 _atom_site_fract_x
 _atom_site_fract_y
 _atom_site_fract_z
 _atom_site_occupancy
  Ba  Ba0  1  0.000000  0.000000  0.381778  1
  Ba  Ba1  1  0.000000  0.381778  0.000000  1
  Ba  Ba2  1  0.618222  0.618222  0.618222  1
  Ba  Ba3  1  0.381778  0.000000  0.000000  1
  Pt  Pt4  1  0.343147  0.500000  0.843147  1
  Pt  Pt5  1  0.843147  0.343147  0.500000  1
  Pt  Pt6  1  0.500000  0.156853  0.656853  1
  Pt  Pt7  1  0.156853  0.656853  0.500000  1
  Pt  Pt8  1  0.500000  0.843147  0.343147  1
  Pt  Pt9  1  0.656853  0.500000  0.156853  1
  O  O10  1  0.359074  0.000000  0.359074  1
  O  O11  1  0.359074  0.359074  0.000000  1
  O  O12  1  0.000000  0.640926  0.640926  1
  O  O13  1  0.640926  0.640926  0.000000  1
  O  O14  1  0.000000  0.359074  0.359074  1
  O  O15  1  0.640926  0.000000  0.640926  1
  O  O16  1  0.355944  0.309912  0.627557  1
  O  O17  1  0.046030  0.317645  0.690088  1
  O  O18  1  0.728386  0.372443  0.682355  1
  O  O19  1  0.372443  0.682355  0.728386  1
  O  O20  1  0.271614  0.953970  0.644056  1
  O  O21  1  0.627557  0.355944  0.309912  1
  O  O22  1  0.309912  0.627557  0.355944  1
  O  O23  1  0.690088  0.046030  0.317645  1
  O  O24  1  0.953970  0.644056  0.271614  1
  O  O25  1  0.682355  0.728386  0.372443  1
  O  O26  1  0.644056  0.271614  0.953970  1
  O  O27  1  0.317645  0.690088  0.046030  1
