# generated using pymatgen
data_Tb2Nd2Ho4Mo(WO8)3
_symmetry_space_group_name_H-M   'P 1'
_cell_length_a   5.45196300
_cell_length_b   7.76452579
_cell_length_c   11.54051700
_cell_angle_alpha   75.63345076
_cell_angle_beta   90.00000000
_cell_angle_gamma   90.00000000
_symmetry_Int_Tables_number   1
_chemical_formula_structural   Tb2Nd2Ho4Mo(WO8)3
_chemical_formula_sum   'Tb2 Nd2 Ho4 Mo1 W3 O24'
_cell_volume   473.25481225
_cell_formula_units_Z   1
loop_
 _symmetry_equiv_pos_site_id
 _symmetry_equiv_pos_as_xyz
  1  'x, y, z'
loop_
 _atom_site_type_symbol
 _atom_site_label
 _atom_site_symmetry_multiplicity
 _atom_site_fract_x
 _atom_site_fract_y
 _atom_site_fract_z
 _atom_site_occupancy
  Tb  Tb0  1  0.740765  0.999033  0.750156  1
  Tb  Tb1  1  0.258926  0.999896  0.250027  1
  Nd  Nd2  1  0.684592  0.501428  0.749739  1
  Nd  Nd3  1  0.316273  0.499815  0.250749  1
  Ho  Ho4  1  0.188132  0.796820  0.578447  1
  Ho  Ho5  1  0.813838  0.797223  0.076561  1
  Ho  Ho6  1  0.184664  0.200451  0.922639  1
  Ho  Ho7  1  0.813570  0.203099  0.422938  1
  Mo  Mo8  1  0.253223  0.724593  0.886337  1
  W  W9  1  0.747276  0.727052  0.385052  1
  W  W10  1  0.253077  0.273270  0.615106  1
  W  W11  1  0.746915  0.273261  0.114911  1
  O  O12  1  0.037656  0.940705  0.898221  1
  O  O13  1  0.527573  0.845745  0.930870  1
  O  O14  1  0.956723  0.940985  0.396412  1
  O  O15  1  0.459324  0.791455  0.726343  1
  O  O16  1  0.468060  0.845317  0.431361  1
  O  O17  1  0.989525  0.719098  0.769833  1
  O  O18  1  0.545876  0.793355  0.227056  1
  O  O19  1  0.856059  0.640579  0.546170  1
  O  O20  1  0.347233  0.493777  0.888424  1
  O  O21  1  0.013841  0.717949  0.269412  1
  O  O22  1  0.350025  0.507494  0.612107  1
  O  O23  1  0.855679  0.359562  0.953714  1
  O  O24  1  0.146514  0.640440  0.045873  1
  O  O25  1  0.650284  0.492606  0.387942  1
  O  O26  1  0.986247  0.282671  0.729923  1
  O  O27  1  0.650552  0.507850  0.111742  1
  O  O28  1  0.144336  0.359564  0.453815  1
  O  O29  1  0.454433  0.207420  0.772723  1
  O  O30  1  0.014277  0.282517  0.229680  1
  O  O31  1  0.531753  0.154607  0.568410  1
  O  O32  1  0.545894  0.207000  0.272340  1
  O  O33  1  0.042945  0.059420  0.603294  1
  O  O34  1  0.467696  0.154957  0.067973  1
  O  O35  1  0.956245  0.058986  0.103699  1
