# generated using pymatgen
data_Ho6LuCo16P12Ru
_symmetry_space_group_name_H-M   'P 1'
_cell_length_a   3.70314200
_cell_length_b   10.58620000
_cell_length_c   12.29904500
_cell_angle_alpha   90.00000000
_cell_angle_beta   90.00000000
_cell_angle_gamma   90.00000000
_symmetry_Int_Tables_number   1
_chemical_formula_structural   Ho6LuCo16P12Ru
_chemical_formula_sum   'Ho6 Lu1 Co16 P12 Ru1'
_cell_volume   482.14964453
_cell_formula_units_Z   1
loop_
 _symmetry_equiv_pos_site_id
 _symmetry_equiv_pos_as_xyz
  1  'x, y, z'
loop_
 _atom_site_type_symbol
 _atom_site_label
 _atom_site_symmetry_multiplicity
 _atom_site_fract_x
 _atom_site_fract_y
 _atom_site_fract_z
 _atom_site_occupancy
  Ho  Ho0  1  0.000000  0.500000  0.530596  1
  Ho  Ho1  1  0.500000  0.000000  0.474571  1
  Ho  Ho2  1  0.500000  0.822011  0.207288  1
  Ho  Ho3  1  0.500000  0.177989  0.207288  1
  Ho  Ho4  1  0.000000  0.682707  0.795201  1
  Ho  Ho5  1  0.000000  0.317293  0.795201  1
  Lu  Lu6  1  0.500000  0.500000  0.155154  1
  Co  Co7  1  0.000000  0.500000  0.982435  1
  Co  Co8  1  0.500000  0.000000  0.011868  1
  Co  Co9  1  0.500000  0.293379  0.436430  1
  Co  Co10  1  0.500000  0.706621  0.436430  1
  Co  Co11  1  0.000000  0.201299  0.571018  1
  Co  Co12  1  0.000000  0.798701  0.571018  1
  Co  Co13  1  0.500000  0.880004  0.705635  1
  Co  Co14  1  0.500000  0.119996  0.705635  1
  Co  Co15  1  0.000000  0.623552  0.301013  1
  Co  Co16  1  0.000000  0.376448  0.301013  1
  Co  Co17  1  0.500000  0.325188  0.987560  1
  Co  Co18  1  0.500000  0.674812  0.987560  1
  Co  Co19  1  0.000000  0.160809  0.003463  1
  Co  Co20  1  0.000000  0.839191  0.003463  1
  Co  Co21  1  0.500000  0.500000  0.703667  1
  Co  Co22  1  0.000000  0.000000  0.296227  1
  P  P23  1  0.500000  0.309999  0.618231  1
  P  P24  1  0.500000  0.690001  0.618231  1
  P  P25  1  0.000000  0.188025  0.386286  1
  P  P26  1  0.000000  0.811975  0.386286  1
  P  P27  1  0.500000  0.500000  0.882505  1
  P  P28  1  0.000000  0.000000  0.117080  1
  P  P29  1  0.500000  0.850015  0.888460  1
  P  P30  1  0.500000  0.149985  0.888460  1
  P  P31  1  0.000000  0.666288  0.099050  1
  P  P32  1  0.000000  0.333712  0.099050  1
  P  P33  1  0.500000  0.500000  0.364226  1
  P  P34  1  0.000000  0.000000  0.646819  1
  Ru  Ru35  1  0.000000  0.000000  0.835582  1
