# generated using pymatgen
data_Er3In4CuRh
_symmetry_space_group_name_H-M   'P 1'
_cell_length_a   7.90812500
_cell_length_b   7.90812462
_cell_length_c   3.71895700
_cell_angle_alpha   90.00000000
_cell_angle_beta   90.00000000
_cell_angle_gamma   120.00000464
_symmetry_Int_Tables_number   1
_chemical_formula_structural   Er3In4CuRh
_chemical_formula_sum   'Er3 In4 Cu1 Rh1'
_cell_volume   201.41824075
_cell_formula_units_Z   1
loop_
 _symmetry_equiv_pos_site_id
 _symmetry_equiv_pos_as_xyz
  1  'x, y, z'
loop_
 _atom_site_type_symbol
 _atom_site_label
 _atom_site_symmetry_multiplicity
 _atom_site_fract_x
 _atom_site_fract_y
 _atom_site_fract_z
 _atom_site_occupancy
  Er  Er0  1  0.704815  0.954309  0.500000  1
  Er  Er1  1  0.249495  0.295185  0.500000  1
  Er  Er2  1  0.045691  0.750505  0.500000  1
  In  In3  1  0.925575  0.335849  0.000000  1
  In  In4  1  0.410274  0.074425  0.000000  1
  In  In5  1  0.664151  0.589726  0.000000  1
  In  In6  1  0.333333  0.666667  0.000000  1
  Cu  Cu7  1  0.666667  0.333333  0.500000  1
  Rh  Rh8  1  0.000000  0.000000  0.000000  1
