# generated using pymatgen
data_HfZr6U(Co4P3)4
_symmetry_space_group_name_H-M   'P 1'
_cell_length_a   12.12779925
_cell_length_b   12.12517024
_cell_length_c   3.69815400
_cell_angle_alpha   90.00000000
_cell_angle_beta   90.00000000
_cell_angle_gamma   120.34932604
_symmetry_Int_Tables_number   1
_chemical_formula_structural   HfZr6U(Co4P3)4
_chemical_formula_sum   'Hf1 Zr6 U1 Co16 P12'
_cell_volume   469.29502054
_cell_formula_units_Z   1
loop_
 _symmetry_equiv_pos_site_id
 _symmetry_equiv_pos_as_xyz
  1  'x, y, z'
loop_
 _atom_site_type_symbol
 _atom_site_label
 _atom_site_symmetry_multiplicity
 _atom_site_fract_x
 _atom_site_fract_y
 _atom_site_fract_z
 _atom_site_occupancy
  Hf  Hf0  1  0.000022  0.556974  0.000000  1
  Zr  Zr1  1  0.441710  0.441743  0.000000  1
  Zr  Zr2  1  0.000399  0.180949  0.500000  1
  Zr  Zr3  1  0.556517  0.000226  0.000000  1
  Zr  Zr4  1  0.333281  0.665855  0.000000  1
  Zr  Zr5  1  0.666089  0.333485  0.000000  1
  Zr  Zr6  1  0.180456  0.000222  0.500000  1
  U  U7  1  0.827252  0.827174  0.500000  1
  Co  Co8  1  0.625592  0.820987  0.000000  1
  Co  Co9  1  0.372865  0.192545  0.000000  1
  Co  Co10  1  0.999369  0.720089  0.500000  1
  Co  Co11  1  0.274580  0.274538  0.500000  1
  Co  Co12  1  0.874698  0.357701  0.500000  1
  Co  Co13  1  0.721150  0.999188  0.500000  1
  Co  Co14  1  0.821808  0.624887  0.000000  1
  Co  Co15  1  0.181743  0.805854  0.000000  1
  Co  Co16  1  0.355621  0.873573  0.500000  1
  Co  Co17  1  0.125861  0.481204  0.500000  1
  Co  Co18  1  0.646643  0.519889  0.500000  1
  Co  Co19  1  0.994783  0.994895  0.000000  1
  Co  Co20  1  0.519808  0.645863  0.500000  1
  Co  Co21  1  0.480568  0.126454  0.500000  1
  Co  Co22  1  0.192406  0.373068  0.000000  1
  Co  Co23  1  0.807322  0.183202  0.000000  1
  P  P24  1  0.000681  0.349029  0.000000  1
  P  P25  1  0.827153  0.517545  0.500000  1
  P  P26  1  0.691691  0.174921  0.500000  1
  P  P27  1  0.174552  0.174721  0.000000  1
  P  P28  1  0.652557  0.651900  0.000000  1
  P  P29  1  0.822310  0.006298  0.000000  1
  P  P30  1  0.517516  0.825973  0.500000  1
  P  P31  1  0.173438  0.690120  0.500000  1
  P  P32  1  0.347328  0.000165  0.000000  1
  P  P33  1  0.479911  0.306826  0.500000  1
  P  P34  1  0.005841  0.822175  0.000000  1
  P  P35  1  0.306480  0.479762  0.500000  1
