# generated using pymatgen
data_Dy3UN4
_symmetry_space_group_name_H-M   'P 1'
_cell_length_a   6.92750464
_cell_length_b   9.15172226
_cell_length_c   5.98027580
_cell_angle_alpha   29.22914834
_cell_angle_beta   54.60599242
_cell_angle_gamma   40.80292314
_symmetry_Int_Tables_number   1
_chemical_formula_structural   Dy3UN4
_chemical_formula_sum   'Dy3 U1 N4'
_cell_volume   116.97762687
_cell_formula_units_Z   1
loop_
 _symmetry_equiv_pos_site_id
 _symmetry_equiv_pos_as_xyz
  1  'x, y, z'
loop_
 _atom_site_type_symbol
 _atom_site_label
 _atom_site_symmetry_multiplicity
 _atom_site_fract_x
 _atom_site_fract_y
 _atom_site_fract_z
 _atom_site_occupancy
  Dy  Dy0  1  0.250000  0.500000  0.000000  1
  Dy  Dy1  1  0.750000  0.500000  0.000000  1
  Dy  Dy2  1  0.500000  0.000000  0.000000  1
  U  U3  1  0.000000  0.000000  0.000000  1
  N  N4  1  0.500000  0.500000  0.500000  1
  N  N5  1  0.230522  0.000000  0.538953  1
  N  N6  1  0.000000  0.500000  0.500000  1
  N  N7  1  0.769478  0.000000  0.461047  1
