# generated using pymatgen
data_SmThTe4
_symmetry_space_group_name_H-M   'P 1'
_cell_length_a   8.16277157
_cell_length_b   8.16277222
_cell_length_c   8.16277214
_cell_angle_alpha   149.03392214
_cell_angle_beta   135.91726600
_cell_angle_gamma   54.84375997
_symmetry_Int_Tables_number   1
_chemical_formula_structural   SmThTe4
_chemical_formula_sum   'Sm1 Th1 Te4'
_cell_volume   193.46183892
_cell_formula_units_Z   1
loop_
 _symmetry_equiv_pos_site_id
 _symmetry_equiv_pos_as_xyz
  1  'x, y, z'
loop_
 _atom_site_type_symbol
 _atom_site_label
 _atom_site_symmetry_multiplicity
 _atom_site_fract_x
 _atom_site_fract_y
 _atom_site_fract_z
 _atom_site_occupancy
  Sm  Sm0  1  0.137843  0.137843  0.000000  1
  Th  Th1  1  0.861627  0.861627  0.000000  1
  Te  Te2  1  0.705031  0.205031  0.500000  1
  Te  Te3  1  0.295401  0.795401  0.500000  1
  Te  Te4  1  0.753695  0.500050  0.253647  1
  Te  Te5  1  0.246403  0.500050  0.746353  1
