# generated using pymatgen
data_Yb7HoSbPd24
_symmetry_space_group_name_H-M   'P 1'
_cell_length_a   8.36155344
_cell_length_b   8.36155344
_cell_length_c   8.36155344
_cell_angle_alpha   90.02627469
_cell_angle_beta   90.02627469
_cell_angle_gamma   89.97372531
_symmetry_Int_Tables_number   1
_chemical_formula_structural   Yb7HoSbPd24
_chemical_formula_sum   'Yb7 Ho1 Sb1 Pd24'
_cell_volume   584.60263997
_cell_formula_units_Z   1
loop_
 _symmetry_equiv_pos_site_id
 _symmetry_equiv_pos_as_xyz
  1  'x, y, z'
loop_
 _atom_site_type_symbol
 _atom_site_label
 _atom_site_symmetry_multiplicity
 _atom_site_fract_x
 _atom_site_fract_y
 _atom_site_fract_z
 _atom_site_occupancy
  Yb  Yb0  1  0.747488  0.252282  0.747718  1
  Yb  Yb1  1  0.252282  0.747488  0.747718  1
  Yb  Yb2  1  0.747532  0.747532  0.747790  1
  Yb  Yb3  1  0.747532  0.252210  0.252468  1
  Yb  Yb4  1  0.252707  0.252707  0.747293  1
  Yb  Yb5  1  0.252210  0.747532  0.252468  1
  Yb  Yb6  1  0.252282  0.252282  0.252512  1
  Ho  Ho7  1  0.745678  0.745678  0.254322  1
  Sb  Sb8  1  0.000732  0.000732  0.999268  1
  Pd  Pd9  1  0.999919  0.999919  0.309073  1
  Pd  Pd10  1  0.733981  0.999138  0.499628  1
  Pd  Pd11  1  0.733981  0.500372  0.000862  1
  Pd  Pd12  1  0.500058  0.999608  0.733583  1
  Pd  Pd13  1  0.999138  0.733981  0.499628  1
  Pd  Pd14  1  0.500372  0.999138  0.266019  1
  Pd  Pd15  1  0.999608  0.266417  0.499942  1
  Pd  Pd16  1  0.500372  0.733981  0.000862  1
  Pd  Pd17  1  0.255195  0.500288  0.499712  1
  Pd  Pd18  1  0.500288  0.500288  0.744805  1
  Pd  Pd19  1  0.500396  0.500396  0.255369  1
  Pd  Pd20  1  0.500288  0.255195  0.499712  1
  Pd  Pd21  1  0.500396  0.744631  0.499604  1
  Pd  Pd22  1  0.744631  0.500396  0.499604  1
  Pd  Pd23  1  0.310144  0.000156  0.999844  1
  Pd  Pd24  1  0.000156  0.000156  0.689856  1
  Pd  Pd25  1  0.999138  0.500372  0.266019  1
  Pd  Pd26  1  0.000156  0.310144  0.999844  1
  Pd  Pd27  1  0.999919  0.690927  0.000081  1
  Pd  Pd28  1  0.690927  0.999919  0.000081  1
  Pd  Pd29  1  0.266417  0.500058  0.000392  1
  Pd  Pd30  1  0.266417  0.999608  0.499942  1
  Pd  Pd31  1  0.999608  0.500058  0.733583  1
  Pd  Pd32  1  0.500058  0.266417  0.000392  1
