# generated using pymatgen
data_Hf16Co4Re3Rh
_symmetry_space_group_name_H-M   'P 1'
_cell_length_a   8.63198653
_cell_length_b   8.63198647
_cell_length_c   8.63198689
_cell_angle_alpha   59.86446001
_cell_angle_beta   59.86445847
_cell_angle_gamma   59.86445743
_symmetry_Int_Tables_number   1
_chemical_formula_structural   Hf16Co4Re3Rh
_chemical_formula_sum   'Hf16 Co4 Re3 Rh1'
_cell_volume   453.39786789
_cell_formula_units_Z   1
loop_
 _symmetry_equiv_pos_site_id
 _symmetry_equiv_pos_as_xyz
  1  'x, y, z'
loop_
 _atom_site_type_symbol
 _atom_site_label
 _atom_site_symmetry_multiplicity
 _atom_site_fract_x
 _atom_site_fract_y
 _atom_site_fract_z
 _atom_site_occupancy
  Hf  Hf0  1  0.696862  0.100477  0.100477  1
  Hf  Hf1  1  0.100477  0.696862  0.100477  1
  Hf  Hf2  1  0.100477  0.100477  0.696862  1
  Hf  Hf3  1  0.101144  0.101144  0.101144  1
  Hf  Hf4  1  0.314905  0.314905  0.688636  1
  Hf  Hf5  1  0.685153  0.685153  0.315372  1
  Hf  Hf6  1  0.314905  0.688636  0.314905  1
  Hf  Hf7  1  0.685153  0.315372  0.685153  1
  Hf  Hf8  1  0.688636  0.314905  0.314905  1
  Hf  Hf9  1  0.315372  0.685153  0.685153  1
  Hf  Hf10  1  0.953462  0.953462  0.546422  1
  Hf  Hf11  1  0.548522  0.548522  0.949487  1
  Hf  Hf12  1  0.953462  0.546422  0.953462  1
  Hf  Hf13  1  0.548522  0.949487  0.548522  1
  Hf  Hf14  1  0.546422  0.953462  0.953462  1
  Hf  Hf15  1  0.949487  0.548522  0.548522  1
  Co  Co16  1  0.328686  0.889854  0.889854  1
  Co  Co17  1  0.889854  0.328686  0.889854  1
  Co  Co18  1  0.889854  0.889854  0.328686  1
  Co  Co19  1  0.890328  0.890328  0.890328  1
  Re  Re20  1  0.001173  0.331851  0.331851  1
  Re  Re21  1  0.331851  0.001173  0.331851  1
  Re  Re22  1  0.331851  0.331851  0.001173  1
  Rh  Rh23  1  0.333438  0.333438  0.333438  1
