# generated using pymatgen
data_LiNdCdPt3
_symmetry_space_group_name_H-M   'P 1'
_cell_length_a   5.25182364
_cell_length_b   5.25182250
_cell_length_c   5.25182338
_cell_angle_alpha   63.23504731
_cell_angle_beta   63.23503537
_cell_angle_gamma   63.23503712
_symmetry_Int_Tables_number   1
_chemical_formula_structural   LiNdCdPt3
_chemical_formula_sum   'Li1 Nd1 Cd1 Pt3'
_cell_volume   109.76999565
_cell_formula_units_Z   1
loop_
 _symmetry_equiv_pos_site_id
 _symmetry_equiv_pos_as_xyz
  1  'x, y, z'
loop_
 _atom_site_type_symbol
 _atom_site_label
 _atom_site_symmetry_multiplicity
 _atom_site_fract_x
 _atom_site_fract_y
 _atom_site_fract_z
 _atom_site_occupancy
  Li  Li0  1  0.627436  0.627436  0.627436  1
  Nd  Nd1  1  0.246440  0.246440  0.246440  1
  Cd  Cd2  1  0.996515  0.996515  0.996515  1
  Pt  Pt3  1  0.627193  0.627193  0.125223  1
  Pt  Pt4  1  0.627193  0.125223  0.627193  1
  Pt  Pt5  1  0.125223  0.627193  0.627193  1
