# generated using pymatgen
data_YHo(PdO2)4
_symmetry_space_group_name_H-M   'P 1'
_cell_length_a   6.50554141
_cell_length_b   6.50554203
_cell_length_c   6.50554202
_cell_angle_alpha   126.93518713
_cell_angle_beta   126.93519808
_cell_angle_gamma   78.35644143
_symmetry_Int_Tables_number   1
_chemical_formula_structural   YHo(PdO2)4
_chemical_formula_sum   'Y1 Ho1 Pd4 O8'
_cell_volume   170.35505575
_cell_formula_units_Z   1
loop_
 _symmetry_equiv_pos_site_id
 _symmetry_equiv_pos_as_xyz
  1  'x, y, z'
loop_
 _atom_site_type_symbol
 _atom_site_label
 _atom_site_symmetry_multiplicity
 _atom_site_fract_x
 _atom_site_fract_y
 _atom_site_fract_z
 _atom_site_occupancy
  Y  Y0  1  0.000000  0.000000  0.000000  1
  Ho  Ho1  1  0.750000  0.250000  0.500000  1
  Pd  Pd2  1  0.374818  0.624701  0.249515  1
  Pd  Pd3  1  0.874698  0.625182  0.249883  1
  Pd  Pd4  1  0.375186  0.125302  0.750485  1
  Pd  Pd5  1  0.375299  0.624814  0.750117  1
  O  O6  1  0.990742  0.961254  0.347299  1
  O  O7  1  0.709437  0.864515  0.467851  1
  O  O8  1  0.396664  0.241587  0.532149  1
  O  O9  1  0.613955  0.643442  0.652701  1
  O  O10  1  0.758413  0.290563  0.155078  1
  O  O11  1  0.038746  0.386045  0.029486  1
  O  O12  1  0.135485  0.603336  0.844922  1
  O  O13  1  0.356558  0.009258  0.970514  1
