# generated using pymatgen
data_ThAl2CoSi
_symmetry_space_group_name_H-M   'P 1'
_cell_length_a   5.95555947
_cell_length_b   5.95555931
_cell_length_c   5.95555911
_cell_angle_alpha   139.18435504
_cell_angle_beta   139.18435519
_cell_angle_gamma   59.09386283
_symmetry_Int_Tables_number   1
_chemical_formula_structural   ThAl2CoSi
_chemical_formula_sum   'Th1 Al2 Co1 Si1'
_cell_volume   89.37722888
_cell_formula_units_Z   1
loop_
 _symmetry_equiv_pos_site_id
 _symmetry_equiv_pos_as_xyz
  1  'x, y, z'
loop_
 _atom_site_type_symbol
 _atom_site_label
 _atom_site_symmetry_multiplicity
 _atom_site_fract_x
 _atom_site_fract_y
 _atom_site_fract_z
 _atom_site_occupancy
  Th  Th0  1  0.008745  0.008745  0.000000  1
  Al  Al1  1  0.761825  0.261824  0.500000  1
  Al  Al2  1  0.261824  0.761825  0.500000  1
  Co  Co3  1  0.649177  0.649177  0.000000  1
  Si  Si4  1  0.433432  0.433432  0.000000  1
