# generated using pymatgen
data_CeNd3In2Ir2Rh
_symmetry_space_group_name_H-M   'P 1'
_cell_length_a   7.50949400
_cell_length_b   7.65070598
_cell_length_c   4.25628600
_cell_angle_alpha   90.00000000
_cell_angle_beta   90.00000000
_cell_angle_gamma   119.39129881
_symmetry_Int_Tables_number   1
_chemical_formula_structural   CeNd3In2Ir2Rh
_chemical_formula_sum   'Ce1 Nd3 In2 Ir2 Rh1'
_cell_volume   213.06145925
_cell_formula_units_Z   1
loop_
 _symmetry_equiv_pos_site_id
 _symmetry_equiv_pos_as_xyz
  1  'x, y, z'
loop_
 _atom_site_type_symbol
 _atom_site_label
 _atom_site_symmetry_multiplicity
 _atom_site_fract_x
 _atom_site_fract_y
 _atom_site_fract_z
 _atom_site_occupancy
  Ce  Ce0  1  0.258893  0.000000  0.000000  1
  Nd  Nd1  1  0.618900  0.000000  0.500000  1
  Nd  Nd2  1  0.412479  0.440682  0.500000  1
  Nd  Nd3  1  0.971797  0.559318  0.500000  1
  In  In4  1  0.752899  0.748952  0.000000  1
  In  In5  1  0.003947  0.251048  0.000000  1
  Ir  Ir6  1  0.324798  0.676450  0.000000  1
  Ir  Ir7  1  0.648348  0.323550  0.000000  1
  Rh  Rh8  1  0.007939  0.000000  0.500000  1
