# generated using pymatgen
data_Y4Ga18IrRu3Pt2
_symmetry_space_group_name_H-M   'P 1'
_cell_length_a   7.60257540
_cell_length_b   7.60257469
_cell_length_c   9.57300478
_cell_angle_alpha   90.04381787
_cell_angle_beta   90.04381652
_cell_angle_gamma   120.19317121
_symmetry_Int_Tables_number   1
_chemical_formula_structural   Y4Ga18IrRu3Pt2
_chemical_formula_sum   'Y4 Ga18 Ir1 Ru3 Pt2'
_cell_volume   478.24580535
_cell_formula_units_Z   1
loop_
 _symmetry_equiv_pos_site_id
 _symmetry_equiv_pos_as_xyz
  1  'x, y, z'
loop_
 _atom_site_type_symbol
 _atom_site_label
 _atom_site_symmetry_multiplicity
 _atom_site_fract_x
 _atom_site_fract_y
 _atom_site_fract_z
 _atom_site_occupancy
  Y  Y0  1  0.996423  0.669605  0.250270  1
  Y  Y1  1  0.003489  0.329936  0.749627  1
  Y  Y2  1  0.670064  0.996511  0.250373  1
  Y  Y3  1  0.330395  0.003577  0.749730  1
  Ga  Ga4  1  0.135296  0.134413  0.250533  1
  Ga  Ga5  1  0.865587  0.864704  0.749467  1
  Ga  Ga6  1  0.000014  0.338332  0.079150  1
  Ga  Ga7  1  0.000652  0.661288  0.921551  1
  Ga  Ga8  1  0.002484  0.663374  0.578617  1
  Ga  Ga9  1  0.336626  0.997516  0.421383  1
  Ga  Ga10  1  0.001844  0.338987  0.421313  1
  Ga  Ga11  1  0.661013  0.998156  0.578687  1
  Ga  Ga12  1  0.661668  0.999986  0.920850  1
  Ga  Ga13  1  0.338712  0.999348  0.078449  1
  Ga  Ga14  1  0.338221  0.340895  0.564826  1
  Ga  Ga15  1  0.659105  0.661779  0.435174  1
  Ga  Ga16  1  0.658675  0.658432  0.064843  1
  Ga  Ga17  1  0.341568  0.341325  0.935157  1
  Ga  Ga18  1  0.335501  0.549069  0.250292  1
  Ga  Ga19  1  0.664811  0.453305  0.751164  1
  Ga  Ga20  1  0.546695  0.335189  0.248836  1
  Ga  Ga21  1  0.450931  0.664499  0.749708  1
  Ir  Ir22  1  0.672128  0.327872  0.500000  1
  Ru  Ru23  1  0.672506  0.327494  0.000000  1
  Ru  Ru24  1  0.327986  0.672014  0.000000  1
  Ru  Ru25  1  0.327768  0.672232  0.500000  1
  Pt  Pt26  1  0.000007  0.999993  0.000000  1
  Pt  Pt27  1  0.999829  0.000171  0.500000  1
