# generated using pymatgen
data_Er8Zr12Si15P
_symmetry_space_group_name_H-M   'P 1'
_cell_length_a   7.31254452
_cell_length_b   7.31171138
_cell_length_c   13.44937186
_cell_angle_alpha   89.92622958
_cell_angle_beta   89.84838282
_cell_angle_gamma   90.00623961
_symmetry_Int_Tables_number   1
_chemical_formula_structural   Er8Zr12Si15P
_chemical_formula_sum   'Er8 Zr12 Si15 P1'
_cell_volume   719.09733803
_cell_formula_units_Z   1
loop_
 _symmetry_equiv_pos_site_id
 _symmetry_equiv_pos_as_xyz
  1  'x, y, z'
loop_
 _atom_site_type_symbol
 _atom_site_label
 _atom_site_symmetry_multiplicity
 _atom_site_fract_x
 _atom_site_fract_y
 _atom_site_fract_z
 _atom_site_occupancy
  Er  Er0  1  0.345840  0.003420  0.464309  1
  Er  Er1  1  0.494290  0.849293  0.714305  1
  Er  Er2  1  0.503072  0.153378  0.213762  1
  Er  Er3  1  0.845149  0.495782  0.286168  1
  Er  Er4  1  0.154127  0.500596  0.784879  1
  Er  Er5  1  0.655991  0.994403  0.964661  1
  Er  Er6  1  0.003427  0.345580  0.536623  1
  Er  Er7  1  0.997422  0.654578  0.035569  1
  Zr  Zr8  1  0.324867  0.324748  0.999477  1
  Zr  Zr9  1  0.174733  0.824285  0.249926  1
  Zr  Zr10  1  0.825285  0.175849  0.749472  1
  Zr  Zr11  1  0.674067  0.674676  0.500432  1
  Zr  Zr12  1  0.150337  0.005430  0.871372  1
  Zr  Zr13  1  0.496854  0.647029  0.124214  1
  Zr  Zr14  1  0.499873  0.349891  0.626384  1
  Zr  Zr15  1  0.649329  0.499249  0.875876  1
  Zr  Zr16  1  0.351692  0.502175  0.375551  1
  Zr  Zr17  1  0.851948  0.997113  0.374836  1
  Zr  Zr18  1  0.002927  0.146243  0.125054  1
  Zr  Zr19  1  0.998543  0.854461  0.625581  1
  Si  Si20  1  0.359169  0.706803  0.931825  1
  Si  Si21  1  0.639573  0.294751  0.434186  1
  Si  Si22  1  0.706956  0.359927  0.067748  1
  Si  Si23  1  0.293723  0.640090  0.567695  1
  Si  Si24  1  0.793416  0.859458  0.183064  1
  Si  Si25  1  0.140115  0.205611  0.317378  1
  Si  Si26  1  0.861371  0.794637  0.816609  1
  Si  Si27  1  0.296718  0.949700  0.061866  1
  Si  Si28  1  0.549367  0.796318  0.313074  1
  Si  Si29  1  0.458354  0.204189  0.817190  1
  Si  Si30  1  0.795976  0.550426  0.686376  1
  Si  Si31  1  0.202838  0.449416  0.187169  1
  Si  Si32  1  0.702269  0.049497  0.562959  1
  Si  Si33  1  0.951391  0.296976  0.936841  1
  Si  Si34  1  0.049149  0.703124  0.437240  1
  P  P35  1  0.199843  0.140898  0.680332  1
