# generated using pymatgen
data_Cs4DyNbI12
_symmetry_space_group_name_H-M   'P 1'
_cell_length_a   14.65636020
_cell_length_b   14.65635899
_cell_length_c   14.65635900
_cell_angle_alpha   132.10562091
_cell_angle_beta   132.10562190
_cell_angle_gamma   70.06226325
_symmetry_Int_Tables_number   1
_chemical_formula_structural   Cs4DyNbI12
_chemical_formula_sum   'Cs8 Dy2 Nb2 I24'
_cell_volume   1698.88389968
_cell_formula_units_Z   2
loop_
 _symmetry_equiv_pos_site_id
 _symmetry_equiv_pos_as_xyz
  1  'x, y, z'
loop_
 _atom_site_type_symbol
 _atom_site_label
 _atom_site_symmetry_multiplicity
 _atom_site_fract_x
 _atom_site_fract_y
 _atom_site_fract_z
 _atom_site_occupancy
  Cs  Cs0  1  0.375055  0.348114  0.470830  1
  Cs  Cs1  1  0.095780  0.624925  0.973052  1
  Cs  Cs2  1  0.877249  0.904200  0.529116  1
  Cs  Cs3  1  0.098154  0.127280  0.473089  1
  Cs  Cs4  1  0.374945  0.901886  0.029170  1
  Cs  Cs5  1  0.654220  0.625075  0.526948  1
  Cs  Cs6  1  0.651846  0.122720  0.026911  1
  Cs  Cs7  1  0.872751  0.345800  0.970884  1
  Dy  Dy8  1  0.749999  0.250004  0.500002  1
  Dy  Dy9  1  0.000001  0.999996  0.999998  1
  Nb  Nb10  1  0.250006  0.749997  0.500001  1
  Nb  Nb11  1  0.499994  0.500003  0.999999  1
  I  I12  1  0.014413  0.770099  0.288556  1
  I  I13  1  0.019651  0.259863  0.269038  1
  I  I14  1  0.274145  0.985600  0.755704  1
  I  I15  1  0.009862  0.240825  0.740215  1
  I  I16  1  0.133902  0.633902  0.499965  1
  I  I17  1  0.268432  0.524123  0.788549  1
  I  I18  1  0.481568  0.725877  0.711451  1
  I  I19  1  0.500600  0.269640  0.259791  1
  I  I20  1  0.475855  0.264400  0.744296  1
  I  I21  1  0.616098  0.616098  0.000035  1
  I  I22  1  0.520123  0.731576  0.255704  1
  I  I23  1  0.126596  0.126591  0.000030  1
  I  I24  1  0.873413  0.873407  0.999975  1
  I  I25  1  0.990815  0.750603  0.730975  1
  I  I26  1  0.740138  0.009175  0.759785  1
  I  I27  1  0.249400  0.980360  0.240209  1
  I  I28  1  0.735587  0.479901  0.211444  1
  I  I29  1  0.229877  0.518424  0.244296  1
  I  I30  1  0.366098  0.866099  0.500033  1
  I  I31  1  0.876587  0.376593  0.500025  1
  I  I32  1  0.383902  0.383901  0.999967  1
  I  I33  1  0.623404  0.123409  0.499970  1
  I  I34  1  0.759185  0.499397  0.769025  1
  I  I35  1  0.730349  0.990137  0.230962  1
