# generated using pymatgen
data_Ti2Cu7Pd
_symmetry_space_group_name_H-M   'P 1'
_cell_length_a   4.36692000
_cell_length_b   4.55584300
_cell_length_c   13.16634700
_cell_angle_alpha   90.00000000
_cell_angle_beta   90.00000000
_cell_angle_gamma   90.00000000
_symmetry_Int_Tables_number   1
_chemical_formula_structural   Ti2Cu7Pd
_chemical_formula_sum   'Ti4 Cu14 Pd2'
_cell_volume   261.94449876
_cell_formula_units_Z   2
loop_
 _symmetry_equiv_pos_site_id
 _symmetry_equiv_pos_as_xyz
  1  'x, y, z'
loop_
 _atom_site_type_symbol
 _atom_site_label
 _atom_site_symmetry_multiplicity
 _atom_site_fract_x
 _atom_site_fract_y
 _atom_site_fract_z
 _atom_site_occupancy
  Ti  Ti0  1  0.250000  0.155007  0.597075  1
  Ti  Ti1  1  0.250000  0.655007  0.902925  1
  Ti  Ti2  1  0.750000  0.843392  0.403434  1
  Ti  Ti3  1  0.750000  0.343392  0.096566  1
  Cu  Cu4  1  0.750000  0.829400  0.997538  1
  Cu  Cu5  1  0.750000  0.329400  0.502462  1
  Cu  Cu6  1  0.250000  0.157663  0.795852  1
  Cu  Cu7  1  0.250000  0.657663  0.704148  1
  Cu  Cu8  1  0.750000  0.842168  0.201272  1
  Cu  Cu9  1  0.750000  0.342168  0.298728  1
  Cu  Cu10  1  0.250000  0.176908  0.392122  1
  Cu  Cu11  1  0.250000  0.676908  0.107878  1
  Cu  Cu12  1  0.750000  0.827406  0.607941  1
  Cu  Cu13  1  0.750000  0.327406  0.892059  1
  Cu  Cu14  1  0.250000  0.168894  0.204233  1
  Cu  Cu15  1  0.250000  0.668894  0.295767  1
  Cu  Cu16  1  0.750000  0.833019  0.799049  1
  Cu  Cu17  1  0.750000  0.333019  0.700951  1
  Pd  Pd18  1  0.250000  0.166144  0.001246  1
  Pd  Pd19  1  0.250000  0.666144  0.498754  1
