# generated using pymatgen
data_Ce4DyTm5(CoBi2)2
_symmetry_space_group_name_H-M   'P 1'
_cell_length_a   7.89042454
_cell_length_b   9.01950300
_cell_length_c   12.07977328
_cell_angle_alpha   90.00000000
_cell_angle_beta   90.16923021
_cell_angle_gamma   90.00000000
_symmetry_Int_Tables_number   1
_chemical_formula_structural   Ce4DyTm5(CoBi2)2
_chemical_formula_sum   'Ce8 Dy2 Tm10 Co4 Bi8'
_cell_volume   859.68602470
_cell_formula_units_Z   2
loop_
 _symmetry_equiv_pos_site_id
 _symmetry_equiv_pos_as_xyz
  1  'x, y, z'
loop_
 _atom_site_type_symbol
 _atom_site_label
 _atom_site_symmetry_multiplicity
 _atom_site_fract_x
 _atom_site_fract_y
 _atom_site_fract_z
 _atom_site_occupancy
  Ce  Ce0  1  0.656588  0.013873  0.550892  1
  Ce  Ce1  1  0.343412  0.986127  0.449108  1
  Ce  Ce2  1  0.155656  0.985854  0.948520  1
  Ce  Ce3  1  0.343412  0.513873  0.449108  1
  Ce  Ce4  1  0.844344  0.014146  0.051480  1
  Ce  Ce5  1  0.656588  0.486127  0.550892  1
  Ce  Ce6  1  0.844344  0.485854  0.051480  1
  Ce  Ce7  1  0.155656  0.514146  0.948520  1
  Dy  Dy8  1  0.480475  0.250000  0.000578  1
  Dy  Dy9  1  0.519525  0.750000  0.999422  1
  Tm  Tm10  1  0.834878  0.750000  0.790534  1
  Tm  Tm11  1  0.165122  0.250000  0.209466  1
  Tm  Tm12  1  0.334693  0.250000  0.707751  1
  Tm  Tm13  1  0.665307  0.750000  0.292249  1
  Tm  Tm14  1  0.368973  0.750000  0.699859  1
  Tm  Tm15  1  0.631027  0.250000  0.300141  1
  Tm  Tm16  1  0.869269  0.250000  0.798407  1
  Tm  Tm17  1  0.130731  0.750000  0.201593  1
  Tm  Tm18  1  0.978821  0.750000  0.499844  1
  Tm  Tm19  1  0.021179  0.250000  0.500156  1
  Co  Co20  1  0.630880  0.750000  0.538162  1
  Co  Co21  1  0.369120  0.250000  0.461838  1
  Co  Co22  1  0.128336  0.250000  0.961841  1
  Co  Co23  1  0.871664  0.750000  0.038159  1
  Bi  Bi24  1  0.567205  0.492857  0.823834  1
  Bi  Bi25  1  0.432795  0.507143  0.176166  1
  Bi  Bi26  1  0.066335  0.507103  0.674398  1
  Bi  Bi27  1  0.432795  0.992857  0.176166  1
  Bi  Bi28  1  0.933665  0.492897  0.325602  1
  Bi  Bi29  1  0.567205  0.007143  0.823834  1
  Bi  Bi30  1  0.933665  0.007103  0.325602  1
  Bi  Bi31  1  0.066335  0.992897  0.674398  1
