# generated using pymatgen
data_Tl(IBr4)3
_symmetry_space_group_name_H-M   'P 1'
_cell_length_a   7.48508448
_cell_length_b   11.78223245
_cell_length_c   12.01920495
_cell_angle_alpha   55.20182664
_cell_angle_beta   89.36426291
_cell_angle_gamma   95.93242102
_symmetry_Int_Tables_number   1
_chemical_formula_structural   Tl(IBr4)3
_chemical_formula_sum   'Tl1 I3 Br12'
_cell_volume   862.57155578
_cell_formula_units_Z   1
loop_
 _symmetry_equiv_pos_site_id
 _symmetry_equiv_pos_as_xyz
  1  'x, y, z'
loop_
 _atom_site_type_symbol
 _atom_site_label
 _atom_site_symmetry_multiplicity
 _atom_site_fract_x
 _atom_site_fract_y
 _atom_site_fract_z
 _atom_site_occupancy
  Tl  Tl0  1  0.537384  0.179534  0.488215  1
  I  I1  1  0.923488  0.242031  0.985029  1
  I  I2  1  0.523335  0.805650  0.482069  1
  I  I3  1  0.022054  0.696859  0.071470  1
  Br  Br4  1  0.830717  0.445008  0.737566  1
  Br  Br5  1  0.363981  0.601147  0.742380  1
  Br  Br6  1  0.215954  0.712779  0.249290  1
  Br  Br7  1  0.612847  0.397289  0.244670  1
  Br  Br8  1  0.225905  0.421760  0.979994  1
  Br  Br9  1  0.746049  0.628822  0.491736  1
  Br  Br10  1  0.805228  0.654207  0.918331  1
  Br  Br11  1  0.287120  0.208413  0.627658  1
  Br  Br12  1  0.664252  0.049677  0.043295  1
  Br  Br13  1  0.307744  0.992983  0.444932  1
  Br  Br14  1  0.167938  0.941185  0.857786  1
  Br  Br15  1  0.766004  0.022657  0.635579  1
