# generated using pymatgen
data_SmDy3(AuCl6)4
_symmetry_space_group_name_H-M   'P 1'
_cell_length_a   7.78051354
_cell_length_b   9.95467101
_cell_length_c   14.12295540
_cell_angle_alpha   103.32443086
_cell_angle_beta   97.14953591
_cell_angle_gamma   112.49557493
_symmetry_Int_Tables_number   1
_chemical_formula_structural   SmDy3(AuCl6)4
_chemical_formula_sum   'Sm1 Dy3 Au4 Cl24'
_cell_volume   955.51733247
_cell_formula_units_Z   1
loop_
 _symmetry_equiv_pos_site_id
 _symmetry_equiv_pos_as_xyz
  1  'x, y, z'
loop_
 _atom_site_type_symbol
 _atom_site_label
 _atom_site_symmetry_multiplicity
 _atom_site_fract_x
 _atom_site_fract_y
 _atom_site_fract_z
 _atom_site_occupancy
  Sm  Sm0  1  0.971676  0.314206  0.872044  1
  Dy  Dy1  1  0.578026  0.926824  0.620838  1
  Dy  Dy2  1  0.029839  0.686488  0.129568  1
  Dy  Dy3  1  0.420259  0.072576  0.377725  1
  Au  Au4  1  0.293073  0.635357  0.762681  1
  Au  Au5  1  0.499061  0.499032  0.499418  1
  Au  Au6  1  0.708713  0.366984  0.236783  1
  Au  Au7  1  0.999734  0.998471  0.001409  1
  Cl  Cl8  1  0.779602  0.099355  0.973831  1
  Cl  Cl9  1  0.721051  0.150089  0.265544  1
  Cl  Cl10  1  0.280325  0.851759  0.733709  1
  Cl  Cl11  1  0.771822  0.788664  0.030095  1
  Cl  Cl12  1  0.613785  0.190572  0.741763  1
  Cl  Cl13  1  0.305893  0.415213  0.786694  1
  Cl  Cl14  1  0.699432  0.588437  0.213457  1
  Cl  Cl15  1  0.304460  0.627771  0.500116  1
  Cl  Cl16  1  0.229481  0.207884  0.972668  1
  Cl  Cl17  1  0.756698  0.732466  0.526475  1
  Cl  Cl18  1  0.217756  0.896101  0.029308  1
  Cl  Cl19  1  0.720513  0.047631  0.483296  1
  Cl  Cl20  1  0.607089  0.734137  0.746351  1
  Cl  Cl21  1  0.941755  0.056010  0.728805  1
  Cl  Cl22  1  0.241178  0.265376  0.472005  1
  Cl  Cl23  1  0.381634  0.808211  0.257001  1
  Cl  Cl24  1  0.976150  0.540567  0.775433  1
  Cl  Cl25  1  0.766118  0.439021  0.979818  1
  Cl  Cl26  1  0.236861  0.567816  0.025092  1
  Cl  Cl27  1  0.024736  0.462987  0.222675  1
  Cl  Cl28  1  0.394646  0.268038  0.253310  1
  Cl  Cl29  1  0.277245  0.950292  0.514697  1
  Cl  Cl30  1  0.693858  0.370468  0.499115  1
  Cl  Cl31  1  0.057532  0.941197  0.268278  1
