# generated using pymatgen
data_Cs4VReCl12
_symmetry_space_group_name_H-M   'P 1'
_cell_length_a   7.49640182
_cell_length_b   7.45213066
_cell_length_c   10.64146500
_cell_angle_alpha   90.00000000
_cell_angle_beta   90.00000000
_cell_angle_gamma   89.16855577
_symmetry_Int_Tables_number   1
_chemical_formula_structural   Cs4VReCl12
_chemical_formula_sum   'Cs4 V1 Re1 Cl12'
_cell_volume   594.41397385
_cell_formula_units_Z   1
loop_
 _symmetry_equiv_pos_site_id
 _symmetry_equiv_pos_as_xyz
  1  'x, y, z'
loop_
 _atom_site_type_symbol
 _atom_site_label
 _atom_site_symmetry_multiplicity
 _atom_site_fract_x
 _atom_site_fract_y
 _atom_site_fract_z
 _atom_site_occupancy
  Cs  Cs0  1  0.500000  0.000000  0.753279  1
  Cs  Cs1  1  0.000000  0.500000  0.246760  1
  Cs  Cs2  1  0.500000  0.000000  0.246721  1
  Cs  Cs3  1  0.000000  0.500000  0.753240  1
  V  V4  1  0.000000  0.000000  0.000000  1
  Re  Re5  1  0.500000  0.500000  0.500000  1
  Cl  Cl6  1  0.000000  0.000000  0.780105  1
  Cl  Cl7  1  0.500000  0.500000  0.275801  1
  Cl  Cl8  1  0.723085  0.723744  0.500000  1
  Cl  Cl9  1  0.220866  0.221704  0.000000  1
  Cl  Cl10  1  0.726262  0.273074  0.500000  1
  Cl  Cl11  1  0.219601  0.779506  0.000000  1
  Cl  Cl12  1  0.000000  0.000000  0.219895  1
  Cl  Cl13  1  0.500000  0.500000  0.724199  1
  Cl  Cl14  1  0.276915  0.276256  0.500000  1
  Cl  Cl15  1  0.779134  0.778296  0.000000  1
  Cl  Cl16  1  0.273738  0.726926  0.500000  1
  Cl  Cl17  1  0.780399  0.220494  0.000000  1
