# generated using pymatgen
data_LiTbDyAgBi4
_symmetry_space_group_name_H-M   'P 1'
_cell_length_a   4.53140900
_cell_length_b   4.53324800
_cell_length_c   10.41933900
_cell_angle_alpha   90.00000000
_cell_angle_beta   90.00000000
_cell_angle_gamma   90.00000000
_symmetry_Int_Tables_number   1
_chemical_formula_structural   LiTbDyAgBi4
_chemical_formula_sum   'Li1 Tb1 Dy1 Ag1 Bi4'
_cell_volume   214.03406993
_cell_formula_units_Z   1
loop_
 _symmetry_equiv_pos_site_id
 _symmetry_equiv_pos_as_xyz
  1  'x, y, z'
loop_
 _atom_site_type_symbol
 _atom_site_label
 _atom_site_symmetry_multiplicity
 _atom_site_fract_x
 _atom_site_fract_y
 _atom_site_fract_z
 _atom_site_occupancy
  Li  Li0  1  0.000000  0.000000  0.499718  1
  Tb  Tb1  1  0.500000  0.000000  0.759734  1
  Dy  Dy2  1  0.000000  0.500000  0.240184  1
  Ag  Ag3  1  0.500000  0.500000  0.499569  1
  Bi  Bi4  1  0.000000  0.000000  0.000624  1
  Bi  Bi5  1  0.500000  0.500000  0.000704  1
  Bi  Bi6  1  0.000000  0.500000  0.681686  1
  Bi  Bi7  1  0.500000  0.000000  0.317781  1
