# generated using pymatgen
data_Y20Cd6OsPd
_symmetry_space_group_name_H-M   'P 1'
_cell_length_a   9.70004900
_cell_length_b   9.70004938
_cell_length_c   9.87286300
_cell_angle_alpha   90.00000000
_cell_angle_beta   90.00000000
_cell_angle_gamma   120.00000212
_symmetry_Int_Tables_number   1
_chemical_formula_structural   Y20Cd6OsPd
_chemical_formula_sum   'Y20 Cd6 Os1 Pd1'
_cell_volume   804.49177110
_cell_formula_units_Z   1
loop_
 _symmetry_equiv_pos_site_id
 _symmetry_equiv_pos_as_xyz
  1  'x, y, z'
loop_
 _atom_site_type_symbol
 _atom_site_label
 _atom_site_symmetry_multiplicity
 _atom_site_fract_x
 _atom_site_fract_y
 _atom_site_fract_z
 _atom_site_occupancy
  Y  Y0  1  0.209565  0.790435  0.939031  1
  Y  Y1  1  0.209565  0.419131  0.939031  1
  Y  Y2  1  0.580869  0.790435  0.939031  1
  Y  Y3  1  0.792330  0.207670  0.058097  1
  Y  Y4  1  0.792330  0.584659  0.058097  1
  Y  Y5  1  0.415341  0.207670  0.058097  1
  Y  Y6  1  0.792330  0.207670  0.441903  1
  Y  Y7  1  0.792330  0.584659  0.441903  1
  Y  Y8  1  0.415341  0.207670  0.441903  1
  Y  Y9  1  0.209565  0.790435  0.560969  1
  Y  Y10  1  0.209565  0.419131  0.560969  1
  Y  Y11  1  0.580869  0.790435  0.560969  1
  Y  Y12  1  0.540381  0.459619  0.750000  1
  Y  Y13  1  0.540381  0.080762  0.750000  1
  Y  Y14  1  0.919238  0.459619  0.750000  1
  Y  Y15  1  0.456868  0.543132  0.250000  1
  Y  Y16  1  0.456868  0.913736  0.250000  1
  Y  Y17  1  0.086264  0.543132  0.250000  1
  Y  Y18  1  0.000000  0.000000  0.000531  1
  Y  Y19  1  0.000000  0.000000  0.499469  1
  Cd  Cd20  1  0.884666  0.115334  0.750000  1
  Cd  Cd21  1  0.884666  0.769333  0.750000  1
  Cd  Cd22  1  0.230667  0.115334  0.750000  1
  Cd  Cd23  1  0.115306  0.884694  0.250000  1
  Cd  Cd24  1  0.115306  0.230611  0.250000  1
  Cd  Cd25  1  0.769389  0.884694  0.250000  1
  Os  Os26  1  0.333333  0.666667  0.750000  1
  Pd  Pd27  1  0.666667  0.333333  0.250000  1
