# generated using pymatgen
data_Lu4Ti3Nb3Si8
_symmetry_space_group_name_H-M   'P 1'
_cell_length_a   6.99521690
_cell_length_b   6.99543751
_cell_length_c   12.86257841
_cell_angle_alpha   90.07709789
_cell_angle_beta   89.95786176
_cell_angle_gamma   90.01182021
_symmetry_Int_Tables_number   1
_chemical_formula_structural   Lu4Ti3Nb3Si8
_chemical_formula_sum   'Lu8 Ti6 Nb6 Si16'
_cell_volume   629.42441094
_cell_formula_units_Z   2
loop_
 _symmetry_equiv_pos_site_id
 _symmetry_equiv_pos_as_xyz
  1  'x, y, z'
loop_
 _atom_site_type_symbol
 _atom_site_label
 _atom_site_symmetry_multiplicity
 _atom_site_fract_x
 _atom_site_fract_y
 _atom_site_fract_z
 _atom_site_occupancy
  Lu  Lu0  1  0.341883  0.000593  0.466333  1
  Lu  Lu1  1  0.499078  0.841903  0.716274  1
  Lu  Lu2  1  0.501050  0.157197  0.216932  1
  Lu  Lu3  1  0.840421  0.499846  0.283567  1
  Lu  Lu4  1  0.158467  0.500607  0.782733  1
  Lu  Lu5  1  0.657570  0.998671  0.966802  1
  Lu  Lu6  1  0.000336  0.341515  0.533014  1
  Lu  Lu7  1  0.999288  0.659869  0.033166  1
  Ti  Ti8  1  0.507272  0.347938  0.624452  1
  Ti  Ti9  1  0.652451  0.492048  0.875775  1
  Ti  Ti10  1  0.348932  0.507207  0.376010  1
  Ti  Ti11  1  0.847841  0.992494  0.373821  1
  Ti  Ti12  1  0.007347  0.151338  0.125847  1
  Ti  Ti13  1  0.992425  0.847807  0.626136  1
  Nb  Nb14  1  0.328045  0.327936  0.000332  1
  Nb  Nb15  1  0.171939  0.828132  0.250595  1
  Nb  Nb16  1  0.828421  0.172070  0.749833  1
  Nb  Nb17  1  0.671826  0.671402  0.500106  1
  Nb  Nb18  1  0.151387  0.006726  0.874203  1
  Nb  Nb19  1  0.493267  0.651714  0.123496  1
  Si  Si20  1  0.205918  0.132990  0.681057  1
  Si  Si21  1  0.368096  0.704792  0.930825  1
  Si  Si22  1  0.631791  0.295582  0.432885  1
  Si  Si23  1  0.706632  0.364381  0.068128  1
  Si  Si24  1  0.295517  0.631918  0.567273  1
  Si  Si25  1  0.796445  0.868927  0.182939  1
  Si  Si26  1  0.131920  0.204655  0.317972  1
  Si  Si27  1  0.864568  0.793721  0.817516  1
  Si  Si28  1  0.293811  0.954497  0.064349  1
  Si  Si29  1  0.546820  0.794571  0.314664  1
  Si  Si30  1  0.454403  0.208182  0.812701  1
  Si  Si31  1  0.793800  0.545963  0.686116  1
  Si  Si32  1  0.204456  0.452103  0.187364  1
  Si  Si33  1  0.707324  0.046627  0.563276  1
  Si  Si34  1  0.952765  0.296895  0.936643  1
  Si  Si35  1  0.046490  0.707183  0.436865  1
