# generated using pymatgen
data_Dy5Y5(Bi3Se)2
_symmetry_space_group_name_H-M   'P 1'
_cell_length_a   9.29483200
_cell_length_b   9.29483279
_cell_length_c   6.63902100
_cell_angle_alpha   90.00000000
_cell_angle_beta   90.00000000
_cell_angle_gamma   120.02626562
_symmetry_Int_Tables_number   1
_chemical_formula_structural   Dy5Y5(Bi3Se)2
_chemical_formula_sum   'Dy5 Y5 Bi6 Se2'
_cell_volume   496.59551689
_cell_formula_units_Z   1
loop_
 _symmetry_equiv_pos_site_id
 _symmetry_equiv_pos_as_xyz
  1  'x, y, z'
loop_
 _atom_site_type_symbol
 _atom_site_label
 _atom_site_symmetry_multiplicity
 _atom_site_fract_x
 _atom_site_fract_y
 _atom_site_fract_z
 _atom_site_occupancy
  Dy  Dy0  1  0.666693  0.333358  0.499991  1
  Dy  Dy1  1  0.333358  0.666693  0.499991  1
  Dy  Dy2  1  0.333358  0.666693  0.000009  1
  Dy  Dy3  1  0.666693  0.333358  0.000009  1
  Dy  Dy4  1  0.745579  0.745579  0.250000  1
  Y  Y5  1  0.254774  0.000018  0.250000  1
  Y  Y6  1  0.000018  0.254774  0.250000  1
  Y  Y7  1  0.254693  0.254693  0.750000  1
  Y  Y8  1  0.745289  0.999941  0.750000  1
  Y  Y9  1  0.999941  0.745289  0.750000  1
  Bi  Bi10  1  0.394465  0.394465  0.250000  1
  Bi  Bi11  1  0.605798  0.999807  0.250000  1
  Bi  Bi12  1  0.999807  0.605798  0.250000  1
  Bi  Bi13  1  0.605769  0.605769  0.750000  1
  Bi  Bi14  1  0.394259  0.000021  0.750000  1
  Bi  Bi15  1  0.000021  0.394259  0.750000  1
  Se  Se16  1  0.999743  0.999743  0.499776  1
  Se  Se17  1  0.999743  0.999743  0.000224  1
