# generated using pymatgen
data_Pr9Y(RuPt2)2
_symmetry_space_group_name_H-M   'P 1'
_cell_length_a   11.48856800
_cell_length_b   11.48856800
_cell_length_c   6.55390500
_cell_angle_alpha   90.00000000
_cell_angle_beta   90.00000000
_cell_angle_gamma   90.00000000
_symmetry_Int_Tables_number   1
_chemical_formula_structural   Pr9Y(RuPt2)2
_chemical_formula_sum   'Pr18 Y2 Ru4 Pt8'
_cell_volume   865.03153522
_cell_formula_units_Z   2
loop_
 _symmetry_equiv_pos_site_id
 _symmetry_equiv_pos_as_xyz
  1  'x, y, z'
loop_
 _atom_site_type_symbol
 _atom_site_label
 _atom_site_symmetry_multiplicity
 _atom_site_fract_x
 _atom_site_fract_y
 _atom_site_fract_z
 _atom_site_occupancy
  Pr  Pr0  1  0.297853  0.087721  0.372893  1
  Pr  Pr1  1  0.297853  0.912279  0.872893  1
  Pr  Pr2  1  0.702147  0.087721  0.872893  1
  Pr  Pr3  1  0.702147  0.912279  0.372893  1
  Pr  Pr4  1  0.587740  0.793985  0.874123  1
  Pr  Pr5  1  0.587740  0.206015  0.374123  1
  Pr  Pr6  1  0.412260  0.793985  0.374123  1
  Pr  Pr7  1  0.412260  0.206015  0.874123  1
  Pr  Pr8  1  0.206015  0.412260  0.625877  1
  Pr  Pr9  1  0.206015  0.587740  0.125877  1
  Pr  Pr10  1  0.793985  0.412260  0.125877  1
  Pr  Pr11  1  0.793985  0.587740  0.625877  1
  Pr  Pr12  1  0.912279  0.702147  0.127107  1
  Pr  Pr13  1  0.912279  0.297853  0.627107  1
  Pr  Pr14  1  0.087721  0.702147  0.627107  1
  Pr  Pr15  1  0.087721  0.297853  0.127107  1
  Pr  Pr16  1  0.000000  0.000000  0.500000  1
  Pr  Pr17  1  0.000000  0.000000  0.000000  1
  Y  Y18  1  0.500000  0.500000  0.000000  1
  Y  Y19  1  0.500000  0.500000  0.500000  1
  Ru  Ru20  1  0.500000  0.000000  0.114866  1
  Ru  Ru21  1  0.500000  0.000000  0.614866  1
  Ru  Ru22  1  0.000000  0.500000  0.885134  1
  Ru  Ru23  1  0.000000  0.500000  0.385134  1
  Pt  Pt24  1  0.845607  0.154393  0.250000  1
  Pt  Pt25  1  0.845607  0.845607  0.750000  1
  Pt  Pt26  1  0.154393  0.154393  0.750000  1
  Pt  Pt27  1  0.154393  0.845607  0.250000  1
  Pt  Pt28  1  0.646850  0.353150  0.750000  1
  Pt  Pt29  1  0.646850  0.646850  0.250000  1
  Pt  Pt30  1  0.353150  0.353150  0.250000  1
  Pt  Pt31  1  0.353150  0.646850  0.750000  1
