# generated using pymatgen
data_SmTh7ScS17
_symmetry_space_group_name_H-M   'P 1'
_cell_length_a   8.07910144
_cell_length_b   8.07910037
_cell_length_c   10.74526800
_cell_angle_alpha   80.14037309
_cell_angle_beta   80.14037440
_cell_angle_gamma   65.12232747
_symmetry_Int_Tables_number   1
_chemical_formula_structural   SmTh7ScS17
_chemical_formula_sum   'Sm1 Th7 Sc1 S17'
_cell_volume   623.01222150
_cell_formula_units_Z   1
loop_
 _symmetry_equiv_pos_site_id
 _symmetry_equiv_pos_as_xyz
  1  'x, y, z'
loop_
 _atom_site_type_symbol
 _atom_site_label
 _atom_site_symmetry_multiplicity
 _atom_site_fract_x
 _atom_site_fract_y
 _atom_site_fract_z
 _atom_site_occupancy
  Sm  Sm0  1  0.793271  0.793271  0.457553  1
  Th  Th1  1  0.207058  0.207058  0.542453  1
  Th  Th2  1  0.698960  0.184862  0.699270  1
  Th  Th3  1  0.184862  0.698960  0.699270  1
  Th  Th4  1  0.812537  0.301950  0.299503  1
  Th  Th5  1  0.682165  0.682165  0.977558  1
  Th  Th6  1  0.318848  0.318848  0.022019  1
  Th  Th7  1  0.301950  0.812537  0.299503  1
  Sc  Sc8  1  0.999444  0.999444  0.002091  1
  S  S9  1  0.479485  0.479485  0.166087  1
  S  S10  1  0.693573  0.693573  0.245647  1
  S  S11  1  0.570373  0.176449  0.468908  1
  S  S12  1  0.057856  0.672706  0.965972  1
  S  S13  1  0.208808  0.208808  0.278230  1
  S  S14  1  0.428905  0.825175  0.531011  1
  S  S15  1  0.519799  0.519799  0.831659  1
  S  S16  1  0.672706  0.057856  0.965972  1
  S  S17  1  0.939575  0.939575  0.233038  1
  S  S18  1  0.060344  0.060344  0.769134  1
  S  S19  1  0.304174  0.304174  0.754954  1
  S  S20  1  0.327288  0.943056  0.033950  1
  S  S21  1  0.825175  0.428905  0.531011  1
  S  S22  1  0.943056  0.327288  0.033950  1
  S  S23  1  0.176449  0.570373  0.468908  1
  S  S24  1  0.001020  0.001020  0.500189  1
  S  S25  1  0.792317  0.792317  0.722160  1
