# generated using pymatgen
data_AcLa4Pr(OsI3)2
_symmetry_space_group_name_H-M   'P 1'
_cell_length_a   4.45789200
_cell_length_b   9.72107263
_cell_length_c   12.67951154
_cell_angle_alpha   87.05694769
_cell_angle_beta   90.00000000
_cell_angle_gamma   90.00000000
_symmetry_Int_Tables_number   1
_chemical_formula_structural   AcLa4Pr(OsI3)2
_chemical_formula_sum   'Ac1 La4 Pr1 Os2 I6'
_cell_volume   548.74814768
_cell_formula_units_Z   1
loop_
 _symmetry_equiv_pos_site_id
 _symmetry_equiv_pos_as_xyz
  1  'x, y, z'
loop_
 _atom_site_type_symbol
 _atom_site_label
 _atom_site_symmetry_multiplicity
 _atom_site_fract_x
 _atom_site_fract_y
 _atom_site_fract_z
 _atom_site_occupancy
  Ac  Ac0  1  0.750000  0.683119  0.118172  1
  La  La1  1  0.250000  0.889948  0.328173  1
  La  La2  1  0.250000  0.308095  0.881294  1
  La  La3  1  0.250000  0.906735  0.895654  1
  La  La4  1  0.750000  0.115947  0.670442  1
  Pr  Pr5  1  0.750000  0.095482  0.105356  1
  Os  Os6  1  0.250000  0.892309  0.124991  1
  Os  Os7  1  0.750000  0.112706  0.873766  1
  I  I8  1  0.250000  0.385773  0.135697  1
  I  I9  1  0.750000  0.131467  0.379883  1
  I  I10  1  0.750000  0.599340  0.859597  1
  I  I11  1  0.250000  0.360381  0.623317  1
  I  I12  1  0.750000  0.644548  0.383853  1
  I  I13  1  0.250000  0.874150  0.619808  1
