# generated using pymatgen
data_Tb4Lu16Bi11Ir
_symmetry_space_group_name_H-M   'P 1'
_cell_length_a   8.06163577
_cell_length_b   9.37868700
_cell_length_c   11.89924582
_cell_angle_alpha   90.00000000
_cell_angle_beta   90.36459123
_cell_angle_gamma   90.00000000
_symmetry_Int_Tables_number   1
_chemical_formula_structural   Tb4Lu16Bi11Ir
_chemical_formula_sum   'Tb4 Lu16 Bi11 Ir1'
_cell_volume   899.65471080
_cell_formula_units_Z   1
loop_
 _symmetry_equiv_pos_site_id
 _symmetry_equiv_pos_as_xyz
  1  'x, y, z'
loop_
 _atom_site_type_symbol
 _atom_site_label
 _atom_site_symmetry_multiplicity
 _atom_site_fract_x
 _atom_site_fract_y
 _atom_site_fract_z
 _atom_site_occupancy
  Tb  Tb0  1  0.316267  0.250000  0.220908  1
  Tb  Tb1  1  0.811668  0.250000  0.283194  1
  Tb  Tb2  1  0.656169  0.750000  0.795145  1
  Tb  Tb3  1  0.197453  0.750000  0.722403  1
  Lu  Lu4  1  0.356929  0.750000  0.196277  1
  Lu  Lu5  1  0.848028  0.750000  0.282646  1
  Lu  Lu6  1  0.650313  0.250000  0.781367  1
  Lu  Lu7  1  0.149286  0.250000  0.719867  1
  Lu  Lu8  1  0.675784  0.575097  0.054408  1
  Lu  Lu9  1  0.192163  0.932773  0.435479  1
  Lu  Lu10  1  0.314224  0.033364  0.941353  1
  Lu  Lu11  1  0.807605  0.433238  0.561043  1
  Lu  Lu12  1  0.314224  0.466636  0.941353  1
  Lu  Lu13  1  0.807605  0.066762  0.561043  1
  Lu  Lu14  1  0.675784  0.924903  0.054408  1
  Lu  Lu15  1  0.192163  0.567227  0.435479  1
  Lu  Lu16  1  0.478519  0.250000  0.488802  1
  Lu  Lu17  1  0.984363  0.250000  0.008314  1
  Lu  Lu18  1  0.523567  0.750000  0.509342  1
  Lu  Lu19  1  0.051392  0.750000  0.992191  1
  Bi  Bi20  1  0.904717  0.750000  0.543667  1
  Bi  Bi21  1  0.596841  0.250000  0.039170  1
  Bi  Bi22  1  0.098236  0.250000  0.460662  1
  Bi  Bi23  1  0.564272  0.993014  0.327008  1
  Bi  Bi24  1  0.058285  0.502885  0.175801  1
  Bi  Bi25  1  0.435190  0.491964  0.671044  1
  Bi  Bi26  1  0.933841  0.003249  0.826271  1
  Bi  Bi27  1  0.435190  0.008036  0.671044  1
  Bi  Bi28  1  0.933841  0.496751  0.826271  1
  Bi  Bi29  1  0.564272  0.506986  0.327008  1
  Bi  Bi30  1  0.058285  0.997115  0.175801  1
  Ir  Ir31  1  0.413527  0.750000  0.971232  1
