# generated using pymatgen
data_Tb3Al9Si3Os3Pd
_symmetry_space_group_name_H-M   'P 1'
_cell_length_a   8.74785200
_cell_length_b   8.72762731
_cell_length_c   9.53708600
_cell_angle_alpha   90.00000000
_cell_angle_beta   90.00000000
_cell_angle_gamma   120.07669349
_symmetry_Int_Tables_number   1
_chemical_formula_structural   Tb3Al9Si3Os3Pd
_chemical_formula_sum   'Tb6 Al18 Si6 Os6 Pd2'
_cell_volume   630.09756625
_cell_formula_units_Z   2
loop_
 _symmetry_equiv_pos_site_id
 _symmetry_equiv_pos_as_xyz
  1  'x, y, z'
loop_
 _atom_site_type_symbol
 _atom_site_label
 _atom_site_symmetry_multiplicity
 _atom_site_fract_x
 _atom_site_fract_y
 _atom_site_fract_z
 _atom_site_occupancy
  Tb  Tb0  1  0.194861  0.389723  0.250000  1
  Tb  Tb1  1  0.805139  0.610277  0.750000  1
  Tb  Tb2  1  0.607623  0.806582  0.250000  1
  Tb  Tb3  1  0.392377  0.193418  0.750000  1
  Tb  Tb4  1  0.198961  0.806582  0.250000  1
  Tb  Tb5  1  0.801039  0.193418  0.750000  1
  Al  Al6  1  0.167236  0.334470  0.581613  1
  Al  Al7  1  0.832764  0.665530  0.418387  1
  Al  Al8  1  0.665573  0.832315  0.579131  1
  Al  Al9  1  0.832764  0.665530  0.081613  1
  Al  Al10  1  0.334427  0.167685  0.420869  1
  Al  Al11  1  0.167236  0.334470  0.918387  1
  Al  Al12  1  0.166744  0.832315  0.579131  1
  Al  Al13  1  0.334427  0.167685  0.079131  1
  Al  Al14  1  0.833256  0.167685  0.420869  1
  Al  Al15  1  0.665573  0.832315  0.920869  1
  Al  Al16  1  0.833256  0.167685  0.079131  1
  Al  Al17  1  0.166744  0.832315  0.920869  1
  Al  Al18  1  0.870530  0.432528  0.250000  1
  Al  Al19  1  0.129470  0.567472  0.750000  1
  Al  Al20  1  0.561998  0.432528  0.250000  1
  Al  Al21  1  0.438002  0.567472  0.750000  1
  Al  Al22  1  0.999197  0.998395  0.250000  1
  Al  Al23  1  0.000803  0.001605  0.750000  1
  Si  Si24  1  0.332073  0.664149  0.038333  1
  Si  Si25  1  0.667927  0.335851  0.961667  1
  Si  Si26  1  0.667927  0.335851  0.538333  1
  Si  Si27  1  0.332073  0.664149  0.461667  1
  Si  Si28  1  0.564693  0.129386  0.250000  1
  Si  Si29  1  0.435307  0.870614  0.750000  1
  Os  Os30  1  0.500000  0.000000  0.000000  1
  Os  Os31  1  0.000000  0.500000  0.000000  1
  Os  Os32  1  0.500000  0.000000  0.500000  1
  Os  Os33  1  0.500000  0.500000  0.000000  1
  Os  Os34  1  0.000000  0.500000  0.500000  1
  Os  Os35  1  0.500000  0.500000  0.500000  1
  Pd  Pd36  1  0.000000  0.000000  0.000000  1
  Pd  Pd37  1  0.000000  0.000000  0.500000  1
