# generated using pymatgen
data_Cs11LiV4O16
_symmetry_space_group_name_H-M   'P 1'
_cell_length_a   8.61175041
_cell_length_b   8.61169457
_cell_length_c   11.59814840
_cell_angle_alpha   111.79831873
_cell_angle_beta   111.79954155
_cell_angle_gamma   89.99627444
_symmetry_Int_Tables_number   1
_chemical_formula_structural   Cs11LiV4O16
_chemical_formula_sum   'Cs11 Li1 V4 O16'
_cell_volume   731.98576408
_cell_formula_units_Z   1
loop_
 _symmetry_equiv_pos_site_id
 _symmetry_equiv_pos_as_xyz
  1  'x, y, z'
loop_
 _atom_site_type_symbol
 _atom_site_label
 _atom_site_symmetry_multiplicity
 _atom_site_fract_x
 _atom_site_fract_y
 _atom_site_fract_z
 _atom_site_occupancy
  Cs  Cs0  1  0.293465  0.293462  0.586932  1
  Cs  Cs1  1  0.499913  0.999942  0.999997  1
  Cs  Cs2  1  0.249974  0.750014  0.499991  1
  Cs  Cs3  1  0.930574  0.930577  0.239169  1
  Cs  Cs4  1  0.069367  0.691302  0.760780  1
  Cs  Cs5  1  0.706496  0.706496  0.413056  1
  Cs  Cs6  1  0.999942  0.499926  0.999996  1
  Cs  Cs7  1  0.691304  0.069375  0.760790  1
  Cs  Cs8  1  0.308764  0.308766  0.239319  1
  Cs  Cs9  1  0.750013  0.249970  0.499990  1
  Cs  Cs10  1  0.499992  0.499992  0.999980  1
  Li  Li11  1  0.000068  0.000059  0.000004  1
  V  V12  1  0.872945  0.366392  0.239284  1
  V  V13  1  0.127099  0.127099  0.760753  1
  V  V14  1  0.633590  0.633588  0.760688  1
  V  V15  1  0.366390  0.872946  0.239285  1
  O  O16  1  0.383882  0.015106  0.398915  1
  O  O17  1  0.799365  0.799357  0.890069  1
  O  O18  1  0.666710  0.328816  0.227075  1
  O  O19  1  0.328820  0.666717  0.227085  1
  O  O20  1  0.015105  0.383875  0.398910  1
  O  O21  1  0.560453  0.898248  0.227126  1
  O  O22  1  0.333331  0.101776  0.772966  1
  O  O23  1  0.200617  0.909396  0.109904  1
  O  O24  1  0.616134  0.616133  0.601078  1
  O  O25  1  0.090662  0.090657  0.890104  1
  O  O26  1  0.671107  0.439538  0.772839  1
  O  O27  1  0.984964  0.984963  0.601098  1
  O  O28  1  0.898245  0.560454  0.227117  1
  O  O29  1  0.909394  0.200614  0.109901  1
  O  O30  1  0.101774  0.333331  0.772963  1
  O  O31  1  0.439541  0.671109  0.772836  1
