# generated using pymatgen
data_CsIn(GaBr4)2
_symmetry_space_group_name_H-M   'P 1'
_cell_length_a   7.96117300
_cell_length_b   9.51921436
_cell_length_c   13.52635204
_cell_angle_alpha   75.78500555
_cell_angle_beta   90.00000000
_cell_angle_gamma   90.00000000
_symmetry_Int_Tables_number   1
_chemical_formula_structural   CsIn(GaBr4)2
_chemical_formula_sum   'Cs2 In2 Ga4 Br16'
_cell_volume   993.69570060
_cell_formula_units_Z   2
loop_
 _symmetry_equiv_pos_site_id
 _symmetry_equiv_pos_as_xyz
  1  'x, y, z'
loop_
 _atom_site_type_symbol
 _atom_site_label
 _atom_site_symmetry_multiplicity
 _atom_site_fract_x
 _atom_site_fract_y
 _atom_site_fract_z
 _atom_site_occupancy
  Cs  Cs0  1  0.846877  0.000000  0.250000  1
  Cs  Cs1  1  0.153123  0.000000  0.750000  1
  In  In2  1  0.416816  0.500000  0.250000  1
  In  In3  1  0.583184  0.500000  0.750000  1
  Ga  Ga4  1  0.710718  0.221845  0.546216  1
  Ga  Ga5  1  0.710718  0.778155  0.953784  1
  Ga  Ga6  1  0.289282  0.778155  0.453784  1
  Ga  Ga7  1  0.289282  0.221845  0.046216  1
  Br  Br8  1  0.091701  0.658215  0.372461  1
  Br  Br9  1  0.091701  0.341785  0.127539  1
  Br  Br10  1  0.908299  0.341785  0.627539  1
  Br  Br11  1  0.908299  0.658215  0.872461  1
  Br  Br12  1  0.439060  0.710942  0.909620  1
  Br  Br13  1  0.439060  0.289058  0.590380  1
  Br  Br14  1  0.560940  0.289058  0.090380  1
  Br  Br15  1  0.560940  0.710942  0.409620  1
  Br  Br16  1  0.742600  0.306878  0.365850  1
  Br  Br17  1  0.742600  0.693122  0.134150  1
  Br  Br18  1  0.257400  0.693122  0.634150  1
  Br  Br19  1  0.257400  0.306878  0.865850  1
  Br  Br20  1  0.246458  0.030196  0.406748  1
  Br  Br21  1  0.246458  0.969804  0.093252  1
  Br  Br22  1  0.753542  0.969804  0.593252  1
  Br  Br23  1  0.753542  0.030196  0.906748  1
