# generated using pymatgen
data_Tb8Nb12Si15P
_symmetry_space_group_name_H-M   'P 1'
_cell_length_a   7.06760573
_cell_length_b   7.07607620
_cell_length_c   13.08874704
_cell_angle_alpha   89.94454947
_cell_angle_beta   90.00224353
_cell_angle_gamma   89.99583665
_symmetry_Int_Tables_number   1
_chemical_formula_structural   Tb8Nb12Si15P
_chemical_formula_sum   'Tb8 Nb12 Si15 P1'
_cell_volume   654.57992921
_cell_formula_units_Z   1
loop_
 _symmetry_equiv_pos_site_id
 _symmetry_equiv_pos_as_xyz
  1  'x, y, z'
loop_
 _atom_site_type_symbol
 _atom_site_label
 _atom_site_symmetry_multiplicity
 _atom_site_fract_x
 _atom_site_fract_y
 _atom_site_fract_z
 _atom_site_occupancy
  Tb  Tb0  1  0.340904  0.003042  0.468576  1
  Tb  Tb1  1  0.494362  0.845190  0.717467  1
  Tb  Tb2  1  0.501889  0.158148  0.217613  1
  Tb  Tb3  1  0.841395  0.497021  0.282596  1
  Tb  Tb4  1  0.158290  0.498364  0.781177  1
  Tb  Tb5  1  0.659433  0.996477  0.967721  1
  Tb  Tb6  1  0.003497  0.340800  0.533823  1
  Tb  Tb7  1  0.997440  0.658521  0.031855  1
  Nb  Nb8  1  0.327860  0.328280  0.999637  1
  Nb  Nb9  1  0.172074  0.828405  0.249881  1
  Nb  Nb10  1  0.829835  0.171868  0.749395  1
  Nb  Nb11  1  0.671588  0.671541  0.500245  1
  Nb  Nb12  1  0.155036  0.009014  0.871712  1
  Nb  Nb13  1  0.492086  0.653726  0.124283  1
  Nb  Nb14  1  0.504140  0.343823  0.625402  1
  Nb  Nb15  1  0.653879  0.495388  0.875414  1
  Nb  Nb16  1  0.346043  0.506619  0.375760  1
  Nb  Nb17  1  0.846875  0.993281  0.374991  1
  Nb  Nb18  1  0.007259  0.152766  0.125584  1
  Nb  Nb19  1  0.995950  0.848249  0.626094  1
  Si  Si20  1  0.366085  0.703279  0.932497  1
  Si  Si21  1  0.632846  0.296653  0.434089  1
  Si  Si22  1  0.702919  0.367317  0.066375  1
  Si  Si23  1  0.297773  0.632890  0.566571  1
  Si  Si24  1  0.796715  0.866838  0.183618  1
  Si  Si25  1  0.133294  0.202912  0.316861  1
  Si  Si26  1  0.867249  0.795827  0.816346  1
  Si  Si27  1  0.292857  0.954095  0.062785  1
  Si  Si28  1  0.545874  0.793101  0.313833  1
  Si  Si29  1  0.459489  0.208325  0.816157  1
  Si  Si30  1  0.791285  0.547429  0.685796  1
  Si  Si31  1  0.206858  0.453637  0.186338  1
  Si  Si32  1  0.707432  0.045575  0.563671  1
  Si  Si33  1  0.953687  0.292619  0.936499  1
  Si  Si34  1  0.045630  0.706515  0.436588  1
  P  P35  1  0.200172  0.132464  0.682750  1
