# generated using pymatgen
data_PrY3Al18OsPd5
_symmetry_space_group_name_H-M   'P 1'
_cell_length_a   7.65583301
_cell_length_b   7.64916303
_cell_length_c   9.53478719
_cell_angle_alpha   90.07408805
_cell_angle_beta   90.04139518
_cell_angle_gamma   119.64572609
_symmetry_Int_Tables_number   1
_chemical_formula_structural   PrY3Al18OsPd5
_chemical_formula_sum   'Pr1 Y3 Al18 Os1 Pd5'
_cell_volume   485.27336285
_cell_formula_units_Z   1
loop_
 _symmetry_equiv_pos_site_id
 _symmetry_equiv_pos_as_xyz
  1  'x, y, z'
loop_
 _atom_site_type_symbol
 _atom_site_label
 _atom_site_symmetry_multiplicity
 _atom_site_fract_x
 _atom_site_fract_y
 _atom_site_fract_z
 _atom_site_occupancy
  Pr  Pr0  1  0.329775  0.004209  0.750241  1
  Y  Y1  1  0.995218  0.669804  0.248942  1
  Y  Y2  1  0.006652  0.330728  0.750962  1
  Y  Y3  1  0.670359  0.994209  0.249201  1
  Al  Al4  1  0.128050  0.130994  0.249133  1
  Al  Al5  1  0.866867  0.870244  0.750833  1
  Al  Al6  1  0.995722  0.334018  0.075232  1
  Al  Al7  1  0.993959  0.658202  0.928437  1
  Al  Al8  1  0.995656  0.663215  0.574480  1
  Al  Al9  1  0.334040  0.001100  0.419594  1
  Al  Al10  1  0.000842  0.334697  0.422992  1
  Al  Al11  1  0.667406  0.998659  0.573377  1
  Al  Al12  1  0.668210  0.004589  0.928495  1
  Al  Al13  1  0.340676  0.004566  0.076917  1
  Al  Al14  1  0.334386  0.336474  0.556094  1
  Al  Al15  1  0.665328  0.666103  0.438328  1
  Al  Al16  1  0.667839  0.662870  0.054467  1
  Al  Al17  1  0.338219  0.334027  0.951077  1
  Al  Al18  1  0.336462  0.546395  0.249201  1
  Al  Al19  1  0.662755  0.454902  0.754612  1
  Al  Al20  1  0.547569  0.340358  0.246326  1
  Al  Al21  1  0.454539  0.660833  0.750927  1
  Os  Os22  1  0.672464  0.328788  0.001611  1
  Pd  Pd23  1  0.328489  0.671232  0.000951  1
  Pd  Pd24  1  0.327699  0.671857  0.499030  1
  Pd  Pd25  1  0.671682  0.328654  0.498641  1
  Pd  Pd26  1  0.000025  0.998780  0.001174  1
  Pd  Pd27  1  0.999111  0.999495  0.498723  1
