# generated using pymatgen
data_Sm2NpFe2Si7
_symmetry_space_group_name_H-M   'P 1'
_cell_length_a   12.27263218
_cell_length_b   12.27263081
_cell_length_c   4.09432200
_cell_angle_alpha   90.00000000
_cell_angle_beta   90.00000000
_cell_angle_gamma   160.93841530
_symmetry_Int_Tables_number   1
_chemical_formula_structural   Sm2NpFe2Si7
_chemical_formula_sum   'Sm2 Np1 Fe2 Si7'
_cell_volume   201.39683260
_cell_formula_units_Z   1
loop_
 _symmetry_equiv_pos_site_id
 _symmetry_equiv_pos_as_xyz
  1  'x, y, z'
loop_
 _atom_site_type_symbol
 _atom_site_label
 _atom_site_symmetry_multiplicity
 _atom_site_fract_x
 _atom_site_fract_y
 _atom_site_fract_z
 _atom_site_occupancy
  Sm  Sm0  1  0.099478  0.900522  0.500000  1
  Sm  Sm1  1  0.466903  0.533097  0.500000  1
  Np  Np2  1  0.782992  0.217008  0.000000  1
  Fe  Fe3  1  0.660154  0.339846  0.000000  1
  Fe  Fe4  1  0.905947  0.094053  0.000000  1
  Si  Si5  1  0.366645  0.633355  0.000000  1
  Si  Si6  1  0.562935  0.437065  0.000000  1
  Si  Si7  1  0.867020  0.132980  0.500000  1
  Si  Si8  1  0.003494  0.996506  0.000000  1
  Si  Si9  1  0.199326  0.800674  0.000000  1
  Si  Si10  1  0.282881  0.717119  0.500000  1
  Si  Si11  1  0.698924  0.301076  0.500000  1
