# generated using pymatgen
data_YHo7Si12PdRh3
_symmetry_space_group_name_H-M   'P 1'
_cell_length_a   8.16863200
_cell_length_b   8.16863128
_cell_length_c   7.87781500
_cell_angle_alpha   90.00000000
_cell_angle_beta   90.00000000
_cell_angle_gamma   120.00000290
_symmetry_Int_Tables_number   1
_chemical_formula_structural   YHo7Si12PdRh3
_chemical_formula_sum   'Y1 Ho7 Si12 Pd1 Rh3'
_cell_volume   455.23434673
_cell_formula_units_Z   1
loop_
 _symmetry_equiv_pos_site_id
 _symmetry_equiv_pos_as_xyz
  1  'x, y, z'
loop_
 _atom_site_type_symbol
 _atom_site_label
 _atom_site_symmetry_multiplicity
 _atom_site_fract_x
 _atom_site_fract_y
 _atom_site_fract_z
 _atom_site_occupancy
  Y  Y0  1  0.000000  0.000000  0.250306  1
  Ho  Ho1  1  0.000000  0.000000  0.751056  1
  Ho  Ho2  1  0.510571  0.489429  0.247282  1
  Ho  Ho3  1  0.510571  0.021143  0.247282  1
  Ho  Ho4  1  0.978857  0.489429  0.247282  1
  Ho  Ho5  1  0.492054  0.507946  0.752035  1
  Ho  Ho6  1  0.492054  0.984108  0.752035  1
  Ho  Ho7  1  0.015892  0.507946  0.752035  1
  Si  Si8  1  0.164543  0.835457  0.501581  1
  Si  Si9  1  0.164543  0.329084  0.501581  1
  Si  Si10  1  0.670916  0.835457  0.501581  1
  Si  Si11  1  0.832195  0.167805  0.499943  1
  Si  Si12  1  0.832195  0.664392  0.499943  1
  Si  Si13  1  0.335608  0.167805  0.499943  1
  Si  Si14  1  0.833303  0.166697  0.998978  1
  Si  Si15  1  0.833303  0.666608  0.998978  1
  Si  Si16  1  0.333392  0.166697  0.998978  1
  Si  Si17  1  0.167087  0.832913  0.000608  1
  Si  Si18  1  0.167087  0.334172  0.000608  1
  Si  Si19  1  0.665828  0.832913  0.000608  1
  Pd  Pd20  1  0.333333  0.666667  0.463899  1
  Rh  Rh21  1  0.666667  0.333333  0.537106  1
  Rh  Rh22  1  0.666667  0.333333  0.964221  1
  Rh  Rh23  1  0.333333  0.666667  0.032131  1
