# generated using pymatgen
data_Hf4Fe3NiP4
_symmetry_space_group_name_H-M   'P 1'
_cell_length_a   3.69375500
_cell_length_b   6.27869148
_cell_length_c   7.07812787
_cell_angle_alpha   89.58321628
_cell_angle_beta   90.00000000
_cell_angle_gamma   90.00000000
_symmetry_Int_Tables_number   1
_chemical_formula_structural   Hf4Fe3NiP4
_chemical_formula_sum   'Hf4 Fe3 Ni1 P4'
_cell_volume   164.15123080
_cell_formula_units_Z   1
loop_
 _symmetry_equiv_pos_site_id
 _symmetry_equiv_pos_as_xyz
  1  'x, y, z'
loop_
 _atom_site_type_symbol
 _atom_site_label
 _atom_site_symmetry_multiplicity
 _atom_site_fract_x
 _atom_site_fract_y
 _atom_site_fract_z
 _atom_site_occupancy
  Hf  Hf0  1  0.250000  0.518800  0.684268  1
  Hf  Hf1  1  0.750000  0.480099  0.314712  1
  Hf  Hf2  1  0.250000  0.022760  0.819754  1
  Hf  Hf3  1  0.750000  0.985530  0.181161  1
  Fe  Fe4  1  0.250000  0.138775  0.442187  1
  Fe  Fe5  1  0.750000  0.353993  0.937383  1
  Fe  Fe6  1  0.250000  0.642414  0.059975  1
  Ni  Ni7  1  0.750000  0.852361  0.563879  1
  P  P8  1  0.250000  0.279617  0.113980  1
  P  P9  1  0.750000  0.722380  0.893195  1
  P  P10  1  0.250000  0.774798  0.374868  1
  P  P11  1  0.750000  0.228475  0.614637  1
