# generated using pymatgen
data_DyErNb4C5
_symmetry_space_group_name_H-M   'P 1'
_cell_length_a   5.74181495
_cell_length_b   5.74181402
_cell_length_c   5.61655250
_cell_angle_alpha   81.80886011
_cell_angle_beta   81.80886705
_cell_angle_gamma   121.48579943
_symmetry_Int_Tables_number   1
_chemical_formula_structural   DyErNb4C5
_chemical_formula_sum   'Dy1 Er1 Nb4 C5'
_cell_volume   151.04759867
_cell_formula_units_Z   1
loop_
 _symmetry_equiv_pos_site_id
 _symmetry_equiv_pos_as_xyz
  1  'x, y, z'
loop_
 _atom_site_type_symbol
 _atom_site_label
 _atom_site_symmetry_multiplicity
 _atom_site_fract_x
 _atom_site_fract_y
 _atom_site_fract_z
 _atom_site_occupancy
  Dy  Dy0  1  0.760994  0.760994  0.757856  1
  Er  Er1  1  0.239864  0.239864  0.242970  1
  Nb  Nb2  1  0.101297  0.454080  0.740782  1
  Nb  Nb3  1  0.546155  0.898978  0.258983  1
  Nb  Nb4  1  0.898978  0.546155  0.258983  1
  Nb  Nb5  1  0.454080  0.101297  0.740782  1
  C  C6  1  0.498998  0.498998  0.499865  1
  C  C7  1  0.678163  0.319578  0.000792  1
  C  C8  1  0.319578  0.678163  0.000792  1
  C  C9  1  0.821671  0.180220  0.499097  1
  C  C10  1  0.180220  0.821671  0.499097  1
