# generated using pymatgen
data_La5Pr3Cd2CoPt
_symmetry_space_group_name_H-M   'P 1'
_cell_length_a   10.06489500
_cell_length_b   10.06489533
_cell_length_c   10.07034100
_cell_angle_alpha   59.98209712
_cell_angle_beta   59.98209602
_cell_angle_gamma   60.31345426
_symmetry_Int_Tables_number   1
_chemical_formula_structural   La5Pr3Cd2CoPt
_chemical_formula_sum   'La10 Pr6 Cd4 Co2 Pt2'
_cell_volume   722.84938202
_cell_formula_units_Z   2
loop_
 _symmetry_equiv_pos_site_id
 _symmetry_equiv_pos_as_xyz
  1  'x, y, z'
loop_
 _atom_site_type_symbol
 _atom_site_label
 _atom_site_symmetry_multiplicity
 _atom_site_fract_x
 _atom_site_fract_y
 _atom_site_fract_z
 _atom_site_occupancy
  La  La0  1  0.342250  0.342250  0.358284  1
  La  La1  1  0.342250  0.342250  0.957218  1
  La  La2  1  0.337429  0.963296  0.349638  1
  La  La3  1  0.963296  0.337429  0.349638  1
  La  La4  1  0.819911  0.191908  0.190378  1
  La  La5  1  0.191908  0.819911  0.797802  1
  La  La6  1  0.191908  0.819911  0.190378  1
  La  La7  1  0.819911  0.191908  0.797802  1
  La  La8  1  0.190023  0.190023  0.809977  1
  La  La9  1  0.805904  0.805904  0.194096  1
  Pr  Pr10  1  0.934356  0.564484  0.565445  1
  Pr  Pr11  1  0.564484  0.934356  0.935716  1
  Pr  Pr12  1  0.564484  0.934356  0.565445  1
  Pr  Pr13  1  0.934356  0.564484  0.935716  1
  Pr  Pr14  1  0.561328  0.561328  0.938672  1
  Pr  Pr15  1  0.932572  0.932572  0.567428  1
  Cd  Cd16  1  0.579611  0.579611  0.579237  1
  Cd  Cd17  1  0.579611  0.579611  0.261540  1
  Cd  Cd18  1  0.581090  0.259525  0.579692  1
  Cd  Cd19  1  0.259525  0.581090  0.579692  1
  Co  Co20  1  0.141024  0.141024  0.140513  1
  Co  Co21  1  0.141024  0.141024  0.577439  1
  Pt  Pt22  1  0.144778  0.576967  0.139128  1
  Pt  Pt23  1  0.576967  0.144778  0.139128  1
