# generated using pymatgen
data_CdInPt2O7
_symmetry_space_group_name_H-M   'P 1'
_cell_length_a   7.12671970
_cell_length_b   7.21586972
_cell_length_c   7.21586900
_cell_angle_alpha   60.52880864
_cell_angle_beta   60.40785192
_cell_angle_gamma   60.40786141
_symmetry_Int_Tables_number   1
_chemical_formula_structural   CdInPt2O7
_chemical_formula_sum   'Cd2 In2 Pt4 O14'
_cell_volume   265.05066922
_cell_formula_units_Z   2
loop_
 _symmetry_equiv_pos_site_id
 _symmetry_equiv_pos_as_xyz
  1  'x, y, z'
loop_
 _atom_site_type_symbol
 _atom_site_label
 _atom_site_symmetry_multiplicity
 _atom_site_fract_x
 _atom_site_fract_y
 _atom_site_fract_z
 _atom_site_occupancy
  Cd  Cd0  1  0.125000  0.625000  0.125000  1
  Cd  Cd1  1  0.125000  0.125000  0.625000  1
  In  In2  1  0.125000  0.125000  0.125000  1
  In  In3  1  0.625000  0.125000  0.125000  1
  Pt  Pt4  1  0.625000  0.625000  0.125000  1
  Pt  Pt5  1  0.625000  0.125000  0.625000  1
  Pt  Pt6  1  0.125000  0.625000  0.625000  1
  Pt  Pt7  1  0.625000  0.625000  0.625000  1
  O  O8  1  0.254592  0.245408  0.245408  1
  O  O9  1  0.712630  0.287370  0.287370  1
  O  O10  1  0.698936  0.289458  0.722039  1
  O  O11  1  0.289568  0.722039  0.289458  1
  O  O12  1  0.698936  0.722039  0.289458  1
  O  O13  1  0.289568  0.289458  0.722039  1
  O  O14  1  0.958855  0.541145  0.541145  1
  O  O15  1  0.291145  0.708855  0.708855  1
  O  O16  1  0.960432  0.960542  0.527961  1
  O  O17  1  0.551064  0.960542  0.527961  1
  O  O18  1  0.551064  0.527961  0.960542  1
  O  O19  1  0.960432  0.527961  0.960542  1
  O  O20  1  0.537370  0.962630  0.962630  1
  O  O21  1  0.995408  0.004592  0.004592  1
