# generated using pymatgen
data_Lu3Al9Fe4Si3
_symmetry_space_group_name_H-M   'P 1'
_cell_length_a   8.47363400
_cell_length_b   8.47363362
_cell_length_c   9.28302800
_cell_angle_alpha   90.00000000
_cell_angle_beta   90.00000000
_cell_angle_gamma   119.94442631
_symmetry_Int_Tables_number   1
_chemical_formula_structural   Lu3Al9Fe4Si3
_chemical_formula_sum   'Lu6 Al18 Fe8 Si6'
_cell_volume   577.56731408
_cell_formula_units_Z   2
loop_
 _symmetry_equiv_pos_site_id
 _symmetry_equiv_pos_as_xyz
  1  'x, y, z'
loop_
 _atom_site_type_symbol
 _atom_site_label
 _atom_site_symmetry_multiplicity
 _atom_site_fract_x
 _atom_site_fract_y
 _atom_site_fract_z
 _atom_site_occupancy
  Lu  Lu0  1  0.804843  0.195157  0.750000  1
  Lu  Lu1  1  0.195157  0.804843  0.250000  1
  Lu  Lu2  1  0.393954  0.200049  0.750000  1
  Lu  Lu3  1  0.606046  0.799951  0.250000  1
  Lu  Lu4  1  0.799951  0.606046  0.750000  1
  Lu  Lu5  1  0.200049  0.393954  0.250000  1
  Al  Al6  1  0.836587  0.163413  0.424781  1
  Al  Al7  1  0.163413  0.836587  0.575219  1
  Al  Al8  1  0.327804  0.163404  0.426063  1
  Al  Al9  1  0.163413  0.836587  0.924781  1
  Al  Al10  1  0.672196  0.836596  0.573937  1
  Al  Al11  1  0.836587  0.163413  0.075219  1
  Al  Al12  1  0.836596  0.672196  0.426063  1
  Al  Al13  1  0.672196  0.836596  0.926063  1
  Al  Al14  1  0.163404  0.327804  0.573937  1
  Al  Al15  1  0.327804  0.163404  0.073937  1
  Al  Al16  1  0.163404  0.327804  0.926063  1
  Al  Al17  1  0.836596  0.672196  0.073937  1
  Al  Al18  1  0.122322  0.558744  0.750000  1
  Al  Al19  1  0.877678  0.441256  0.250000  1
  Al  Al20  1  0.441256  0.877678  0.750000  1
  Al  Al21  1  0.558744  0.122322  0.250000  1
  Al  Al22  1  0.000512  0.999488  0.750000  1
  Al  Al23  1  0.999488  0.000512  0.250000  1
  Fe  Fe24  1  0.500000  0.500000  0.000000  1
  Fe  Fe25  1  0.000000  0.500000  0.000000  1
  Fe  Fe26  1  0.500000  0.500000  0.500000  1
  Fe  Fe27  1  0.500000  0.000000  0.000000  1
  Fe  Fe28  1  0.000000  0.500000  0.500000  1
  Fe  Fe29  1  0.500000  0.000000  0.500000  1
  Fe  Fe30  1  0.000000  0.000000  0.000000  1
  Fe  Fe31  1  0.000000  0.000000  0.500000  1
  Si  Si32  1  0.668502  0.331498  0.967512  1
  Si  Si33  1  0.331498  0.668502  0.032488  1
  Si  Si34  1  0.331498  0.668502  0.467512  1
  Si  Si35  1  0.668502  0.331498  0.532488  1
  Si  Si36  1  0.439825  0.560175  0.750000  1
  Si  Si37  1  0.560175  0.439825  0.250000  1
