# generated using pymatgen
data_La5Th(ScAu5)2
_symmetry_space_group_name_H-M   'P 1'
_cell_length_a   8.20318700
_cell_length_b   8.22521741
_cell_length_c   8.20361700
_cell_angle_alpha   65.98208221
_cell_angle_beta   66.13679645
_cell_angle_gamma   66.03369314
_symmetry_Int_Tables_number   1
_chemical_formula_structural   La5Th(ScAu5)2
_chemical_formula_sum   'La5 Th1 Sc2 Au10'
_cell_volume   442.62515953
_cell_formula_units_Z   1
loop_
 _symmetry_equiv_pos_site_id
 _symmetry_equiv_pos_as_xyz
  1  'x, y, z'
loop_
 _atom_site_type_symbol
 _atom_site_label
 _atom_site_symmetry_multiplicity
 _atom_site_fract_x
 _atom_site_fract_y
 _atom_site_fract_z
 _atom_site_occupancy
  La  La0  1  0.891348  0.181794  0.625477  1
  La  La1  1  0.622294  0.894323  0.184960  1
  La  La2  1  0.188180  0.621939  0.890597  1
  La  La3  1  0.109122  0.810579  0.380637  1
  La  La4  1  0.379042  0.108780  0.813647  1
  Th  Th5  1  0.812504  0.380989  0.109136  1
  Sc  Sc6  1  0.654565  0.656840  0.655395  1
  Sc  Sc7  1  0.339548  0.344107  0.344054  1
  Au  Au8  1  0.997378  0.008444  0.005713  1
  Au  Au9  1  0.516637  0.494951  0.483917  1
  Au  Au10  1  0.799683  0.794458  0.803108  1
  Au  Au11  1  0.193246  0.202684  0.198279  1
  Au  Au12  1  0.934996  0.543739  0.328490  1
  Au  Au13  1  0.329075  0.940768  0.545898  1
  Au  Au14  1  0.550683  0.328374  0.943407  1
  Au  Au15  1  0.055134  0.450288  0.676386  1
  Au  Au16  1  0.673315  0.067050  0.447781  1
  Au  Au17  1  0.453248  0.669892  0.063117  1
