# generated using pymatgen
data_AgGeF6
_symmetry_space_group_name_H-M   'P 1'
_cell_length_a   5.18126539
_cell_length_b   5.40991325
_cell_length_c   5.78229731
_cell_angle_alpha   94.95136256
_cell_angle_beta   117.13064517
_cell_angle_gamma   118.44818963
_symmetry_Int_Tables_number   1
_chemical_formula_structural   AgGeF6
_chemical_formula_sum   'Ag1 Ge1 F6'
_cell_volume   116.89636271
_cell_formula_units_Z   1
loop_
 _symmetry_equiv_pos_site_id
 _symmetry_equiv_pos_as_xyz
  1  'x, y, z'
loop_
 _atom_site_type_symbol
 _atom_site_label
 _atom_site_symmetry_multiplicity
 _atom_site_fract_x
 _atom_site_fract_y
 _atom_site_fract_z
 _atom_site_occupancy
  Ag  Ag0  1  0.000000  0.000000  0.000000  1
  Ge  Ge1  1  0.000000  0.500000  0.500000  1
  F  F2  1  0.862483  0.694298  0.295865  1
  F  F3  1  0.137517  0.305702  0.704135  1
  F  F4  1  0.460476  0.861536  0.725154  1
  F  F5  1  0.539524  0.138464  0.274846  1
  F  F6  1  0.885750  0.605589  0.737755  1
  F  F7  1  0.114250  0.394411  0.262245  1
