# generated using pymatgen
data_HoTa5TiSn6
_symmetry_space_group_name_H-M   'P 1'
_cell_length_a   5.76654500
_cell_length_b   5.76776462
_cell_length_c   9.59807900
_cell_angle_alpha   90.00000000
_cell_angle_beta   90.00000000
_cell_angle_gamma   119.99299964
_symmetry_Int_Tables_number   1
_chemical_formula_structural   HoTa5TiSn6
_chemical_formula_sum   'Ho1 Ta5 Ti1 Sn6'
_cell_volume   276.48323175
_cell_formula_units_Z   1
loop_
 _symmetry_equiv_pos_site_id
 _symmetry_equiv_pos_as_xyz
  1  'x, y, z'
loop_
 _atom_site_type_symbol
 _atom_site_label
 _atom_site_symmetry_multiplicity
 _atom_site_fract_x
 _atom_site_fract_y
 _atom_site_fract_z
 _atom_site_occupancy
  Ho  Ho0  1  0.000000  0.000000  0.998693  1
  Ta  Ta1  1  0.000000  0.500000  0.752165  1
  Ta  Ta2  1  0.000000  0.500000  0.249420  1
  Ta  Ta3  1  0.500000  0.500000  0.249420  1
  Ta  Ta4  1  0.500000  0.500000  0.752165  1
  Ta  Ta5  1  0.500000  0.000000  0.749528  1
  Ti  Ti6  1  0.500000  0.000000  0.248911  1
  Sn  Sn7  1  0.000000  0.000000  0.668889  1
  Sn  Sn8  1  0.334455  0.668911  0.499201  1
  Sn  Sn9  1  0.665471  0.330942  0.001404  1
  Sn  Sn10  1  0.334529  0.669058  0.001404  1
  Sn  Sn11  1  0.000000  0.000000  0.329597  1
  Sn  Sn12  1  0.665545  0.331089  0.499201  1
