# generated using pymatgen
data_Pm4Te5MoO24
_symmetry_space_group_name_H-M   'P 1'
_cell_length_a   7.00686546
_cell_length_b   7.00686463
_cell_length_c   11.73169801
_cell_angle_alpha   78.24721557
_cell_angle_beta   78.24721652
_cell_angle_gamma   110.71274207
_symmetry_Int_Tables_number   1
_chemical_formula_structural   Pm4Te5MoO24
_chemical_formula_sum   'Pm4 Te5 Mo1 O24'
_cell_volume   502.98095968
_cell_formula_units_Z   1
loop_
 _symmetry_equiv_pos_site_id
 _symmetry_equiv_pos_as_xyz
  1  'x, y, z'
loop_
 _atom_site_type_symbol
 _atom_site_label
 _atom_site_symmetry_multiplicity
 _atom_site_fract_x
 _atom_site_fract_y
 _atom_site_fract_z
 _atom_site_occupancy
  Pm  Pm0  1  0.189563  0.434404  0.597209  1
  Pm  Pm1  1  0.810471  0.568726  0.402718  1
  Pm  Pm2  1  0.565596  0.810437  0.902791  1
  Pm  Pm3  1  0.431274  0.189529  0.097282  1
  Te  Te4  1  0.005277  0.300317  0.952331  1
  Te  Te5  1  0.993657  0.702078  0.044833  1
  Te  Te6  1  0.699683  0.994723  0.547669  1
  Te  Te7  1  0.297922  0.006343  0.455167  1
  Te  Te8  1  0.618570  0.381430  0.750000  1
  Mo  Mo9  1  0.389016  0.610984  0.250000  1
  O  O10  1  0.551384  0.474314  0.608783  1
  O  O11  1  0.453190  0.527664  0.391952  1
  O  O12  1  0.525686  0.448616  0.891217  1
  O  O13  1  0.472336  0.546810  0.108048  1
  O  O14  1  0.501069  0.090262  0.779925  1
  O  O15  1  0.489544  0.893212  0.213308  1
  O  O16  1  0.909738  0.498931  0.720075  1
  O  O17  1  0.106788  0.510456  0.286692  1
  O  O18  1  0.722391  0.138209  0.955215  1
  O  O19  1  0.274535  0.864040  0.042894  1
  O  O20  1  0.861791  0.277609  0.544785  1
  O  O21  1  0.135960  0.725465  0.457106  1
  O  O22  1  0.391864  0.826099  0.579997  1
  O  O23  1  0.606186  0.174617  0.421944  1
  O  O24  1  0.173901  0.608136  0.920003  1
  O  O25  1  0.825383  0.393814  0.078056  1
  O  O26  1  0.159281  0.300949  0.802516  1
  O  O27  1  0.843176  0.696913  0.197130  1
  O  O28  1  0.699051  0.840719  0.697484  1
  O  O29  1  0.303087  0.156824  0.302870  1
  O  O30  1  0.899343  0.836243  0.932677  1
  O  O31  1  0.097278  0.167745  0.066957  1
  O  O32  1  0.163757  0.100657  0.567323  1
  O  O33  1  0.832255  0.902722  0.433043  1
