# generated using pymatgen
data_TbDy2Mg(AlPt)4
_symmetry_space_group_name_H-M   'P 1'
_cell_length_a   4.35078300
_cell_length_b   6.86436794
_cell_length_c   7.72739200
_cell_angle_alpha   87.32983041
_cell_angle_beta   90.00000000
_cell_angle_gamma   90.00000000
_symmetry_Int_Tables_number   1
_chemical_formula_structural   TbDy2Mg(AlPt)4
_chemical_formula_sum   'Tb1 Dy2 Mg1 Al4 Pt4'
_cell_volume   230.53089503
_cell_formula_units_Z   1
loop_
 _symmetry_equiv_pos_site_id
 _symmetry_equiv_pos_as_xyz
  1  'x, y, z'
loop_
 _atom_site_type_symbol
 _atom_site_label
 _atom_site_symmetry_multiplicity
 _atom_site_fract_x
 _atom_site_fract_y
 _atom_site_fract_z
 _atom_site_occupancy
  Tb  Tb0  1  0.250000  0.971990  0.316844  1
  Dy  Dy1  1  0.750000  0.525135  0.829991  1
  Dy  Dy2  1  0.750000  0.030318  0.680527  1
  Mg  Mg3  1  0.250000  0.472848  0.177525  1
  Al  Al4  1  0.250000  0.850177  0.939293  1
  Al  Al5  1  0.750000  0.145613  0.064194  1
  Al  Al6  1  0.750000  0.640014  0.435559  1
  Al  Al7  1  0.250000  0.361310  0.555273  1
  Pt  Pt8  1  0.250000  0.725115  0.624759  1
  Pt  Pt9  1  0.750000  0.279823  0.372764  1
  Pt  Pt10  1  0.750000  0.770869  0.118672  1
  Pt  Pt11  1  0.250000  0.226787  0.884601  1
