# generated using pymatgen
data_Nd14Zn2CuPd3
_symmetry_space_group_name_H-M   'P 1'
_cell_length_a   3.83840000
_cell_length_b   12.33022300
_cell_length_c   12.33022256
_cell_angle_alpha   90.30782004
_cell_angle_beta   90.00000000
_cell_angle_gamma   90.00000000
_symmetry_Int_Tables_number   1
_chemical_formula_structural   Nd14Zn2CuPd3
_chemical_formula_sum   'Nd14 Zn2 Cu1 Pd3'
_cell_volume   583.56039501
_cell_formula_units_Z   1
loop_
 _symmetry_equiv_pos_site_id
 _symmetry_equiv_pos_as_xyz
  1  'x, y, z'
loop_
 _atom_site_type_symbol
 _atom_site_label
 _atom_site_symmetry_multiplicity
 _atom_site_fract_x
 _atom_site_fract_y
 _atom_site_fract_z
 _atom_site_occupancy
  Nd  Nd0  1  0.500000  0.999821  0.500179  1
  Nd  Nd1  1  0.500000  0.502680  0.997320  1
  Nd  Nd2  1  0.000000  0.319003  0.819486  1
  Nd  Nd3  1  0.000000  0.680514  0.180997  1
  Nd  Nd4  1  0.000000  0.181306  0.318694  1
  Nd  Nd5  1  0.000000  0.818522  0.681478  1
  Nd  Nd6  1  0.500000  0.555592  0.699024  1
  Nd  Nd7  1  0.500000  0.442544  0.301420  1
  Nd  Nd8  1  0.500000  0.942918  0.196695  1
  Nd  Nd9  1  0.500000  0.055259  0.802740  1
  Nd  Nd10  1  0.500000  0.697260  0.444741  1
  Nd  Nd11  1  0.500000  0.303305  0.557082  1
  Nd  Nd12  1  0.500000  0.198580  0.057456  1
  Nd  Nd13  1  0.500000  0.800976  0.944408  1
  Zn  Zn14  1  0.000000  0.500756  0.501480  1
  Zn  Zn15  1  0.000000  0.998520  0.999244  1
  Cu  Cu16  1  0.000000  0.631197  0.868803  1
  Pd  Pd17  1  0.000000  0.131685  0.632210  1
  Pd  Pd18  1  0.000000  0.867790  0.368315  1
  Pd  Pd19  1  0.000000  0.371773  0.128227  1
