# generated using pymatgen
data_Tm4Mn9Fe11P12
_symmetry_space_group_name_H-M   'P 1'
_cell_length_a   3.62671400
_cell_length_b   10.26573839
_cell_length_c   12.08319381
_cell_angle_alpha   89.58524521
_cell_angle_beta   90.00000000
_cell_angle_gamma   90.00000000
_symmetry_Int_Tables_number   1
_chemical_formula_structural   Tm4Mn9Fe11P12
_chemical_formula_sum   'Tm4 Mn9 Fe11 P12'
_cell_volume   449.85635903
_cell_formula_units_Z   1
loop_
 _symmetry_equiv_pos_site_id
 _symmetry_equiv_pos_as_xyz
  1  'x, y, z'
loop_
 _atom_site_type_symbol
 _atom_site_label
 _atom_site_symmetry_multiplicity
 _atom_site_fract_x
 _atom_site_fract_y
 _atom_site_fract_z
 _atom_site_occupancy
  Tm  Tm0  1  0.250000  0.580579  0.710644  1
  Tm  Tm1  1  0.250000  0.916251  0.211284  1
  Tm  Tm2  1  0.750000  0.424006  0.291487  1
  Tm  Tm3  1  0.750000  0.080098  0.788419  1
  Mn  Mn4  1  0.250000  0.705363  0.991267  1
  Mn  Mn5  1  0.250000  0.795010  0.491632  1
  Mn  Mn6  1  0.750000  0.292044  0.011357  1
  Mn  Mn7  1  0.750000  0.206923  0.507621  1
  Mn  Mn8  1  0.250000  0.411013  0.492051  1
  Mn  Mn9  1  0.250000  0.089537  0.989400  1
  Mn  Mn10  1  0.750000  0.592224  0.510507  1
  Mn  Mn11  1  0.750000  0.904721  0.008354  1
  Mn  Mn12  1  0.250000  0.218128  0.174744  1
  Fe  Fe13  1  0.250000  0.278652  0.672160  1
  Fe  Fe14  1  0.750000  0.778077  0.827133  1
  Fe  Fe15  1  0.750000  0.721818  0.328388  1
  Fe  Fe16  1  0.250000  0.878067  0.695222  1
  Fe  Fe17  1  0.250000  0.623103  0.196225  1
  Fe  Fe18  1  0.750000  0.127050  0.300083  1
  Fe  Fe19  1  0.750000  0.376418  0.804983  1
  Fe  Fe20  1  0.250000  0.462000  0.935606  1
  Fe  Fe21  1  0.250000  0.038674  0.433978  1
  Fe  Fe22  1  0.750000  0.537464  0.064011  1
  Fe  Fe23  1  0.750000  0.963357  0.563405  1
  P  P24  1  0.250000  0.425675  0.113886  1
  P  P25  1  0.250000  0.077168  0.612668  1
  P  P26  1  0.750000  0.575693  0.885713  1
  P  P27  1  0.750000  0.924097  0.385894  1
  P  P28  1  0.250000  0.267140  0.861351  1
  P  P29  1  0.250000  0.237268  0.367744  1
  P  P30  1  0.750000  0.731471  0.138764  1
  P  P31  1  0.750000  0.768186  0.638670  1
  P  P32  1  0.250000  0.603820  0.381569  1
  P  P33  1  0.250000  0.897367  0.879898  1
  P  P34  1  0.750000  0.397838  0.620023  1
  P  P35  1  0.750000  0.093701  0.113857  1
