# generated using pymatgen
data_Tb2TmSc3FeBi2
_symmetry_space_group_name_H-M   'P 1'
_cell_length_a   7.96852722
_cell_length_b   7.97180023
_cell_length_c   4.17439700
_cell_angle_alpha   90.00000000
_cell_angle_beta   90.00000000
_cell_angle_gamma   120.01359694
_symmetry_Int_Tables_number   1
_chemical_formula_structural   Tb2TmSc3FeBi2
_chemical_formula_sum   'Tb2 Tm1 Sc3 Fe1 Bi2'
_cell_volume   229.61451011
_cell_formula_units_Z   1
loop_
 _symmetry_equiv_pos_site_id
 _symmetry_equiv_pos_as_xyz
  1  'x, y, z'
loop_
 _atom_site_type_symbol
 _atom_site_label
 _atom_site_symmetry_multiplicity
 _atom_site_fract_x
 _atom_site_fract_y
 _atom_site_fract_z
 _atom_site_occupancy
  Tb  Tb0  1  0.387238  0.387794  0.500000  1
  Tb  Tb1  1  0.612762  0.000556  0.500000  1
  Tm  Tm2  1  0.000000  0.615704  0.500000  1
  Sc  Sc3  1  0.221644  0.999281  0.000000  1
  Sc  Sc4  1  0.778356  0.777637  0.000000  1
  Sc  Sc5  1  0.000000  0.220344  0.000000  1
  Fe  Fe6  1  0.000000  0.996459  0.500000  1
  Bi  Bi7  1  0.330585  0.666406  0.000000  1
  Bi  Bi8  1  0.669415  0.335819  0.000000  1
