# generated using pymatgen
data_ErPa(Al2Ga)2
_symmetry_space_group_name_H-M   'P 1'
_cell_length_a   14.70807500
_cell_length_b   14.70807510
_cell_length_c   14.70807471
_cell_angle_alpha   24.05215959
_cell_angle_beta   24.05215986
_cell_angle_gamma   24.05215955
_symmetry_Int_Tables_number   1
_chemical_formula_structural   ErPa(Al2Ga)2
_chemical_formula_sum   'Er3 Pa3 Al12 Ga6'
_cell_volume   464.43636643
_cell_formula_units_Z   3
loop_
 _symmetry_equiv_pos_site_id
 _symmetry_equiv_pos_as_xyz
  1  'x, y, z'
loop_
 _atom_site_type_symbol
 _atom_site_label
 _atom_site_symmetry_multiplicity
 _atom_site_fract_x
 _atom_site_fract_y
 _atom_site_fract_z
 _atom_site_occupancy
  Er  Er0  1  0.001221  0.001221  0.001221  1
  Er  Er1  1  0.504073  0.504073  0.504073  1
  Er  Er2  1  0.607887  0.607887  0.607887  1
  Pa  Pa3  1  0.890385  0.890385  0.890385  1
  Pa  Pa4  1  0.391213  0.391213  0.391213  1
  Pa  Pa5  1  0.106739  0.106739  0.106739  1
  Al  Al6  1  0.581706  0.127109  0.127109  1
  Al  Al7  1  0.086445  0.626251  0.626251  1
  Al  Al8  1  0.127109  0.127109  0.581706  1
  Al  Al9  1  0.626251  0.626251  0.086445  1
  Al  Al10  1  0.127109  0.581706  0.127109  1
  Al  Al11  1  0.626251  0.086445  0.626251  1
  Al  Al12  1  0.497865  0.497865  0.001296  1
  Al  Al13  1  0.000663  0.000663  0.495960  1
  Al  Al14  1  0.497865  0.001296  0.497865  1
  Al  Al15  1  0.000663  0.495960  0.000663  1
  Al  Al16  1  0.001296  0.497865  0.497865  1
  Al  Al17  1  0.495960  0.000663  0.000663  1
  Ga  Ga18  1  0.926875  0.370197  0.370197  1
  Ga  Ga19  1  0.425280  0.868375  0.868375  1
  Ga  Ga20  1  0.370197  0.370197  0.926875  1
  Ga  Ga21  1  0.868375  0.868375  0.425280  1
  Ga  Ga22  1  0.370197  0.926875  0.370197  1
  Ga  Ga23  1  0.868375  0.425280  0.868375  1
