# generated using pymatgen
data_Ac8InHg3Au8
_symmetry_space_group_name_H-M   'P 1'
_cell_length_a   8.58476100
_cell_length_b   8.58476100
_cell_length_c   8.03189200
_cell_angle_alpha   90.00000000
_cell_angle_beta   90.00000000
_cell_angle_gamma   90.00000000
_symmetry_Int_Tables_number   1
_chemical_formula_structural   Ac8InHg3Au8
_chemical_formula_sum   'Ac8 In1 Hg3 Au8'
_cell_volume   591.93535191
_cell_formula_units_Z   1
loop_
 _symmetry_equiv_pos_site_id
 _symmetry_equiv_pos_as_xyz
  1  'x, y, z'
loop_
 _atom_site_type_symbol
 _atom_site_label
 _atom_site_symmetry_multiplicity
 _atom_site_fract_x
 _atom_site_fract_y
 _atom_site_fract_z
 _atom_site_occupancy
  Ac  Ac0  1  0.825698  0.173940  0.500796  1
  Ac  Ac1  1  0.174302  0.826060  0.500796  1
  Ac  Ac2  1  0.326060  0.325698  0.999204  1
  Ac  Ac3  1  0.673940  0.674302  0.999204  1
  Ac  Ac4  1  0.675724  0.678408  0.501096  1
  Ac  Ac5  1  0.324276  0.321592  0.501096  1
  Ac  Ac6  1  0.178408  0.824276  0.998904  1
  Ac  Ac7  1  0.821592  0.175724  0.998904  1
  In  In8  1  0.000000  0.500000  0.250000  1
  Hg  Hg9  1  0.500000  0.000000  0.250000  1
  Hg  Hg10  1  0.000000  0.500000  0.750000  1
  Hg  Hg11  1  0.500000  0.000000  0.750000  1
  Au  Au12  1  0.627455  0.381015  0.252877  1
  Au  Au13  1  0.372545  0.618985  0.252877  1
  Au  Au14  1  0.121422  0.125007  0.753127  1
  Au  Au15  1  0.878578  0.874993  0.753127  1
  Au  Au16  1  0.374993  0.621422  0.746873  1
  Au  Au17  1  0.625007  0.378578  0.746873  1
  Au  Au18  1  0.881015  0.872545  0.247123  1
  Au  Au19  1  0.118985  0.127455  0.247123  1
