# generated using pymatgen
data_TbDy3Al18(RePd2)2
_symmetry_space_group_name_H-M   'P 1'
_cell_length_a   7.60776788
_cell_length_b   7.60803537
_cell_length_c   9.52372600
_cell_angle_alpha   90.00000000
_cell_angle_beta   90.00000000
_cell_angle_gamma   118.50615799
_symmetry_Int_Tables_number   1
_chemical_formula_structural   TbDy3Al18(RePd2)2
_chemical_formula_sum   'Tb1 Dy3 Al18 Re2 Pd4'
_cell_volume   484.40634936
_cell_formula_units_Z   1
loop_
 _symmetry_equiv_pos_site_id
 _symmetry_equiv_pos_as_xyz
  1  'x, y, z'
loop_
 _atom_site_type_symbol
 _atom_site_label
 _atom_site_symmetry_multiplicity
 _atom_site_fract_x
 _atom_site_fract_y
 _atom_site_fract_z
 _atom_site_occupancy
  Tb  Tb0  1  0.318477  0.005987  0.750000  1
  Dy  Dy1  1  0.993800  0.681266  0.250000  1
  Dy  Dy2  1  0.005810  0.318675  0.750000  1
  Dy  Dy3  1  0.681485  0.993652  0.250000  1
  Al  Al4  1  0.132690  0.132496  0.250000  1
  Al  Al5  1  0.866840  0.867202  0.750000  1
  Al  Al6  1  0.001955  0.335213  0.077144  1
  Al  Al7  1  0.997912  0.664428  0.922933  1
  Al  Al8  1  0.997912  0.664428  0.577067  1
  Al  Al9  1  0.335249  0.001902  0.422817  1
  Al  Al10  1  0.001955  0.335213  0.422856  1
  Al  Al11  1  0.664944  0.998536  0.576983  1
  Al  Al12  1  0.664944  0.998536  0.923017  1
  Al  Al13  1  0.335249  0.001902  0.077183  1
  Al  Al14  1  0.329585  0.329929  0.548578  1
  Al  Al15  1  0.670422  0.670434  0.451786  1
  Al  Al16  1  0.670422  0.670434  0.048214  1
  Al  Al17  1  0.329585  0.329929  0.951422  1
  Al  Al18  1  0.345267  0.553154  0.250000  1
  Al  Al19  1  0.655263  0.446794  0.750000  1
  Al  Al20  1  0.553628  0.344783  0.250000  1
  Al  Al21  1  0.446174  0.654887  0.750000  1
  Re  Re22  1  0.999900  0.000080  0.000001  1
  Re  Re23  1  0.999900  0.000080  0.499999  1
  Pd  Pd24  1  0.672226  0.328311  0.999894  1
  Pd  Pd25  1  0.328090  0.671718  0.999951  1
  Pd  Pd26  1  0.328090  0.671718  0.500049  1
  Pd  Pd27  1  0.672226  0.328311  0.500106  1
