# generated using pymatgen
data_Ho3Lu9Tc4
_symmetry_space_group_name_H-M   'P 1'
_cell_length_a   6.15585877
_cell_length_b   7.37447521
_cell_length_c   8.90617100
_cell_angle_alpha   90.00000000
_cell_angle_beta   90.00000000
_cell_angle_gamma   89.88437749
_symmetry_Int_Tables_number   1
_chemical_formula_structural   Ho3Lu9Tc4
_chemical_formula_sum   'Ho3 Lu9 Tc4'
_cell_volume   404.30574470
_cell_formula_units_Z   1
loop_
 _symmetry_equiv_pos_site_id
 _symmetry_equiv_pos_as_xyz
  1  'x, y, z'
loop_
 _atom_site_type_symbol
 _atom_site_label
 _atom_site_symmetry_multiplicity
 _atom_site_fract_x
 _atom_site_fract_y
 _atom_site_fract_z
 _atom_site_occupancy
  Ho  Ho0  1  0.874405  0.540070  0.250000  1
  Ho  Ho1  1  0.627502  0.042160  0.250000  1
  Ho  Ho2  1  0.127266  0.458363  0.750000  1
  Lu  Lu3  1  0.344914  0.676478  0.061703  1
  Lu  Lu4  1  0.155375  0.173609  0.438397  1
  Lu  Lu5  1  0.654272  0.325090  0.562500  1
  Lu  Lu6  1  0.843983  0.825040  0.937355  1
  Lu  Lu7  1  0.654272  0.325090  0.937500  1
  Lu  Lu8  1  0.843983  0.825040  0.562645  1
  Lu  Lu9  1  0.344914  0.676478  0.438297  1
  Lu  Lu10  1  0.155375  0.173609  0.061603  1
  Lu  Lu11  1  0.372123  0.958924  0.750000  1
  Tc  Tc12  1  0.045786  0.883327  0.250000  1
  Tc  Tc13  1  0.453429  0.384207  0.250000  1
  Tc  Tc14  1  0.956210  0.115375  0.750000  1
  Tc  Tc15  1  0.546188  0.617142  0.750000  1
