# generated using pymatgen
data_EuCoTcP2
_symmetry_space_group_name_H-M   'P 1'
_cell_length_a   6.23612615
_cell_length_b   6.23612593
_cell_length_c   6.23612612
_cell_angle_alpha   143.17662197
_cell_angle_beta   143.17662198
_cell_angle_gamma   53.06032760
_symmetry_Int_Tables_number   1
_chemical_formula_structural   EuCoTcP2
_chemical_formula_sum   'Eu1 Co1 Tc1 P2'
_cell_volume   86.58112192
_cell_formula_units_Z   1
loop_
 _symmetry_equiv_pos_site_id
 _symmetry_equiv_pos_as_xyz
  1  'x, y, z'
loop_
 _atom_site_type_symbol
 _atom_site_label
 _atom_site_symmetry_multiplicity
 _atom_site_fract_x
 _atom_site_fract_y
 _atom_site_fract_z
 _atom_site_occupancy
  Eu  Eu0  1  0.000000  0.000000  0.000000  1
  Co  Co1  1  0.250000  0.750000  0.500000  1
  Tc  Tc2  1  0.750000  0.250000  0.500000  1
  P  P3  1  0.644135  0.644135  0.000000  1
  P  P4  1  0.355865  0.355865  0.000000  1
