# generated using pymatgen
data_Ca4La16(Ga3Bi)3
_symmetry_space_group_name_H-M   'P 1'
_cell_length_a   8.14703400
_cell_length_b   8.14703400
_cell_length_c   14.87675700
_cell_angle_alpha   90.00000000
_cell_angle_beta   90.00000000
_cell_angle_gamma   90.00000000
_symmetry_Int_Tables_number   1
_chemical_formula_structural   Ca4La16(Ga3Bi)3
_chemical_formula_sum   'Ca4 La16 Ga9 Bi3'
_cell_volume   987.43229399
_cell_formula_units_Z   1
loop_
 _symmetry_equiv_pos_site_id
 _symmetry_equiv_pos_as_xyz
  1  'x, y, z'
loop_
 _atom_site_type_symbol
 _atom_site_label
 _atom_site_symmetry_multiplicity
 _atom_site_fract_x
 _atom_site_fract_y
 _atom_site_fract_z
 _atom_site_occupancy
  Ca  Ca0  1  0.500000  0.500000  0.756643  1
  Ca  Ca1  1  0.000000  0.000000  0.247949  1
  Ca  Ca2  1  0.000000  0.000000  0.752051  1
  Ca  Ca3  1  0.500000  0.500000  0.243357  1
  La  La4  1  0.677765  0.165014  0.103178  1
  La  La5  1  0.169231  0.668259  0.607903  1
  La  La6  1  0.322235  0.834986  0.103178  1
  La  La7  1  0.830769  0.331741  0.607903  1
  La  La8  1  0.834986  0.677765  0.103178  1
  La  La9  1  0.331741  0.169231  0.607903  1
  La  La10  1  0.165014  0.322235  0.103178  1
  La  La11  1  0.668259  0.830769  0.607903  1
  La  La12  1  0.834986  0.322235  0.896822  1
  La  La13  1  0.331741  0.830769  0.392097  1
  La  La14  1  0.165014  0.677765  0.896822  1
  La  La15  1  0.668259  0.169231  0.392097  1
  La  La16  1  0.677765  0.834986  0.896822  1
  La  La17  1  0.169231  0.331741  0.392097  1
  La  La18  1  0.322235  0.165014  0.896822  1
  La  La19  1  0.830769  0.668259  0.392097  1
  Ga  Ga20  1  0.618743  0.119764  0.751060  1
  Ga  Ga21  1  0.119764  0.618743  0.248940  1
  Ga  Ga22  1  0.880236  0.381257  0.248940  1
  Ga  Ga23  1  0.381257  0.880236  0.751060  1
  Ga  Ga24  1  0.880236  0.618743  0.751060  1
  Ga  Ga25  1  0.381257  0.119764  0.248940  1
  Ga  Ga26  1  0.119764  0.381257  0.751060  1
  Ga  Ga27  1  0.618743  0.880236  0.248940  1
  Ga  Ga28  1  0.000000  0.000000  0.000000  1
  Bi  Bi29  1  0.500000  0.500000  0.500000  1
  Bi  Bi30  1  0.500000  0.500000  0.000000  1
  Bi  Bi31  1  0.000000  0.000000  0.500000  1
