# generated using pymatgen
data_Er8Ti4Nb8Si15P
_symmetry_space_group_name_H-M   'P 1'
_cell_length_a   7.02340446
_cell_length_b   7.02661162
_cell_length_c   12.93723775
_cell_angle_alpha   89.92266268
_cell_angle_beta   89.95941958
_cell_angle_gamma   89.99152852
_symmetry_Int_Tables_number   1
_chemical_formula_structural   Er8Ti4Nb8Si15P
_chemical_formula_sum   'Er8 Ti4 Nb8 Si15 P1'
_cell_volume   638.46144849
_cell_formula_units_Z   1
loop_
 _symmetry_equiv_pos_site_id
 _symmetry_equiv_pos_as_xyz
  1  'x, y, z'
loop_
 _atom_site_type_symbol
 _atom_site_label
 _atom_site_symmetry_multiplicity
 _atom_site_fract_x
 _atom_site_fract_y
 _atom_site_fract_z
 _atom_site_occupancy
  Er  Er0  1  0.342700  0.003473  0.467442  1
  Er  Er1  1  0.493312  0.846135  0.716793  1
  Er  Er2  1  0.503562  0.157169  0.216747  1
  Er  Er3  1  0.842302  0.495824  0.283533  1
  Er  Er4  1  0.157261  0.499953  0.781964  1
  Er  Er5  1  0.658313  0.995299  0.966980  1
  Er  Er6  1  0.004822  0.341678  0.534287  1
  Er  Er7  1  0.996292  0.657577  0.032878  1
  Ti  Ti8  1  0.326571  0.327104  0.999716  1
  Ti  Ti9  1  0.172833  0.827395  0.249873  1
  Ti  Ti10  1  0.828587  0.173218  0.749646  1
  Ti  Ti11  1  0.672505  0.671801  0.500210  1
  Nb  Nb12  1  0.153335  0.009017  0.871105  1
  Nb  Nb13  1  0.493080  0.652517  0.123632  1
  Nb  Nb14  1  0.504146  0.344419  0.624718  1
  Nb  Nb15  1  0.653337  0.495488  0.875826  1
  Nb  Nb16  1  0.347653  0.505521  0.376422  1
  Nb  Nb17  1  0.848029  0.993433  0.374268  1
  Nb  Nb18  1  0.006565  0.152182  0.125833  1
  Nb  Nb19  1  0.996911  0.849639  0.626725  1
  Si  Si20  1  0.362210  0.702297  0.932005  1
  Si  Si21  1  0.636362  0.297568  0.433478  1
  Si  Si22  1  0.702106  0.363923  0.067164  1
  Si  Si23  1  0.299160  0.636461  0.566987  1
  Si  Si24  1  0.797643  0.863219  0.182887  1
  Si  Si25  1  0.136860  0.201823  0.317610  1
  Si  Si26  1  0.863724  0.797857  0.816946  1
  Si  Si27  1  0.293457  0.953733  0.062729  1
  Si  Si28  1  0.545977  0.793370  0.313490  1
  Si  Si29  1  0.458576  0.207904  0.815812  1
  Si  Si30  1  0.791744  0.547618  0.685849  1
  Si  Si31  1  0.205855  0.453565  0.186601  1
  Si  Si32  1  0.706831  0.045229  0.563426  1
  Si  Si33  1  0.953581  0.293770  0.936758  1
  Si  Si34  1  0.046098  0.705811  0.436828  1
  P  P35  1  0.197701  0.137010  0.682830  1
