# generated using pymatgen
data_TbPrTmZnGa7Ag3
_symmetry_space_group_name_H-M   'P 1'
_cell_length_a   4.35858827
_cell_length_b   8.41853614
_cell_length_c   8.41853500
_cell_angle_alpha   68.98724564
_cell_angle_beta   74.99705568
_cell_angle_gamma   74.99706046
_symmetry_Int_Tables_number   1
_chemical_formula_structural   TbPrTmZnGa7Ag3
_chemical_formula_sum   'Tb1 Pr1 Tm1 Zn1 Ga7 Ag3'
_cell_volume   273.76622031
_cell_formula_units_Z   1
loop_
 _symmetry_equiv_pos_site_id
 _symmetry_equiv_pos_as_xyz
  1  'x, y, z'
loop_
 _atom_site_type_symbol
 _atom_site_label
 _atom_site_symmetry_multiplicity
 _atom_site_fract_x
 _atom_site_fract_y
 _atom_site_fract_z
 _atom_site_occupancy
  Tb  Tb0  1  0.201065  0.797345  0.800525  1
  Pr  Pr1  1  0.499497  0.499875  0.501130  1
  Tm  Tm2  1  0.800893  0.201767  0.196446  1
  Zn  Zn3  1  0.354910  0.364943  0.925236  1
  Ga  Ga4  1  0.644688  0.637300  0.073325  1
  Ga  Ga5  1  0.354975  0.929583  0.360465  1
  Ga  Ga6  1  0.643441  0.073748  0.639370  1
  Ga  Ga7  1  0.164718  0.468186  0.202379  1
  Ga  Ga8  1  0.839570  0.525294  0.795567  1
  Ga  Ga9  1  0.161287  0.206301  0.471125  1
  Ga  Ga10  1  0.838900  0.792520  0.529681  1
  Ag  Ag11  1  0.498143  0.002350  0.001364  1
  Ag  Ag12  1  0.999766  0.803690  0.196780  1
  Ag  Ag13  1  0.998148  0.197098  0.806608  1
