# generated using pymatgen
data_CsLaSiS4
_symmetry_space_group_name_H-M   'P 1'
_cell_length_a   6.85669500
_cell_length_b   9.58215662
_cell_length_c   13.28518949
_cell_angle_alpha   71.57825055
_cell_angle_beta   90.00000000
_cell_angle_gamma   90.00000000
_symmetry_Int_Tables_number   1
_chemical_formula_structural   CsLaSiS4
_chemical_formula_sum   'Cs4 La4 Si4 S16'
_cell_volume   828.13366866
_cell_formula_units_Z   4
loop_
 _symmetry_equiv_pos_site_id
 _symmetry_equiv_pos_as_xyz
  1  'x, y, z'
loop_
 _atom_site_type_symbol
 _atom_site_label
 _atom_site_symmetry_multiplicity
 _atom_site_fract_x
 _atom_site_fract_y
 _atom_site_fract_z
 _atom_site_occupancy
  Cs  Cs0  1  0.251196  0.432868  0.390030  1
  Cs  Cs1  1  0.751196  0.567132  0.109970  1
  Cs  Cs2  1  0.748804  0.567132  0.609970  1
  Cs  Cs3  1  0.248804  0.432868  0.890030  1
  La  La4  1  0.202686  0.953309  0.366710  1
  La  La5  1  0.702686  0.046691  0.133290  1
  La  La6  1  0.797314  0.046691  0.633290  1
  La  La7  1  0.297314  0.953309  0.866710  1
  Si  Si8  1  0.742291  0.168040  0.353997  1
  Si  Si9  1  0.242291  0.831960  0.146003  1
  Si  Si10  1  0.257709  0.831960  0.646003  1
  Si  Si11  1  0.757709  0.168040  0.853997  1
  S  S12  1  0.018754  0.197600  0.760784  1
  S  S13  1  0.771135  0.942429  0.448926  1
  S  S14  1  0.528886  0.208359  0.738731  1
  S  S15  1  0.728865  0.942429  0.948926  1
  S  S16  1  0.753762  0.308623  0.448855  1
  S  S17  1  0.981246  0.802400  0.239216  1
  S  S18  1  0.253762  0.691377  0.051145  1
  S  S19  1  0.228865  0.057571  0.551074  1
  S  S20  1  0.746238  0.308623  0.948855  1
  S  S21  1  0.471114  0.791641  0.261269  1
  S  S22  1  0.028886  0.791641  0.761269  1
  S  S23  1  0.246238  0.691377  0.551145  1
  S  S24  1  0.481246  0.197600  0.260784  1
  S  S25  1  0.971114  0.208359  0.238731  1
  S  S26  1  0.518754  0.802400  0.739216  1
  S  S27  1  0.271135  0.057571  0.051074  1
