# generated using pymatgen
data_Lu7ScNb11Si16Ru
_symmetry_space_group_name_H-M   'P 1'
_cell_length_a   6.75226791
_cell_length_b   7.00523476
_cell_length_c   13.24819386
_cell_angle_alpha   90.07278891
_cell_angle_beta   89.98105785
_cell_angle_gamma   90.20499165
_symmetry_Int_Tables_number   1
_chemical_formula_structural   Lu7ScNb11Si16Ru
_chemical_formula_sum   'Lu7 Sc1 Nb11 Si16 Ru1'
_cell_volume   626.65120739
_cell_formula_units_Z   1
loop_
 _symmetry_equiv_pos_site_id
 _symmetry_equiv_pos_as_xyz
  1  'x, y, z'
loop_
 _atom_site_type_symbol
 _atom_site_label
 _atom_site_symmetry_multiplicity
 _atom_site_fract_x
 _atom_site_fract_y
 _atom_site_fract_z
 _atom_site_occupancy
  Lu  Lu0  1  0.497690  0.673972  0.594077  1
  Lu  Lu1  1  0.001521  0.827961  0.906251  1
  Lu  Lu2  1  0.499152  0.327408  0.094701  1
  Lu  Lu3  1  0.998288  0.172964  0.405626  1
  Lu  Lu4  1  0.498695  0.327338  0.405936  1
  Lu  Lu5  1  0.998467  0.173422  0.095390  1
  Lu  Lu6  1  0.498034  0.673779  0.905143  1
  Sc  Sc7  1  0.001781  0.827503  0.594241  1
  Nb  Nb8  1  0.666648  0.169792  0.626621  1
  Nb  Nb9  1  0.163923  0.326103  0.872230  1
  Nb  Nb10  1  0.336353  0.825652  0.125041  1
  Nb  Nb11  1  0.837617  0.673616  0.376992  1
  Nb  Nb12  1  0.336144  0.825545  0.375028  1
  Nb  Nb13  1  0.837084  0.672738  0.123636  1
  Nb  Nb14  1  0.666995  0.169720  0.872503  1
  Nb  Nb15  1  0.164288  0.326210  0.627066  1
  Nb  Nb16  1  0.337958  0.002949  0.749436  1
  Nb  Nb17  1  0.163840  0.508369  0.250188  1
  Nb  Nb18  1  0.662702  0.993300  0.250286  1
  Si  Si19  1  0.666880  0.963213  0.460333  1
  Si  Si20  1  0.166188  0.535812  0.038969  1
  Si  Si21  1  0.335511  0.037077  0.958783  1
  Si  Si22  1  0.835826  0.466149  0.545394  1
  Si  Si23  1  0.330978  0.034390  0.541588  1
  Si  Si24  1  0.833885  0.462346  0.955905  1
  Si  Si25  1  0.666267  0.963565  0.040462  1
  Si  Si26  1  0.165310  0.538228  0.462042  1
  Si  Si27  1  0.470570  0.383797  0.749797  1
  Si  Si28  1  0.960721  0.113586  0.748620  1
  Si  Si29  1  0.541087  0.619454  0.250207  1
  Si  Si30  1  0.038277  0.882423  0.250087  1
  Si  Si31  1  0.708730  0.859085  0.748556  1
  Si  Si32  1  0.191671  0.631230  0.748422  1
  Si  Si33  1  0.295088  0.132754  0.250262  1
  Si  Si34  1  0.794966  0.368545  0.250449  1
  Ru  Ru35  1  0.830865  0.510005  0.749734  1
