# generated using pymatgen
data_Gd5(OsO6)2
_symmetry_space_group_name_H-M   'P 1'
_cell_length_a   6.96037147
_cell_length_b   6.96037153
_cell_length_c   7.51379119
_cell_angle_alpha   74.26442733
_cell_angle_beta   74.26442473
_cell_angle_gamma   50.24985034
_symmetry_Int_Tables_number   1
_chemical_formula_structural   Gd5(OsO6)2
_chemical_formula_sum   'Gd5 Os2 O12'
_cell_volume   267.02174120
_cell_formula_units_Z   1
loop_
 _symmetry_equiv_pos_site_id
 _symmetry_equiv_pos_as_xyz
  1  'x, y, z'
loop_
 _atom_site_type_symbol
 _atom_site_label
 _atom_site_symmetry_multiplicity
 _atom_site_fract_x
 _atom_site_fract_y
 _atom_site_fract_z
 _atom_site_occupancy
  Gd  Gd0  1  0.696733  0.696733  0.639722  1
  Gd  Gd1  1  0.690932  0.690932  0.170450  1
  Gd  Gd2  1  0.000000  0.000000  0.500000  1
  Gd  Gd3  1  0.309068  0.309068  0.829550  1
  Gd  Gd4  1  0.303267  0.303267  0.360278  1
  Os  Os5  1  0.236733  0.763267  0.000000  1
  Os  Os6  1  0.763267  0.236733  0.000000  1
  O  O7  1  0.999619  0.999619  0.193219  1
  O  O8  1  0.905713  0.420674  0.917665  1
  O  O9  1  0.420674  0.905713  0.917665  1
  O  O10  1  0.903724  0.405125  0.424162  1
  O  O11  1  0.405125  0.903724  0.424162  1
  O  O12  1  0.500172  0.500172  0.819526  1
  O  O13  1  0.499828  0.499828  0.180474  1
  O  O14  1  0.096276  0.594875  0.575838  1
  O  O15  1  0.594875  0.096276  0.575838  1
  O  O16  1  0.094287  0.579326  0.082335  1
  O  O17  1  0.579326  0.094287  0.082335  1
  O  O18  1  0.000381  0.000381  0.806781  1
