# generated using pymatgen
data_YbTl2Ag(Ru2O7)2
_symmetry_space_group_name_H-M   'P 1'
_cell_length_a   7.27183125
_cell_length_b   7.21355257
_cell_length_c   7.21355347
_cell_angle_alpha   60.31225573
_cell_angle_beta   60.69849859
_cell_angle_gamma   60.69850097
_symmetry_Int_Tables_number   1
_chemical_formula_structural   YbTl2Ag(Ru2O7)2
_chemical_formula_sum   'Yb1 Tl2 Ag1 Ru4 O14'
_cell_volume   270.99935010
_cell_formula_units_Z   1
loop_
 _symmetry_equiv_pos_site_id
 _symmetry_equiv_pos_as_xyz
  1  'x, y, z'
loop_
 _atom_site_type_symbol
 _atom_site_label
 _atom_site_symmetry_multiplicity
 _atom_site_fract_x
 _atom_site_fract_y
 _atom_site_fract_z
 _atom_site_occupancy
  Yb  Yb0  1  0.625000  0.125000  0.125000  1
  Tl  Tl1  1  0.125000  0.125000  0.625000  1
  Tl  Tl2  1  0.125000  0.625000  0.125000  1
  Ag  Ag3  1  0.125000  0.125000  0.125000  1
  Ru  Ru4  1  0.625000  0.625000  0.625000  1
  Ru  Ru5  1  0.125000  0.625000  0.625000  1
  Ru  Ru6  1  0.625000  0.625000  0.125000  1
  Ru  Ru7  1  0.625000  0.125000  0.625000  1
  O  O8  1  0.011143  0.000579  0.000579  1
  O  O9  1  0.238857  0.249421  0.249421  1
  O  O10  1  0.307484  0.307022  0.688936  1
  O  O11  1  0.553252  0.549484  0.947901  1
  O  O12  1  0.696748  0.302099  0.700516  1
  O  O13  1  0.690162  0.305369  0.305369  1
  O  O14  1  0.305612  0.695595  0.695595  1
  O  O15  1  0.307484  0.688936  0.307022  1
  O  O16  1  0.696748  0.700516  0.302099  1
  O  O17  1  0.944388  0.554405  0.554405  1
  O  O18  1  0.559838  0.944631  0.944631  1
  O  O19  1  0.942516  0.942978  0.561064  1
  O  O20  1  0.942516  0.561064  0.942978  1
  O  O21  1  0.553252  0.947901  0.549484  1
