# generated using pymatgen
data_Zr6Ti3Al13FePt6
_symmetry_space_group_name_H-M   'P 1'
_cell_length_a   8.80206711
_cell_length_b   8.82024230
_cell_length_c   8.80206739
_cell_angle_alpha   59.90075572
_cell_angle_beta   60.03715589
_cell_angle_gamma   59.90075991
_symmetry_Int_Tables_number   1
_chemical_formula_structural   Zr6Ti3Al13FePt6
_chemical_formula_sum   'Zr6 Ti3 Al13 Fe1 Pt6'
_cell_volume   482.61767827
_cell_formula_units_Z   1
loop_
 _symmetry_equiv_pos_site_id
 _symmetry_equiv_pos_as_xyz
  1  'x, y, z'
loop_
 _atom_site_type_symbol
 _atom_site_label
 _atom_site_symmetry_multiplicity
 _atom_site_fract_x
 _atom_site_fract_y
 _atom_site_fract_z
 _atom_site_occupancy
  Zr  Zr0  1  0.688812  0.686056  0.309958  1
  Zr  Zr1  1  0.310122  0.689218  0.310122  1
  Zr  Zr2  1  0.688584  0.314785  0.311056  1
  Zr  Zr3  1  0.311056  0.314785  0.688584  1
  Zr  Zr4  1  0.689855  0.308634  0.689855  1
  Zr  Zr5  1  0.309958  0.686056  0.688812  1
  Ti  Ti6  1  0.881627  0.878124  0.361265  1
  Ti  Ti7  1  0.885401  0.363170  0.885401  1
  Ti  Ti8  1  0.361265  0.878124  0.881627  1
  Al  Al9  1  0.886222  0.868818  0.886222  1
  Al  Al10  1  0.118038  0.122074  0.639355  1
  Al  Al11  1  0.115502  0.637786  0.115502  1
  Al  Al12  1  0.639355  0.122074  0.118038  1
  Al  Al13  1  0.116185  0.132117  0.116185  1
  Al  Al14  1  0.673224  0.661425  0.006011  1
  Al  Al15  1  0.664553  0.007716  0.664553  1
  Al  Al16  1  0.006011  0.661425  0.673224  1
  Al  Al17  1  0.663794  0.662117  0.663794  1
  Al  Al18  1  0.326164  0.340614  0.993548  1
  Al  Al19  1  0.335895  0.992135  0.335895  1
  Al  Al20  1  0.993548  0.340614  0.326164  1
  Al  Al21  1  0.335429  0.336500  0.335429  1
  Fe  Fe22  1  0.996463  0.496166  0.996463  1
  Pt  Pt23  1  0.003014  0.999928  0.003014  1
  Pt  Pt24  1  0.999156  0.998927  0.500012  1
  Pt  Pt25  1  0.500873  0.998894  0.500873  1
  Pt  Pt26  1  0.999255  0.501395  0.500628  1
  Pt  Pt27  1  0.500628  0.501395  0.999255  1
  Pt  Pt28  1  0.500012  0.998927  0.999156  1
