# generated using pymatgen
data_Li3HoNi9As7Pd
_symmetry_space_group_name_H-M   'P 1'
_cell_length_a   9.48351428
_cell_length_b   9.37469220
_cell_length_c   3.82519300
_cell_angle_alpha   90.00000000
_cell_angle_beta   90.00000000
_cell_angle_gamma   120.26846729
_symmetry_Int_Tables_number   1
_chemical_formula_structural   Li3HoNi9As7Pd
_chemical_formula_sum   'Li3 Ho1 Ni9 As7 Pd1'
_cell_volume   293.71698300
_cell_formula_units_Z   1
loop_
 _symmetry_equiv_pos_site_id
 _symmetry_equiv_pos_as_xyz
  1  'x, y, z'
loop_
 _atom_site_type_symbol
 _atom_site_label
 _atom_site_symmetry_multiplicity
 _atom_site_fract_x
 _atom_site_fract_y
 _atom_site_fract_z
 _atom_site_occupancy
  Li  Li0  1  0.444457  0.225494  0.500000  1
  Li  Li1  1  0.778347  0.226811  0.500000  1
  Li  Li2  1  0.999390  0.009030  0.500000  1
  Ho  Ho3  1  0.334248  0.665080  0.000000  1
  Ni  Ni4  1  0.270999  0.372362  0.500000  1
  Ni  Ni5  1  0.623158  0.899680  0.500000  1
  Ni  Ni6  1  0.105846  0.725416  0.500000  1
  Ni  Ni7  1  0.496395  0.450431  0.000000  1
  Ni  Ni8  1  0.550779  0.047810  0.000000  1
  Ni  Ni9  1  0.955736  0.502152  0.000000  1
  Ni  Ni10  1  0.721649  0.758696  0.000000  1
  Ni  Ni11  1  0.242857  0.955798  0.000000  1
  Ni  Ni12  1  0.042573  0.281339  0.000000  1
  As  As13  1  0.968919  0.761483  0.000000  1
  As  As14  1  0.242273  0.206871  0.000000  1
  As  As15  1  0.791454  0.032883  0.000000  1
  As  As16  1  0.664376  0.333837  0.000000  1
  As  As17  1  0.540146  0.617729  0.500000  1
  As  As18  1  0.383530  0.927442  0.500000  1
  As  As19  1  0.076574  0.454773  0.500000  1
  Pd  Pd20  1  0.766296  0.544882  0.500000  1
