# generated using pymatgen
data_Lu12Co5Ag
_symmetry_space_group_name_H-M   'P 1'
_cell_length_a   8.05450618
_cell_length_b   8.05450711
_cell_length_c   8.05450600
_cell_angle_alpha   106.73807333
_cell_angle_beta   110.95645269
_cell_angle_gamma   110.75329147
_symmetry_Int_Tables_number   1
_chemical_formula_structural   Lu12Co5Ag
_chemical_formula_sum   'Lu12 Co5 Ag1'
_cell_volume   401.56525744
_cell_formula_units_Z   1
loop_
 _symmetry_equiv_pos_site_id
 _symmetry_equiv_pos_as_xyz
  1  'x, y, z'
loop_
 _atom_site_type_symbol
 _atom_site_label
 _atom_site_symmetry_multiplicity
 _atom_site_fract_x
 _atom_site_fract_y
 _atom_site_fract_z
 _atom_site_occupancy
  Lu  Lu0  1  0.472835  0.287282  0.185552  1
  Lu  Lu1  1  0.101730  0.287282  0.814448  1
  Lu  Lu2  1  0.898270  0.712718  0.185552  1
  Lu  Lu3  1  0.527165  0.712718  0.814448  1
  Lu  Lu4  1  0.304158  0.618585  0.314427  1
  Lu  Lu5  1  0.304158  0.989732  0.685573  1
  Lu  Lu6  1  0.695842  0.381415  0.685573  1
  Lu  Lu7  1  0.695842  0.010268  0.314427  1
  Lu  Lu8  1  0.192985  0.214732  0.407717  1
  Lu  Lu9  1  0.807015  0.785268  0.592283  1
  Lu  Lu10  1  0.192985  0.785268  0.978251  1
  Lu  Lu11  1  0.807015  0.214732  0.021749  1
  Co  Co12  1  0.500000  0.614307  0.114307  1
  Co  Co13  1  0.500000  0.385693  0.885693  1
  Co  Co14  1  0.374416  0.000000  0.374416  1
  Co  Co15  1  0.625584  0.000000  0.625584  1
  Co  Co16  1  0.000000  0.000000  0.000000  1
  Ag  Ag17  1  0.000000  0.500000  0.500000  1
