# generated using pymatgen
data_EuTh(NiH4)2
_symmetry_space_group_name_H-M   'P 1'
_cell_length_a   6.20782173
_cell_length_b   6.20782162
_cell_length_c   4.86377200
_cell_angle_alpha   90.00000000
_cell_angle_beta   90.00000000
_cell_angle_gamma   144.03960329
_symmetry_Int_Tables_number   1
_chemical_formula_structural   EuTh(NiH4)2
_chemical_formula_sum   'Eu1 Th1 Ni2 H8'
_cell_volume   110.06693829
_cell_formula_units_Z   1
loop_
 _symmetry_equiv_pos_site_id
 _symmetry_equiv_pos_as_xyz
  1  'x, y, z'
loop_
 _atom_site_type_symbol
 _atom_site_label
 _atom_site_symmetry_multiplicity
 _atom_site_fract_x
 _atom_site_fract_y
 _atom_site_fract_z
 _atom_site_occupancy
  Eu  Eu0  1  0.867091  0.132909  0.750000  1
  Th  Th1  1  0.129969  0.870031  0.250000  1
  Ni  Ni2  1  0.595314  0.404686  0.750000  1
  Ni  Ni3  1  0.407059  0.592941  0.250000  1
  H  H4  1  0.089523  0.910477  0.750000  1
  H  H5  1  0.918151  0.081849  0.250000  1
  H  H6  1  0.689214  0.310786  0.499611  1
  H  H7  1  0.306777  0.693223  0.485141  1
  H  H8  1  0.689214  0.310786  0.000389  1
  H  H9  1  0.306777  0.693223  0.014859  1
  H  H10  1  0.500455  0.499545  0.001786  1
  H  H11  1  0.500455  0.499545  0.498214  1
