# generated using pymatgen
data_Rb2Ti(CuTe2)2
_symmetry_space_group_name_H-M   'P 1'
_cell_length_a   6.19035300
_cell_length_b   6.19035300
_cell_length_c   15.05171300
_cell_angle_alpha   90.00000000
_cell_angle_beta   90.00000000
_cell_angle_gamma   90.00000000
_symmetry_Int_Tables_number   1
_chemical_formula_structural   Rb2Ti(CuTe2)2
_chemical_formula_sum   'Rb4 Ti2 Cu4 Te8'
_cell_volume   576.78872045
_cell_formula_units_Z   2
loop_
 _symmetry_equiv_pos_site_id
 _symmetry_equiv_pos_as_xyz
  1  'x, y, z'
loop_
 _atom_site_type_symbol
 _atom_site_label
 _atom_site_symmetry_multiplicity
 _atom_site_fract_x
 _atom_site_fract_y
 _atom_site_fract_z
 _atom_site_occupancy
  Rb  Rb0  1  0.751873  0.751873  0.000000  1
  Rb  Rb1  1  0.248127  0.751873  0.500000  1
  Rb  Rb2  1  0.751873  0.248127  0.500000  1
  Rb  Rb3  1  0.248127  0.248127  0.000000  1
  Ti  Ti4  1  0.500000  0.500000  0.250000  1
  Ti  Ti5  1  0.500000  0.500000  0.750000  1
  Cu  Cu6  1  0.000000  0.500000  0.750000  1
  Cu  Cu7  1  0.500000  0.000000  0.750000  1
  Cu  Cu8  1  0.500000  0.000000  0.250000  1
  Cu  Cu9  1  0.000000  0.500000  0.250000  1
  Te  Te10  1  0.748213  0.251787  0.151018  1
  Te  Te11  1  0.748213  0.748213  0.348982  1
  Te  Te12  1  0.251787  0.251787  0.651018  1
  Te  Te13  1  0.748213  0.748213  0.651018  1
  Te  Te14  1  0.251787  0.251787  0.348982  1
  Te  Te15  1  0.748213  0.251787  0.848982  1
  Te  Te16  1  0.251787  0.748213  0.848982  1
  Te  Te17  1  0.251787  0.748213  0.151018  1
