# generated using pymatgen
data_PrHo3V2(ReN6)2
_symmetry_space_group_name_H-M   'P 1'
_cell_length_a   7.20034358
_cell_length_b   7.20034300
_cell_length_c   6.12879217
_cell_angle_alpha   75.43743079
_cell_angle_beta   75.43742725
_cell_angle_gamma   83.73972592
_symmetry_Int_Tables_number   1
_chemical_formula_structural   PrHo3V2(ReN6)2
_chemical_formula_sum   'Pr1 Ho3 V2 Re2 N12'
_cell_volume   297.30237988
_cell_formula_units_Z   1
loop_
 _symmetry_equiv_pos_site_id
 _symmetry_equiv_pos_as_xyz
  1  'x, y, z'
loop_
 _atom_site_type_symbol
 _atom_site_label
 _atom_site_symmetry_multiplicity
 _atom_site_fract_x
 _atom_site_fract_y
 _atom_site_fract_z
 _atom_site_occupancy
  Pr  Pr0  1  0.313859  0.686141  0.750000  1
  Ho  Ho1  1  0.910405  0.089595  0.750000  1
  Ho  Ho2  1  0.087646  0.912354  0.250000  1
  Ho  Ho3  1  0.704627  0.295373  0.250000  1
  V  V4  1  0.619862  0.806618  0.252706  1
  V  V5  1  0.193382  0.380138  0.247294  1
  Re  Re6  1  0.380738  0.202569  0.741997  1
  Re  Re7  1  0.797431  0.619262  0.758003  1
  N  N8  1  0.632785  0.654160  0.028279  1
  N  N9  1  0.387791  0.884594  0.334076  1
  N  N10  1  0.345840  0.367215  0.471721  1
  N  N11  1  0.115406  0.612209  0.165924  1
  N  N12  1  0.997751  0.222126  0.350779  1
  N  N13  1  0.777874  0.002249  0.149221  1
  N  N14  1  0.215400  0.007866  0.848025  1
  N  N15  1  0.620635  0.111717  0.655356  1
  N  N16  1  0.359397  0.341245  0.967477  1
  N  N17  1  0.888283  0.379365  0.844644  1
  N  N18  1  0.658755  0.640603  0.532523  1
  N  N19  1  0.992134  0.784600  0.651975  1
