# generated using pymatgen
data_La13ThIr5Rh
_symmetry_space_group_name_H-M   'P 1'
_cell_length_a   6.53693100
_cell_length_b   10.24283412
_cell_length_c   10.24283358
_cell_angle_alpha   119.93391504
_cell_angle_beta   90.00312544
_cell_angle_gamma   89.99688390
_symmetry_Int_Tables_number   1
_chemical_formula_structural   La13ThIr5Rh
_chemical_formula_sum   'La13 Th1 Ir5 Rh1'
_cell_volume   594.33814794
_cell_formula_units_Z   1
loop_
 _symmetry_equiv_pos_site_id
 _symmetry_equiv_pos_as_xyz
  1  'x, y, z'
loop_
 _atom_site_type_symbol
 _atom_site_label
 _atom_site_symmetry_multiplicity
 _atom_site_fract_x
 _atom_site_fract_y
 _atom_site_fract_z
 _atom_site_occupancy
  La  La0  1  0.975601  0.666306  0.333694  1
  La  La1  1  0.249573  0.126405  0.873595  1
  La  La2  1  0.249724  0.746715  0.872048  1
  La  La3  1  0.249724  0.127952  0.253285  1
  La  La4  1  0.747015  0.874390  0.125610  1
  La  La5  1  0.747999  0.252290  0.126192  1
  La  La6  1  0.747999  0.873808  0.747710  1
  La  La7  1  0.435686  0.537873  0.462127  1
  La  La8  1  0.435913  0.924798  0.463015  1
  La  La9  1  0.435913  0.536985  0.075202  1
  La  La10  1  0.940796  0.460191  0.539809  1
  La  La11  1  0.940625  0.079595  0.540423  1
  La  La12  1  0.940625  0.459577  0.920405  1
  Th  Th13  1  0.480342  0.333426  0.666574  1
  Ir  Ir14  1  0.190038  0.376912  0.188425  1
  Ir  Ir15  1  0.190038  0.811575  0.623088  1
  Ir  Ir16  1  0.684900  0.191874  0.808126  1
  Ir  Ir17  1  0.684652  0.616914  0.808923  1
  Ir  Ir18  1  0.684652  0.191077  0.383086  1
  Rh  Rh19  1  0.190180  0.811338  0.188662  1
