# generated using pymatgen
data_Re(TcO4)3
_symmetry_space_group_name_H-M   'P 1'
_cell_length_a   6.55462334
_cell_length_b   6.55453331
_cell_length_c   6.55462300
_cell_angle_alpha   109.47093470
_cell_angle_beta   109.47149544
_cell_angle_gamma   109.47094576
_symmetry_Int_Tables_number   1
_chemical_formula_structural   Re(TcO4)3
_chemical_formula_sum   'Re1 Tc3 O12'
_cell_volume   216.77883315
_cell_formula_units_Z   1
loop_
 _symmetry_equiv_pos_site_id
 _symmetry_equiv_pos_as_xyz
  1  'x, y, z'
loop_
 _atom_site_type_symbol
 _atom_site_label
 _atom_site_symmetry_multiplicity
 _atom_site_fract_x
 _atom_site_fract_y
 _atom_site_fract_z
 _atom_site_occupancy
  Re  Re0  1  0.000000  0.500000  0.000000  1
  Tc  Tc1  1  0.000000  0.000000  0.500000  1
  Tc  Tc2  1  0.500000  0.000000  0.000000  1
  Tc  Tc3  1  0.500000  0.500000  0.500000  1
  O  O4  1  0.741481  0.758795  0.500275  1
  O  O5  1  0.743330  0.243053  0.982506  1
  O  O6  1  0.256670  0.756947  0.017494  1
  O  O7  1  0.239176  0.499725  0.256670  1
  O  O8  1  0.258519  0.241205  0.499725  1
  O  O9  1  0.758795  0.017314  0.258519  1
  O  O10  1  0.982506  0.739453  0.239176  1
  O  O11  1  0.760824  0.500275  0.743330  1
  O  O12  1  0.017494  0.260547  0.760824  1
  O  O13  1  0.241205  0.982686  0.741481  1
  O  O14  1  0.500275  0.741481  0.758795  1
  O  O15  1  0.499725  0.258519  0.241205  1
