# generated using pymatgen
data_AcNd7(Er3Pt4)4
_symmetry_space_group_name_H-M   'P 1'
_cell_length_a   7.49362651
_cell_length_b   7.63270291
_cell_length_c   14.84984700
_cell_angle_alpha   90.06493976
_cell_angle_beta   90.07551127
_cell_angle_gamma   90.00214388
_symmetry_Int_Tables_number   1
_chemical_formula_structural   AcNd7(Er3Pt4)4
_chemical_formula_sum   'Ac1 Nd7 Er12 Pt16'
_cell_volume   849.35984397
_cell_formula_units_Z   1
loop_
 _symmetry_equiv_pos_site_id
 _symmetry_equiv_pos_as_xyz
  1  'x, y, z'
loop_
 _atom_site_type_symbol
 _atom_site_label
 _atom_site_symmetry_multiplicity
 _atom_site_fract_x
 _atom_site_fract_y
 _atom_site_fract_z
 _atom_site_occupancy
  Ac  Ac0  1  0.987635  0.826158  0.593632  1
  Nd  Nd1  1  0.488189  0.670695  0.596939  1
  Nd  Nd2  1  0.988346  0.827860  0.905009  1
  Nd  Nd3  1  0.511203  0.325996  0.095784  1
  Nd  Nd4  1  0.012841  0.176317  0.401688  1
  Nd  Nd5  1  0.511882  0.324455  0.404191  1
  Nd  Nd6  1  0.011905  0.174524  0.095933  1
  Nd  Nd7  1  0.487957  0.674854  0.905618  1
  Er  Er8  1  0.644087  0.170352  0.624097  1
  Er  Er9  1  0.147802  0.332105  0.878540  1
  Er  Er10  1  0.352047  0.832048  0.122883  1
  Er  Er11  1  0.850858  0.665685  0.374590  1
  Er  Er12  1  0.354629  0.830478  0.376802  1
  Er  Er13  1  0.854199  0.669103  0.122309  1
  Er  Er14  1  0.646061  0.168832  0.878926  1
  Er  Er15  1  0.145580  0.331051  0.622925  1
  Er  Er16  1  0.807865  0.508101  0.752889  1
  Er  Er17  1  0.310592  0.991033  0.751849  1
  Er  Er18  1  0.191574  0.490950  0.249311  1
  Er  Er19  1  0.691366  0.008790  0.249047  1
  Pt  Pt20  1  0.684977  0.968477  0.454276  1
  Pt  Pt21  1  0.184606  0.534527  0.042914  1
  Pt  Pt22  1  0.315561  0.034689  0.958247  1
  Pt  Pt23  1  0.811631  0.459884  0.540100  1
  Pt  Pt24  1  0.322580  0.039354  0.540817  1
  Pt  Pt25  1  0.815122  0.466509  0.957628  1
  Pt  Pt26  1  0.684625  0.965969  0.043039  1
  Pt  Pt27  1  0.185366  0.531680  0.455878  1
  Pt  Pt28  1  0.440478  0.372491  0.750755  1
  Pt  Pt29  1  0.939615  0.129446  0.752044  1
  Pt  Pt30  1  0.559051  0.625932  0.248633  1
  Pt  Pt31  1  0.059722  0.873637  0.249963  1
  Pt  Pt32  1  0.671391  0.863323  0.752005  1
  Pt  Pt33  1  0.174241  0.634682  0.752600  1
  Pt  Pt34  1  0.327430  0.136184  0.249446  1
  Pt  Pt35  1  0.826986  0.363829  0.248693  1
