# generated using pymatgen
data_YHo2CrB7
_symmetry_space_group_name_H-M   'P 1'
_cell_length_a   8.06357171
_cell_length_b   8.06357152
_cell_length_c   9.34339400
_cell_angle_alpha   90.00000000
_cell_angle_beta   90.00000000
_cell_angle_gamma   155.41700111
_symmetry_Int_Tables_number   1
_chemical_formula_structural   YHo2CrB7
_chemical_formula_sum   'Y2 Ho4 Cr2 B14'
_cell_volume   252.73439612
_cell_formula_units_Z   2
loop_
 _symmetry_equiv_pos_site_id
 _symmetry_equiv_pos_as_xyz
  1  'x, y, z'
loop_
 _atom_site_type_symbol
 _atom_site_label
 _atom_site_symmetry_multiplicity
 _atom_site_fract_x
 _atom_site_fract_y
 _atom_site_fract_z
 _atom_site_occupancy
  Y  Y0  1  0.241938  0.758062  0.250000  1
  Y  Y1  1  0.758062  0.241938  0.750000  1
  Ho  Ho2  1  0.895387  0.104613  0.440705  1
  Ho  Ho3  1  0.104613  0.895387  0.559295  1
  Ho  Ho4  1  0.895387  0.104613  0.059295  1
  Ho  Ho5  1  0.104613  0.895387  0.940705  1
  Cr  Cr6  1  0.052653  0.947347  0.250000  1
  Cr  Cr7  1  0.947347  0.052653  0.750000  1
  B  B8  1  0.727086  0.272914  0.468476  1
  B  B9  1  0.272914  0.727086  0.531524  1
  B  B10  1  0.727086  0.272914  0.031524  1
  B  B11  1  0.272914  0.727086  0.968476  1
  B  B12  1  0.630762  0.369238  0.151386  1
  B  B13  1  0.369238  0.630762  0.848614  1
  B  B14  1  0.630762  0.369238  0.348614  1
  B  B15  1  0.369238  0.630762  0.651386  1
  B  B16  1  0.521122  0.478878  0.096470  1
  B  B17  1  0.478878  0.521122  0.903530  1
  B  B18  1  0.521122  0.478878  0.403530  1
  B  B19  1  0.478878  0.521122  0.596470  1
  B  B20  1  0.458669  0.541331  0.250000  1
  B  B21  1  0.541331  0.458669  0.750000  1
