# generated using pymatgen
data_Ti6Si6TcOs11
_symmetry_space_group_name_H-M   'P 1'
_cell_length_a   4.27404101
_cell_length_b   6.05081401
_cell_length_c   12.81946700
_cell_angle_alpha   89.99958610
_cell_angle_beta   90.00053180
_cell_angle_gamma   89.99389449
_symmetry_Int_Tables_number   1
_chemical_formula_structural   Ti6Si6TcOs11
_chemical_formula_sum   'Ti6 Si6 Tc1 Os11'
_cell_volume   331.52971058
_cell_formula_units_Z   1
loop_
 _symmetry_equiv_pos_site_id
 _symmetry_equiv_pos_as_xyz
  1  'x, y, z'
loop_
 _atom_site_type_symbol
 _atom_site_label
 _atom_site_symmetry_multiplicity
 _atom_site_fract_x
 _atom_site_fract_y
 _atom_site_fract_z
 _atom_site_occupancy
  Ti  Ti0  1  0.000022  0.497467  0.000000  1
  Ti  Ti1  1  0.499788  0.001349  0.165298  1
  Ti  Ti2  1  0.999806  0.500202  0.333098  1
  Ti  Ti3  1  0.500014  0.999592  0.500001  1
  Ti  Ti4  1  0.000185  0.500202  0.666902  1
  Ti  Ti5  1  0.500162  0.001351  0.834702  1
  Si  Si6  1  0.999971  0.002076  0.000000  1
  Si  Si7  1  0.499804  0.498884  0.165577  1
  Si  Si8  1  0.999799  0.999948  0.333126  1
  Si  Si9  1  0.499975  0.500287  0.500000  1
  Si  Si10  1  0.000234  0.999948  0.666874  1
  Si  Si11  1  0.500227  0.498885  0.834423  1
  Tc  Tc12  1  0.499830  0.250515  0.000002  1
  Os  Os13  1  0.500065  0.749681  0.999999  1
  Os  Os14  1  0.999936  0.249602  0.168150  1
  Os  Os15  1  0.999808  0.750075  0.167346  1
  Os  Os16  1  0.499779  0.250128  0.334302  1
  Os  Os17  1  0.499902  0.749915  0.333534  1
  Os  Os18  1  0.000080  0.250056  0.499999  1
  Os  Os19  1  0.999864  0.750121  0.500000  1
  Os  Os20  1  0.500109  0.250126  0.665699  1
  Os  Os21  1  0.500228  0.749915  0.666464  1
  Os  Os22  1  0.000269  0.249602  0.831848  1
  Os  Os23  1  0.000146  0.750077  0.832656  1
