# generated using pymatgen
data_CsAlZnP2
_symmetry_space_group_name_H-M   'P 1'
_cell_length_a   8.12154623
_cell_length_b   8.12154528
_cell_length_c   8.12154594
_cell_angle_alpha   151.15840791
_cell_angle_beta   151.15841218
_cell_angle_gamma   41.24359343
_symmetry_Int_Tables_number   1
_chemical_formula_structural   CsAlZnP2
_chemical_formula_sum   'Cs1 Al1 Zn1 P2'
_cell_volume   124.38286391
_cell_formula_units_Z   1
loop_
 _symmetry_equiv_pos_site_id
 _symmetry_equiv_pos_as_xyz
  1  'x, y, z'
loop_
 _atom_site_type_symbol
 _atom_site_label
 _atom_site_symmetry_multiplicity
 _atom_site_fract_x
 _atom_site_fract_y
 _atom_site_fract_z
 _atom_site_occupancy
  Cs  Cs0  1  0.000000  0.000000  0.000000  1
  Al  Al1  1  0.250000  0.750000  0.500000  1
  Zn  Zn2  1  0.750000  0.250000  0.500000  1
  P  P3  1  0.342203  0.342203  0.000000  1
  P  P4  1  0.657797  0.657797  0.000000  1
