# generated using pymatgen
data_Ta2NbMo4W
_symmetry_space_group_name_H-M   'P 1'
_cell_length_a   6.44397400
_cell_length_b   6.45168400
_cell_length_c   6.45767900
_cell_angle_alpha   90.00000000
_cell_angle_beta   90.00030199
_cell_angle_gamma   90.00000000
_symmetry_Int_Tables_number   1
_chemical_formula_structural   Ta2NbMo4W
_chemical_formula_sum   'Ta4 Nb2 Mo8 W2'
_cell_volume   268.47467195
_cell_formula_units_Z   2
loop_
 _symmetry_equiv_pos_site_id
 _symmetry_equiv_pos_as_xyz
  1  'x, y, z'
loop_
 _atom_site_type_symbol
 _atom_site_label
 _atom_site_symmetry_multiplicity
 _atom_site_fract_x
 _atom_site_fract_y
 _atom_site_fract_z
 _atom_site_occupancy
  Ta  Ta0  1  0.250096  0.250000  0.999997  1
  Ta  Ta1  1  0.749902  0.750000  0.000005  1
  Ta  Ta2  1  0.249901  0.250000  0.499987  1
  Ta  Ta3  1  0.750096  0.750000  0.500010  1
  Nb  Nb4  1  0.750018  0.250000  0.000238  1
  Nb  Nb5  1  0.250018  0.750000  0.499768  1
  Mo  Mo6  1  0.999995  0.000089  0.249914  1
  Mo  Mo7  1  0.999995  0.499910  0.249914  1
  Mo  Mo8  1  0.499952  0.500092  0.250086  1
  Mo  Mo9  1  0.499952  0.999909  0.250086  1
  Mo  Mo10  1  0.500049  0.000095  0.749912  1
  Mo  Mo11  1  0.500049  0.499904  0.749912  1
  Mo  Mo12  1  0.000008  0.500094  0.750086  1
  Mo  Mo13  1  0.000008  0.999907  0.750086  1
  W  W14  1  0.749977  0.250000  0.500224  1
  W  W15  1  0.249978  0.750000  0.999772  1
