# generated using pymatgen
data_Dy3Ho7(SnSb)3
_symmetry_space_group_name_H-M   'P 1'
_cell_length_a   6.38640500
_cell_length_b   8.95810702
_cell_length_c   8.95805800
_cell_angle_alpha   120.00018231
_cell_angle_beta   89.99940058
_cell_angle_gamma   90.00117836
_symmetry_Int_Tables_number   1
_chemical_formula_structural   Dy3Ho7(SnSb)3
_chemical_formula_sum   'Dy3 Ho7 Sn3 Sb3'
_cell_volume   443.82974701
_cell_formula_units_Z   1
loop_
 _symmetry_equiv_pos_site_id
 _symmetry_equiv_pos_as_xyz
  1  'x, y, z'
loop_
 _atom_site_type_symbol
 _atom_site_label
 _atom_site_symmetry_multiplicity
 _atom_site_fract_x
 _atom_site_fract_y
 _atom_site_fract_z
 _atom_site_occupancy
  Dy  Dy0  1  0.250000  0.757836  0.000000  1
  Dy  Dy1  1  0.249998  0.242177  0.242184  1
  Dy  Dy2  1  0.249998  0.999993  0.757816  1
  Ho  Ho3  1  0.500708  0.333330  0.666679  1
  Ho  Ho4  1  0.500708  0.666651  0.333321  1
  Ho  Ho5  1  0.999294  0.666659  0.333324  1
  Ho  Ho6  1  0.999294  0.333335  0.666676  1
  Ho  Ho7  1  0.749999  0.241637  0.000000  1
  Ho  Ho8  1  0.750002  0.758364  0.758353  1
  Ho  Ho9  1  0.750002  0.000012  0.241647  1
  Sn  Sn10  1  0.750000  0.607333  0.000000  1
  Sn  Sn11  1  0.750000  0.392702  0.392706  1
  Sn  Sn12  1  0.750000  0.999995  0.607294  1
  Sb  Sb13  1  0.249991  0.391445  0.000000  1
  Sb  Sb14  1  0.250004  0.608538  0.608545  1
  Sb  Sb15  1  0.250004  0.999993  0.391455  1
