# generated using pymatgen
data_LiTbH6Os
_symmetry_space_group_name_H-M   'P 1'
_cell_length_a   4.88654516
_cell_length_b   4.88654635
_cell_length_c   4.88654600
_cell_angle_alpha   60.00000238
_cell_angle_beta   59.99999430
_cell_angle_gamma   60.00001600
_symmetry_Int_Tables_number   1
_chemical_formula_structural   LiTbH6Os
_chemical_formula_sum   'Li1 Tb1 H6 Os1'
_cell_volume   82.50703384
_cell_formula_units_Z   1
loop_
 _symmetry_equiv_pos_site_id
 _symmetry_equiv_pos_as_xyz
  1  'x, y, z'
loop_
 _atom_site_type_symbol
 _atom_site_label
 _atom_site_symmetry_multiplicity
 _atom_site_fract_x
 _atom_site_fract_y
 _atom_site_fract_z
 _atom_site_occupancy
  Li  Li0  1  0.750000  0.750000  0.750000  1
  Tb  Tb1  1  0.250000  0.250000  0.250000  1
  H  H2  1  0.752232  0.247768  0.247768  1
  H  H3  1  0.247768  0.752232  0.752232  1
  H  H4  1  0.247768  0.752232  0.247768  1
  H  H5  1  0.752232  0.247768  0.752232  1
  H  H6  1  0.247768  0.247768  0.752232  1
  H  H7  1  0.752232  0.752232  0.247768  1
  Os  Os8  1  0.000000  0.000000  0.000000  1
