# generated using pymatgen
data_Nd6Nb3Al13Os7
_symmetry_space_group_name_H-M   'P 1'
_cell_length_a   9.15189891
_cell_length_b   9.15189959
_cell_length_c   9.15189964
_cell_angle_alpha   59.77093570
_cell_angle_beta   59.77092667
_cell_angle_gamma   59.77092938
_symmetry_Int_Tables_number   1
_chemical_formula_structural   Nd6Nb3Al13Os7
_chemical_formula_sum   'Nd6 Nb3 Al13 Os7'
_cell_volume   539.20517069
_cell_formula_units_Z   1
loop_
 _symmetry_equiv_pos_site_id
 _symmetry_equiv_pos_as_xyz
  1  'x, y, z'
loop_
 _atom_site_type_symbol
 _atom_site_label
 _atom_site_symmetry_multiplicity
 _atom_site_fract_x
 _atom_site_fract_y
 _atom_site_fract_z
 _atom_site_occupancy
  Nd  Nd0  1  0.708720  0.708720  0.283355  1
  Nd  Nd1  1  0.295977  0.706903  0.295977  1
  Nd  Nd2  1  0.706903  0.295977  0.295977  1
  Nd  Nd3  1  0.295977  0.295977  0.706903  1
  Nd  Nd4  1  0.708720  0.283355  0.708720  1
  Nd  Nd5  1  0.283355  0.708720  0.708720  1
  Nb  Nb6  1  0.877737  0.877737  0.360594  1
  Nb  Nb7  1  0.877737  0.360594  0.877737  1
  Nb  Nb8  1  0.360594  0.877737  0.877737  1
  Al  Al9  1  0.880840  0.880840  0.880840  1
  Al  Al10  1  0.121346  0.121346  0.642496  1
  Al  Al11  1  0.121346  0.642496  0.121346  1
  Al  Al12  1  0.642496  0.121346  0.121346  1
  Al  Al13  1  0.119518  0.119518  0.119518  1
  Al  Al14  1  0.671927  0.671927  0.986068  1
  Al  Al15  1  0.671927  0.986068  0.671927  1
  Al  Al16  1  0.986068  0.671927  0.671927  1
  Al  Al17  1  0.669035  0.669035  0.669035  1
  Al  Al18  1  0.328308  0.328308  0.016902  1
  Al  Al19  1  0.328308  0.016902  0.328308  1
  Al  Al20  1  0.016902  0.328308  0.328308  1
  Al  Al21  1  0.329116  0.329116  0.329116  1
  Os  Os22  1  0.001942  0.001942  0.001942  1
  Os  Os23  1  0.997954  0.997954  0.498485  1
  Os  Os24  1  0.502898  0.995013  0.502898  1
  Os  Os25  1  0.995013  0.502898  0.502898  1
  Os  Os26  1  0.502898  0.502898  0.995013  1
  Os  Os27  1  0.997954  0.498485  0.997954  1
  Os  Os28  1  0.498485  0.997954  0.997954  1
