# generated using pymatgen
data_Nd3Ho(WN3)4
_symmetry_space_group_name_H-M   'P 1'
_cell_length_a   7.36344611
_cell_length_b   7.36344591
_cell_length_c   6.32436538
_cell_angle_alpha   75.29506088
_cell_angle_beta   75.29506557
_cell_angle_gamma   83.41523514
_symmetry_Int_Tables_number   1
_chemical_formula_structural   Nd3Ho(WN3)4
_chemical_formula_sum   'Nd3 Ho1 W4 N12'
_cell_volume   320.35087404
_cell_formula_units_Z   1
loop_
 _symmetry_equiv_pos_site_id
 _symmetry_equiv_pos_as_xyz
  1  'x, y, z'
loop_
 _atom_site_type_symbol
 _atom_site_label
 _atom_site_symmetry_multiplicity
 _atom_site_fract_x
 _atom_site_fract_y
 _atom_site_fract_z
 _atom_site_occupancy
  Nd  Nd0  1  0.697901  0.302099  0.750000  1
  Nd  Nd1  1  0.088306  0.911694  0.750000  1
  Nd  Nd2  1  0.302962  0.697038  0.250000  1
  Ho  Ho3  1  0.908657  0.091343  0.250000  1
  W  W4  1  0.381253  0.200475  0.241574  1
  W  W5  1  0.620866  0.799170  0.753826  1
  W  W6  1  0.799525  0.618747  0.258426  1
  W  W7  1  0.200830  0.379134  0.746174  1
  N  N8  1  0.620867  0.110991  0.159962  1
  N  N9  1  0.360261  0.341430  0.469823  1
  N  N10  1  0.000338  0.221543  0.858861  1
  N  N11  1  0.383866  0.888150  0.846872  1
  N  N12  1  0.778457  0.999662  0.641139  1
  N  N13  1  0.111850  0.616134  0.653128  1
  N  N14  1  0.889009  0.379133  0.340038  1
  N  N15  1  0.634064  0.649548  0.535051  1
  N  N16  1  0.658570  0.639739  0.030177  1
  N  N17  1  0.350452  0.365936  0.964949  1
  N  N18  1  0.994490  0.782526  0.159095  1
  N  N19  1  0.217474  0.005510  0.340905  1
