# generated using pymatgen
data_YbHo2Tm3(CoSn6)2
_symmetry_space_group_name_H-M   'P 1'
_cell_length_a   8.41016589
_cell_length_b   8.41016686
_cell_length_c   13.09830402
_cell_angle_alpha   90.05031150
_cell_angle_beta   89.94969518
_cell_angle_gamma   148.42829577
_symmetry_Int_Tables_number   1
_chemical_formula_structural   YbHo2Tm3(CoSn6)2
_chemical_formula_sum   'Yb1 Ho2 Tm3 Co2 Sn12'
_cell_volume   485.05930860
_cell_formula_units_Z   1
loop_
 _symmetry_equiv_pos_site_id
 _symmetry_equiv_pos_as_xyz
  1  'x, y, z'
loop_
 _atom_site_type_symbol
 _atom_site_label
 _atom_site_symmetry_multiplicity
 _atom_site_fract_x
 _atom_site_fract_y
 _atom_site_fract_z
 _atom_site_occupancy
  Yb  Yb0  1  0.899892  0.100108  0.403222  1
  Ho  Ho1  1  0.898852  0.101148  0.094546  1
  Ho  Ho2  1  0.101170  0.898830  0.595986  1
  Tm  Tm3  1  0.901225  0.098775  0.752255  1
  Tm  Tm4  1  0.101092  0.898908  0.905174  1
  Tm  Tm5  1  0.099309  0.900691  0.248890  1
  Co  Co6  1  0.298498  0.701502  0.249941  1
  Co  Co7  1  0.700162  0.299838  0.750231  1
  Sn  Sn8  1  0.757708  0.242292  0.572121  1
  Sn  Sn9  1  0.427850  0.572150  0.577154  1
  Sn  Sn10  1  0.573667  0.426333  0.423999  1
  Sn  Sn11  1  0.732512  0.267488  0.248885  1
  Sn  Sn12  1  0.266756  0.733244  0.750448  1
  Sn  Sn13  1  0.242530  0.757470  0.070986  1
  Sn  Sn14  1  0.243042  0.756958  0.428771  1
  Sn  Sn15  1  0.573038  0.426962  0.073976  1
  Sn  Sn16  1  0.454778  0.545222  0.247901  1
  Sn  Sn17  1  0.545335  0.454665  0.751665  1
  Sn  Sn18  1  0.756637  0.243363  0.928310  1
  Sn  Sn19  1  0.425946  0.574054  0.925542  1
