# generated using pymatgen
data_Dy10Al3TcTe4
_symmetry_space_group_name_H-M   'P 1'
_cell_length_a   8.79900252
_cell_length_b   8.79900228
_cell_length_c   7.99898700
_cell_angle_alpha   90.39540187
_cell_angle_beta   90.39539535
_cell_angle_gamma   125.81395823
_symmetry_Int_Tables_number   1
_chemical_formula_structural   Dy10Al3TcTe4
_chemical_formula_sum   'Dy10 Al3 Tc1 Te4'
_cell_volume   502.14680504
_cell_formula_units_Z   1
loop_
 _symmetry_equiv_pos_site_id
 _symmetry_equiv_pos_as_xyz
  1  'x, y, z'
loop_
 _atom_site_type_symbol
 _atom_site_label
 _atom_site_symmetry_multiplicity
 _atom_site_fract_x
 _atom_site_fract_y
 _atom_site_fract_z
 _atom_site_occupancy
  Dy  Dy0  1  0.997600  0.997600  0.006756  1
  Dy  Dy1  1  0.506663  0.506663  0.493425  1
  Dy  Dy2  1  0.818308  0.567201  0.186553  1
  Dy  Dy3  1  0.465569  0.209689  0.834341  1
  Dy  Dy4  1  0.953025  0.704893  0.651466  1
  Dy  Dy5  1  0.266747  0.024524  0.337551  1
  Dy  Dy6  1  0.209689  0.465569  0.834341  1
  Dy  Dy7  1  0.567201  0.818308  0.186553  1
  Dy  Dy8  1  0.024524  0.266747  0.337551  1
  Dy  Dy9  1  0.704893  0.953025  0.651466  1
  Al  Al10  1  0.122952  0.122952  0.628821  1
  Al  Al11  1  0.623245  0.623245  0.877735  1
  Al  Al12  1  0.377116  0.377116  0.120669  1
  Tc  Tc13  1  0.872199  0.872199  0.377155  1
  Te  Te14  1  0.220716  0.805634  0.991526  1
  Te  Te15  1  0.687124  0.276799  0.496285  1
  Te  Te16  1  0.805634  0.220716  0.991526  1
  Te  Te17  1  0.276799  0.687124  0.496285  1
