# generated using pymatgen
data_Y16CdIn3Ni4
_symmetry_space_group_name_H-M   'P 1'
_cell_length_a   9.61184778
_cell_length_b   9.65370829
_cell_length_c   9.65899494
_cell_angle_alpha   59.92934681
_cell_angle_beta   59.90464471
_cell_angle_gamma   59.88509090
_symmetry_Int_Tables_number   1
_chemical_formula_structural   Y16CdIn3Ni4
_chemical_formula_sum   'Y16 Cd1 In3 Ni4'
_cell_volume   632.40358161
_cell_formula_units_Z   1
loop_
 _symmetry_equiv_pos_site_id
 _symmetry_equiv_pos_as_xyz
  1  'x, y, z'
loop_
 _atom_site_type_symbol
 _atom_site_label
 _atom_site_symmetry_multiplicity
 _atom_site_fract_x
 _atom_site_fract_y
 _atom_site_fract_z
 _atom_site_occupancy
  Y  Y0  1  0.596262  0.597616  0.597382  1
  Y  Y1  1  0.598924  0.599163  0.203195  1
  Y  Y2  1  0.598870  0.203133  0.598912  1
  Y  Y3  1  0.202359  0.598822  0.598641  1
  Y  Y4  1  0.061030  0.439874  0.439981  1
  Y  Y5  1  0.439637  0.061340  0.061618  1
  Y  Y6  1  0.439119  0.061534  0.438890  1
  Y  Y7  1  0.060752  0.440863  0.059802  1
  Y  Y8  1  0.439157  0.438791  0.061729  1
  Y  Y9  1  0.060828  0.059640  0.440933  1
  Y  Y10  1  0.188311  0.814189  0.814302  1
  Y  Y11  1  0.812976  0.187153  0.187026  1
  Y  Y12  1  0.813827  0.186918  0.812885  1
  Y  Y13  1  0.189203  0.811956  0.186663  1
  Y  Y14  1  0.813871  0.812864  0.186864  1
  Y  Y15  1  0.189376  0.186904  0.811719  1
  Cd  Cd16  1  0.504867  0.831002  0.831060  1
  In  In17  1  0.831606  0.833339  0.833455  1
  In  In18  1  0.829846  0.832929  0.503306  1
  In  In19  1  0.829836  0.503437  0.832942  1
  Ni  Ni20  1  0.392851  0.392544  0.392639  1
  Ni  Ni21  1  0.391434  0.390862  0.823922  1
  Ni  Ni22  1  0.391478  0.823805  0.390859  1
  Ni  Ni23  1  0.823580  0.391322  0.391275  1
