# generated using pymatgen
data_Tm4Lu6Si5Sb
_symmetry_space_group_name_H-M   'P 1'
_cell_length_a   8.34436800
_cell_length_b   8.37120738
_cell_length_c   6.18429900
_cell_angle_alpha   90.00000000
_cell_angle_beta   90.00000000
_cell_angle_gamma   119.89400571
_symmetry_Int_Tables_number   1
_chemical_formula_structural   Tm4Lu6Si5Sb
_chemical_formula_sum   'Tm4 Lu6 Si5 Sb1'
_cell_volume   374.51181795
_cell_formula_units_Z   1
loop_
 _symmetry_equiv_pos_site_id
 _symmetry_equiv_pos_as_xyz
  1  'x, y, z'
loop_
 _atom_site_type_symbol
 _atom_site_label
 _atom_site_symmetry_multiplicity
 _atom_site_fract_x
 _atom_site_fract_y
 _atom_site_fract_z
 _atom_site_occupancy
  Tm  Tm0  1  0.765804  0.000000  0.750000  1
  Tm  Tm1  1  0.756258  0.756766  0.250000  1
  Tm  Tm2  1  0.999492  0.243234  0.250000  1
  Tm  Tm3  1  0.240465  0.000000  0.250000  1
  Lu  Lu4  1  0.674516  0.343152  0.003356  1
  Lu  Lu5  1  0.331363  0.656848  0.496644  1
  Lu  Lu6  1  0.331363  0.656848  0.003356  1
  Lu  Lu7  1  0.674516  0.343152  0.496644  1
  Lu  Lu8  1  0.987386  0.747901  0.750000  1
  Lu  Lu9  1  0.239484  0.252099  0.750000  1
  Si  Si10  1  0.394392  0.392152  0.250000  1
  Si  Si11  1  0.002240  0.607848  0.250000  1
  Si  Si12  1  0.999288  0.395281  0.750000  1
  Si  Si13  1  0.604009  0.604719  0.750000  1
  Si  Si14  1  0.606356  0.000000  0.250000  1
  Sb  Sb15  1  0.393069  0.000000  0.750000  1
