# generated using pymatgen
data_Pr4SiB4Rh9
_symmetry_space_group_name_H-M   'P 1'
_cell_length_a   5.57838100
_cell_length_b   5.57838283
_cell_length_c   20.73810100
_cell_angle_alpha   90.00000000
_cell_angle_beta   90.00000000
_cell_angle_gamma   119.99723173
_symmetry_Int_Tables_number   1
_chemical_formula_structural   Pr4SiB4Rh9
_chemical_formula_sum   'Pr8 Si2 B8 Rh18'
_cell_volume   558.89242000
_cell_formula_units_Z   2
loop_
 _symmetry_equiv_pos_site_id
 _symmetry_equiv_pos_as_xyz
  1  'x, y, z'
loop_
 _atom_site_type_symbol
 _atom_site_label
 _atom_site_symmetry_multiplicity
 _atom_site_fract_x
 _atom_site_fract_y
 _atom_site_fract_z
 _atom_site_occupancy
  Pr  Pr0  1  0.666669  0.333331  0.523657  1
  Pr  Pr1  1  0.333331  0.666669  0.476343  1
  Pr  Pr2  1  0.333331  0.666669  0.023657  1
  Pr  Pr3  1  0.666669  0.333331  0.976343  1
  Pr  Pr4  1  0.666628  0.333372  0.673571  1
  Pr  Pr5  1  0.333372  0.666628  0.326429  1
  Pr  Pr6  1  0.333372  0.666628  0.173571  1
  Pr  Pr7  1  0.666628  0.333372  0.826429  1
  Si  Si8  1  0.000000  0.000000  0.500000  1
  Si  Si9  1  0.000000  0.000000  0.000000  1
  B  B10  1  0.999966  0.000034  0.674923  1
  B  B11  1  0.000034  0.999966  0.325077  1
  B  B12  1  0.000034  0.999966  0.174923  1
  B  B13  1  0.999966  0.000034  0.825077  1
  B  B14  1  0.666686  0.333314  0.327261  1
  B  B15  1  0.333314  0.666686  0.672739  1
  B  B16  1  0.333314  0.666686  0.827261  1
  B  B17  1  0.666686  0.333314  0.172739  1
  Rh  Rh18  1  0.167332  0.334732  0.750000  1
  Rh  Rh19  1  0.167323  0.832677  0.750000  1
  Rh  Rh20  1  0.665268  0.832668  0.750000  1
  Rh  Rh21  1  0.832668  0.665268  0.250000  1
  Rh  Rh22  1  0.832677  0.167323  0.250000  1
  Rh  Rh23  1  0.334732  0.167332  0.250000  1
  Rh  Rh24  1  0.164190  0.328479  0.604262  1
  Rh  Rh25  1  0.164199  0.835801  0.604254  1
  Rh  Rh26  1  0.671521  0.835810  0.604262  1
  Rh  Rh27  1  0.835810  0.671521  0.395738  1
  Rh  Rh28  1  0.835801  0.164199  0.395746  1
  Rh  Rh29  1  0.328479  0.164190  0.395738  1
  Rh  Rh30  1  0.835810  0.671521  0.104262  1
  Rh  Rh31  1  0.835801  0.164199  0.104254  1
  Rh  Rh32  1  0.328479  0.164190  0.104262  1
  Rh  Rh33  1  0.164190  0.328479  0.895738  1
  Rh  Rh34  1  0.164199  0.835801  0.895746  1
  Rh  Rh35  1  0.671521  0.835810  0.895738  1
