# generated using pymatgen
data_TbYb(TmNi7)2
_symmetry_space_group_name_H-M   'P 1'
_cell_length_a   4.89064144
_cell_length_b   4.89064042
_cell_length_c   12.31205521
_cell_angle_alpha   78.51354890
_cell_angle_beta   78.51356357
_cell_angle_gamma   60.01045642
_symmetry_Int_Tables_number   1
_chemical_formula_structural   TbYb(TmNi7)2
_chemical_formula_sum   'Tb1 Yb1 Tm2 Ni14'
_cell_volume   248.22252697
_cell_formula_units_Z   1
loop_
 _symmetry_equiv_pos_site_id
 _symmetry_equiv_pos_as_xyz
  1  'x, y, z'
loop_
 _atom_site_type_symbol
 _atom_site_label
 _atom_site_symmetry_multiplicity
 _atom_site_fract_x
 _atom_site_fract_y
 _atom_site_fract_z
 _atom_site_occupancy
  Tb  Tb0  1  0.948823  0.948823  0.153548  1
  Yb  Yb1  1  0.146979  0.146979  0.559144  1
  Tm  Tm2  1  0.051739  0.051739  0.844761  1
  Tm  Tm3  1  0.851072  0.851072  0.446729  1
  Ni  Ni4  1  0.499934  0.499934  0.500216  1
  Ni  Ni5  1  0.722129  0.722129  0.833473  1
  Ni  Ni6  1  0.278092  0.278092  0.165996  1
  Ni  Ni7  1  0.611600  0.611600  0.165235  1
  Ni  Ni8  1  0.388582  0.388582  0.834119  1
  Ni  Ni9  1  0.000361  0.500241  0.999064  1
  Ni  Ni10  1  0.500241  0.000361  0.999064  1
  Ni  Ni11  1  0.500273  0.500273  0.999057  1
  Ni  Ni12  1  0.389115  0.389115  0.330840  1
  Ni  Ni13  1  0.890872  0.389036  0.330796  1
  Ni  Ni14  1  0.389036  0.890872  0.330796  1
  Ni  Ni15  1  0.610997  0.610997  0.669035  1
  Ni  Ni16  1  0.109047  0.611107  0.669065  1
  Ni  Ni17  1  0.611107  0.109047  0.669065  1
