# generated using pymatgen
data_Y5HoCd3Sn3Pd5Pt
_symmetry_space_group_name_H-M   'P 1'
_cell_length_a   7.74031704
_cell_length_b   7.77282738
_cell_length_c   7.57655705
_cell_angle_alpha   89.99930519
_cell_angle_beta   90.00308737
_cell_angle_gamma   119.81745380
_symmetry_Int_Tables_number   1
_chemical_formula_structural   Y5HoCd3Sn3Pd5Pt
_chemical_formula_sum   'Y5 Ho1 Cd3 Sn3 Pd5 Pt1'
_cell_volume   395.49066041
_cell_formula_units_Z   1
loop_
 _symmetry_equiv_pos_site_id
 _symmetry_equiv_pos_as_xyz
  1  'x, y, z'
loop_
 _atom_site_type_symbol
 _atom_site_label
 _atom_site_symmetry_multiplicity
 _atom_site_fract_x
 _atom_site_fract_y
 _atom_site_fract_z
 _atom_site_occupancy
  Y  Y0  1  0.593500  0.594930  0.250894  1
  Y  Y1  1  0.000053  0.405182  0.251259  1
  Y  Y2  1  0.402359  0.993769  0.752237  1
  Y  Y3  1  0.591453  0.597521  0.748975  1
  Y  Y4  1  0.004805  0.407429  0.748890  1
  Ho  Ho5  1  0.405202  0.998581  0.247881  1
  Cd  Cd6  1  0.732962  0.004312  0.000365  1
  Cd  Cd7  1  0.266179  0.263477  0.499886  1
  Cd  Cd8  1  0.999617  0.735382  0.499917  1
  Sn  Sn9  1  0.992064  0.732633  0.000142  1
  Sn  Sn10  1  0.262053  0.263777  0.000152  1
  Sn  Sn11  1  0.746679  0.001058  0.499637  1
  Pd  Pd12  1  0.339028  0.671308  0.495974  1
  Pd  Pd13  1  0.661555  0.333412  0.997208  1
  Pd  Pd14  1  0.668167  0.328326  0.502699  1
  Pd  Pd15  1  0.002570  0.000152  0.243767  1
  Pd  Pd16  1  0.001600  0.000135  0.756370  1
  Pt  Pt17  1  0.330158  0.668616  0.003750  1
