# generated using pymatgen
data_Nd16Cd2Hg2OsPt3
_symmetry_space_group_name_H-M   'P 1'
_cell_length_a   10.01563125
_cell_length_b   10.01563195
_cell_length_c   10.03186913
_cell_angle_alpha   59.61946625
_cell_angle_beta   59.61947211
_cell_angle_gamma   59.66056972
_symmetry_Int_Tables_number   1
_chemical_formula_structural   Nd16Cd2Hg2OsPt3
_chemical_formula_sum   'Nd16 Cd2 Hg2 Os1 Pt3'
_cell_volume   705.64775862
_cell_formula_units_Z   1
loop_
 _symmetry_equiv_pos_site_id
 _symmetry_equiv_pos_as_xyz
  1  'x, y, z'
loop_
 _atom_site_type_symbol
 _atom_site_label
 _atom_site_symmetry_multiplicity
 _atom_site_fract_x
 _atom_site_fract_y
 _atom_site_fract_z
 _atom_site_occupancy
  Nd  Nd0  1  0.351903  0.351903  0.351549  1
  Nd  Nd1  1  0.348917  0.348917  0.950861  1
  Nd  Nd2  1  0.349618  0.948874  0.349382  1
  Nd  Nd3  1  0.948874  0.349618  0.349382  1
  Nd  Nd4  1  0.816003  0.188389  0.189342  1
  Nd  Nd5  1  0.188367  0.808171  0.808324  1
  Nd  Nd6  1  0.188389  0.816003  0.189342  1
  Nd  Nd7  1  0.808171  0.188367  0.808324  1
  Nd  Nd8  1  0.188263  0.188263  0.816724  1
  Nd  Nd9  1  0.807020  0.807020  0.189651  1
  Nd  Nd10  1  0.937717  0.563078  0.563939  1
  Nd  Nd11  1  0.555747  0.938289  0.938945  1
  Nd  Nd12  1  0.563078  0.937717  0.563939  1
  Nd  Nd13  1  0.938289  0.555747  0.938945  1
  Nd  Nd14  1  0.563088  0.563088  0.938671  1
  Nd  Nd15  1  0.938001  0.938001  0.556830  1
  Cd  Cd16  1  0.579382  0.258691  0.580264  1
  Cd  Cd17  1  0.258691  0.579382  0.580264  1
  Hg  Hg18  1  0.583342  0.583342  0.585528  1
  Hg  Hg19  1  0.583833  0.583833  0.245400  1
  Os  Os20  1  0.142969  0.142969  0.143249  1
  Pt  Pt21  1  0.143980  0.143980  0.572495  1
  Pt  Pt22  1  0.143856  0.572506  0.144328  1
  Pt  Pt23  1  0.572506  0.143856  0.144328  1
