# generated using pymatgen
data_Hf4Ti4Al13Si2Ir5Rh2
_symmetry_space_group_name_H-M   'P 1'
_cell_length_a   8.73155046
_cell_length_b   8.69637287
_cell_length_c   8.72996802
_cell_angle_alpha   119.89725403
_cell_angle_beta   120.02535278
_cell_angle_gamma   90.24247649
_symmetry_Int_Tables_number   1
_chemical_formula_structural   Hf4Ti4Al13Si2Ir5Rh2
_chemical_formula_sum   'Hf4 Ti4 Al13 Si2 Ir5 Rh2'
_cell_volume   468.28416996
_cell_formula_units_Z   1
loop_
 _symmetry_equiv_pos_site_id
 _symmetry_equiv_pos_as_xyz
  1  'x, y, z'
loop_
 _atom_site_type_symbol
 _atom_site_label
 _atom_site_symmetry_multiplicity
 _atom_site_fract_x
 _atom_site_fract_y
 _atom_site_fract_z
 _atom_site_occupancy
  Hf  Hf0  1  0.804635  0.296579  0.088560  1
  Hf  Hf1  1  0.203286  0.302708  0.495356  1
  Hf  Hf2  1  0.200377  0.696313  0.499046  1
  Hf  Hf3  1  0.214272  0.711867  0.916357  1
  Ti  Ti4  1  0.796140  0.712457  0.499654  1
  Ti  Ti5  1  0.791423  0.288675  0.501361  1
  Ti  Ti6  1  0.379557  0.123140  0.744280  1
  Ti  Ti7  1  0.382130  0.632690  0.255870  1
  Al  Al8  1  0.156727  0.984683  0.822390  1
  Al  Al9  1  0.152981  0.337996  0.813495  1
  Al  Al10  1  0.535264  0.343796  0.192257  1
  Al  Al11  1  0.838945  0.659284  0.816378  1
  Al  Al12  1  0.835522  0.013998  0.176585  1
  Al  Al13  1  0.833930  0.662802  0.174160  1
  Al  Al14  1  0.497163  0.665067  0.832302  1
  Al  Al15  1  0.386065  0.121326  0.262505  1
  Al  Al16  1  0.856187  0.114892  0.730596  1
  Al  Al17  1  0.622645  0.880922  0.264721  1
  Al  Al18  1  0.620007  0.358101  0.738110  1
  Al  Al19  1  0.621267  0.879016  0.738545  1
  Al  Al20  1  0.138743  0.879327  0.259897  1
  Si  Si21  1  0.981047  0.499946  0.503247  1
  Si  Si22  1  0.161124  0.338839  0.176805  1
  Ir  Ir23  1  0.002069  0.999727  0.501159  1
  Ir  Ir24  1  0.496301  0.999979  0.996514  1
  Ir  Ir25  1  0.495920  0.495259  0.998127  1
  Ir  Ir26  1  0.493178  0.497536  0.493997  1
  Ir  Ir27  1  0.002885  0.497886  0.003741  1
  Rh  Rh28  1  0.003655  0.009358  0.005243  1
  Rh  Rh29  1  0.496552  0.995828  0.498739  1
