# generated using pymatgen
data_Tb3ErLuSn3
_symmetry_space_group_name_H-M   'P 1'
_cell_length_a   8.96347900
_cell_length_b   8.96347917
_cell_length_c   6.49858700
_cell_angle_alpha   90.00000000
_cell_angle_beta   90.00000000
_cell_angle_gamma   119.99999570
_symmetry_Int_Tables_number   1
_chemical_formula_structural   Tb3ErLuSn3
_chemical_formula_sum   'Tb6 Er2 Lu2 Sn6'
_cell_volume   452.17110540
_cell_formula_units_Z   2
loop_
 _symmetry_equiv_pos_site_id
 _symmetry_equiv_pos_as_xyz
  1  'x, y, z'
loop_
 _atom_site_type_symbol
 _atom_site_label
 _atom_site_symmetry_multiplicity
 _atom_site_fract_x
 _atom_site_fract_y
 _atom_site_fract_z
 _atom_site_occupancy
  Tb  Tb0  1  0.759907  0.759907  0.749833  1
  Tb  Tb1  1  0.240093  0.000000  0.749833  1
  Tb  Tb2  1  0.000000  0.240093  0.749833  1
  Tb  Tb3  1  0.240093  0.240093  0.250167  1
  Tb  Tb4  1  0.759907  0.000000  0.250167  1
  Tb  Tb5  1  0.000000  0.759907  0.250167  1
  Er  Er6  1  0.666667  0.333333  0.000000  1
  Er  Er7  1  0.333333  0.666667  0.000000  1
  Lu  Lu8  1  0.333333  0.666667  0.500000  1
  Lu  Lu9  1  0.666667  0.333333  0.500000  1
  Sn  Sn10  1  0.396458  0.396458  0.748972  1
  Sn  Sn11  1  0.603542  0.000000  0.748972  1
  Sn  Sn12  1  0.000000  0.603542  0.748972  1
  Sn  Sn13  1  0.603542  0.603542  0.251028  1
  Sn  Sn14  1  0.396458  0.000000  0.251028  1
  Sn  Sn15  1  0.000000  0.396458  0.251028  1
