# generated using pymatgen
data_NdFeCuSi
_symmetry_space_group_name_H-M   'P 1'
_cell_length_a   8.75099507
_cell_length_b   8.75099428
_cell_length_c   4.04429800
_cell_angle_alpha   90.00000000
_cell_angle_beta   90.00000000
_cell_angle_gamma   153.29923995
_symmetry_Int_Tables_number   1
_chemical_formula_structural   NdFeCuSi
_chemical_formula_sum   'Nd2 Fe2 Cu2 Si2'
_cell_volume   139.16314154
_cell_formula_units_Z   2
loop_
 _symmetry_equiv_pos_site_id
 _symmetry_equiv_pos_as_xyz
  1  'x, y, z'
loop_
 _atom_site_type_symbol
 _atom_site_label
 _atom_site_symmetry_multiplicity
 _atom_site_fract_x
 _atom_site_fract_y
 _atom_site_fract_z
 _atom_site_occupancy
  Nd  Nd0  1  0.612591  0.387409  0.250000  1
  Nd  Nd1  1  0.387409  0.612591  0.750000  1
  Fe  Fe2  1  0.250700  0.749300  0.250000  1
  Fe  Fe3  1  0.749300  0.250700  0.750000  1
  Cu  Cu4  1  0.959312  0.040688  0.250000  1
  Cu  Cu5  1  0.040688  0.959312  0.750000  1
  Si  Si6  1  0.813452  0.186548  0.250000  1
  Si  Si7  1  0.186548  0.813452  0.750000  1
