# generated using pymatgen
data_Ho2HfGaIr2
_symmetry_space_group_name_H-M   'P 1'
_cell_length_a   4.45097600
_cell_length_b   6.90691306
_cell_length_c   8.01429022
_cell_angle_alpha   88.59166048
_cell_angle_beta   90.00000000
_cell_angle_gamma   90.00000000
_symmetry_Int_Tables_number   1
_chemical_formula_structural   Ho2HfGaIr2
_chemical_formula_sum   'Ho4 Hf2 Ga2 Ir4'
_cell_volume   246.30492590
_cell_formula_units_Z   2
loop_
 _symmetry_equiv_pos_site_id
 _symmetry_equiv_pos_as_xyz
  1  'x, y, z'
loop_
 _atom_site_type_symbol
 _atom_site_label
 _atom_site_symmetry_multiplicity
 _atom_site_fract_x
 _atom_site_fract_y
 _atom_site_fract_z
 _atom_site_occupancy
  Ho  Ho0  1  0.250000  0.523997  0.164809  1
  Ho  Ho1  1  0.750000  0.476003  0.835191  1
  Ho  Ho2  1  0.750000  0.976842  0.702918  1
  Ho  Ho3  1  0.250000  0.023158  0.297082  1
  Hf  Hf4  1  0.250000  0.640978  0.576090  1
  Hf  Hf5  1  0.750000  0.359022  0.423910  1
  Ga  Ga6  1  0.750000  0.843666  0.073088  1
  Ga  Ga7  1  0.250000  0.156334  0.926912  1
  Ir  Ir8  1  0.250000  0.774593  0.887409  1
  Ir  Ir9  1  0.750000  0.225407  0.112591  1
  Ir  Ir10  1  0.750000  0.738028  0.399003  1
  Ir  Ir11  1  0.250000  0.261972  0.600997  1
