# generated using pymatgen
data_Lu16CdHg3Rh4
_symmetry_space_group_name_H-M   'P 1'
_cell_length_a   9.41373649
_cell_length_b   9.39942409
_cell_length_c   9.39942400
_cell_angle_alpha   60.00000737
_cell_angle_beta   60.05028819
_cell_angle_gamma   60.05028458
_symmetry_Int_Tables_number   1
_chemical_formula_structural   Lu16CdHg3Rh4
_chemical_formula_sum   'Lu16 Cd1 Hg3 Rh4'
_cell_volume   588.54439733
_cell_formula_units_Z   1
loop_
 _symmetry_equiv_pos_site_id
 _symmetry_equiv_pos_as_xyz
  1  'x, y, z'
loop_
 _atom_site_type_symbol
 _atom_site_label
 _atom_site_symmetry_multiplicity
 _atom_site_fract_x
 _atom_site_fract_y
 _atom_site_fract_z
 _atom_site_occupancy
  Lu  Lu0  1  0.601310  0.601026  0.601026  1
  Lu  Lu1  1  0.601310  0.601026  0.196639  1
  Lu  Lu2  1  0.601310  0.196639  0.601026  1
  Lu  Lu3  1  0.193332  0.602223  0.602223  1
  Lu  Lu4  1  0.062361  0.437755  0.437755  1
  Lu  Lu5  1  0.437120  0.062404  0.062404  1
  Lu  Lu6  1  0.437120  0.062404  0.438074  1
  Lu  Lu7  1  0.062361  0.437755  0.062130  1
  Lu  Lu8  1  0.437120  0.438074  0.062404  1
  Lu  Lu9  1  0.062361  0.062130  0.437755  1
  Lu  Lu10  1  0.185004  0.813479  0.813479  1
  Lu  Lu11  1  0.811918  0.187278  0.187278  1
  Lu  Lu12  1  0.811918  0.187278  0.813526  1
  Lu  Lu13  1  0.185004  0.813479  0.188037  1
  Lu  Lu14  1  0.811918  0.813526  0.187278  1
  Lu  Lu15  1  0.185004  0.188037  0.813479  1
  Cd  Cd16  1  0.508352  0.830549  0.830549  1
  Hg  Hg17  1  0.835387  0.835220  0.835220  1
  Hg  Hg18  1  0.835387  0.835220  0.494173  1
  Hg  Hg19  1  0.835387  0.494173  0.835220  1
  Rh  Rh20  1  0.393035  0.393795  0.393795  1
  Rh  Rh21  1  0.393035  0.393795  0.819373  1
  Rh  Rh22  1  0.393035  0.819373  0.393795  1
  Rh  Rh23  1  0.819905  0.393365  0.393365  1
