# generated using pymatgen
data_Ho9Sc(Si3O)2
_symmetry_space_group_name_H-M   'P 1'
_cell_length_a   8.33077300
_cell_length_b   8.33077321
_cell_length_c   6.11713800
_cell_angle_alpha   90.00000000
_cell_angle_beta   90.00000000
_cell_angle_gamma   120.00000315
_symmetry_Int_Tables_number   1
_chemical_formula_structural   Ho9Sc(Si3O)2
_chemical_formula_sum   'Ho9 Sc1 Si6 O2'
_cell_volume   367.66264595
_cell_formula_units_Z   1
loop_
 _symmetry_equiv_pos_site_id
 _symmetry_equiv_pos_as_xyz
  1  'x, y, z'
loop_
 _atom_site_type_symbol
 _atom_site_label
 _atom_site_symmetry_multiplicity
 _atom_site_fract_x
 _atom_site_fract_y
 _atom_site_fract_z
 _atom_site_occupancy
  Ho  Ho0  1  0.232223  0.999155  0.251446  1
  Ho  Ho1  1  0.766932  0.999155  0.748554  1
  Ho  Ho2  1  0.000845  0.233068  0.251446  1
  Ho  Ho3  1  0.000845  0.767777  0.748554  1
  Ho  Ho4  1  0.766932  0.767777  0.251446  1
  Ho  Ho5  1  0.232223  0.233068  0.748554  1
  Ho  Ho6  1  0.333333  0.666667  0.000000  1
  Ho  Ho7  1  0.666667  0.333333  0.000000  1
  Ho  Ho8  1  0.666667  0.333333  0.500000  1
  Sc  Sc9  1  0.333333  0.666667  0.500000  1
  Si  Si10  1  0.597875  0.995617  0.256803  1
  Si  Si11  1  0.397742  0.995617  0.743197  1
  Si  Si12  1  0.004383  0.602258  0.256803  1
  Si  Si13  1  0.004383  0.402125  0.743197  1
  Si  Si14  1  0.397742  0.402125  0.256803  1
  Si  Si15  1  0.597875  0.602258  0.743197  1
  O  O16  1  0.000000  0.000000  0.000000  1
  O  O17  1  0.000000  0.000000  0.500000  1
