# generated using pymatgen
data_Dy9Er(RuRh)2
_symmetry_space_group_name_H-M   'P 1'
_cell_length_a   6.37583331
_cell_length_b   7.24055845
_cell_length_c   8.52548717
_cell_angle_alpha   96.67684300
_cell_angle_beta   111.95805854
_cell_angle_gamma   89.99999790
_symmetry_Int_Tables_number   1
_chemical_formula_structural   Dy9Er(RuRh)2
_chemical_formula_sum   'Dy9 Er1 Ru2 Rh2'
_cell_volume   362.14509440
_cell_formula_units_Z   1
loop_
 _symmetry_equiv_pos_site_id
 _symmetry_equiv_pos_as_xyz
  1  'x, y, z'
loop_
 _atom_site_type_symbol
 _atom_site_label
 _atom_site_symmetry_multiplicity
 _atom_site_fract_x
 _atom_site_fract_y
 _atom_site_fract_z
 _atom_site_occupancy
  Dy  Dy0  1  0.792765  0.581949  0.812016  1
  Dy  Dy1  1  0.980749  0.918051  0.187984  1
  Dy  Dy2  1  0.209073  0.414290  0.185155  1
  Dy  Dy3  1  0.023918  0.085710  0.814845  1
  Dy  Dy4  1  0.207617  0.684087  0.565701  1
  Dy  Dy5  1  0.641915  0.815913  0.434299  1
  Dy  Dy6  1  0.792050  0.312138  0.436360  1
  Dy  Dy7  1  0.355690  0.187862  0.563640  1
  Dy  Dy8  1  0.420312  0.750000  0.000000  1
  Er  Er9  1  0.576640  0.250000  0.000000  1
  Ru  Ru10  1  0.398047  0.075303  0.220107  1
  Ru  Ru11  1  0.177941  0.424697  0.779893  1
  Rh  Rh12  1  0.601011  0.924133  0.778739  1
  Rh  Rh13  1  0.822272  0.575867  0.221261  1
