# generated using pymatgen
data_Ce2Pa2In2Ir3Rh
_symmetry_space_group_name_H-M   'P 1'
_cell_length_a   7.76476987
_cell_length_b   7.76476936
_cell_length_c   3.64509600
_cell_angle_alpha   90.00000000
_cell_angle_beta   90.00000000
_cell_angle_gamma   92.15915263
_symmetry_Int_Tables_number   1
_chemical_formula_structural   Ce2Pa2In2Ir3Rh
_chemical_formula_sum   'Ce2 Pa2 In2 Ir3 Rh1'
_cell_volume   219.61281265
_cell_formula_units_Z   1
loop_
 _symmetry_equiv_pos_site_id
 _symmetry_equiv_pos_as_xyz
  1  'x, y, z'
loop_
 _atom_site_type_symbol
 _atom_site_label
 _atom_site_symmetry_multiplicity
 _atom_site_fract_x
 _atom_site_fract_y
 _atom_site_fract_z
 _atom_site_occupancy
  Ce  Ce0  1  0.171100  0.331633  0.500000  1
  Ce  Ce1  1  0.831633  0.671100  0.500000  1
  Pa  Pa2  1  0.666626  0.166626  0.500000  1
  Pa  Pa3  1  0.332242  0.832242  0.500000  1
  In  In4  1  0.000270  0.000781  0.000000  1
  In  In5  1  0.500781  0.500270  0.000000  1
  Ir  Ir6  1  0.141458  0.641458  0.000000  1
  Ir  Ir7  1  0.629831  0.871982  0.000000  1
  Ir  Ir8  1  0.371982  0.129831  0.000000  1
  Rh  Rh9  1  0.854078  0.354078  0.000000  1
