# generated using pymatgen
data_LaNd11(SiBr3)4
_symmetry_space_group_name_H-M   'P 1'
_cell_length_a   10.44573557
_cell_length_b   10.49968268
_cell_length_c   10.44573507
_cell_angle_alpha   109.46961340
_cell_angle_beta   109.51642919
_cell_angle_gamma   109.46960649
_symmetry_Int_Tables_number   1
_chemical_formula_structural   LaNd11(SiBr3)4
_chemical_formula_sum   'La1 Nd11 Si4 Br12'
_cell_volume   881.46890991
_cell_formula_units_Z   1
loop_
 _symmetry_equiv_pos_site_id
 _symmetry_equiv_pos_as_xyz
  1  'x, y, z'
loop_
 _atom_site_type_symbol
 _atom_site_label
 _atom_site_symmetry_multiplicity
 _atom_site_fract_x
 _atom_site_fract_y
 _atom_site_fract_z
 _atom_site_occupancy
  La  La0  1  0.257774  0.750000  0.242226  1
  Nd  Nd1  1  0.487593  0.750000  0.012407  1
  Nd  Nd2  1  0.748697  0.236101  0.261374  1
  Nd  Nd3  1  0.238626  0.263899  0.751303  1
  Nd  Nd4  1  0.476476  0.486790  0.237400  1
  Nd  Nd5  1  0.262600  0.013210  0.023524  1
  Nd  Nd6  1  0.238423  0.474776  0.487551  1
  Nd  Nd7  1  0.012449  0.025224  0.261577  1
  Nd  Nd8  1  0.011327  0.486844  0.748826  1
  Nd  Nd9  1  0.489537  0.239408  0.476042  1
  Nd  Nd10  1  0.751174  0.013156  0.488673  1
  Nd  Nd11  1  0.023958  0.260592  0.010463  1
  Si  Si12  1  0.250512  0.250000  0.249488  1
  Si  Si13  1  0.000309  0.250000  0.499691  1
  Si  Si14  1  0.249844  0.501119  0.001571  1
  Si  Si15  1  0.498429  0.998881  0.250156  1
  Br  Br16  1  0.997500  0.993619  0.745676  1
  Br  Br17  1  0.754489  0.747801  0.250389  1
  Br  Br18  1  0.989256  0.748208  0.989782  1
  Br  Br19  1  0.252160  0.002710  0.509054  1
  Br  Br20  1  0.745869  0.996497  0.992570  1
  Br  Br21  1  0.503872  0.250000  0.996128  1
  Br  Br22  1  0.746598  0.250000  0.753402  1
  Br  Br23  1  0.510218  0.751792  0.510744  1
  Br  Br24  1  0.754324  0.506381  0.502500  1
  Br  Br25  1  0.249611  0.752199  0.745511  1
  Br  Br26  1  0.507430  0.503503  0.754131  1
  Br  Br27  1  0.990946  0.497290  0.247840  1
