# generated using pymatgen
data_Cs3HoIrBr9
_symmetry_space_group_name_H-M   'P 1'
_cell_length_a   7.92976600
_cell_length_b   7.92976517
_cell_length_c   19.99627300
_cell_angle_alpha   90.00000000
_cell_angle_beta   90.00000000
_cell_angle_gamma   119.99998677
_symmetry_Int_Tables_number   1
_chemical_formula_structural   Cs3HoIrBr9
_chemical_formula_sum   'Cs6 Ho2 Ir2 Br18'
_cell_volume   1088.93120991
_cell_formula_units_Z   2
loop_
 _symmetry_equiv_pos_site_id
 _symmetry_equiv_pos_as_xyz
  1  'x, y, z'
loop_
 _atom_site_type_symbol
 _atom_site_label
 _atom_site_symmetry_multiplicity
 _atom_site_fract_x
 _atom_site_fract_y
 _atom_site_fract_z
 _atom_site_occupancy
  Cs  Cs0  1  0.333333  0.666667  0.060961  1
  Cs  Cs1  1  0.666667  0.333333  0.939039  1
  Cs  Cs2  1  0.666667  0.333333  0.565282  1
  Cs  Cs3  1  0.333333  0.666667  0.434718  1
  Cs  Cs4  1  0.000000  0.000000  0.257683  1
  Cs  Cs5  1  0.000000  0.000000  0.742317  1
  Ho  Ho6  1  0.666667  0.333333  0.166160  1
  Ho  Ho7  1  0.333333  0.666667  0.833840  1
  Ir  Ir8  1  0.333333  0.666667  0.666091  1
  Ir  Ir9  1  0.666667  0.333333  0.333909  1
  Br  Br10  1  0.184350  0.368700  0.594670  1
  Br  Br11  1  0.815650  0.631300  0.405330  1
  Br  Br12  1  0.631300  0.815650  0.594670  1
  Br  Br13  1  0.833401  0.666804  0.093439  1
  Br  Br14  1  0.368700  0.184350  0.405330  1
  Br  Br15  1  0.166599  0.333196  0.906561  1
  Br  Br16  1  0.184350  0.815650  0.594670  1
  Br  Br17  1  0.333196  0.166599  0.093439  1
  Br  Br18  1  0.815650  0.184350  0.405330  1
  Br  Br19  1  0.666804  0.833401  0.906561  1
  Br  Br20  1  0.833401  0.166599  0.093439  1
  Br  Br21  1  0.166599  0.833401  0.906561  1
  Br  Br22  1  0.511373  0.022747  0.262706  1
  Br  Br23  1  0.488627  0.977253  0.737294  1
  Br  Br24  1  0.977253  0.488627  0.262706  1
  Br  Br25  1  0.022747  0.511373  0.737294  1
  Br  Br26  1  0.511373  0.488627  0.262706  1
  Br  Br27  1  0.488627  0.511373  0.737294  1
