# generated using pymatgen
data_Er14Tm6GaBi11
_symmetry_space_group_name_H-M   'P 1'
_cell_length_a   8.14761788
_cell_length_b   9.41395804
_cell_length_c   11.92496111
_cell_angle_alpha   89.99386056
_cell_angle_beta   89.66198075
_cell_angle_gamma   89.99222359
_symmetry_Int_Tables_number   1
_chemical_formula_structural   Er14Tm6GaBi11
_chemical_formula_sum   'Er14 Tm6 Ga1 Bi11'
_cell_volume   914.64447950
_cell_formula_units_Z   1
loop_
 _symmetry_equiv_pos_site_id
 _symmetry_equiv_pos_as_xyz
  1  'x, y, z'
loop_
 _atom_site_type_symbol
 _atom_site_label
 _atom_site_symmetry_multiplicity
 _atom_site_fract_x
 _atom_site_fract_y
 _atom_site_fract_z
 _atom_site_occupancy
  Er  Er0  1  0.037818  0.249964  0.510106  1
  Er  Er1  1  0.978381  0.749999  0.489780  1
  Er  Er2  1  0.475118  0.749908  0.011026  1
  Er  Er3  1  0.525772  0.250065  0.988797  1
  Er  Er4  1  0.356350  0.250070  0.293858  1
  Er  Er5  1  0.646672  0.749912  0.716402  1
  Er  Er6  1  0.147782  0.749959  0.782832  1
  Er  Er7  1  0.853814  0.250024  0.215994  1
  Er  Er8  1  0.192348  0.250051  0.777320  1
  Er  Er9  1  0.810704  0.749949  0.218154  1
  Er  Er10  1  0.312876  0.749997  0.281132  1
  Er  Er11  1  0.674454  0.250007  0.710666  1
  Er  Er12  1  0.193491  0.065496  0.060419  1
  Er  Er13  1  0.806750  0.935080  0.940687  1
  Tm  Tm14  1  0.308911  0.949452  0.559168  1
  Tm  Tm15  1  0.806618  0.565094  0.940619  1
  Tm  Tm16  1  0.684330  0.072270  0.444925  1
  Tm  Tm17  1  0.193616  0.434376  0.060497  1
  Tm  Tm18  1  0.684346  0.427722  0.444916  1
  Tm  Tm19  1  0.308871  0.550538  0.559182  1
  Ga  Ga20  1  0.408576  0.250016  0.539843  1
  Bi  Bi21  1  0.593367  0.750009  0.457398  1
  Bi  Bi22  1  0.093676  0.749636  0.042618  1
  Bi  Bi23  1  0.907977  0.250389  0.954869  1
  Bi  Bi24  1  0.064056  0.002874  0.324666  1
  Bi  Bi25  1  0.934547  0.997574  0.674893  1
  Bi  Bi26  1  0.434885  0.996208  0.825243  1
  Bi  Bi27  1  0.934580  0.502414  0.674935  1
  Bi  Bi28  1  0.565201  0.004384  0.174608  1
  Bi  Bi29  1  0.064041  0.497149  0.324610  1
  Bi  Bi30  1  0.565134  0.495612  0.174565  1
  Bi  Bi31  1  0.434938  0.503802  0.825269  1
