# generated using pymatgen
data_K4NbFeH11
_symmetry_space_group_name_H-M   'P 1'
_cell_length_a   5.75833999
_cell_length_b   8.53931960
_cell_length_c   10.30468900
_cell_angle_alpha   65.50746279
_cell_angle_beta   89.16670356
_cell_angle_gamma   89.10333958
_symmetry_Int_Tables_number   1
_chemical_formula_structural   K4NbFeH11
_chemical_formula_sum   'K8 Nb2 Fe2 H22'
_cell_volume   461.03504531
_cell_formula_units_Z   2
loop_
 _symmetry_equiv_pos_site_id
 _symmetry_equiv_pos_as_xyz
  1  'x, y, z'
loop_
 _atom_site_type_symbol
 _atom_site_label
 _atom_site_symmetry_multiplicity
 _atom_site_fract_x
 _atom_site_fract_y
 _atom_site_fract_z
 _atom_site_occupancy
  K  K0  1  0.747295  0.329682  0.537167  1
  K  K1  1  0.252854  0.670223  0.462806  1
  K  K2  1  0.749904  0.358769  0.113997  1
  K  K3  1  0.250038  0.641385  0.886036  1
  K  K4  1  0.753192  0.959898  0.394872  1
  K  K5  1  0.246638  0.039986  0.605115  1
  K  K6  1  0.258903  0.198957  0.913500  1
  K  K7  1  0.741287  0.801249  0.086446  1
  Nb  Nb8  1  0.758076  0.567488  0.731763  1
  Nb  Nb9  1  0.242080  0.432413  0.268267  1
  Fe  Fe10  1  0.746398  0.838159  0.746492  1
  Fe  Fe11  1  0.253459  0.161708  0.253413  1
  H  H12  1  0.546353  0.782439  0.666472  1
  H  H13  1  0.453525  0.217429  0.333574  1
  H  H14  1  0.497602  0.494765  0.673365  1
  H  H15  1  0.502541  0.505092  0.326652  1
  H  H16  1  0.742365  0.019431  0.618994  1
  H  H17  1  0.257217  0.980321  0.381024  1
  H  H18  1  0.575196  0.418791  0.874309  1
  H  H19  1  0.424857  0.581213  0.125750  1
  H  H20  1  0.955336  0.785898  0.666032  1
  H  H21  1  0.044411  0.214241  0.333947  1
  H  H22  1  0.769685  0.630842  0.535589  1
  H  H23  1  0.230552  0.368978  0.464417  1
  H  H24  1  0.929835  0.916923  0.819048  1
  H  H25  1  0.069729  0.083263  0.180667  1
  H  H26  1  0.750134  0.659086  0.886644  1
  H  H27  1  0.249876  0.340920  0.113342  1
  H  H28  1  0.931589  0.416673  0.877964  1
  H  H29  1  0.068478  0.583381  0.122185  1
  H  H30  1  0.033669  0.496093  0.682356  1
  H  H31  1  0.967014  0.504377  0.317880  1
  H  H32  1  0.553594  0.913827  0.820723  1
  H  H33  1  0.446319  0.086100  0.179192  1
