# generated using pymatgen
data_Nd5SnRuO12
_symmetry_space_group_name_H-M   'P 1'
_cell_length_a   7.12850808
_cell_length_b   7.12850839
_cell_length_c   7.61671402
_cell_angle_alpha   74.48227190
_cell_angle_beta   74.48227249
_cell_angle_gamma   50.99560657
_symmetry_Int_Tables_number   1
_chemical_formula_structural   Nd5SnRuO12
_chemical_formula_sum   'Nd5 Sn1 Ru1 O12'
_cell_volume   287.25802959
_cell_formula_units_Z   1
loop_
 _symmetry_equiv_pos_site_id
 _symmetry_equiv_pos_as_xyz
  1  'x, y, z'
loop_
 _atom_site_type_symbol
 _atom_site_label
 _atom_site_symmetry_multiplicity
 _atom_site_fract_x
 _atom_site_fract_y
 _atom_site_fract_z
 _atom_site_occupancy
  Nd  Nd0  1  0.299103  0.305933  0.360450  1
  Nd  Nd1  1  0.694067  0.700897  0.639550  1
  Nd  Nd2  1  0.690614  0.698522  0.167324  1
  Nd  Nd3  1  0.301478  0.309386  0.832676  1
  Nd  Nd4  1  0.005461  0.994539  0.500000  1
  Sn  Sn5  1  0.761859  0.238141  0.000000  1
  Ru  Ru6  1  0.249407  0.750593  0.000000  1
  O  O7  1  0.093681  0.597361  0.576073  1
  O  O8  1  0.017277  0.981039  0.182024  1
  O  O9  1  0.402639  0.906319  0.423927  1
  O  O10  1  0.490480  0.510400  0.180171  1
  O  O11  1  0.100013  0.580702  0.080100  1
  O  O12  1  0.902885  0.404152  0.423274  1
  O  O13  1  0.018961  0.982723  0.817976  1
  O  O14  1  0.595848  0.097114  0.576726  1
  O  O15  1  0.489600  0.509520  0.819829  1
  O  O16  1  0.569279  0.101951  0.081387  1
  O  O17  1  0.419298  0.899987  0.919900  1
  O  O18  1  0.898049  0.430721  0.918613  1
