# generated using pymatgen
data_Pt7RhW
_symmetry_space_group_name_H-M   'P 1'
_cell_length_a   6.31127858
_cell_length_b   6.31127690
_cell_length_c   6.26165553
_cell_angle_alpha   95.56184731
_cell_angle_beta   95.56183765
_cell_angle_gamma   143.87025858
_symmetry_Int_Tables_number   1
_chemical_formula_structural   Pt7RhW
_chemical_formula_sum   'Pt7 Rh1 W1'
_cell_volume   139.69186579
_cell_formula_units_Z   1
loop_
 _symmetry_equiv_pos_site_id
 _symmetry_equiv_pos_as_xyz
  1  'x, y, z'
loop_
 _atom_site_type_symbol
 _atom_site_label
 _atom_site_symmetry_multiplicity
 _atom_site_fract_x
 _atom_site_fract_y
 _atom_site_fract_z
 _atom_site_occupancy
  Pt  Pt0  1  0.662701  0.662701  0.325402  1
  Pt  Pt1  1  0.660709  0.338762  0.999470  1
  Pt  Pt2  1  0.338762  0.660709  0.999470  1
  Pt  Pt3  1  0.001624  0.328692  0.330317  1
  Pt  Pt4  1  0.998382  0.672294  0.670676  1
  Pt  Pt5  1  0.672294  0.998382  0.670676  1
  Pt  Pt6  1  0.328692  0.001624  0.330317  1
  Rh  Rh7  1  0.341638  0.341638  0.683276  1
  W  W8  1  0.995198  0.995198  0.990396  1
