# generated using pymatgen
data_Np5UP8
_symmetry_space_group_name_H-M   'P 1'
_cell_length_a   7.07609987
_cell_length_b   7.07609915
_cell_length_c   7.07609978
_cell_angle_alpha   109.40468128
_cell_angle_beta   109.40467355
_cell_angle_gamma   109.60438049
_symmetry_Int_Tables_number   1
_chemical_formula_structural   Np5UP8
_chemical_formula_sum   'Np5 U1 P8'
_cell_volume   272.74588519
_cell_formula_units_Z   1
loop_
 _symmetry_equiv_pos_site_id
 _symmetry_equiv_pos_as_xyz
  1  'x, y, z'
loop_
 _atom_site_type_symbol
 _atom_site_label
 _atom_site_symmetry_multiplicity
 _atom_site_fract_x
 _atom_site_fract_y
 _atom_site_fract_z
 _atom_site_occupancy
  Np  Np0  1  0.875000  0.125000  0.750000  1
  Np  Np1  1  0.374044  0.249234  0.626089  1
  Np  Np2  1  0.123145  0.747954  0.873911  1
  Np  Np3  1  0.750766  0.876855  0.124809  1
  Np  Np4  1  0.252046  0.625956  0.375191  1
  U  U5  1  0.625000  0.375000  0.250000  1
  P  P6  1  0.661118  0.658500  0.659884  1
  P  P7  1  0.498969  0.001474  0.338376  1
  P  P8  1  0.998766  0.338882  0.497382  1
  P  P9  1  0.341500  0.501384  0.002618  1
  P  P10  1  0.998526  0.836902  0.497495  1
  P  P11  1  0.839407  0.501031  0.002505  1
  P  P12  1  0.163098  0.160593  0.161624  1
  P  P13  1  0.498616  0.001234  0.840116  1
