# generated using pymatgen
data_Zr16Co4Tc3Pd
_symmetry_space_group_name_H-M   'P 1'
_cell_length_a   8.75894856
_cell_length_b   8.71643201
_cell_length_c   8.71643200
_cell_angle_alpha   60.00000003
_cell_angle_beta   60.16044188
_cell_angle_gamma   60.16044126
_symmetry_Int_Tables_number   1
_chemical_formula_structural   Zr16Co4Tc3Pd
_chemical_formula_sum   'Zr16 Co4 Tc3 Pd1'
_cell_volume   471.69733362
_cell_formula_units_Z   1
loop_
 _symmetry_equiv_pos_site_id
 _symmetry_equiv_pos_as_xyz
  1  'x, y, z'
loop_
 _atom_site_type_symbol
 _atom_site_label
 _atom_site_symmetry_multiplicity
 _atom_site_fract_x
 _atom_site_fract_y
 _atom_site_fract_z
 _atom_site_occupancy
  Zr  Zr0  1  0.051022  0.649660  0.649660  1
  Zr  Zr1  1  0.648447  0.049944  0.650805  1
  Zr  Zr2  1  0.648447  0.650805  0.049944  1
  Zr  Zr3  1  0.648447  0.650805  0.650805  1
  Zr  Zr4  1  0.797650  0.802121  0.200114  1
  Zr  Zr5  1  0.201510  0.202104  0.798193  1
  Zr  Zr6  1  0.797650  0.200114  0.802121  1
  Zr  Zr7  1  0.201510  0.798193  0.202104  1
  Zr  Zr8  1  0.201510  0.798193  0.798193  1
  Zr  Zr9  1  0.797650  0.200114  0.200114  1
  Zr  Zr10  1  0.436272  0.435034  0.064347  1
  Zr  Zr11  1  0.071914  0.057375  0.435356  1
  Zr  Zr12  1  0.436272  0.064347  0.435034  1
  Zr  Zr13  1  0.071914  0.435356  0.057375  1
  Zr  Zr14  1  0.071914  0.435356  0.435356  1
  Zr  Zr15  1  0.436272  0.064347  0.064347  1
  Co  Co16  1  0.420159  0.859947  0.859947  1
  Co  Co17  1  0.858737  0.420782  0.860240  1
  Co  Co18  1  0.858737  0.860240  0.420782  1
  Co  Co19  1  0.858737  0.860240  0.860240  1
  Tc  Tc20  1  0.413976  0.748633  0.418695  1
  Tc  Tc21  1  0.413976  0.418695  0.748633  1
  Tc  Tc22  1  0.413976  0.418695  0.418695  1
  Pd  Pd23  1  0.743301  0.418900  0.418900  1
