# generated using pymatgen
data_Li7Y8MgPb8
_symmetry_space_group_name_H-M   'P 1'
_cell_length_a   9.56659122
_cell_length_b   9.56659162
_cell_length_c   7.36133190
_cell_angle_alpha   90.09766871
_cell_angle_beta   89.90233147
_cell_angle_gamma   119.95435709
_symmetry_Int_Tables_number   1
_chemical_formula_structural   Li7Y8MgPb8
_chemical_formula_sum   'Li7 Y8 Mg1 Pb8'
_cell_volume   583.71412375
_cell_formula_units_Z   1
loop_
 _symmetry_equiv_pos_site_id
 _symmetry_equiv_pos_as_xyz
  1  'x, y, z'
loop_
 _atom_site_type_symbol
 _atom_site_label
 _atom_site_symmetry_multiplicity
 _atom_site_fract_x
 _atom_site_fract_y
 _atom_site_fract_z
 _atom_site_occupancy
  Li  Li0  1  0.333787  0.166928  0.692311  1
  Li  Li1  1  0.833072  0.666213  0.692311  1
  Li  Li2  1  0.165634  0.333026  0.191832  1
  Li  Li3  1  0.666974  0.834366  0.191832  1
  Li  Li4  1  0.833039  0.166961  0.691711  1
  Li  Li5  1  0.333157  0.666843  0.813745  1
  Li  Li6  1  0.667573  0.332427  0.313799  1
  Y  Y7  1  0.512618  0.487382  0.988701  1
  Y  Y8  1  0.024660  0.510097  0.492764  1
  Y  Y9  1  0.489903  0.975340  0.492764  1
  Y  Y10  1  0.518550  0.028836  0.989251  1
  Y  Y11  1  0.971164  0.481450  0.989251  1
  Y  Y12  1  0.487573  0.512427  0.495492  1
  Y  Y13  1  0.996691  0.003309  0.981337  1
  Y  Y14  1  0.999005  0.000995  0.485351  1
  Mg  Mg15  1  0.166624  0.833376  0.196252  1
  Pb  Pb16  1  0.166516  0.833484  0.754691  1
  Pb  Pb17  1  0.337275  0.174285  0.258793  1
  Pb  Pb18  1  0.825715  0.662725  0.258793  1
  Pb  Pb19  1  0.167036  0.333858  0.756182  1
  Pb  Pb20  1  0.666142  0.832964  0.756182  1
  Pb  Pb21  1  0.833399  0.166601  0.256276  1
  Pb  Pb22  1  0.337377  0.662623  0.226908  1
  Pb  Pb23  1  0.666516  0.333484  0.723471  1
