# generated using pymatgen
data_TbDy7Sc11Si16Ag
_symmetry_space_group_name_H-M   'P 1'
_cell_length_a   7.03138606
_cell_length_b   7.38862026
_cell_length_c   14.01350302
_cell_angle_alpha   90.00557317
_cell_angle_beta   90.00180362
_cell_angle_gamma   89.92722102
_symmetry_Int_Tables_number   1
_chemical_formula_structural   TbDy7Sc11Si16Ag
_chemical_formula_sum   'Tb1 Dy7 Sc11 Si16 Ag1'
_cell_volume   728.03230209
_cell_formula_units_Z   1
loop_
 _symmetry_equiv_pos_site_id
 _symmetry_equiv_pos_as_xyz
  1  'x, y, z'
loop_
 _atom_site_type_symbol
 _atom_site_label
 _atom_site_symmetry_multiplicity
 _atom_site_fract_x
 _atom_site_fract_y
 _atom_site_fract_z
 _atom_site_occupancy
  Tb  Tb0  1  0.011037  0.174757  0.096305  1
  Dy  Dy1  1  0.990213  0.815213  0.900778  1
  Dy  Dy2  1  0.483919  0.673844  0.901177  1
  Dy  Dy3  1  0.990200  0.815185  0.599144  1
  Dy  Dy4  1  0.510913  0.323716  0.096495  1
  Dy  Dy5  1  0.011212  0.175103  0.403465  1
  Dy  Dy6  1  0.510929  0.323646  0.403561  1
  Dy  Dy7  1  0.483854  0.673790  0.598758  1
  Sc  Sc8  1  0.838499  0.497294  0.250026  1
  Sc  Sc9  1  0.340080  0.002689  0.250024  1
  Sc  Sc10  1  0.657832  0.998289  0.749963  1
  Sc  Sc11  1  0.326162  0.182753  0.626565  1
  Sc  Sc12  1  0.671173  0.823486  0.375051  1
  Sc  Sc13  1  0.170488  0.678538  0.374001  1
  Sc  Sc14  1  0.671137  0.823381  0.125067  1
  Sc  Sc15  1  0.835807  0.327258  0.626477  1
  Sc  Sc16  1  0.326205  0.182739  0.873422  1
  Sc  Sc17  1  0.835760  0.327370  0.873475  1
  Sc  Sc18  1  0.170575  0.678479  0.126099  1
  Si  Si19  1  0.028263  0.100615  0.749969  1
  Si  Si20  1  0.968765  0.886465  0.250137  1
  Si  Si21  1  0.467494  0.617116  0.250038  1
  Si  Si22  1  0.537435  0.384583  0.749990  1
  Si  Si23  1  0.288435  0.884471  0.750000  1
  Si  Si24  1  0.713306  0.127018  0.250237  1
  Si  Si25  1  0.213119  0.372995  0.250186  1
  Si  Si26  1  0.776342  0.628770  0.749987  1
  Si  Si27  1  0.160826  0.460154  0.531685  1
  Si  Si28  1  0.843253  0.535504  0.461848  1
  Si  Si29  1  0.344807  0.965273  0.462610  1
  Si  Si30  1  0.843110  0.535833  0.038024  1
  Si  Si31  1  0.657606  0.033834  0.540306  1
  Si  Si32  1  0.160933  0.460584  0.968173  1
  Si  Si33  1  0.657521  0.033771  0.959664  1
  Si  Si34  1  0.345346  0.965031  0.037288  1
  Ag  Ag35  1  0.157443  0.510452  0.750006  1
