# generated using pymatgen
data_VOs2Cl13
_symmetry_space_group_name_H-M   'P 1'
_cell_length_a   10.91513600
_cell_length_b   9.21011374
_cell_length_c   9.77167200
_cell_angle_alpha   82.85649497
_cell_angle_beta   90.00000000
_cell_angle_gamma   90.00000000
_symmetry_Int_Tables_number   1
_chemical_formula_structural   VOs2Cl13
_chemical_formula_sum   'V2 Os4 Cl26'
_cell_volume   974.71756786
_cell_formula_units_Z   2
loop_
 _symmetry_equiv_pos_site_id
 _symmetry_equiv_pos_as_xyz
  1  'x, y, z'
loop_
 _atom_site_type_symbol
 _atom_site_label
 _atom_site_symmetry_multiplicity
 _atom_site_fract_x
 _atom_site_fract_y
 _atom_site_fract_z
 _atom_site_occupancy
  V  V0  1  0.250000  0.261323  0.504018  1
  V  V1  1  0.750000  0.738677  0.495982  1
  Os  Os2  1  0.250000  0.825560  0.090636  1
  Os  Os3  1  0.750000  0.174440  0.909364  1
  Os  Os4  1  0.250000  0.686827  0.870474  1
  Os  Os5  1  0.750000  0.313173  0.129526  1
  Cl  Cl6  1  0.591899  0.816827  0.588650  1
  Cl  Cl7  1  0.091899  0.183173  0.411350  1
  Cl  Cl8  1  0.750000  0.438434  0.896870  1
  Cl  Cl9  1  0.250000  0.561566  0.103130  1
  Cl  Cl10  1  0.910544  0.146006  0.080447  1
  Cl  Cl11  1  0.410544  0.853994  0.919553  1
  Cl  Cl12  1  0.089456  0.853994  0.919553  1
  Cl  Cl13  1  0.589456  0.146006  0.080447  1
  Cl  Cl14  1  0.750000  0.197801  0.351472  1
  Cl  Cl15  1  0.250000  0.802199  0.648528  1
  Cl  Cl16  1  0.900625  0.470128  0.178909  1
  Cl  Cl17  1  0.400625  0.529872  0.821091  1
  Cl  Cl18  1  0.099375  0.529872  0.821091  1
  Cl  Cl19  1  0.599375  0.470128  0.178909  1
  Cl  Cl20  1  0.750000  0.925060  0.917185  1
  Cl  Cl21  1  0.250000  0.074940  0.082815  1
  Cl  Cl22  1  0.899888  0.197885  0.744640  1
  Cl  Cl23  1  0.399888  0.802115  0.255360  1
  Cl  Cl24  1  0.100112  0.802115  0.255360  1
  Cl  Cl25  1  0.600112  0.197885  0.744640  1
  Cl  Cl26  1  0.750000  0.808376  0.282294  1
  Cl  Cl27  1  0.250000  0.191624  0.717706  1
  Cl  Cl28  1  0.750000  0.507814  0.525007  1
  Cl  Cl29  1  0.250000  0.492186  0.474993  1
  Cl  Cl30  1  0.908101  0.816827  0.588650  1
  Cl  Cl31  1  0.408101  0.183173  0.411350  1
