# generated using pymatgen
data_Ta12MnGa8Cu3C4
_symmetry_space_group_name_H-M   'P 1'
_cell_length_a   8.23429109
_cell_length_b   8.28410106
_cell_length_c   8.23429000
_cell_angle_alpha   60.19869697
_cell_angle_beta   59.99999633
_cell_angle_gamma   60.19869128
_symmetry_Int_Tables_number   1
_chemical_formula_structural   Ta12MnGa8Cu3C4
_chemical_formula_sum   'Ta12 Mn1 Ga8 Cu3 C4'
_cell_volume   398.36442111
_cell_formula_units_Z   1
loop_
 _symmetry_equiv_pos_site_id
 _symmetry_equiv_pos_as_xyz
  1  'x, y, z'
loop_
 _atom_site_type_symbol
 _atom_site_label
 _atom_site_symmetry_multiplicity
 _atom_site_fract_x
 _atom_site_fract_y
 _atom_site_fract_z
 _atom_site_occupancy
  Ta  Ta0  1  0.566256  0.933057  0.566256  1
  Ta  Ta1  1  0.311370  0.682389  0.694873  1
  Ta  Ta2  1  0.683744  0.316943  0.315569  1
  Ta  Ta3  1  0.311370  0.682389  0.311370  1
  Ta  Ta4  1  0.694873  0.682389  0.311370  1
  Ta  Ta5  1  0.315569  0.316943  0.683744  1
  Ta  Ta6  1  0.555127  0.567611  0.938630  1
  Ta  Ta7  1  0.938630  0.567611  0.555127  1
  Ta  Ta8  1  0.566256  0.933057  0.934431  1
  Ta  Ta9  1  0.934431  0.933057  0.566256  1
  Ta  Ta10  1  0.683744  0.316943  0.683744  1
  Ta  Ta11  1  0.938630  0.567611  0.938630  1
  Mn  Mn12  1  0.125000  0.625000  0.125000  1
  Ga  Ga13  1  0.916297  0.916584  0.916297  1
  Ga  Ga14  1  0.999178  0.333416  0.333703  1
  Ga  Ga15  1  0.337701  0.986896  0.337701  1
  Ga  Ga16  1  0.333703  0.333416  0.999178  1
  Ga  Ga17  1  0.912299  0.263104  0.912299  1
  Ga  Ga18  1  0.916297  0.916584  0.250822  1
  Ga  Ga19  1  0.250822  0.916584  0.916297  1
  Ga  Ga20  1  0.333703  0.333416  0.333703  1
  Cu  Cu21  1  0.125000  0.125000  0.125000  1
  Cu  Cu22  1  0.625000  0.125000  0.125000  1
  Cu  Cu23  1  0.125000  0.125000  0.625000  1
  C  C24  1  0.625000  0.625000  0.625000  1
  C  C25  1  0.125000  0.625000  0.625000  1
  C  C26  1  0.625000  0.125000  0.625000  1
  C  C27  1  0.625000  0.625000  0.125000  1
