# generated using pymatgen
data_SrYbMo2F12
_symmetry_space_group_name_H-M   'P 1'
_cell_length_a   5.56895728
_cell_length_b   5.64092457
_cell_length_c   10.69121500
_cell_angle_alpha   75.20428893
_cell_angle_beta   75.24711013
_cell_angle_gamma   59.53809323
_symmetry_Int_Tables_number   1
_chemical_formula_structural   SrYbMo2F12
_chemical_formula_sum   'Sr1 Yb1 Mo2 F12'
_cell_volume   276.72060980
_cell_formula_units_Z   1
loop_
 _symmetry_equiv_pos_site_id
 _symmetry_equiv_pos_as_xyz
  1  'x, y, z'
loop_
 _atom_site_type_symbol
 _atom_site_label
 _atom_site_symmetry_multiplicity
 _atom_site_fract_x
 _atom_site_fract_y
 _atom_site_fract_z
 _atom_site_occupancy
  Sr  Sr0  1  0.000000  0.000000  0.000000  1
  Yb  Yb1  1  0.500000  0.500000  0.500000  1
  Mo  Mo2  1  0.753721  0.755335  0.736446  1
  Mo  Mo3  1  0.246279  0.244665  0.263554  1
  F  F4  1  0.519476  0.757634  0.621408  1
  F  F5  1  0.480524  0.242366  0.378592  1
  F  F6  1  0.754116  0.097447  0.621633  1
  F  F7  1  0.245884  0.902553  0.378367  1
  F  F8  1  0.738616  0.424037  0.855352  1
  F  F9  1  0.261384  0.575963  0.144648  1
  F  F10  1  0.989900  0.737971  0.854848  1
  F  F11  1  0.010100  0.262029  0.145152  1
  F  F12  1  0.581699  0.010832  0.144248  1
  F  F13  1  0.418301  0.989168  0.855752  1
  F  F14  1  0.900716  0.476368  0.379476  1
  F  F15  1  0.099284  0.523632  0.620524  1
