# generated using pymatgen
data_CaSc3(Si3Ni5)4
_symmetry_space_group_name_H-M   'P 1'
_cell_length_a   18.47088319
_cell_length_b   3.72276700
_cell_length_c   6.57005720
_cell_angle_alpha   90.00000000
_cell_angle_beta   90.08050367
_cell_angle_gamma   90.00000000
_symmetry_Int_Tables_number   1
_chemical_formula_structural   CaSc3(Si3Ni5)4
_chemical_formula_sum   'Ca1 Sc3 Si12 Ni20'
_cell_volume   451.77504656
_cell_formula_units_Z   1
loop_
 _symmetry_equiv_pos_site_id
 _symmetry_equiv_pos_as_xyz
  1  'x, y, z'
loop_
 _atom_site_type_symbol
 _atom_site_label
 _atom_site_symmetry_multiplicity
 _atom_site_fract_x
 _atom_site_fract_y
 _atom_site_fract_z
 _atom_site_occupancy
  Ca  Ca0  1  0.857255  0.750000  0.123533  1
  Sc  Sc1  1  0.643048  0.250000  0.623099  1
  Sc  Sc2  1  0.145537  0.250000  0.877717  1
  Sc  Sc3  1  0.355760  0.750000  0.376228  1
  Si  Si4  1  0.915480  0.250000  0.421409  1
  Si  Si5  1  0.413447  0.250000  0.091357  1
  Si  Si6  1  0.089166  0.750000  0.589679  1
  Si  Si7  1  0.584667  0.750000  0.907736  1
  Si  Si8  1  0.737193  0.250000  0.122821  1
  Si  Si9  1  0.241136  0.250000  0.377570  1
  Si  Si10  1  0.260011  0.750000  0.878198  1
  Si  Si11  1  0.758081  0.750000  0.623375  1
  Si  Si12  1  0.924877  0.250000  0.841418  1
  Si  Si13  1  0.422662  0.250000  0.648560  1
  Si  Si14  1  0.076827  0.750000  0.148578  1
  Si  Si15  1  0.575663  0.750000  0.351812  1
  Ni  Ni16  1  0.798123  0.250000  0.813597  1
  Ni  Ni17  1  0.300162  0.250000  0.683265  1
  Ni  Ni18  1  0.199969  0.750000  0.182387  1
  Ni  Ni19  1  0.698255  0.750000  0.318126  1
  Ni  Ni20  1  0.996824  0.250000  0.130955  1
  Ni  Ni21  1  0.494521  0.250000  0.369158  1
  Ni  Ni22  1  0.005998  0.750000  0.865425  1
  Ni  Ni23  1  0.503869  0.750000  0.630831  1
  Ni  Ni24  1  0.513268  0.250000  0.879866  1
  Ni  Ni25  1  0.018569  0.250000  0.619885  1
  Ni  Ni26  1  0.485386  0.750000  0.119350  1
  Ni  Ni27  1  0.987906  0.750000  0.386253  1
  Ni  Ni28  1  0.613916  0.250000  0.142774  1
  Ni  Ni29  1  0.117215  0.250000  0.354433  1
  Ni  Ni30  1  0.383994  0.750000  0.857243  1
  Ni  Ni31  1  0.882566  0.750000  0.639473  1
  Ni  Ni32  1  0.792632  0.250000  0.434025  1
  Ni  Ni33  1  0.293501  0.250000  0.069574  1
  Ni  Ni34  1  0.208279  0.750000  0.568843  1
  Ni  Ni35  1  0.704237  0.750000  0.931445  1
