# generated using pymatgen
data_Tm9LuIn6
_symmetry_space_group_name_H-M   'P 1'
_cell_length_a   5.97741230
_cell_length_b   9.04637088
_cell_length_c   9.04637091
_cell_angle_alpha   83.69980341
_cell_angle_beta   70.65222290
_cell_angle_gamma   70.65222613
_symmetry_Int_Tables_number   1
_chemical_formula_structural   Tm9LuIn6
_chemical_formula_sum   'Tm9 Lu1 In6'
_cell_volume   435.48062841
_cell_formula_units_Z   1
loop_
 _symmetry_equiv_pos_site_id
 _symmetry_equiv_pos_as_xyz
  1  'x, y, z'
loop_
 _atom_site_type_symbol
 _atom_site_label
 _atom_site_symmetry_multiplicity
 _atom_site_fract_x
 _atom_site_fract_y
 _atom_site_fract_z
 _atom_site_occupancy
  Tm  Tm0  1  0.719268  0.861629  0.699459  1
  Tm  Tm1  1  0.280791  0.138354  0.300545  1
  Tm  Tm2  1  0.780732  0.300541  0.138371  1
  Tm  Tm3  1  0.219209  0.699455  0.861646  1
  Tm  Tm4  1  0.580287  0.699663  0.138392  1
  Tm  Tm5  1  0.419704  0.300337  0.861613  1
  Tm  Tm6  1  0.080296  0.138387  0.699663  1
  Tm  Tm7  1  0.919713  0.861608  0.300337  1
  Tm  Tm8  1  0.750000  0.499922  0.500078  1
  Lu  Lu9  1  0.250000  0.500034  0.499966  1
  In  In10  1  0.162212  0.500167  0.175050  1
  In  In11  1  0.837909  0.499864  0.824902  1
  In  In12  1  0.337788  0.824950  0.499833  1
  In  In13  1  0.662091  0.175098  0.500136  1
  In  In14  1  0.250000  0.999771  0.000229  1
  In  In15  1  0.750000  0.000220  0.999780  1
