# generated using pymatgen
data_Pr5Y5(SnBi)4
_symmetry_space_group_name_H-M   'P 1'
_cell_length_a   8.34078000
_cell_length_b   8.36736011
_cell_length_c   15.92175303
_cell_angle_alpha   90.08140814
_cell_angle_beta   90.00000000
_cell_angle_gamma   90.00000000
_symmetry_Int_Tables_number   1
_chemical_formula_structural   Pr5Y5(SnBi)4
_chemical_formula_sum   'Pr10 Y10 Sn8 Bi8'
_cell_volume   1111.18295518
_cell_formula_units_Z   2
loop_
 _symmetry_equiv_pos_site_id
 _symmetry_equiv_pos_as_xyz
  1  'x, y, z'
loop_
 _atom_site_type_symbol
 _atom_site_label
 _atom_site_symmetry_multiplicity
 _atom_site_fract_x
 _atom_site_fract_y
 _atom_site_fract_z
 _atom_site_occupancy
  Pr  Pr0  1  0.382384  0.837238  0.620708  1
  Pr  Pr1  1  0.882384  0.662762  0.879292  1
  Pr  Pr2  1  0.542442  0.323337  0.894953  1
  Pr  Pr3  1  0.042442  0.176663  0.605047  1
  Pr  Pr4  1  0.456595  0.673594  0.392354  1
  Pr  Pr5  1  0.956595  0.826406  0.107646  1
  Pr  Pr6  1  0.460301  0.675167  0.106360  1
  Pr  Pr7  1  0.960301  0.824833  0.393640  1
  Pr  Pr8  1  0.540487  0.325092  0.605956  1
  Pr  Pr9  1  0.040487  0.174908  0.894044  1
  Y  Y10  1  0.377382  0.838941  0.874798  1
  Y  Y11  1  0.877382  0.661059  0.625202  1
  Y  Y12  1  0.621704  0.160311  0.375216  1
  Y  Y13  1  0.121704  0.339689  0.124784  1
  Y  Y14  1  0.619367  0.160211  0.126827  1
  Y  Y15  1  0.119367  0.339789  0.373173  1
  Y  Y16  1  0.211107  0.497071  0.749521  1
  Y  Y17  1  0.711107  0.002929  0.750479  1
  Y  Y18  1  0.788245  0.501544  0.251375  1
  Y  Y19  1  0.288245  0.998456  0.248625  1
  Sn  Sn20  1  0.577044  0.626229  0.751190  1
  Sn  Sn21  1  0.077044  0.873771  0.748810  1
  Sn  Sn22  1  0.422879  0.370632  0.250501  1
  Sn  Sn23  1  0.922879  0.129368  0.249499  1
  Sn  Sn24  1  0.347799  0.141919  0.750633  1
  Sn  Sn25  1  0.847799  0.358081  0.749367  1
  Sn  Sn26  1  0.651283  0.859246  0.250746  1
  Sn  Sn27  1  0.151283  0.640754  0.249254  1
  Bi  Bi28  1  0.280385  0.030385  0.044605  1
  Bi  Bi29  1  0.780385  0.469615  0.455395  1
  Bi  Bi30  1  0.725848  0.972541  0.544041  1
  Bi  Bi31  1  0.225848  0.527459  0.955959  1
  Bi  Bi32  1  0.713294  0.974169  0.957098  1
  Bi  Bi33  1  0.213294  0.525831  0.542902  1
  Bi  Bi34  1  0.281455  0.035068  0.451428  1
  Bi  Bi35  1  0.781455  0.464932  0.048572  1
