# generated using pymatgen
data_NiSe23
_symmetry_space_group_name_H-M   'P 1'
_cell_length_a   5.47542559
_cell_length_b   10.19540911
_cell_length_c   15.72125700
_cell_angle_alpha   99.61148143
_cell_angle_beta   84.98250811
_cell_angle_gamma   92.94703513
_symmetry_Int_Tables_number   1
_chemical_formula_structural   NiSe23
_chemical_formula_sum   'Ni1 Se23'
_cell_volume   861.38566404
_cell_formula_units_Z   1
loop_
 _symmetry_equiv_pos_site_id
 _symmetry_equiv_pos_as_xyz
  1  'x, y, z'
loop_
 _atom_site_type_symbol
 _atom_site_label
 _atom_site_symmetry_multiplicity
 _atom_site_fract_x
 _atom_site_fract_y
 _atom_site_fract_z
 _atom_site_occupancy
  Ni  Ni0  1  0.453308  0.236597  0.301890  1
  Se  Se1  1  0.508764  0.801835  0.386345  1
  Se  Se2  1  0.948498  0.350930  0.148847  1
  Se  Se3  1  0.677549  0.228433  0.424273  1
  Se  Se4  1  0.273032  0.771900  0.515387  1
  Se  Se5  1  0.197705  0.271551  0.023059  1
  Se  Se6  1  0.796825  0.732367  0.031154  1
  Se  Se7  1  0.151940  0.373394  0.383184  1
  Se  Se8  1  0.717157  0.601361  0.345724  1
  Se  Se9  1  0.763457  0.156238  0.200544  1
  Se  Se10  1  0.318566  0.923591  0.141677  1
  Se  Se11  1  0.741340  0.599670  0.617393  1
  Se  Se12  1  0.242888  0.330864  0.629054  1
  Se  Se13  1  0.234493  0.868189  0.868160  1
  Se  Se14  1  0.755911  0.117587  0.856299  1
  Se  Se15  1  0.076322  0.723271  0.135866  1
  Se  Se16  1  0.552159  0.805432  0.624177  1
  Se  Se17  1  0.469348  0.154500  0.546711  1
  Se  Se18  1  0.020363  0.670443  0.895322  1
  Se  Se19  1  0.999443  0.309867  0.902076  1
  Se  Se20  1  0.401657  0.462076  0.273105  1
  Se  Se21  1  0.152129  0.071310  0.266052  1
  Se  Se22  1  0.519716  0.472563  0.713033  1
  Se  Se23  1  0.027431  0.966031  0.770669  1
