# generated using pymatgen
data_Ce2Co16Re
_symmetry_space_group_name_H-M   'P 1'
_cell_length_a   8.17110204
_cell_length_b   8.32571760
_cell_length_c   8.32571761
_cell_angle_alpha   120.00593519
_cell_angle_beta   89.99209251
_cell_angle_gamma   90.00790458
_symmetry_Int_Tables_number   1
_chemical_formula_structural   Ce2Co16Re
_chemical_formula_sum   'Ce4 Co32 Re2'
_cell_volume   490.48828086
_cell_formula_units_Z   2
loop_
 _symmetry_equiv_pos_site_id
 _symmetry_equiv_pos_as_xyz
  1  'x, y, z'
loop_
 _atom_site_type_symbol
 _atom_site_label
 _atom_site_symmetry_multiplicity
 _atom_site_fract_x
 _atom_site_fract_y
 _atom_site_fract_z
 _atom_site_occupancy
  Ce  Ce0  1  0.256454  0.666673  0.333327  1
  Ce  Ce1  1  0.743546  0.333327  0.666673  1
  Ce  Ce2  1  0.753501  0.999960  0.000040  1
  Ce  Ce3  1  0.246499  0.000040  0.999960  1
  Co  Co4  1  0.748547  0.672508  0.044507  1
  Co  Co5  1  0.748557  0.372024  0.327436  1
  Co  Co6  1  0.748532  0.955612  0.628120  1
  Co  Co7  1  0.748532  0.371880  0.044388  1
  Co  Co8  1  0.748547  0.955493  0.327492  1
  Co  Co9  1  0.748557  0.672564  0.627976  1
  Co  Co10  1  0.251453  0.327492  0.955493  1
  Co  Co11  1  0.251443  0.627976  0.672564  1
  Co  Co12  1  0.251468  0.044388  0.371880  1
  Co  Co13  1  0.251468  0.628120  0.955612  1
  Co  Co14  1  0.251453  0.044507  0.672508  1
  Co  Co15  1  0.251443  0.327436  0.372024  1
  Co  Co16  1  0.478536  0.833203  0.666393  1
  Co  Co17  1  0.478505  0.833189  0.166811  1
  Co  Co18  1  0.478536  0.333607  0.166797  1
  Co  Co19  1  0.521464  0.166797  0.333607  1
  Co  Co20  1  0.521495  0.166811  0.833189  1
  Co  Co21  1  0.521464  0.666393  0.833203  1
  Co  Co22  1  0.976374  0.167893  0.335858  1
  Co  Co23  1  0.976310  0.167930  0.832070  1
  Co  Co24  1  0.976374  0.664142  0.832107  1
  Co  Co25  1  0.023626  0.832107  0.664142  1
  Co  Co26  1  0.023690  0.832070  0.167930  1
  Co  Co27  1  0.023626  0.335858  0.167893  1
  Co  Co28  1  0.500000  0.500000  0.000000  1
  Co  Co29  1  0.500000  0.500000  0.500000  1
  Co  Co30  1  0.500000  0.000000  0.500000  1
  Co  Co31  1  0.000000  0.500000  0.000000  1
  Co  Co32  1  0.000000  0.500000  0.500000  1
  Co  Co33  1  0.000000  0.000000  0.500000  1
  Co  Co34  1  0.601180  0.666682  0.333317  1
  Co  Co35  1  0.398820  0.333317  0.666682  1
  Re  Re36  1  0.105746  0.333301  0.666699  1
  Re  Re37  1  0.894254  0.666699  0.333301  1
