# generated using pymatgen
data_La5Pr5(Al2Os3)2
_symmetry_space_group_name_H-M   'P 1'
_cell_length_a   8.63039583
_cell_length_b   8.63039501
_cell_length_c   8.68375909
_cell_angle_alpha   109.40932462
_cell_angle_beta   109.41938755
_cell_angle_gamma   109.33521710
_symmetry_Int_Tables_number   1
_chemical_formula_structural   La5Pr5(Al2Os3)2
_chemical_formula_sum   'La5 Pr5 Al4 Os6'
_cell_volume   499.43431837
_cell_formula_units_Z   1
loop_
 _symmetry_equiv_pos_site_id
 _symmetry_equiv_pos_as_xyz
  1  'x, y, z'
loop_
 _atom_site_type_symbol
 _atom_site_label
 _atom_site_symmetry_multiplicity
 _atom_site_fract_x
 _atom_site_fract_y
 _atom_site_fract_z
 _atom_site_occupancy
  La  La0  1  0.252733  0.689038  0.438559  1
  La  La1  1  0.750479  0.814173  0.061441  1
  La  La2  1  0.437617  0.249736  0.686328  1
  La  La3  1  0.687632  0.437632  0.250000  1
  La  La4  1  0.063409  0.751289  0.813672  1
  Pr  Pr5  1  0.816255  0.066255  0.750000  1
  Pr  Pr6  1  0.213168  0.216097  0.214869  1
  Pr  Pr7  1  0.501228  0.998298  0.285131  1
  Pr  Pr8  1  0.284356  0.498226  0.997038  1
  Pr  Pr9  1  0.001188  0.287317  0.502962  1
  Al  Al10  1  0.588380  0.587995  0.586652  1
  Al  Al11  1  0.501343  0.001729  0.913348  1
  Al  Al12  1  0.914284  0.499024  0.001200  1
  Al  Al13  1  0.997824  0.913084  0.498800  1
  Os  Os14  1  0.245770  0.111111  0.861175  1
  Os  Os15  1  0.749936  0.384595  0.638825  1
  Os  Os16  1  0.862083  0.253134  0.120972  1
  Os  Os17  1  0.113155  0.863154  0.250000  1
  Os  Os18  1  0.632161  0.741112  0.379028  1
  Os  Os19  1  0.387001  0.637001  0.750000  1
