# generated using pymatgen
data_YMgGa3Ir
_symmetry_space_group_name_H-M   'P 1'
_cell_length_a   5.33779400
_cell_length_b   5.33779469
_cell_length_c   8.73193200
_cell_angle_alpha   90.00000000
_cell_angle_beta   90.00000000
_cell_angle_gamma   119.99999573
_symmetry_Int_Tables_number   1
_chemical_formula_structural   YMgGa3Ir
_chemical_formula_sum   'Y2 Mg2 Ga6 Ir2'
_cell_volume   215.45901485
_cell_formula_units_Z   2
loop_
 _symmetry_equiv_pos_site_id
 _symmetry_equiv_pos_as_xyz
  1  'x, y, z'
loop_
 _atom_site_type_symbol
 _atom_site_label
 _atom_site_symmetry_multiplicity
 _atom_site_fract_x
 _atom_site_fract_y
 _atom_site_fract_z
 _atom_site_occupancy
  Y  Y0  1  0.333334  0.666667  0.552339  1
  Y  Y1  1  0.333334  0.666667  0.947660  1
  Mg  Mg2  1  0.666667  0.333332  0.061278  1
  Mg  Mg3  1  0.666667  0.333332  0.438721  1
  Ga  Ga4  1  0.166529  0.333058  0.250000  1
  Ga  Ga5  1  0.166529  0.833471  0.250000  1
  Ga  Ga6  1  0.666943  0.833471  0.250000  1
  Ga  Ga7  1  0.333210  0.166605  0.750000  1
  Ga  Ga8  1  0.833397  0.166605  0.750000  1
  Ga  Ga9  1  0.833396  0.666790  0.750000  1
  Ir  Ir10  1  0.000000  0.000000  0.006322  1
  Ir  Ir11  1  0.000000  0.000000  0.493678  1
