# generated using pymatgen
data_Sr4NiSb4Pt3
_symmetry_space_group_name_H-M   'P 1'
_cell_length_a   4.72112700
_cell_length_b   7.79319364
_cell_length_c   8.02703061
_cell_angle_alpha   90.31582199
_cell_angle_beta   90.00000000
_cell_angle_gamma   90.00000000
_symmetry_Int_Tables_number   1
_chemical_formula_structural   Sr4NiSb4Pt3
_chemical_formula_sum   'Sr4 Ni1 Sb4 Pt3'
_cell_volume   295.33129652
_cell_formula_units_Z   1
loop_
 _symmetry_equiv_pos_site_id
 _symmetry_equiv_pos_as_xyz
  1  'x, y, z'
loop_
 _atom_site_type_symbol
 _atom_site_label
 _atom_site_symmetry_multiplicity
 _atom_site_fract_x
 _atom_site_fract_y
 _atom_site_fract_z
 _atom_site_occupancy
  Sr  Sr0  1  0.750000  0.991782  0.693578  1
  Sr  Sr1  1  0.250000  0.004753  0.305243  1
  Sr  Sr2  1  0.750000  0.484099  0.802416  1
  Sr  Sr3  1  0.250000  0.510945  0.195361  1
  Ni  Ni4  1  0.250000  0.824442  0.916600  1
  Sb  Sb5  1  0.750000  0.319537  0.409993  1
  Sb  Sb6  1  0.250000  0.173171  0.911305  1
  Sb  Sb7  1  0.250000  0.687503  0.598657  1
  Sb  Sb8  1  0.750000  0.812923  0.080429  1
  Pt  Pt9  1  0.250000  0.305204  0.584840  1
  Pt  Pt10  1  0.750000  0.692577  0.415789  1
  Pt  Pt11  1  0.750000  0.193066  0.085790  1
