# generated using pymatgen
data_Cr2HPd6
_symmetry_space_group_name_H-M   'P 1'
_cell_length_a   5.57792273
_cell_length_b   5.57792169
_cell_length_c   5.57792300
_cell_angle_alpha   59.99999817
_cell_angle_beta   60.00000435
_cell_angle_gamma   60.00000357
_symmetry_Int_Tables_number   1
_chemical_formula_structural   Cr2HPd6
_chemical_formula_sum   'Cr2 H1 Pd6'
_cell_volume   122.71635412
_cell_formula_units_Z   1
loop_
 _symmetry_equiv_pos_site_id
 _symmetry_equiv_pos_as_xyz
  1  'x, y, z'
loop_
 _atom_site_type_symbol
 _atom_site_label
 _atom_site_symmetry_multiplicity
 _atom_site_fract_x
 _atom_site_fract_y
 _atom_site_fract_z
 _atom_site_occupancy
  Cr  Cr0  1  0.250000  0.250000  0.250000  1
  Cr  Cr1  1  0.750000  0.750000  0.750000  1
  H  H2  1  0.500000  0.500000  0.500000  1
  Pd  Pd3  1  0.751865  0.248135  0.248135  1
  Pd  Pd4  1  0.248135  0.751865  0.248135  1
  Pd  Pd5  1  0.751865  0.751865  0.248135  1
  Pd  Pd6  1  0.248135  0.248135  0.751865  1
  Pd  Pd7  1  0.751865  0.248135  0.751865  1
  Pd  Pd8  1  0.248135  0.751865  0.751865  1
