# generated using pymatgen
data_Li3Sm5Te8
_symmetry_space_group_name_H-M   'P 1'
_cell_length_a   8.78403212
_cell_length_b   8.87092030
_cell_length_c   8.78403100
_cell_angle_alpha   60.32348169
_cell_angle_beta   60.00000046
_cell_angle_gamma   60.32348583
_symmetry_Int_Tables_number   1
_chemical_formula_structural   Li3Sm5Te8
_chemical_formula_sum   'Li3 Sm5 Te8'
_cell_volume   486.34863904
_cell_formula_units_Z   1
loop_
 _symmetry_equiv_pos_site_id
 _symmetry_equiv_pos_as_xyz
  1  'x, y, z'
loop_
 _atom_site_type_symbol
 _atom_site_label
 _atom_site_symmetry_multiplicity
 _atom_site_fract_x
 _atom_site_fract_y
 _atom_site_fract_z
 _atom_site_occupancy
  Li  Li0  1  0.125000  0.125000  0.625000  1
  Li  Li1  1  0.625000  0.125000  0.125000  1
  Li  Li2  1  0.125000  0.125000  0.125000  1
  Sm  Sm3  1  0.125000  0.625000  0.125000  1
  Sm  Sm4  1  0.625000  0.125000  0.625000  1
  Sm  Sm5  1  0.625000  0.625000  0.625000  1
  Sm  Sm6  1  0.125000  0.625000  0.625000  1
  Sm  Sm7  1  0.625000  0.625000  0.125000  1
  Te  Te8  1  0.372094  0.883717  0.372094  1
  Te  Te9  1  0.877906  0.366283  0.877906  1
  Te  Te10  1  0.874880  0.884118  0.366123  1
  Te  Te11  1  0.874880  0.884118  0.874880  1
  Te  Te12  1  0.883877  0.365882  0.375120  1
  Te  Te13  1  0.375120  0.365882  0.883877  1
  Te  Te14  1  0.375120  0.365882  0.375120  1
  Te  Te15  1  0.366123  0.884118  0.874880  1
