# generated using pymatgen
data_SmIn3B4AsIr9
_symmetry_space_group_name_H-M   'P 1'
_cell_length_a   5.59854900
_cell_length_b   5.59854905
_cell_length_c   10.47309700
_cell_angle_alpha   90.00000000
_cell_angle_beta   90.00000000
_cell_angle_gamma   119.99999382
_symmetry_Int_Tables_number   1
_chemical_formula_structural   SmIn3B4AsIr9
_chemical_formula_sum   'Sm1 In3 B4 As1 Ir9'
_cell_volume   284.28683957
_cell_formula_units_Z   1
loop_
 _symmetry_equiv_pos_site_id
 _symmetry_equiv_pos_as_xyz
  1  'x, y, z'
loop_
 _atom_site_type_symbol
 _atom_site_label
 _atom_site_symmetry_multiplicity
 _atom_site_fract_x
 _atom_site_fract_y
 _atom_site_fract_z
 _atom_site_occupancy
  Sm  Sm0  1  0.000000  0.000000  0.917271  1
  In  In1  1  0.666667  0.333333  0.505918  1
  In  In2  1  0.000000  0.000000  0.332806  1
  In  In3  1  0.333333  0.666667  0.505918  1
  B  B4  1  0.666667  0.333333  0.155053  1
  B  B5  1  0.333333  0.666667  0.862750  1
  B  B6  1  0.666667  0.333333  0.862750  1
  B  B7  1  0.333333  0.666667  0.155053  1
  As  As8  1  0.000000  0.000000  0.637899  1
  Ir  Ir9  1  0.000000  0.501978  0.283093  1
  Ir  Ir10  1  0.436553  0.000000  0.728118  1
  Ir  Ir11  1  0.501978  0.000000  0.283093  1
  Ir  Ir12  1  0.000000  0.493026  0.010316  1
  Ir  Ir13  1  0.563447  0.563447  0.728118  1
  Ir  Ir14  1  0.000000  0.436553  0.728118  1
  Ir  Ir15  1  0.506974  0.506974  0.010316  1
  Ir  Ir16  1  0.493026  0.000000  0.010316  1
  Ir  Ir17  1  0.498022  0.498022  0.283093  1
