# generated using pymatgen
data_SmThHgPd2
_symmetry_space_group_name_H-M   'P 1'
_cell_length_a   7.90030400
_cell_length_b   7.87347900
_cell_length_c   3.81125400
_cell_angle_alpha   90.00000000
_cell_angle_beta   90.00000000
_cell_angle_gamma   90.00000000
_symmetry_Int_Tables_number   1
_chemical_formula_structural   SmThHgPd2
_chemical_formula_sum   'Sm2 Th2 Hg2 Pd4'
_cell_volume   237.07096621
_cell_formula_units_Z   2
loop_
 _symmetry_equiv_pos_site_id
 _symmetry_equiv_pos_as_xyz
  1  'x, y, z'
loop_
 _atom_site_type_symbol
 _atom_site_label
 _atom_site_symmetry_multiplicity
 _atom_site_fract_x
 _atom_site_fract_y
 _atom_site_fract_z
 _atom_site_occupancy
  Sm  Sm0  1  0.175201  0.324450  0.500000  1
  Sm  Sm1  1  0.675201  0.175550  0.500000  1
  Th  Th2  1  0.325328  0.829181  0.500000  1
  Th  Th3  1  0.825328  0.670819  0.500000  1
  Hg  Hg4  1  0.997320  0.006173  0.000000  1
  Hg  Hg5  1  0.497320  0.493827  0.000000  1
  Pd  Pd6  1  0.374551  0.115871  0.000000  1
  Pd  Pd7  1  0.874551  0.384129  0.000000  1
  Pd  Pd8  1  0.127600  0.634953  0.000000  1
  Pd  Pd9  1  0.627600  0.865047  0.000000  1
