# generated using pymatgen
data_Y5Zr3(Co4As3)4
_symmetry_space_group_name_H-M   'P 1'
_cell_length_a   12.71465600
_cell_length_b   12.71465505
_cell_length_c   3.82784800
_cell_angle_alpha   90.00000000
_cell_angle_beta   90.00000000
_cell_angle_gamma   120.00000247
_symmetry_Int_Tables_number   1
_chemical_formula_structural   Y5Zr3(Co4As3)4
_chemical_formula_sum   'Y5 Zr3 Co16 As12'
_cell_volume   535.91325875
_cell_formula_units_Z   1
loop_
 _symmetry_equiv_pos_site_id
 _symmetry_equiv_pos_as_xyz
  1  'x, y, z'
loop_
 _atom_site_type_symbol
 _atom_site_label
 _atom_site_symmetry_multiplicity
 _atom_site_fract_x
 _atom_site_fract_y
 _atom_site_fract_z
 _atom_site_occupancy
  Y  Y0  1  0.182579  0.182579  0.500000  1
  Y  Y1  1  0.817421  0.000000  0.500000  1
  Y  Y2  1  0.000000  0.817421  0.500000  1
  Y  Y3  1  0.333333  0.666667  0.000000  1
  Y  Y4  1  0.666667  0.333333  0.000000  1
  Zr  Zr5  1  0.560533  0.560533  0.000000  1
  Zr  Zr6  1  0.439467  0.000000  0.000000  1
  Zr  Zr7  1  0.000000  0.439467  0.000000  1
  Co  Co8  1  0.719421  0.719421  0.500000  1
  Co  Co9  1  0.280579  0.000000  0.500000  1
  Co  Co10  1  0.000000  0.280579  0.500000  1
  Co  Co11  1  0.177343  0.373651  0.000000  1
  Co  Co12  1  0.626349  0.803692  0.000000  1
  Co  Co13  1  0.196308  0.822657  0.000000  1
  Co  Co14  1  0.803692  0.626349  0.000000  1
  Co  Co15  1  0.822657  0.196308  0.000000  1
  Co  Co16  1  0.373651  0.177343  0.000000  1
  Co  Co17  1  0.356645  0.479156  0.500000  1
  Co  Co18  1  0.520844  0.877490  0.500000  1
  Co  Co19  1  0.122510  0.643355  0.500000  1
  Co  Co20  1  0.877490  0.520844  0.500000  1
  Co  Co21  1  0.643355  0.122510  0.500000  1
  Co  Co22  1  0.479156  0.356645  0.500000  1
  Co  Co23  1  0.000000  0.000000  0.000000  1
  As  As24  1  0.822481  0.822481  0.000000  1
  As  As25  1  0.177519  0.000000  0.000000  1
  As  As26  1  0.000000  0.177519  0.000000  1
  As  As27  1  0.173177  0.481776  0.500000  1
  As  As28  1  0.518224  0.691401  0.500000  1
  As  As29  1  0.308599  0.826823  0.500000  1
  As  As30  1  0.691401  0.518224  0.500000  1
  As  As31  1  0.826823  0.308599  0.500000  1
  As  As32  1  0.481776  0.173177  0.500000  1
  As  As33  1  0.351606  0.351606  0.000000  1
  As  As34  1  0.648394  0.000000  0.000000  1
  As  As35  1  0.000000  0.648394  0.000000  1
