# generated using pymatgen
data_Y9Sc(Zn2Bi)2
_symmetry_space_group_name_H-M   'P 1'
_cell_length_a   8.62282466
_cell_length_b   8.62282518
_cell_length_c   8.62282559
_cell_angle_alpha   123.70797994
_cell_angle_beta   123.70798232
_cell_angle_gamma   83.68925663
_symmetry_Int_Tables_number   1
_chemical_formula_structural   Y9Sc(Zn2Bi)2
_chemical_formula_sum   'Y9 Sc1 Zn4 Bi2'
_cell_volume   425.11698078
_cell_formula_units_Z   1
loop_
 _symmetry_equiv_pos_site_id
 _symmetry_equiv_pos_as_xyz
  1  'x, y, z'
loop_
 _atom_site_type_symbol
 _atom_site_label
 _atom_site_symmetry_multiplicity
 _atom_site_fract_x
 _atom_site_fract_y
 _atom_site_fract_z
 _atom_site_occupancy
  Y  Y0  1  0.000000  0.000000  0.000000  1
  Y  Y1  1  0.793413  0.297533  0.807750  1
  Y  Y2  1  0.206587  0.702467  0.192250  1
  Y  Y3  1  0.489781  0.985661  0.192250  1
  Y  Y4  1  0.297533  0.489781  0.504120  1
  Y  Y5  1  0.014339  0.206587  0.504120  1
  Y  Y6  1  0.510219  0.014339  0.807750  1
  Y  Y7  1  0.702467  0.510219  0.495880  1
  Y  Y8  1  0.985661  0.793413  0.495880  1
  Sc  Sc9  1  0.500000  0.500000  0.000000  1
  Zn  Zn10  1  0.143327  0.638300  0.781626  1
  Zn  Zn11  1  0.856673  0.361700  0.218374  1
  Zn  Zn12  1  0.638300  0.856673  0.494973  1
  Zn  Zn13  1  0.361700  0.143327  0.505027  1
  Bi  Bi14  1  0.253963  0.253963  0.000000  1
  Bi  Bi15  1  0.746037  0.746037  0.000000  1
