# generated using pymatgen
data_CaYbEr6(B6Os)4
_symmetry_space_group_name_H-M   'P 1'
_cell_length_a   3.63081600
_cell_length_b   9.12716203
_cell_length_c   11.51767802
_cell_angle_alpha   89.82913624
_cell_angle_beta   90.00000000
_cell_angle_gamma   90.00000000
_symmetry_Int_Tables_number   1
_chemical_formula_structural   CaYbEr6(B6Os)4
_chemical_formula_sum   'Ca1 Yb1 Er6 B24 Os4'
_cell_volume   381.68316385
_cell_formula_units_Z   1
loop_
 _symmetry_equiv_pos_site_id
 _symmetry_equiv_pos_as_xyz
  1  'x, y, z'
loop_
 _atom_site_type_symbol
 _atom_site_label
 _atom_site_symmetry_multiplicity
 _atom_site_fract_x
 _atom_site_fract_y
 _atom_site_fract_z
 _atom_site_occupancy
  Ca  Ca0  1  0.000000  0.323713  0.414697  1
  Yb  Yb1  1  0.000000  0.675761  0.585560  1
  Er  Er2  1  0.000000  0.821939  0.086328  1
  Er  Er3  1  0.000000  0.178048  0.913661  1
  Er  Er4  1  0.000000  0.942066  0.370318  1
  Er  Er5  1  0.000000  0.057675  0.629808  1
  Er  Er6  1  0.000000  0.442919  0.129793  1
  Er  Er7  1  0.000000  0.557188  0.870150  1
  B  B8  1  0.500000  0.554609  0.432587  1
  B  B9  1  0.500000  0.446498  0.567949  1
  B  B10  1  0.500000  0.053276  0.066311  1
  B  B11  1  0.500000  0.946569  0.933515  1
  B  B12  1  0.500000  0.748488  0.418040  1
  B  B13  1  0.500000  0.251588  0.582528  1
  B  B14  1  0.500000  0.248337  0.080735  1
  B  B15  1  0.500000  0.751677  0.919055  1
  B  B16  1  0.500000  0.791542  0.264506  1
  B  B17  1  0.500000  0.208506  0.735584  1
  B  B18  1  0.500000  0.290112  0.233649  1
  B  B19  1  0.500000  0.709769  0.765873  1
  B  B20  1  0.500000  0.631512  0.184887  1
  B  B21  1  0.500000  0.368670  0.815100  1
  B  B22  1  0.500000  0.130068  0.313509  1
  B  B23  1  0.500000  0.869398  0.686130  1
  B  B24  1  0.500000  0.982339  0.211479  1
  B  B25  1  0.500000  0.017423  0.788435  1
  B  B26  1  0.500000  0.484009  0.287580  1
  B  B27  1  0.500000  0.516585  0.712282  1
  B  B28  1  0.500000  0.603773  0.028547  1
  B  B29  1  0.500000  0.396299  0.971404  1
  B  B30  1  0.500000  0.098677  0.472636  1
  B  B31  1  0.500000  0.900712  0.527538  1
  Os  Os32  1  0.000000  0.640608  0.318663  1
  Os  Os33  1  0.000000  0.359977  0.681586  1
  Os  Os34  1  0.000000  0.136231  0.177245  1
  Os  Os35  1  0.000000  0.863442  0.822331  1
