# generated using pymatgen
data_Gd2TcB8Ru
_symmetry_space_group_name_H-M   'P 1'
_cell_length_a   3.59134700
_cell_length_b   5.98470230
_cell_length_c   11.58487554
_cell_angle_alpha   89.85444068
_cell_angle_beta   90.00000000
_cell_angle_gamma   90.00000000
_symmetry_Int_Tables_number   1
_chemical_formula_structural   Gd2TcB8Ru
_chemical_formula_sum   'Gd4 Tc2 B16 Ru2'
_cell_volume   248.99457927
_cell_formula_units_Z   2
loop_
 _symmetry_equiv_pos_site_id
 _symmetry_equiv_pos_as_xyz
  1  'x, y, z'
loop_
 _atom_site_type_symbol
 _atom_site_label
 _atom_site_symmetry_multiplicity
 _atom_site_fract_x
 _atom_site_fract_y
 _atom_site_fract_z
 _atom_site_occupancy
  Gd  Gd0  1  0.000000  0.626970  0.349139  1
  Gd  Gd1  1  0.000000  0.373030  0.650861  1
  Gd  Gd2  1  0.000000  0.127518  0.149117  1
  Gd  Gd3  1  0.000000  0.872482  0.850883  1
  Tc  Tc4  1  0.000000  0.132586  0.412406  1
  Tc  Tc5  1  0.000000  0.867414  0.587594  1
  B  B6  1  0.500000  0.786833  0.184700  1
  B  B7  1  0.500000  0.213167  0.815300  1
  B  B8  1  0.500000  0.286355  0.314723  1
  B  B9  1  0.500000  0.713645  0.685277  1
  B  B10  1  0.500000  0.863018  0.030915  1
  B  B11  1  0.500000  0.136982  0.969085  1
  B  B12  1  0.500000  0.363502  0.468376  1
  B  B13  1  0.500000  0.636498  0.531624  1
  B  B14  1  0.500000  0.887363  0.453312  1
  B  B15  1  0.500000  0.112637  0.546688  1
  B  B16  1  0.500000  0.387867  0.046427  1
  B  B17  1  0.500000  0.612133  0.953573  1
  B  B18  1  0.500000  0.976943  0.308080  1
  B  B19  1  0.500000  0.023057  0.691920  1
  B  B20  1  0.500000  0.474991  0.190970  1
  B  B21  1  0.500000  0.525009  0.809030  1
  Ru  Ru22  1  0.000000  0.639549  0.091644  1
  Ru  Ru23  1  0.000000  0.360451  0.908356  1
