# generated using pymatgen
data_Zr2Co12AsP6
_symmetry_space_group_name_H-M   'P 1'
_cell_length_a   8.98809300
_cell_length_b   8.98809300
_cell_length_c   3.55407500
_cell_angle_alpha   90.00000000
_cell_angle_beta   90.00000000
_cell_angle_gamma   120.00001105
_symmetry_Int_Tables_number   1
_chemical_formula_structural   Zr2Co12AsP6
_chemical_formula_sum   'Zr2 Co12 As1 P6'
_cell_volume   248.65218867
_cell_formula_units_Z   1
loop_
 _symmetry_equiv_pos_site_id
 _symmetry_equiv_pos_as_xyz
  1  'x, y, z'
loop_
 _atom_site_type_symbol
 _atom_site_label
 _atom_site_symmetry_multiplicity
 _atom_site_fract_x
 _atom_site_fract_y
 _atom_site_fract_z
 _atom_site_occupancy
  Zr  Zr0  1  0.333333  0.666667  0.000000  1
  Zr  Zr1  1  0.666667  0.333333  0.500000  1
  Co  Co2  1  0.439733  0.064693  0.000000  1
  Co  Co3  1  0.935307  0.375041  0.000000  1
  Co  Co4  1  0.624959  0.560267  0.000000  1
  Co  Co5  1  0.386888  0.441099  0.500000  1
  Co  Co6  1  0.558901  0.945788  0.500000  1
  Co  Co7  1  0.054212  0.613112  0.500000  1
  Co  Co8  1  0.162754  0.286623  0.000000  1
  Co  Co9  1  0.713377  0.876131  0.000000  1
  Co  Co10  1  0.123869  0.837246  0.000000  1
  Co  Co11  1  0.250132  0.109424  0.500000  1
  Co  Co12  1  0.890576  0.140707  0.500000  1
  Co  Co13  1  0.859293  0.749868  0.500000  1
  As  As14  1  0.000000  0.000000  0.000000  1
  P  P15  1  0.116710  0.407371  0.500000  1
  P  P16  1  0.592629  0.709339  0.500000  1
  P  P17  1  0.290661  0.883290  0.500000  1
  P  P18  1  0.410013  0.293558  0.000000  1
  P  P19  1  0.706442  0.116456  0.000000  1
  P  P20  1  0.883544  0.589987  0.000000  1
