# generated using pymatgen
data_Rb2BeS2
_symmetry_space_group_name_H-M   'P 1'
_cell_length_a   7.97319238
_cell_length_b   7.97319227
_cell_length_c   7.97319204
_cell_angle_alpha   136.53278493
_cell_angle_beta   128.19007191
_cell_angle_gamma   69.87677434
_symmetry_Int_Tables_number   1
_chemical_formula_structural   Rb2BeS2
_chemical_formula_sum   'Rb4 Be2 S4'
_cell_volume   268.87702966
_cell_formula_units_Z   2
loop_
 _symmetry_equiv_pos_site_id
 _symmetry_equiv_pos_as_xyz
  1  'x, y, z'
loop_
 _atom_site_type_symbol
 _atom_site_label
 _atom_site_symmetry_multiplicity
 _atom_site_fract_x
 _atom_site_fract_y
 _atom_site_fract_z
 _atom_site_occupancy
  Rb  Rb0  1  0.683309  0.354049  0.329259  1
  Rb  Rb1  1  0.024789  0.854049  0.170741  1
  Rb  Rb2  1  0.316691  0.645951  0.670741  1
  Rb  Rb3  1  0.975211  0.145951  0.829259  1
  Be  Be4  1  0.500000  0.250000  0.750000  1
  Be  Be5  1  0.500000  0.750000  0.250000  1
  S  S6  1  0.250659  0.410471  0.840189  1
  S  S7  1  0.570282  0.910471  0.659811  1
  S  S8  1  0.749341  0.589529  0.159811  1
  S  S9  1  0.429718  0.089529  0.340189  1
