# generated using pymatgen
data_Tm11LuCdCo4Os
_symmetry_space_group_name_H-M   'P 1'
_cell_length_a   8.14763882
_cell_length_b   8.15471262
_cell_length_c   8.15482701
_cell_angle_alpha   111.73377804
_cell_angle_beta   110.83237700
_cell_angle_gamma   105.93837546
_symmetry_Int_Tables_number   1
_chemical_formula_structural   Tm11LuCdCo4Os
_chemical_formula_sum   'Tm11 Lu1 Cd1 Co4 Os1'
_cell_volume   415.71197614
_cell_formula_units_Z   1
loop_
 _symmetry_equiv_pos_site_id
 _symmetry_equiv_pos_as_xyz
  1  'x, y, z'
loop_
 _atom_site_type_symbol
 _atom_site_label
 _atom_site_symmetry_multiplicity
 _atom_site_fract_x
 _atom_site_fract_y
 _atom_site_fract_z
 _atom_site_occupancy
  Tm  Tm0  1  0.181508  0.223380  0.404439  1
  Tm  Tm1  1  0.181510  0.777068  0.958129  1
  Tm  Tm2  1  0.685038  0.492652  0.806785  1
  Tm  Tm3  1  0.685039  0.878259  0.192385  1
  Tm  Tm4  1  0.969457  0.275904  0.693550  1
  Tm  Tm5  1  0.029777  0.723777  0.306000  1
  Tm  Tm6  1  0.314954  0.122264  0.808113  1
  Tm  Tm7  1  0.314955  0.506840  0.192686  1
  Tm  Tm8  1  0.818770  0.223608  0.042994  1
  Tm  Tm9  1  0.818770  0.775775  0.595161  1
  Tm  Tm10  1  0.417994  0.724121  0.693871  1
  Lu  Lu11  1  0.582145  0.276443  0.305709  1
  Cd  Cd12  1  0.499547  0.000472  0.499066  1
  Co  Co13  1  0.887659  0.887655  0.000009  1
  Co  Co14  1  0.372450  0.500171  0.872283  1
  Co  Co15  1  0.628095  0.499699  0.128398  1
  Co  Co16  1  0.113178  0.112461  0.000713  1
  Os  Os17  1  0.999155  0.499450  0.499707  1
