# generated using pymatgen
data_Nd10Ga2Br15
_symmetry_space_group_name_H-M   'P 1'
_cell_length_a   9.57311817
_cell_length_b   10.32086397
_cell_length_c   11.23497700
_cell_angle_alpha   90.75033347
_cell_angle_beta   114.76553374
_cell_angle_gamma   110.94728350
_symmetry_Int_Tables_number   1
_chemical_formula_structural   Nd10Ga2Br15
_chemical_formula_sum   'Nd10 Ga2 Br15'
_cell_volume   923.81809802
_cell_formula_units_Z   1
loop_
 _symmetry_equiv_pos_site_id
 _symmetry_equiv_pos_as_xyz
  1  'x, y, z'
loop_
 _atom_site_type_symbol
 _atom_site_label
 _atom_site_symmetry_multiplicity
 _atom_site_fract_x
 _atom_site_fract_y
 _atom_site_fract_z
 _atom_site_occupancy
  Nd  Nd0  1  0.812316  0.428156  0.284810  1
  Nd  Nd1  1  0.187684  0.571844  0.715190  1
  Nd  Nd2  1  0.684842  0.735934  0.817347  1
  Nd  Nd3  1  0.315158  0.264066  0.182653  1
  Nd  Nd4  1  0.529084  0.686503  0.107533  1
  Nd  Nd5  1  0.470916  0.313497  0.892467  1
  Nd  Nd6  1  0.590906  0.035078  0.340602  1
  Nd  Nd7  1  0.409094  0.964922  0.659398  1
  Nd  Nd8  1  0.749854  0.085269  0.054670  1
  Nd  Nd9  1  0.250146  0.914731  0.945330  1
  Ga  Ga10  1  0.469549  0.822074  0.881094  1
  Ga  Ga11  1  0.530451  0.177926  0.118906  1
  Br  Br12  1  0.000000  0.000000  0.000000  1
  Br  Br13  1  0.638233  0.882645  0.586059  1
  Br  Br14  1  0.361767  0.117355  0.413941  1
  Br  Br15  1  0.885701  0.297674  0.525955  1
  Br  Br16  1  0.114299  0.702326  0.474045  1
  Br  Br17  1  0.297981  0.762303  0.183059  1
  Br  Br18  1  0.702019  0.237697  0.816941  1
  Br  Br19  1  0.060002  0.352547  0.232771  1
  Br  Br20  1  0.170393  0.060883  0.703758  1
  Br  Br21  1  0.829607  0.939117  0.296242  1
  Br  Br22  1  0.225571  0.408220  0.942872  1
  Br  Br23  1  0.774429  0.591780  0.057128  1
  Br  Br24  1  0.405026  0.463224  0.647496  1
  Br  Br25  1  0.594974  0.536776  0.352504  1
  Br  Br26  1  0.939998  0.647453  0.767229  1
