# generated using pymatgen
data_DyHo8Th3Co4
_symmetry_space_group_name_H-M   'P 1'
_cell_length_a   6.28151628
_cell_length_b   6.86258994
_cell_length_c   9.52589919
_cell_angle_alpha   89.99796249
_cell_angle_beta   89.97745994
_cell_angle_gamma   88.86950856
_symmetry_Int_Tables_number   1
_chemical_formula_structural   DyHo8Th3Co4
_chemical_formula_sum   'Dy1 Ho8 Th3 Co4'
_cell_volume   410.55745614
_cell_formula_units_Z   1
loop_
 _symmetry_equiv_pos_site_id
 _symmetry_equiv_pos_as_xyz
  1  'x, y, z'
loop_
 _atom_site_type_symbol
 _atom_site_label
 _atom_site_symmetry_multiplicity
 _atom_site_fract_x
 _atom_site_fract_y
 _atom_site_fract_z
 _atom_site_occupancy
  Dy  Dy0  1  0.671775  0.172845  0.067980  1
  Ho  Ho1  1  0.829508  0.671338  0.431212  1
  Ho  Ho2  1  0.324525  0.828124  0.930549  1
  Ho  Ho3  1  0.175639  0.328314  0.571589  1
  Ho  Ho4  1  0.671568  0.172834  0.431946  1
  Ho  Ho5  1  0.175520  0.328466  0.928242  1
  Ho  Ho6  1  0.324621  0.828178  0.569328  1
  Ho  Ho7  1  0.644154  0.456733  0.749745  1
  Ho  Ho8  1  0.829635  0.671321  0.068742  1
  Th  Th9  1  0.347162  0.553570  0.250198  1
  Th  Th10  1  0.154858  0.052219  0.250329  1
  Th  Th11  1  0.843781  0.948479  0.749828  1
  Co  Co12  1  0.966346  0.372096  0.250338  1
  Co  Co13  1  0.466066  0.111670  0.749662  1
  Co  Co14  1  0.535671  0.871464  0.250264  1
  Co  Co15  1  0.039171  0.632349  0.750048  1
