# generated using pymatgen
data_Pr5SmTa2O14
_symmetry_space_group_name_H-M   'P 1'
_cell_length_a   6.73866559
_cell_length_b   6.71793329
_cell_length_c   7.75435500
_cell_angle_alpha   90.00000000
_cell_angle_beta   90.00000000
_cell_angle_gamma   108.61954438
_symmetry_Int_Tables_number   1
_chemical_formula_structural   Pr5SmTa2O14
_chemical_formula_sum   'Pr5 Sm1 Ta2 O14'
_cell_volume   332.66538749
_cell_formula_units_Z   1
loop_
 _symmetry_equiv_pos_site_id
 _symmetry_equiv_pos_as_xyz
  1  'x, y, z'
loop_
 _atom_site_type_symbol
 _atom_site_label
 _atom_site_symmetry_multiplicity
 _atom_site_fract_x
 _atom_site_fract_y
 _atom_site_fract_z
 _atom_site_occupancy
  Pr  Pr0  1  0.462424  0.467609  0.500490  1
  Pr  Pr1  1  0.462424  0.467609  0.999510  1
  Pr  Pr2  1  0.536805  0.994206  0.750000  1
  Pr  Pr3  1  0.992449  0.539992  0.250000  1
  Pr  Pr4  1  0.467845  0.995754  0.250000  1
  Sm  Sm5  1  0.995264  0.466908  0.750000  1
  Ta  Ta6  1  0.999419  0.999639  0.501416  1
  Ta  Ta7  1  0.999419  0.999639  0.998584  1
  O  O8  1  0.695884  0.935987  0.469785  1
  O  O9  1  0.964637  0.703199  0.537582  1
  O  O10  1  0.695884  0.935987  0.030215  1
  O  O11  1  0.964637  0.703199  0.962418  1
  O  O12  1  0.319231  0.079703  0.526704  1
  O  O13  1  0.070726  0.317669  0.474177  1
  O  O14  1  0.319231  0.079703  0.973296  1
  O  O15  1  0.070726  0.317669  0.025823  1
  O  O16  1  0.944584  0.062410  0.750000  1
  O  O17  1  0.053779  0.946858  0.250000  1
  O  O18  1  0.360096  0.623677  0.750000  1
  O  O19  1  0.627508  0.368134  0.250000  1
  O  O20  1  0.639477  0.363494  0.750000  1
  O  O21  1  0.357552  0.630958  0.250000  1
