# generated using pymatgen
data_Tm4MnTc6Ru
_symmetry_space_group_name_H-M   'P 1'
_cell_length_a   5.26386914
_cell_length_b   5.26386858
_cell_length_c   8.99072100
_cell_angle_alpha   89.99752526
_cell_angle_beta   90.00247314
_cell_angle_gamma   120.01958556
_symmetry_Int_Tables_number   1
_chemical_formula_structural   Tm4MnTc6Ru
_chemical_formula_sum   'Tm4 Mn1 Tc6 Ru1'
_cell_volume   215.69969389
_cell_formula_units_Z   1
loop_
 _symmetry_equiv_pos_site_id
 _symmetry_equiv_pos_as_xyz
  1  'x, y, z'
loop_
 _atom_site_type_symbol
 _atom_site_label
 _atom_site_symmetry_multiplicity
 _atom_site_fract_x
 _atom_site_fract_y
 _atom_site_fract_z
 _atom_site_occupancy
  Tm  Tm0  1  0.666660  0.333340  0.565317  1
  Tm  Tm1  1  0.333340  0.666660  0.434683  1
  Tm  Tm2  1  0.333343  0.666657  0.063194  1
  Tm  Tm3  1  0.666657  0.333343  0.936806  1
  Mn  Mn4  1  0.000000  0.000000  0.500000  1
  Tc  Tc5  1  0.169985  0.339934  0.746487  1
  Tc  Tc6  1  0.169950  0.830050  0.746484  1
  Tc  Tc7  1  0.660066  0.830015  0.746487  1
  Tc  Tc8  1  0.830015  0.660066  0.253513  1
  Tc  Tc9  1  0.830050  0.169950  0.253516  1
  Tc  Tc10  1  0.339934  0.169985  0.253513  1
  Ru  Ru11  1  0.000000  0.000000  0.000000  1
