# generated using pymatgen
data_Pr3NdZnPt3
_symmetry_space_group_name_H-M   'P 1'
_cell_length_a   4.60730600
_cell_length_b   5.83269738
_cell_length_c   7.52312565
_cell_angle_alpha   90.06500563
_cell_angle_beta   90.00000000
_cell_angle_gamma   90.00000000
_symmetry_Int_Tables_number   1
_chemical_formula_structural   Pr3NdZnPt3
_chemical_formula_sum   'Pr3 Nd1 Zn1 Pt3'
_cell_volume   202.16898813
_cell_formula_units_Z   1
loop_
 _symmetry_equiv_pos_site_id
 _symmetry_equiv_pos_as_xyz
  1  'x, y, z'
loop_
 _atom_site_type_symbol
 _atom_site_label
 _atom_site_symmetry_multiplicity
 _atom_site_fract_x
 _atom_site_fract_y
 _atom_site_fract_z
 _atom_site_occupancy
  Pr  Pr0  1  0.250000  0.362180  0.689167  1
  Pr  Pr1  1  0.750000  0.629029  0.306049  1
  Pr  Pr2  1  0.750000  0.863296  0.828422  1
  Nd  Nd3  1  0.250000  0.147151  0.178228  1
  Zn  Zn4  1  0.250000  0.871271  0.531860  1
  Pt  Pt5  1  0.250000  0.663180  0.045224  1
  Pt  Pt6  1  0.750000  0.116608  0.464147  1
  Pt  Pt7  1  0.750000  0.347286  0.956903  1
