# generated using pymatgen
data_Ac6CdSi11
_symmetry_space_group_name_H-M   'P 1'
_cell_length_a   4.50055970
_cell_length_b   4.45344374
_cell_length_c   21.66589100
_cell_angle_alpha   84.10098013
_cell_angle_beta   95.96165499
_cell_angle_gamma   90.00000070
_symmetry_Int_Tables_number   1
_chemical_formula_structural   Ac6CdSi11
_chemical_formula_sum   'Ac6 Cd1 Si11'
_cell_volume   429.58853759
_cell_formula_units_Z   1
loop_
 _symmetry_equiv_pos_site_id
 _symmetry_equiv_pos_as_xyz
  1  'x, y, z'
loop_
 _atom_site_type_symbol
 _atom_site_label
 _atom_site_symmetry_multiplicity
 _atom_site_fract_x
 _atom_site_fract_y
 _atom_site_fract_z
 _atom_site_occupancy
  Ac  Ac0  1  0.377291  0.873061  0.255359  1
  Ac  Ac1  1  0.041066  0.208702  0.582834  1
  Ac  Ac2  1  0.704052  0.546261  0.908283  1
  Ac  Ac3  1  0.295015  0.454011  0.090439  1
  Ac  Ac4  1  0.959856  0.790644  0.418237  1
  Ac  Ac5  1  0.623912  0.125564  0.746360  1
  Cd  Cd6  1  0.763465  0.986063  0.026882  1
  Si  Si7  1  0.904929  0.346479  0.309252  1
  Si  Si8  1  0.568205  0.681223  0.638282  1
  Si  Si9  1  0.232475  0.018725  0.965527  1
  Si  Si10  1  0.431862  0.318458  0.362236  1
  Si  Si11  1  0.095613  0.652677  0.691952  1
  Si  Si12  1  0.850576  0.401047  0.199085  1
  Si  Si13  1  0.515490  0.735655  0.528019  1
  Si  Si14  1  0.177193  0.072351  0.855582  1
  Si  Si15  1  0.823289  0.926430  0.147525  1
  Si  Si16  1  0.485007  0.264417  0.472544  1
  Si  Si17  1  0.150705  0.598228  0.801604  1
