# generated using pymatgen
data_Rb4Ba(VSe4)2
_symmetry_space_group_name_H-M   'P 1'
_cell_length_a   12.17799260
_cell_length_b   12.17799342
_cell_length_c   12.17799231
_cell_angle_alpha   132.90948732
_cell_angle_beta   127.96894605
_cell_angle_gamma   72.77790422
_symmetry_Int_Tables_number   1
_chemical_formula_structural   Rb4Ba(VSe4)2
_chemical_formula_sum   'Rb8 Ba2 V4 Se16'
_cell_volume   1018.96292270
_cell_formula_units_Z   2
loop_
 _symmetry_equiv_pos_site_id
 _symmetry_equiv_pos_as_xyz
  1  'x, y, z'
loop_
 _atom_site_type_symbol
 _atom_site_label
 _atom_site_symmetry_multiplicity
 _atom_site_fract_x
 _atom_site_fract_y
 _atom_site_fract_z
 _atom_site_occupancy
  Rb  Rb0  1  0.497435  0.247435  0.250000  1
  Rb  Rb1  1  0.002565  0.752565  0.250000  1
  Rb  Rb2  1  0.576604  0.702294  0.125690  1
  Rb  Rb3  1  0.423396  0.297706  0.874310  1
  Rb  Rb4  1  0.502565  0.752565  0.750000  1
  Rb  Rb5  1  0.076604  0.450913  0.374310  1
  Rb  Rb6  1  0.923396  0.549087  0.625690  1
  Rb  Rb7  1  0.997435  0.247435  0.750000  1
  Ba  Ba8  1  0.250000  0.000000  0.250000  1
  Ba  Ba9  1  0.750000  0.000000  0.750000  1
  V  V10  1  0.131172  0.926312  0.795140  1
  V  V11  1  0.868828  0.073688  0.204860  1
  V  V12  1  0.368828  0.663967  0.295140  1
  V  V13  1  0.631172  0.336033  0.704860  1
  Se  Se14  1  0.590971  0.612686  0.373852  1
  Se  Se15  1  0.753468  0.989187  0.235720  1
  Se  Se16  1  0.893953  0.867539  0.973586  1
  Se  Se17  1  0.761166  0.387314  0.978285  1
  Se  Se18  1  0.738834  0.217119  0.126148  1
  Se  Se19  1  0.746532  0.482252  0.735720  1
  Se  Se20  1  0.246532  0.010813  0.764280  1
  Se  Se21  1  0.238834  0.612686  0.021715  1
  Se  Se22  1  0.253468  0.517748  0.264280  1
  Se  Se23  1  0.261166  0.782881  0.873852  1
  Se  Se24  1  0.106047  0.132461  0.026414  1
  Se  Se25  1  0.909029  0.782881  0.521715  1
  Se  Se26  1  0.090971  0.217119  0.478285  1
  Se  Se27  1  0.606047  0.079633  0.473586  1
  Se  Se28  1  0.409029  0.387314  0.626148  1
  Se  Se29  1  0.393953  0.920367  0.526414  1
