# generated using pymatgen
data_KSm(ReH9)2
_symmetry_space_group_name_H-M   'P 1'
_cell_length_a   5.27925502
_cell_length_b   5.27928421
_cell_length_c   9.00197763
_cell_angle_alpha   92.88031584
_cell_angle_beta   87.12497375
_cell_angle_gamma   124.85763862
_symmetry_Int_Tables_number   1
_chemical_formula_structural   KSm(ReH9)2
_chemical_formula_sum   'K1 Sm1 Re2 H18'
_cell_volume   205.54460454
_cell_formula_units_Z   1
loop_
 _symmetry_equiv_pos_site_id
 _symmetry_equiv_pos_as_xyz
  1  'x, y, z'
loop_
 _atom_site_type_symbol
 _atom_site_label
 _atom_site_symmetry_multiplicity
 _atom_site_fract_x
 _atom_site_fract_y
 _atom_site_fract_z
 _atom_site_occupancy
  K  K0  1  0.000000  0.000000  0.000000  1
  Sm  Sm1  1  0.000000  0.000000  0.500000  1
  Re  Re2  1  0.336714  0.663534  0.717139  1
  Re  Re3  1  0.663286  0.336466  0.282861  1
  H  H4  1  0.387733  0.612453  0.530098  1
  H  H5  1  0.612267  0.387547  0.469902  1
  H  H6  1  0.414633  0.585457  0.878805  1
  H  H7  1  0.585367  0.414543  0.121195  1
  H  H8  1  0.467687  0.954474  0.844787  1
  H  H9  1  0.954294  0.467502  0.155249  1
  H  H10  1  0.590781  0.016308  0.647194  1
  H  H11  1  0.016095  0.590547  0.352851  1
  H  H12  1  0.532313  0.045526  0.155213  1
  H  H13  1  0.045706  0.532498  0.844751  1
  H  H14  1  0.409219  0.983692  0.352806  1
  H  H15  1  0.983905  0.409453  0.647149  1
  H  H16  1  0.695349  0.727244  0.714010  1
  H  H17  1  0.727125  0.695196  0.286005  1
  H  H18  1  0.304651  0.272756  0.285990  1
  H  H19  1  0.272875  0.304804  0.713995  1
  H  H20  1  0.156612  0.843638  0.693652  1
  H  H21  1  0.843388  0.156362  0.306348  1
