# generated using pymatgen
data_Cs7NbAs4
_symmetry_space_group_name_H-M   'P 1'
_cell_length_a   9.09559500
_cell_length_b   10.07640300
_cell_length_c   11.22426700
_cell_angle_alpha   90.00000000
_cell_angle_beta   90.00000000
_cell_angle_gamma   90.00000000
_symmetry_Int_Tables_number   1
_chemical_formula_structural   Cs7NbAs4
_chemical_formula_sum   'Cs14 Nb2 As8'
_cell_volume   1028.71395626
_cell_formula_units_Z   2
loop_
 _symmetry_equiv_pos_site_id
 _symmetry_equiv_pos_as_xyz
  1  'x, y, z'
loop_
 _atom_site_type_symbol
 _atom_site_label
 _atom_site_symmetry_multiplicity
 _atom_site_fract_x
 _atom_site_fract_y
 _atom_site_fract_z
 _atom_site_occupancy
  Cs  Cs0  1  0.879582  0.027398  0.000000  1
  Cs  Cs1  1  0.707205  0.832702  0.714495  1
  Cs  Cs2  1  0.392169  0.889435  0.000000  1
  Cs  Cs3  1  0.379582  0.972602  0.500000  1
  Cs  Cs4  1  0.874918  0.467990  0.289661  1
  Cs  Cs5  1  0.892169  0.110565  0.500000  1
  Cs  Cs6  1  0.662462  0.340652  0.000000  1
  Cs  Cs7  1  0.162462  0.659348  0.500000  1
  Cs  Cs8  1  0.207205  0.167298  0.214495  1
  Cs  Cs9  1  0.374918  0.532010  0.210339  1
  Cs  Cs10  1  0.374918  0.532010  0.789661  1
  Cs  Cs11  1  0.874918  0.467990  0.710339  1
  Cs  Cs12  1  0.707205  0.832702  0.285505  1
  Cs  Cs13  1  0.207205  0.167298  0.785505  1
  Nb  Nb14  1  0.998430  0.672226  0.000000  1
  Nb  Nb15  1  0.498430  0.327774  0.500000  1
  As  As16  1  0.721155  0.682484  0.000000  1
  As  As17  1  0.221155  0.317516  0.500000  1
  As  As18  1  0.071133  0.429525  0.000000  1
  As  As19  1  0.571133  0.570475  0.500000  1
  As  As20  1  0.085962  0.795571  0.186711  1
  As  As21  1  0.585962  0.204429  0.313289  1
  As  As22  1  0.585962  0.204429  0.686711  1
  As  As23  1  0.085962  0.795571  0.813289  1
