# generated using pymatgen
data_Bi4Ru3RhO14
_symmetry_space_group_name_H-M   'P 1'
_cell_length_a   7.32872912
_cell_length_b   7.32872884
_cell_length_c   7.32872821
_cell_angle_alpha   60.25949630
_cell_angle_beta   60.25950044
_cell_angle_gamma   60.25949457
_symmetry_Int_Tables_number   1
_chemical_formula_structural   Bi4Ru3RhO14
_chemical_formula_sum   'Bi4 Ru3 Rh1 O14'
_cell_volume   279.97188032
_cell_formula_units_Z   1
loop_
 _symmetry_equiv_pos_site_id
 _symmetry_equiv_pos_as_xyz
  1  'x, y, z'
loop_
 _atom_site_type_symbol
 _atom_site_label
 _atom_site_symmetry_multiplicity
 _atom_site_fract_x
 _atom_site_fract_y
 _atom_site_fract_z
 _atom_site_occupancy
  Bi  Bi0  1  0.125000  0.125000  0.625000  1
  Bi  Bi1  1  0.125000  0.625000  0.125000  1
  Bi  Bi2  1  0.625000  0.125000  0.125000  1
  Bi  Bi3  1  0.125000  0.125000  0.125000  1
  Ru  Ru4  1  0.625000  0.625000  0.125000  1
  Ru  Ru5  1  0.625000  0.125000  0.625000  1
  Ru  Ru6  1  0.125000  0.625000  0.625000  1
  Rh  Rh7  1  0.625000  0.625000  0.625000  1
  O  O8  1  0.250025  0.250025  0.250025  1
  O  O9  1  0.999975  0.999975  0.999975  1
  O  O10  1  0.543419  0.959353  0.543419  1
  O  O11  1  0.297470  0.705350  0.297470  1
  O  O12  1  0.543419  0.543419  0.959353  1
  O  O13  1  0.959353  0.543419  0.543419  1
  O  O14  1  0.544650  0.952530  0.952530  1
  O  O15  1  0.952530  0.952530  0.544650  1
  O  O16  1  0.952530  0.544650  0.952530  1
  O  O17  1  0.705350  0.297470  0.297470  1
  O  O18  1  0.290647  0.706581  0.706581  1
  O  O19  1  0.706581  0.290647  0.706581  1
  O  O20  1  0.297470  0.297470  0.705350  1
  O  O21  1  0.706581  0.706581  0.290647  1
