# generated using pymatgen
data_La6Pr(NdIr2)3
_symmetry_space_group_name_H-M   'P 1'
_cell_length_a   11.37910432
_cell_length_b   11.38240832
_cell_length_c   6.64243000
_cell_angle_alpha   90.00000000
_cell_angle_beta   90.00000000
_cell_angle_gamma   89.97285428
_symmetry_Int_Tables_number   1
_chemical_formula_structural   La6Pr(NdIr2)3
_chemical_formula_sum   'La12 Pr2 Nd6 Ir12'
_cell_volume   860.33814245
_cell_formula_units_Z   2
loop_
 _symmetry_equiv_pos_site_id
 _symmetry_equiv_pos_as_xyz
  1  'x, y, z'
loop_
 _atom_site_type_symbol
 _atom_site_label
 _atom_site_symmetry_multiplicity
 _atom_site_fract_x
 _atom_site_fract_y
 _atom_site_fract_z
 _atom_site_occupancy
  La  La0  1  0.090919  0.291487  0.114877  1
  La  La1  1  0.791309  0.409326  0.114791  1
  La  La2  1  0.208691  0.590674  0.114791  1
  La  La3  1  0.909081  0.708513  0.114877  1
  La  La4  1  0.408960  0.790885  0.385923  1
  La  La5  1  0.591040  0.209115  0.385923  1
  La  La6  1  0.290980  0.091162  0.385840  1
  La  La7  1  0.709020  0.908838  0.385840  1
  La  La8  1  0.408959  0.209640  0.884661  1
  La  La9  1  0.709473  0.090965  0.884773  1
  La  La10  1  0.290527  0.909035  0.884773  1
  La  La11  1  0.591041  0.790360  0.884661  1
  Pr  Pr12  1  0.089121  0.707577  0.615281  1
  Pr  Pr13  1  0.910879  0.292423  0.615281  1
  Nd  Nd14  1  0.207434  0.410840  0.614806  1
  Nd  Nd15  1  0.792566  0.589160  0.614806  1
  Nd  Nd16  1  0.000000  0.000000  0.999401  1
  Nd  Nd17  1  0.500000  0.500000  0.999312  1
  Nd  Nd18  1  0.500000  0.500000  0.500834  1
  Nd  Nd19  1  0.000000  0.000000  0.500686  1
  Ir  Ir20  1  0.153861  0.847100  0.249204  1
  Ir  Ir21  1  0.346781  0.346202  0.249865  1
  Ir  Ir22  1  0.653219  0.653798  0.249865  1
  Ir  Ir23  1  0.846139  0.152900  0.249204  1
  Ir  Ir24  1  0.346226  0.653202  0.749422  1
  Ir  Ir25  1  0.153543  0.153996  0.749444  1
  Ir  Ir26  1  0.846457  0.846004  0.749444  1
  Ir  Ir27  1  0.653774  0.346798  0.749422  1
  Ir  Ir28  1  0.000000  0.500000  0.378428  1
  Ir  Ir29  1  0.500000  0.000000  0.121093  1
  Ir  Ir30  1  0.500000  0.000000  0.620487  1
  Ir  Ir31  1  0.000000  0.500000  0.881982  1
