# generated using pymatgen
data_Na2HoNpTe4
_symmetry_space_group_name_H-M   'P 1'
_cell_length_a   8.98864829
_cell_length_b   8.98135600
_cell_length_c   8.98216400
_cell_angle_alpha   59.64664760
_cell_angle_beta   59.95332555
_cell_angle_gamma   59.97737153
_symmetry_Int_Tables_number   1
_chemical_formula_structural   Na2HoNpTe4
_chemical_formula_sum   'Na4 Ho2 Np2 Te8'
_cell_volume   511.09612190
_cell_formula_units_Z   2
loop_
 _symmetry_equiv_pos_site_id
 _symmetry_equiv_pos_as_xyz
  1  'x, y, z'
loop_
 _atom_site_type_symbol
 _atom_site_label
 _atom_site_symmetry_multiplicity
 _atom_site_fract_x
 _atom_site_fract_y
 _atom_site_fract_z
 _atom_site_occupancy
  Na  Na0  1  0.125000  0.625000  0.125000  1
  Na  Na1  1  0.125000  0.125000  0.625000  1
  Na  Na2  1  0.625000  0.125000  0.125000  1
  Na  Na3  1  0.125000  0.125000  0.125000  1
  Ho  Ho4  1  0.625000  0.625000  0.625000  1
  Ho  Ho5  1  0.125000  0.625000  0.625000  1
  Np  Np6  1  0.625000  0.125000  0.625000  1
  Np  Np7  1  0.625000  0.625000  0.125000  1
  Te  Te8  1  0.377667  0.860461  0.384891  1
  Te  Te9  1  0.872333  0.389539  0.865109  1
  Te  Te10  1  0.872753  0.865219  0.389651  1
  Te  Te11  1  0.877177  0.867812  0.867750  1
  Te  Te12  1  0.862375  0.381898  0.382562  1
  Te  Te13  1  0.377247  0.384781  0.860349  1
  Te  Te14  1  0.372823  0.382188  0.382250  1
  Te  Te15  1  0.387625  0.868102  0.867438  1
