# generated using pymatgen
data_ZrH6OsPd
_symmetry_space_group_name_H-M   'P 1'
_cell_length_a   4.59737092
_cell_length_b   4.59736829
_cell_length_c   4.59736700
_cell_angle_alpha   60.00005967
_cell_angle_beta   60.00004976
_cell_angle_gamma   60.00004531
_symmetry_Int_Tables_number   1
_chemical_formula_structural   ZrH6OsPd
_chemical_formula_sum   'Zr1 H6 Os1 Pd1'
_cell_volume   68.70898365
_cell_formula_units_Z   1
loop_
 _symmetry_equiv_pos_site_id
 _symmetry_equiv_pos_as_xyz
  1  'x, y, z'
loop_
 _atom_site_type_symbol
 _atom_site_label
 _atom_site_symmetry_multiplicity
 _atom_site_fract_x
 _atom_site_fract_y
 _atom_site_fract_z
 _atom_site_occupancy
  Zr  Zr0  1  0.249999  0.250001  0.250000  1
  H  H1  1  0.737824  0.737824  0.262177  1
  H  H2  1  0.737824  0.262177  0.262175  1
  H  H3  1  0.262175  0.737825  0.262177  1
  H  H4  1  0.262175  0.737823  0.737825  1
  H  H5  1  0.262175  0.262176  0.737824  1
  H  H6  1  0.737824  0.262175  0.737824  1
  Os  Os7  1  0.000000  0.000000  0.999999  1
  Pd  Pd8  1  0.750000  0.750001  0.749999  1
