# generated using pymatgen
data_Sc8Ti9Nb3Si15As
_symmetry_space_group_name_H-M   'P 1'
_cell_length_a   6.71965113
_cell_length_b   6.85097839
_cell_length_c   13.04293068
_cell_angle_alpha   89.92643940
_cell_angle_beta   90.25800534
_cell_angle_gamma   90.10824691
_symmetry_Int_Tables_number   1
_chemical_formula_structural   Sc8Ti9Nb3Si15As
_chemical_formula_sum   'Sc8 Ti9 Nb3 Si15 As1'
_cell_volume   600.43911769
_cell_formula_units_Z   1
loop_
 _symmetry_equiv_pos_site_id
 _symmetry_equiv_pos_as_xyz
  1  'x, y, z'
loop_
 _atom_site_type_symbol
 _atom_site_label
 _atom_site_symmetry_multiplicity
 _atom_site_fract_x
 _atom_site_fract_y
 _atom_site_fract_z
 _atom_site_occupancy
  Sc  Sc0  1  0.499928  0.677199  0.596141  1
  Sc  Sc1  1  0.004198  0.826682  0.903835  1
  Sc  Sc2  1  0.496706  0.324673  0.096323  1
  Sc  Sc3  1  0.002302  0.177211  0.401811  1
  Sc  Sc4  1  0.497461  0.324212  0.403289  1
  Sc  Sc5  1  0.996606  0.174696  0.096971  1
  Sc  Sc6  1  0.501954  0.676183  0.904210  1
  Sc  Sc7  1  0.002778  0.824114  0.597135  1
  Ti  Ti8  1  0.657832  0.174946  0.626912  1
  Ti  Ti9  1  0.165399  0.324506  0.873610  1
  Ti  Ti10  1  0.336556  0.824167  0.125953  1
  Ti  Ti11  1  0.837718  0.671986  0.373730  1
  Ti  Ti12  1  0.338615  0.825206  0.374598  1
  Ti  Ti13  1  0.834961  0.674620  0.125223  1
  Ti  Ti14  1  0.662047  0.174840  0.873324  1
  Ti  Ti15  1  0.164862  0.325923  0.626743  1
  Ti  Ti16  1  0.836440  0.493626  0.750106  1
  Nb  Nb17  1  0.336570  0.007011  0.749507  1
  Nb  Nb18  1  0.164013  0.506130  0.249809  1
  Nb  Nb19  1  0.663828  0.992254  0.249040  1
  Si  Si20  1  0.163358  0.533676  0.039207  1
  Si  Si21  1  0.335153  0.034888  0.960571  1
  Si  Si22  1  0.835033  0.465349  0.540923  1
  Si  Si23  1  0.320288  0.036632  0.539720  1
  Si  Si24  1  0.835918  0.466141  0.959338  1
  Si  Si25  1  0.664609  0.965956  0.039318  1
  Si  Si26  1  0.165718  0.535209  0.460995  1
  Si  Si27  1  0.462923  0.386229  0.750354  1
  Si  Si28  1  0.958014  0.118449  0.749848  1
  Si  Si29  1  0.540366  0.615422  0.250061  1
  Si  Si30  1  0.041415  0.882271  0.249659  1
  Si  Si31  1  0.706004  0.862859  0.750347  1
  Si  Si32  1  0.203293  0.632587  0.750512  1
  Si  Si33  1  0.295584  0.133820  0.249590  1
  Si  Si34  1  0.794465  0.365844  0.249530  1
  As  As35  1  0.677082  0.964485  0.461758  1
