# generated using pymatgen
data_Er2Tm3Lu(Co3P2)6
_symmetry_space_group_name_H-M   'P 1'
_cell_length_a   3.67349900
_cell_length_b   10.47511007
_cell_length_c   12.11446208
_cell_angle_alpha   90.01352453
_cell_angle_beta   90.00000000
_cell_angle_gamma   90.00000000
_symmetry_Int_Tables_number   1
_chemical_formula_structural   Er2Tm3Lu(Co3P2)6
_chemical_formula_sum   'Er2 Tm3 Lu1 Co18 P12'
_cell_volume   466.16819962
_cell_formula_units_Z   1
loop_
 _symmetry_equiv_pos_site_id
 _symmetry_equiv_pos_as_xyz
  1  'x, y, z'
loop_
 _atom_site_type_symbol
 _atom_site_label
 _atom_site_symmetry_multiplicity
 _atom_site_fract_x
 _atom_site_fract_y
 _atom_site_fract_z
 _atom_site_occupancy
  Er  Er0  1  0.750000  0.249902  0.477530  1
  Er  Er1  1  0.250000  0.750123  0.522586  1
  Tm  Tm2  1  0.250000  0.567914  0.794030  1
  Tm  Tm3  1  0.750000  0.067751  0.205982  1
  Tm  Tm4  1  0.750000  0.432234  0.205946  1
  Lu  Lu5  1  0.250000  0.932203  0.793970  1
  Co  Co6  1  0.250000  0.249987  0.841018  1
  Co  Co7  1  0.750000  0.750031  0.158971  1
  Co  Co8  1  0.250000  0.249964  0.296939  1
  Co  Co9  1  0.750000  0.750480  0.703293  1
  Co  Co10  1  0.750000  0.249825  0.014260  1
  Co  Co11  1  0.250000  0.750192  0.985418  1
  Co  Co12  1  0.250000  0.416800  0.005766  1
  Co  Co13  1  0.250000  0.083020  0.005545  1
  Co  Co14  1  0.750000  0.583377  0.994164  1
  Co  Co15  1  0.750000  0.916794  0.993910  1
  Co  Co16  1  0.250000  0.452677  0.569398  1
  Co  Co17  1  0.250000  0.047225  0.569617  1
  Co  Co18  1  0.750000  0.547363  0.430607  1
  Co  Co19  1  0.750000  0.952687  0.430755  1
  Co  Co20  1  0.250000  0.871491  0.290336  1
  Co  Co21  1  0.250000  0.628542  0.290297  1
  Co  Co22  1  0.750000  0.128040  0.709925  1
  Co  Co23  1  0.750000  0.371412  0.709687  1
  P  P24  1  0.250000  0.249941  0.118466  1
  P  P25  1  0.750000  0.750385  0.881311  1
  P  P26  1  0.250000  0.250036  0.655406  1
  P  P27  1  0.750000  0.749989  0.344622  1
  P  P28  1  0.250000  0.438305  0.383305  1
  P  P29  1  0.250000  0.061642  0.383382  1
  P  P30  1  0.750000  0.561790  0.616732  1
  P  P31  1  0.750000  0.938272  0.617178  1
  P  P32  1  0.250000  0.902932  0.107486  1
  P  P33  1  0.250000  0.597101  0.107412  1
  P  P34  1  0.750000  0.096544  0.892229  1
  P  P35  1  0.750000  0.403029  0.892524  1
