# generated using pymatgen
data_SrCaCu17Si8Ni
_symmetry_space_group_name_H-M   'P 1'
_cell_length_a   8.20309407
_cell_length_b   8.20309437
_cell_length_c   8.16201460
_cell_angle_alpha   120.64878438
_cell_angle_beta   120.64878314
_cell_angle_gamma   89.17248343
_symmetry_Int_Tables_number   1
_chemical_formula_structural   SrCaCu17Si8Ni
_chemical_formula_sum   'Sr1 Ca1 Cu17 Si8 Ni1'
_cell_volume   383.50064749
_cell_formula_units_Z   1
loop_
 _symmetry_equiv_pos_site_id
 _symmetry_equiv_pos_as_xyz
  1  'x, y, z'
loop_
 _atom_site_type_symbol
 _atom_site_label
 _atom_site_symmetry_multiplicity
 _atom_site_fract_x
 _atom_site_fract_y
 _atom_site_fract_z
 _atom_site_occupancy
  Sr  Sr0  1  0.750000  0.750000  0.000000  1
  Ca  Ca1  1  0.250000  0.250000  0.000000  1
  Cu  Cu2  1  0.933388  0.204169  0.135854  1
  Cu  Cu3  1  0.203193  0.070094  0.271618  1
  Cu  Cu4  1  0.798476  0.931575  0.728382  1
  Cu  Cu5  1  0.429906  0.296807  0.728382  1
  Cu  Cu6  1  0.068315  0.797535  0.864146  1
  Cu  Cu7  1  0.808812  0.060098  0.502930  1
  Cu  Cu8  1  0.557168  0.305882  0.497070  1
  Cu  Cu9  1  0.194118  0.942832  0.502930  1
  Cu  Cu10  1  0.439902  0.691188  0.497070  1
  Cu  Cu11  1  0.945086  0.442333  0.754858  1
  Cu  Cu12  1  0.687474  0.190227  0.245142  1
  Cu  Cu13  1  0.057667  0.554914  0.245142  1
  Cu  Cu14  1  0.702465  0.431685  0.135854  1
  Cu  Cu15  1  0.568425  0.701524  0.271618  1
  Cu  Cu16  1  0.000000  0.500000  0.500000  1
  Cu  Cu17  1  0.309773  0.812526  0.754858  1
  Cu  Cu18  1  0.295831  0.566612  0.864146  1
  Si  Si19  1  0.784769  0.283420  0.840169  1
  Si  Si20  1  0.555399  0.056748  0.840169  1
  Si  Si21  1  0.056750  0.209334  0.502132  1
  Si  Si22  1  0.290666  0.443250  0.497868  1
  Si  Si23  1  0.945383  0.792799  0.502132  1
  Si  Si24  1  0.443252  0.944601  0.159831  1
  Si  Si25  1  0.216580  0.715231  0.159831  1
  Si  Si26  1  0.707201  0.554617  0.497868  1
  Ni  Ni27  1  0.500000  0.000000  0.500000  1
