# generated using pymatgen
data_DyY3Tm4(ReB6)4
_symmetry_space_group_name_H-M   'P 1'
_cell_length_a   3.66295900
_cell_length_b   9.14360100
_cell_length_c   11.53406600
_cell_angle_alpha   89.99804387
_cell_angle_beta   90.00000000
_cell_angle_gamma   90.00000000
_symmetry_Int_Tables_number   1
_chemical_formula_structural   DyY3Tm4(ReB6)4
_chemical_formula_sum   'Dy1 Y3 Tm4 Re4 B24'
_cell_volume   386.30626913
_cell_formula_units_Z   1
loop_
 _symmetry_equiv_pos_site_id
 _symmetry_equiv_pos_as_xyz
  1  'x, y, z'
loop_
 _atom_site_type_symbol
 _atom_site_label
 _atom_site_symmetry_multiplicity
 _atom_site_fract_x
 _atom_site_fract_y
 _atom_site_fract_z
 _atom_site_occupancy
  Dy  Dy0  1  0.000000  0.176722  0.913953  1
  Y  Y1  1  0.000000  0.323164  0.414000  1
  Y  Y2  1  0.000000  0.676828  0.586012  1
  Y  Y3  1  0.000000  0.823197  0.085998  1
  Tm  Tm4  1  0.000000  0.943356  0.370188  1
  Tm  Tm5  1  0.000000  0.056673  0.629823  1
  Tm  Tm6  1  0.000000  0.443308  0.129782  1
  Tm  Tm7  1  0.000000  0.556639  0.870183  1
  Re  Re8  1  0.000000  0.639312  0.320202  1
  Re  Re9  1  0.000000  0.360622  0.679880  1
  Re  Re10  1  0.000000  0.139315  0.179708  1
  Re  Re11  1  0.000000  0.860805  0.820265  1
  B  B12  1  0.500000  0.553623  0.432604  1
  B  B13  1  0.500000  0.446370  0.567416  1
  B  B14  1  0.500000  0.053737  0.067304  1
  B  B15  1  0.500000  0.946531  0.932584  1
  B  B16  1  0.500000  0.750319  0.418355  1
  B  B17  1  0.500000  0.249692  0.581675  1
  B  B18  1  0.500000  0.250244  0.081512  1
  B  B19  1  0.500000  0.749717  0.918361  1
  B  B20  1  0.500000  0.792784  0.265598  1
  B  B21  1  0.500000  0.207224  0.734515  1
  B  B22  1  0.500000  0.292760  0.234362  1
  B  B23  1  0.500000  0.707243  0.765617  1
  B  B24  1  0.500000  0.630416  0.185245  1
  B  B25  1  0.500000  0.369445  0.814825  1
  B  B26  1  0.500000  0.130415  0.314736  1
  B  B27  1  0.500000  0.869605  0.685266  1
  B  B28  1  0.500000  0.982124  0.212513  1
  B  B29  1  0.500000  0.017996  0.787545  1
  B  B30  1  0.500000  0.482101  0.287450  1
  B  B31  1  0.500000  0.517853  0.712558  1
  B  B32  1  0.500000  0.598676  0.027486  1
  B  B33  1  0.500000  0.401184  0.972472  1
  B  B34  1  0.500000  0.098699  0.472509  1
  B  B35  1  0.500000  0.901301  0.527496  1
