# generated using pymatgen
data_Er3Ga7Cu4
_symmetry_space_group_name_H-M   'P 1'
_cell_length_a   7.96501355
_cell_length_b   7.96501261
_cell_length_c   9.35626365
_cell_angle_alpha   54.30949000
_cell_angle_beta   54.30949274
_cell_angle_gamma   30.51825135
_symmetry_Int_Tables_number   1
_chemical_formula_structural   Er3Ga7Cu4
_chemical_formula_sum   'Er3 Ga7 Cu4'
_cell_volume   240.06488464
_cell_formula_units_Z   1
loop_
 _symmetry_equiv_pos_site_id
 _symmetry_equiv_pos_as_xyz
  1  'x, y, z'
loop_
 _atom_site_type_symbol
 _atom_site_label
 _atom_site_symmetry_multiplicity
 _atom_site_fract_x
 _atom_site_fract_y
 _atom_site_fract_z
 _atom_site_occupancy
  Er  Er0  1  0.000000  0.000000  0.000000  1
  Er  Er1  1  0.303488  0.303488  0.703321  1
  Er  Er2  1  0.696512  0.696512  0.296679  1
  Ga  Ga3  1  0.860240  0.860240  0.419710  1
  Ga  Ga4  1  0.139760  0.139760  0.580290  1
  Ga  Ga5  1  0.140273  0.140273  0.131422  1
  Ga  Ga6  1  0.859727  0.859727  0.868578  1
  Ga  Ga7  1  0.000000  0.000000  0.500000  1
  Ga  Ga8  1  0.344479  0.344479  0.276930  1
  Ga  Ga9  1  0.655521  0.655521  0.723070  1
  Cu  Cu10  1  0.497813  0.497813  0.308095  1
  Cu  Cu11  1  0.502187  0.502187  0.691905  1
  Cu  Cu12  1  0.657628  0.657628  0.981258  1
  Cu  Cu13  1  0.342372  0.342372  0.018742  1
