# generated using pymatgen
data_DyTh7(Si3Ni)4
_symmetry_space_group_name_H-M   'P 1'
_cell_length_a   8.03311000
_cell_length_b   8.03311321
_cell_length_c   8.47028100
_cell_angle_alpha   90.00000000
_cell_angle_beta   90.00000000
_cell_angle_gamma   119.99997310
_symmetry_Int_Tables_number   1
_chemical_formula_structural   DyTh7(Si3Ni)4
_chemical_formula_sum   'Dy1 Th7 Si12 Ni4'
_cell_volume   473.36502793
_cell_formula_units_Z   1
loop_
 _symmetry_equiv_pos_site_id
 _symmetry_equiv_pos_as_xyz
  1  'x, y, z'
loop_
 _atom_site_type_symbol
 _atom_site_label
 _atom_site_symmetry_multiplicity
 _atom_site_fract_x
 _atom_site_fract_y
 _atom_site_fract_z
 _atom_site_occupancy
  Dy  Dy0  1  0.000000  0.999999  0.750000  1
  Th  Th1  1  0.500235  0.000470  0.250000  1
  Th  Th2  1  0.499805  0.999611  0.750000  1
  Th  Th3  1  0.999531  0.499766  0.250000  1
  Th  Th4  1  0.000390  0.500196  0.750000  1
  Th  Th5  1  0.500235  0.499765  0.250000  1
  Th  Th6  1  0.499805  0.500195  0.750000  1
  Th  Th7  1  0.999999  0.000000  0.250000  1
  Si  Si8  1  0.170283  0.340567  0.998204  1
  Si  Si9  1  0.829729  0.659458  0.997416  1
  Si  Si10  1  0.659432  0.829717  0.998203  1
  Si  Si11  1  0.829729  0.659458  0.502584  1
  Si  Si12  1  0.340542  0.170271  0.997417  1
  Si  Si13  1  0.170283  0.340567  0.501796  1
  Si  Si14  1  0.170285  0.829716  0.998206  1
  Si  Si15  1  0.340542  0.170271  0.502583  1
  Si  Si16  1  0.829728  0.170272  0.997418  1
  Si  Si17  1  0.659432  0.829717  0.501797  1
  Si  Si18  1  0.829728  0.170272  0.502582  1
  Si  Si19  1  0.170285  0.829716  0.501794  1
  Ni  Ni20  1  0.333334  0.666665  0.001677  1
  Ni  Ni21  1  0.666666  0.333335  0.999584  1
  Ni  Ni22  1  0.666666  0.333335  0.500416  1
  Ni  Ni23  1  0.333334  0.666665  0.498323  1
