# generated using pymatgen
data_Sm7Y(Si3Rh)4
_symmetry_space_group_name_H-M   'P 1'
_cell_length_a   8.23575940
_cell_length_b   8.23130988
_cell_length_c   8.13327300
_cell_angle_alpha   90.00000000
_cell_angle_beta   90.00000000
_cell_angle_gamma   119.98212005
_symmetry_Int_Tables_number   1
_chemical_formula_structural   Sm7Y(Si3Rh)4
_chemical_formula_sum   'Sm7 Y1 Si12 Rh4'
_cell_volume   477.58073821
_cell_formula_units_Z   1
loop_
 _symmetry_equiv_pos_site_id
 _symmetry_equiv_pos_as_xyz
  1  'x, y, z'
loop_
 _atom_site_type_symbol
 _atom_site_label
 _atom_site_symmetry_multiplicity
 _atom_site_fract_x
 _atom_site_fract_y
 _atom_site_fract_z
 _atom_site_occupancy
  Sm  Sm0  1  0.999646  0.999823  0.250000  1
  Sm  Sm1  1  0.000371  0.000186  0.750000  1
  Sm  Sm2  1  0.507592  0.492521  0.250000  1
  Sm  Sm3  1  0.507592  0.015071  0.250000  1
  Sm  Sm4  1  0.985290  0.492645  0.250000  1
  Sm  Sm5  1  0.492073  0.507592  0.750000  1
  Sm  Sm6  1  0.492073  0.984481  0.750000  1
  Y  Y7  1  0.014449  0.507225  0.750000  1
  Si  Si8  1  0.166464  0.832388  0.501552  1
  Si  Si9  1  0.166464  0.334077  0.501552  1
  Si  Si10  1  0.666533  0.833267  0.500249  1
  Si  Si11  1  0.833335  0.167398  0.500580  1
  Si  Si12  1  0.833335  0.665936  0.500580  1
  Si  Si13  1  0.333881  0.166940  0.500154  1
  Si  Si14  1  0.833335  0.167398  0.999420  1
  Si  Si15  1  0.833335  0.665936  0.999420  1
  Si  Si16  1  0.333881  0.166940  0.999846  1
  Si  Si17  1  0.166464  0.832388  0.998448  1
  Si  Si18  1  0.166464  0.334077  0.998448  1
  Si  Si19  1  0.666533  0.833267  0.999751  1
  Rh  Rh20  1  0.332863  0.666432  0.471350  1
  Rh  Rh21  1  0.667582  0.333791  0.532006  1
  Rh  Rh22  1  0.667582  0.333791  0.967994  1
  Rh  Rh23  1  0.332863  0.666432  0.028650  1
