# generated using pymatgen
data_Tb2Ho5Er(WO6)4
_symmetry_space_group_name_H-M   'P 1'
_cell_length_a   5.39020402
_cell_length_b   7.69596704
_cell_length_c   11.45410551
_cell_angle_alpha   75.33613938
_cell_angle_beta   90.00189295
_cell_angle_gamma   89.99077054
_symmetry_Int_Tables_number   1
_chemical_formula_structural   Tb2Ho5Er(WO6)4
_chemical_formula_sum   'Tb2 Ho5 Er1 W4 O24'
_cell_volume   459.67200686
_cell_formula_units_Z   1
loop_
 _symmetry_equiv_pos_site_id
 _symmetry_equiv_pos_as_xyz
  1  'x, y, z'
loop_
 _atom_site_type_symbol
 _atom_site_label
 _atom_site_symmetry_multiplicity
 _atom_site_fract_x
 _atom_site_fract_y
 _atom_site_fract_z
 _atom_site_occupancy
  Tb  Tb0  1  0.684373  0.500010  0.249992  1
  Tb  Tb1  1  0.315647  0.499914  0.750057  1
  Ho  Ho2  1  0.183736  0.205095  0.422171  1
  Ho  Ho3  1  0.183718  0.794984  0.077803  1
  Ho  Ho4  1  0.816242  0.794897  0.577831  1
  Ho  Ho5  1  0.740908  0.000027  0.249934  1
  Ho  Ho6  1  0.259088  0.000055  0.750059  1
  Er  Er7  1  0.816227  0.205257  0.922027  1
  W  W8  1  0.255875  0.275638  0.114805  1
  W  W9  1  0.255865  0.724311  0.385078  1
  W  W10  1  0.744121  0.724232  0.885099  1
  W  W11  1  0.744183  0.275679  0.614993  1
  O  O12  1  0.458257  0.207701  0.273399  1
  O  O13  1  0.458272  0.792277  0.226571  1
  O  O14  1  0.541720  0.792262  0.726578  1
  O  O15  1  0.542327  0.207640  0.773806  1
  O  O16  1  0.043726  0.060037  0.104144  1
  O  O17  1  0.043975  0.940122  0.395653  1
  O  O18  1  0.955620  0.940733  0.895705  1
  O  O19  1  0.956043  0.059900  0.604340  1
  O  O20  1  0.981467  0.287547  0.229090  1
  O  O21  1  0.981431  0.712462  0.270910  1
  O  O22  1  0.018564  0.712520  0.770942  1
  O  O23  1  0.018323  0.287419  0.729371  1
  O  O24  1  0.849792  0.364978  0.451737  1
  O  O25  1  0.849798  0.635037  0.048254  1
  O  O26  1  0.150225  0.635015  0.548275  1
  O  O27  1  0.149430  0.364613  0.951679  1
  O  O28  1  0.641276  0.510027  0.613961  1
  O  O29  1  0.641711  0.489509  0.886097  1
  O  O30  1  0.358710  0.489949  0.386033  1
  O  O31  1  0.358656  0.510005  0.113942  1
  O  O32  1  0.464590  0.153521  0.569606  1
  O  O33  1  0.464572  0.846439  0.930439  1
  O  O34  1  0.535413  0.846509  0.430448  1
  O  O35  1  0.536116  0.153679  0.069171  1
