# generated using pymatgen
data_P2AuBr9
_symmetry_space_group_name_H-M   'P 1'
_cell_length_a   6.07369600
_cell_length_b   8.64214343
_cell_length_c   18.17148475
_cell_angle_alpha   90.20597339
_cell_angle_beta   90.00000000
_cell_angle_gamma   90.00000000
_symmetry_Int_Tables_number   1
_chemical_formula_structural   P2AuBr9
_chemical_formula_sum   'P4 Au2 Br18'
_cell_volume   953.81056490
_cell_formula_units_Z   2
loop_
 _symmetry_equiv_pos_site_id
 _symmetry_equiv_pos_as_xyz
  1  'x, y, z'
loop_
 _atom_site_type_symbol
 _atom_site_label
 _atom_site_symmetry_multiplicity
 _atom_site_fract_x
 _atom_site_fract_y
 _atom_site_fract_z
 _atom_site_occupancy
  P  P0  1  0.039741  0.750120  0.639269  1
  P  P1  1  0.039741  0.249880  0.860731  1
  P  P2  1  0.952244  0.229587  0.365402  1
  P  P3  1  0.952244  0.770413  0.134598  1
  Au  Au4  1  0.732695  0.978858  0.127997  1
  Au  Au5  1  0.732695  0.021142  0.372003  1
  Br  Br6  1  0.165178  0.761631  0.233496  1
  Br  Br7  1  0.165178  0.238369  0.266504  1
  Br  Br8  1  0.829760  0.250288  0.761257  1
  Br  Br9  1  0.829760  0.749712  0.738743  1
  Br  Br10  1  0.242976  0.464414  0.866318  1
  Br  Br11  1  0.242976  0.535586  0.633682  1
  Br  Br12  1  0.245304  0.036711  0.864585  1
  Br  Br13  1  0.245304  0.963289  0.635415  1
  Br  Br14  1  0.774771  0.546554  0.133666  1
  Br  Br15  1  0.774771  0.453446  0.366334  1
  Br  Br16  1  0.496121  0.795748  0.386623  1
  Br  Br17  1  0.496121  0.204252  0.113377  1
  Br  Br18  1  0.516501  0.250177  0.620981  1
  Br  Br19  1  0.516501  0.749823  0.879019  1
  Br  Br20  1  0.820685  0.754332  0.543067  1
  Br  Br21  1  0.820685  0.245668  0.956933  1
  Br  Br22  1  0.184023  0.247227  0.458958  1
  Br  Br23  1  0.184023  0.752773  0.041042  1
