# generated using pymatgen
data_NaNdGaPt3
_symmetry_space_group_name_H-M   'P 1'
_cell_length_a   5.60603739
_cell_length_b   5.60603666
_cell_length_c   5.26564355
_cell_angle_alpha   57.83751936
_cell_angle_beta   57.83752468
_cell_angle_gamma   59.99998877
_symmetry_Int_Tables_number   1
_chemical_formula_structural   NaNdGaPt3
_chemical_formula_sum   'Na1 Nd1 Ga1 Pt3'
_cell_volume   113.04495931
_cell_formula_units_Z   1
loop_
 _symmetry_equiv_pos_site_id
 _symmetry_equiv_pos_as_xyz
  1  'x, y, z'
loop_
 _atom_site_type_symbol
 _atom_site_label
 _atom_site_symmetry_multiplicity
 _atom_site_fract_x
 _atom_site_fract_y
 _atom_site_fract_z
 _atom_site_occupancy
  Na  Na0  1  0.751632  0.751632  0.745105  1
  Nd  Nd1  1  0.503223  0.503223  0.490331  1
  Ga  Ga2  1  0.123861  0.123861  0.628416  1
  Pt  Pt3  1  0.122280  0.122280  0.128716  1
  Pt  Pt4  1  0.626724  0.122280  0.128716  1
  Pt  Pt5  1  0.122280  0.626724  0.128716  1
