# generated using pymatgen
data_Ac5Pb3I
_symmetry_space_group_name_H-M   'P 1'
_cell_length_a   10.15972300
_cell_length_b   10.15972307
_cell_length_c   7.40813100
_cell_angle_alpha   90.00000000
_cell_angle_beta   90.00000000
_cell_angle_gamma   120.00000304
_symmetry_Int_Tables_number   1
_chemical_formula_structural   Ac5Pb3I
_chemical_formula_sum   'Ac10 Pb6 I2'
_cell_volume   662.22109219
_cell_formula_units_Z   2
loop_
 _symmetry_equiv_pos_site_id
 _symmetry_equiv_pos_as_xyz
  1  'x, y, z'
loop_
 _atom_site_type_symbol
 _atom_site_label
 _atom_site_symmetry_multiplicity
 _atom_site_fract_x
 _atom_site_fract_y
 _atom_site_fract_z
 _atom_site_occupancy
  Ac  Ac0  1  0.721430  0.721430  0.250000  1
  Ac  Ac1  1  0.333333  0.666667  0.500000  1
  Ac  Ac2  1  0.278570  0.278570  0.750000  1
  Ac  Ac3  1  0.000000  0.278570  0.250000  1
  Ac  Ac4  1  0.666667  0.333333  0.500000  1
  Ac  Ac5  1  0.278570  0.000000  0.250000  1
  Ac  Ac6  1  0.721430  0.000000  0.750000  1
  Ac  Ac7  1  0.333333  0.666667  0.000000  1
  Ac  Ac8  1  0.666667  0.333333  0.000000  1
  Ac  Ac9  1  0.000000  0.721430  0.750000  1
  Pb  Pb10  1  0.382805  0.382805  0.250000  1
  Pb  Pb11  1  0.617195  0.617195  0.750000  1
  Pb  Pb12  1  0.382805  0.000000  0.750000  1
  Pb  Pb13  1  0.000000  0.617195  0.250000  1
  Pb  Pb14  1  0.617195  0.000000  0.250000  1
  Pb  Pb15  1  0.000000  0.382805  0.750000  1
  I  I16  1  0.000000  0.000000  0.000000  1
  I  I17  1  0.000000  0.000000  0.500000  1
