# generated using pymatgen
data_NaEu3Al8(SiGe)2
_symmetry_space_group_name_H-M   'P 1'
_cell_length_a   4.23746900
_cell_length_b   7.20811955
_cell_length_c   11.20956648
_cell_angle_alpha   90.11349006
_cell_angle_beta   90.00000000
_cell_angle_gamma   90.00000000
_symmetry_Int_Tables_number   1
_chemical_formula_structural   NaEu3Al8(SiGe)2
_chemical_formula_sum   'Na1 Eu3 Al8 Si2 Ge2'
_cell_volume   342.38637966
_cell_formula_units_Z   1
loop_
 _symmetry_equiv_pos_site_id
 _symmetry_equiv_pos_as_xyz
  1  'x, y, z'
loop_
 _atom_site_type_symbol
 _atom_site_label
 _atom_site_symmetry_multiplicity
 _atom_site_fract_x
 _atom_site_fract_y
 _atom_site_fract_z
 _atom_site_occupancy
  Na  Na0  1  0.250000  0.362973  0.633898  1
  Eu  Eu1  1  0.250000  0.855655  0.862008  1
  Eu  Eu2  1  0.750000  0.637558  0.359568  1
  Eu  Eu3  1  0.750000  0.139492  0.141922  1
  Al  Al4  1  0.250000  0.970211  0.340978  1
  Al  Al5  1  0.250000  0.469854  0.158587  1
  Al  Al6  1  0.750000  0.037614  0.656812  1
  Al  Al7  1  0.750000  0.526504  0.841663  1
  Al  Al8  1  0.250000  0.349498  0.939238  1
  Al  Al9  1  0.250000  0.849211  0.561592  1
  Al  Al10  1  0.750000  0.656327  0.062181  1
  Al  Al11  1  0.750000  0.156251  0.437306  1
  Si  Si12  1  0.250000  0.320835  0.356058  1
  Si  Si13  1  0.250000  0.820149  0.143569  1
  Ge  Ge14  1  0.750000  0.677218  0.640664  1
  Ge  Ge15  1  0.750000  0.170648  0.863957  1
