# generated using pymatgen
data_Nd2Ni11MoAs7
_symmetry_space_group_name_H-M   'P 1'
_cell_length_a   9.46683673
_cell_length_b   9.48309516
_cell_length_c   3.89842800
_cell_angle_alpha   90.00000000
_cell_angle_beta   90.00000000
_cell_angle_gamma   119.90123139
_symmetry_Int_Tables_number   1
_chemical_formula_structural   Nd2Ni11MoAs7
_chemical_formula_sum   'Nd2 Ni11 Mo1 As7'
_cell_volume   303.39367333
_cell_formula_units_Z   1
loop_
 _symmetry_equiv_pos_site_id
 _symmetry_equiv_pos_as_xyz
  1  'x, y, z'
loop_
 _atom_site_type_symbol
 _atom_site_label
 _atom_site_symmetry_multiplicity
 _atom_site_fract_x
 _atom_site_fract_y
 _atom_site_fract_z
 _atom_site_occupancy
  Nd  Nd0  1  0.332905  0.662188  0.000000  1
  Nd  Nd1  1  0.667348  0.333588  0.500001  1
  Ni  Ni2  1  0.433218  0.059081  0.000000  1
  Ni  Ni3  1  0.148418  0.278526  0.000000  1
  Ni  Ni4  1  0.944231  0.382314  0.000000  1
  Ni  Ni5  1  0.626890  0.567626  0.000000  1
  Ni  Ni6  1  0.128971  0.847680  0.000000  1
  Ni  Ni7  1  0.717132  0.871512  0.000000  1
  Ni  Ni8  1  0.903027  0.108659  0.500001  1
  Ni  Ni9  1  0.376534  0.429594  0.500001  1
  Ni  Ni10  1  0.050164  0.624032  0.500001  1
  Ni  Ni11  1  0.886444  0.785333  0.500001  1
  Ni  Ni12  1  0.576313  0.954154  0.500001  1
  Mo  Mo13  1  0.207610  0.097113  0.500001  1
  As  As14  1  0.993510  0.995810  0.000000  1
  As  As15  1  0.711031  0.114259  0.000000  1
  As  As16  1  0.405880  0.297195  0.000000  1
  As  As17  1  0.889803  0.599172  0.000000  1
  As  As18  1  0.102715  0.397224  0.500001  1
  As  As19  1  0.598247  0.704445  0.500001  1
  As  As20  1  0.299611  0.890494  0.500001  1
