# generated using pymatgen
data_Tm18InSnIr12
_symmetry_space_group_name_H-M   'P 1'
_cell_length_a   10.72048100
_cell_length_b   10.72048100
_cell_length_c   6.22025300
_cell_angle_alpha   90.00000000
_cell_angle_beta   90.00000000
_cell_angle_gamma   90.00000000
_symmetry_Int_Tables_number   1
_chemical_formula_structural   Tm18InSnIr12
_chemical_formula_sum   'Tm18 In1 Sn1 Ir12'
_cell_volume   714.88567102
_cell_formula_units_Z   1
loop_
 _symmetry_equiv_pos_site_id
 _symmetry_equiv_pos_as_xyz
  1  'x, y, z'
loop_
 _atom_site_type_symbol
 _atom_site_label
 _atom_site_symmetry_multiplicity
 _atom_site_fract_x
 _atom_site_fract_y
 _atom_site_fract_z
 _atom_site_occupancy
  Tm  Tm0  1  0.285442  0.084913  0.378712  1
  Tm  Tm1  1  0.292537  0.911641  0.877851  1
  Tm  Tm2  1  0.707463  0.088359  0.877851  1
  Tm  Tm3  1  0.714558  0.915087  0.378712  1
  Tm  Tm4  1  0.585138  0.786825  0.879384  1
  Tm  Tm5  1  0.588415  0.207206  0.378184  1
  Tm  Tm6  1  0.411585  0.792794  0.378184  1
  Tm  Tm7  1  0.414862  0.213175  0.879384  1
  Tm  Tm8  1  0.207206  0.411585  0.621816  1
  Tm  Tm9  1  0.213175  0.585138  0.120616  1
  Tm  Tm10  1  0.786825  0.414862  0.120616  1
  Tm  Tm11  1  0.792794  0.588415  0.621816  1
  Tm  Tm12  1  0.911641  0.707463  0.122149  1
  Tm  Tm13  1  0.915087  0.285442  0.621288  1
  Tm  Tm14  1  0.084913  0.714558  0.621288  1
  Tm  Tm15  1  0.088359  0.292537  0.122149  1
  Tm  Tm16  1  0.000000  0.000000  0.000000  1
  Tm  Tm17  1  0.500000  0.500000  0.500000  1
  In  In18  1  0.000000  0.000000  0.500000  1
  Sn  Sn19  1  0.500000  0.500000  0.000000  1
  Ir  Ir20  1  0.845952  0.158899  0.240967  1
  Ir  Ir21  1  0.841101  0.845952  0.759033  1
  Ir  Ir22  1  0.158899  0.154048  0.759033  1
  Ir  Ir23  1  0.154048  0.841101  0.240967  1
  Ir  Ir24  1  0.656907  0.346750  0.744476  1
  Ir  Ir25  1  0.653250  0.656907  0.255524  1
  Ir  Ir26  1  0.346750  0.343093  0.255524  1
  Ir  Ir27  1  0.343093  0.653250  0.744476  1
  Ir  Ir28  1  0.500000  0.000000  0.123479  1
  Ir  Ir29  1  0.500000  0.000000  0.622752  1
  Ir  Ir30  1  0.000000  0.500000  0.876521  1
  Ir  Ir31  1  0.000000  0.500000  0.377248  1
