# generated using pymatgen
data_Sc12Co(Si4Au)3
_symmetry_space_group_name_H-M   'P 1'
_cell_length_a   4.04678000
_cell_length_b   10.34547012
_cell_length_c   11.77037311
_cell_angle_alpha   90.23976101
_cell_angle_beta   90.00000000
_cell_angle_gamma   90.00000000
_symmetry_Int_Tables_number   1
_chemical_formula_structural   Sc12Co(Si4Au)3
_chemical_formula_sum   'Sc12 Co1 Si12 Au3'
_cell_volume   492.77226151
_cell_formula_units_Z   1
loop_
 _symmetry_equiv_pos_site_id
 _symmetry_equiv_pos_as_xyz
  1  'x, y, z'
loop_
 _atom_site_type_symbol
 _atom_site_label
 _atom_site_symmetry_multiplicity
 _atom_site_fract_x
 _atom_site_fract_y
 _atom_site_fract_z
 _atom_site_occupancy
  Sc  Sc0  1  0.250000  0.873979  0.021205  1
  Sc  Sc1  1  0.250000  0.628930  0.524743  1
  Sc  Sc2  1  0.750000  0.118297  0.973461  1
  Sc  Sc3  1  0.750000  0.373357  0.479438  1
  Sc  Sc4  1  0.250000  0.921590  0.599508  1
  Sc  Sc5  1  0.250000  0.579924  0.094875  1
  Sc  Sc6  1  0.750000  0.078762  0.401809  1
  Sc  Sc7  1  0.750000  0.419747  0.899610  1
  Sc  Sc8  1  0.250000  0.669042  0.800506  1
  Sc  Sc9  1  0.250000  0.839167  0.302489  1
  Sc  Sc10  1  0.750000  0.339666  0.197050  1
  Sc  Sc11  1  0.750000  0.147523  0.701170  1
  Co  Co12  1  0.750000  0.889668  0.822483  1
  Si  Si13  1  0.250000  0.001587  0.824571  1
  Si  Si14  1  0.250000  0.476472  0.326900  1
  Si  Si15  1  0.750000  0.975716  0.175154  1
  Si  Si16  1  0.750000  0.529322  0.672097  1
  Si  Si17  1  0.250000  0.237427  0.847147  1
  Si  Si18  1  0.250000  0.252441  0.349303  1
  Si  Si19  1  0.750000  0.751755  0.149506  1
  Si  Si20  1  0.750000  0.760498  0.664345  1
  Si  Si21  1  0.250000  0.181880  0.542335  1
  Si  Si22  1  0.250000  0.319146  0.037374  1
  Si  Si23  1  0.750000  0.819581  0.463746  1
  Si  Si24  1  0.750000  0.699525  0.950103  1
  Au  Au25  1  0.250000  0.385777  0.680304  1
  Au  Au26  1  0.250000  0.114170  0.176375  1
  Au  Au27  1  0.750000  0.615050  0.322394  1
