# generated using pymatgen
data_YbHoGaIr2
_symmetry_space_group_name_H-M   'P 1'
_cell_length_a   5.69966674
_cell_length_b   5.69966647
_cell_length_c   7.71014670
_cell_angle_alpha   102.38297408
_cell_angle_beta   102.38297545
_cell_angle_gamma   57.76396506
_symmetry_Int_Tables_number   1
_chemical_formula_structural   YbHoGaIr2
_chemical_formula_sum   'Yb2 Ho2 Ga2 Ir4'
_cell_volume   205.41282100
_cell_formula_units_Z   2
loop_
 _symmetry_equiv_pos_site_id
 _symmetry_equiv_pos_as_xyz
  1  'x, y, z'
loop_
 _atom_site_type_symbol
 _atom_site_label
 _atom_site_symmetry_multiplicity
 _atom_site_fract_x
 _atom_site_fract_y
 _atom_site_fract_z
 _atom_site_occupancy
  Yb  Yb0  1  0.500331  0.790665  0.645176  1
  Yb  Yb1  1  0.209335  0.499669  0.854824  1
  Ho  Ho2  1  0.792520  0.497194  0.145343  1
  Ho  Ho3  1  0.502806  0.207480  0.354656  1
  Ga  Ga4  1  0.118249  0.881751  0.249999  1
  Ga  Ga5  1  0.891850  0.108150  0.750000  1
  Ir  Ir6  1  0.287943  0.996899  0.018161  1
  Ir  Ir7  1  0.003100  0.712057  0.481839  1
  Ir  Ir8  1  0.979865  0.285999  0.507277  1
  Ir  Ir9  1  0.714000  0.020134  0.992724  1
