# generated using pymatgen
data_NaSm2(B3Rh4)2
_symmetry_space_group_name_H-M   'P 1'
_cell_length_a   9.88412012
_cell_length_b   9.03000296
_cell_length_c   5.60875970
_cell_angle_alpha   81.31061027
_cell_angle_beta   64.56867313
_cell_angle_gamma   34.12070766
_symmetry_Int_Tables_number   1
_chemical_formula_structural   NaSm2(B3Rh4)2
_chemical_formula_sum   'Na1 Sm2 B6 Rh8'
_cell_volume   232.03118602
_cell_formula_units_Z   1
loop_
 _symmetry_equiv_pos_site_id
 _symmetry_equiv_pos_as_xyz
  1  'x, y, z'
loop_
 _atom_site_type_symbol
 _atom_site_label
 _atom_site_symmetry_multiplicity
 _atom_site_fract_x
 _atom_site_fract_y
 _atom_site_fract_z
 _atom_site_occupancy
  Na  Na0  1  0.687084  0.687084  0.312916  1
  Sm  Sm1  1  0.316040  0.316040  0.683960  1
  Sm  Sm2  1  0.508380  0.508380  0.491620  1
  B  B3  1  0.668024  0.984133  0.015867  1
  B  B4  1  0.984133  0.668024  0.331976  1
  B  B5  1  0.329999  0.011860  0.988140  1
  B  B6  1  0.011860  0.329999  0.670001  1
  B  B7  1  0.167235  0.831618  0.168382  1
  B  B8  1  0.831618  0.167235  0.832765  1
  Rh  Rh9  1  0.585324  0.585324  0.914676  1
  Rh  Rh10  1  0.913410  0.913410  0.086590  1
  Rh  Rh11  1  0.414300  0.414300  0.085700  1
  Rh  Rh12  1  0.085324  0.085324  0.414676  1
  Rh  Rh13  1  0.914300  0.914300  0.585700  1
  Rh  Rh14  1  0.248134  0.248134  0.251866  1
  Rh  Rh15  1  0.086700  0.086700  0.913300  1
  Rh  Rh16  1  0.748134  0.748134  0.751866  1
