# generated using pymatgen
data_Pr17Tm3Ga11Ge
_symmetry_space_group_name_H-M   'P 1'
_cell_length_a   7.85515700
_cell_length_b   7.85515700
_cell_length_c   14.75474800
_cell_angle_alpha   90.00000000
_cell_angle_beta   90.00000000
_cell_angle_gamma   90.00000000
_symmetry_Int_Tables_number   1
_chemical_formula_structural   Pr17Tm3Ga11Ge
_chemical_formula_sum   'Pr17 Tm3 Ga11 Ge1'
_cell_volume   910.41946772
_cell_formula_units_Z   1
loop_
 _symmetry_equiv_pos_site_id
 _symmetry_equiv_pos_as_xyz
  1  'x, y, z'
loop_
 _atom_site_type_symbol
 _atom_site_label
 _atom_site_symmetry_multiplicity
 _atom_site_fract_x
 _atom_site_fract_y
 _atom_site_fract_z
 _atom_site_occupancy
  Pr  Pr0  1  0.811475  0.841964  0.603167  1
  Pr  Pr1  1  0.182939  0.838705  0.104219  1
  Pr  Pr2  1  0.163100  0.817781  0.396124  1
  Pr  Pr3  1  0.836900  0.182219  0.396124  1
  Pr  Pr4  1  0.682219  0.663100  0.396124  1
  Pr  Pr5  1  0.658036  0.311475  0.603167  1
  Pr  Pr6  1  0.341964  0.688525  0.603167  1
  Pr  Pr7  1  0.661295  0.682939  0.104219  1
  Pr  Pr8  1  0.686770  0.344315  0.896017  1
  Pr  Pr9  1  0.844315  0.813230  0.896017  1
  Pr  Pr10  1  0.317781  0.336900  0.396124  1
  Pr  Pr11  1  0.188525  0.158036  0.603167  1
  Pr  Pr12  1  0.817061  0.161295  0.104219  1
  Pr  Pr13  1  0.313230  0.655685  0.896017  1
  Pr  Pr14  1  0.338705  0.317061  0.104219  1
  Pr  Pr15  1  0.155685  0.186770  0.896017  1
  Pr  Pr16  1  0.500000  0.000000  0.789569  1
  Tm  Tm17  1  0.000000  0.500000  0.720826  1
  Tm  Tm18  1  0.000000  0.500000  0.226987  1
  Tm  Tm19  1  0.500000  0.000000  0.271053  1
  Ga  Ga20  1  0.622229  0.377637  0.250531  1
  Ga  Ga21  1  0.117143  0.875120  0.747217  1
  Ga  Ga22  1  0.375120  0.382857  0.747217  1
  Ga  Ga23  1  0.377771  0.622363  0.250531  1
  Ga  Ga24  1  0.877637  0.877771  0.250531  1
  Ga  Ga25  1  0.624880  0.617143  0.747217  1
  Ga  Ga26  1  0.000000  0.500000  0.512442  1
  Ga  Ga27  1  0.882857  0.124880  0.747217  1
  Ga  Ga28  1  0.500000  0.000000  0.997103  1
  Ga  Ga29  1  0.122363  0.122229  0.250531  1
  Ga  Ga30  1  0.000000  0.500000  0.014176  1
  Ge  Ge31  1  0.500000  0.000000  0.478739  1
