# generated using pymatgen
data_Lu2Al8SiIrRh2
_symmetry_space_group_name_H-M   'P 1'
_cell_length_a   7.50038933
_cell_length_b   7.50039013
_cell_length_c   9.29200404
_cell_angle_alpha   89.99442072
_cell_angle_beta   89.99442413
_cell_angle_gamma   119.53411629
_symmetry_Int_Tables_number   1
_chemical_formula_structural   Lu2Al8SiIrRh2
_chemical_formula_sum   'Lu4 Al16 Si2 Ir2 Rh4'
_cell_volume   454.80728233
_cell_formula_units_Z   2
loop_
 _symmetry_equiv_pos_site_id
 _symmetry_equiv_pos_as_xyz
  1  'x, y, z'
loop_
 _atom_site_type_symbol
 _atom_site_label
 _atom_site_symmetry_multiplicity
 _atom_site_fract_x
 _atom_site_fract_y
 _atom_site_fract_z
 _atom_site_occupancy
  Lu  Lu0  1  0.995213  0.675273  0.250452  1
  Lu  Lu1  1  0.004787  0.324727  0.749548  1
  Lu  Lu2  1  0.675273  0.995213  0.250452  1
  Lu  Lu3  1  0.324727  0.004787  0.749548  1
  Al  Al4  1  0.000446  0.335909  0.077285  1
  Al  Al5  1  0.999554  0.664091  0.922715  1
  Al  Al6  1  0.998944  0.663975  0.577505  1
  Al  Al7  1  0.336025  0.001056  0.422495  1
  Al  Al8  1  0.001056  0.336025  0.422495  1
  Al  Al9  1  0.663975  0.998944  0.577505  1
  Al  Al10  1  0.664091  0.999554  0.922715  1
  Al  Al11  1  0.335909  0.000446  0.077285  1
  Al  Al12  1  0.334715  0.334715  0.558724  1
  Al  Al13  1  0.665285  0.665285  0.441276  1
  Al  Al14  1  0.665241  0.665241  0.058956  1
  Al  Al15  1  0.334759  0.334759  0.941044  1
  Al  Al16  1  0.335088  0.549334  0.249067  1
  Al  Al17  1  0.664912  0.450666  0.750933  1
  Al  Al18  1  0.549334  0.335088  0.249067  1
  Al  Al19  1  0.450666  0.664912  0.750933  1
  Si  Si20  1  0.126731  0.126731  0.250032  1
  Si  Si21  1  0.873269  0.873269  0.749968  1
  Ir  Ir22  1  0.327699  0.672301  0.500000  1
  Ir  Ir23  1  0.672301  0.327699  0.500000  1
  Rh  Rh24  1  0.672275  0.327725  0.000000  1
  Rh  Rh25  1  0.327725  0.672275  0.000000  1
  Rh  Rh26  1  0.000000  0.000000  0.000000  1
  Rh  Rh27  1  0.000000  0.000000  0.500000  1
