# generated using pymatgen
data_Y5Ta3(Co4P3)4
_symmetry_space_group_name_H-M   'P 1'
_cell_length_a   12.18074700
_cell_length_b   12.18074596
_cell_length_c   3.70050300
_cell_angle_alpha   90.00000000
_cell_angle_beta   90.00000000
_cell_angle_gamma   119.99999469
_symmetry_Int_Tables_number   1
_chemical_formula_structural   Y5Ta3(Co4P3)4
_chemical_formula_sum   'Y5 Ta3 Co16 P12'
_cell_volume   475.48763093
_cell_formula_units_Z   1
loop_
 _symmetry_equiv_pos_site_id
 _symmetry_equiv_pos_as_xyz
  1  'x, y, z'
loop_
 _atom_site_type_symbol
 _atom_site_label
 _atom_site_symmetry_multiplicity
 _atom_site_fract_x
 _atom_site_fract_y
 _atom_site_fract_z
 _atom_site_occupancy
  Y  Y0  1  0.816250  0.000000  0.500000  1
  Y  Y1  1  0.000000  0.816250  0.500000  1
  Y  Y2  1  0.183750  0.183750  0.500000  1
  Y  Y3  1  0.333333  0.666667  0.000000  1
  Y  Y4  1  0.666667  0.333333  0.000000  1
  Ta  Ta5  1  0.443390  0.000000  0.000000  1
  Ta  Ta6  1  0.000000  0.443390  0.000000  1
  Ta  Ta7  1  0.556610  0.556610  0.000000  1
  Co  Co8  1  0.280421  0.000000  0.500000  1
  Co  Co9  1  0.000000  0.280421  0.500000  1
  Co  Co10  1  0.719579  0.719579  0.500000  1
  Co  Co11  1  0.625633  0.802209  0.000000  1
  Co  Co12  1  0.197791  0.823424  0.000000  1
  Co  Co13  1  0.176576  0.374367  0.000000  1
  Co  Co14  1  0.374367  0.176576  0.000000  1
  Co  Co15  1  0.802209  0.625633  0.000000  1
  Co  Co16  1  0.823424  0.197791  0.000000  1
  Co  Co17  1  0.518766  0.873721  0.500000  1
  Co  Co18  1  0.126279  0.645045  0.500000  1
  Co  Co19  1  0.354955  0.481234  0.500000  1
  Co  Co20  1  0.481234  0.354955  0.500000  1
  Co  Co21  1  0.873721  0.518766  0.500000  1
  Co  Co22  1  0.645045  0.126279  0.500000  1
  Co  Co23  1  0.000000  0.000000  0.000000  1
  P  P24  1  0.177848  0.000000  0.000000  1
  P  P25  1  0.000000  0.177848  0.000000  1
  P  P26  1  0.822152  0.822152  0.000000  1
  P  P27  1  0.520487  0.688507  0.500000  1
  P  P28  1  0.311493  0.831979  0.500000  1
  P  P29  1  0.168021  0.479513  0.500000  1
  P  P30  1  0.479513  0.168021  0.500000  1
  P  P31  1  0.688507  0.520487  0.500000  1
  P  P32  1  0.831979  0.311493  0.500000  1
  P  P33  1  0.643883  0.000000  0.000000  1
  P  P34  1  0.000000  0.643883  0.000000  1
  P  P35  1  0.356117  0.356117  0.000000  1
