# generated using pymatgen
data_CsTlSe12
_symmetry_space_group_name_H-M   'P 1'
_cell_length_a   11.39885611
_cell_length_b   11.39885618
_cell_length_c   11.39877375
_cell_angle_alpha   129.52797214
_cell_angle_beta   120.58913210
_cell_angle_gamma   81.64390957
_symmetry_Int_Tables_number   1
_chemical_formula_structural   CsTlSe12
_chemical_formula_sum   'Cs2 Tl2 Se24'
_cell_volume   947.18284401
_cell_formula_units_Z   2
loop_
 _symmetry_equiv_pos_site_id
 _symmetry_equiv_pos_as_xyz
  1  'x, y, z'
loop_
 _atom_site_type_symbol
 _atom_site_label
 _atom_site_symmetry_multiplicity
 _atom_site_fract_x
 _atom_site_fract_y
 _atom_site_fract_z
 _atom_site_occupancy
  Cs  Cs0  1  0.500000  0.500000  0.000000  1
  Cs  Cs1  1  0.000000  0.000000  0.000000  1
  Tl  Tl2  1  0.749999  0.249999  0.500000  1
  Tl  Tl3  1  0.250001  0.750001  0.500000  1
  Se  Se4  1  0.646776  0.749996  0.896775  1
  Se  Se5  1  0.853221  0.750001  0.103225  1
  Se  Se6  1  0.353224  0.250004  0.103225  1
  Se  Se7  1  0.146779  0.249999  0.896775  1
  Se  Se8  1  0.232443  0.123970  0.664369  1
  Se  Se9  1  0.267543  0.931924  0.891518  1
  Se  Se10  1  0.040404  0.376024  0.108482  1
  Se  Se11  1  0.459602  0.568074  0.335631  1
  Se  Se12  1  0.767557  0.876030  0.335631  1
  Se  Se13  1  0.732457  0.068076  0.108482  1
  Se  Se14  1  0.959596  0.623976  0.891518  1
  Se  Se15  1  0.540398  0.431926  0.664369  1
  Se  Se16  1  0.924592  0.824578  0.525365  1
  Se  Se17  1  0.575417  0.100780  0.900000  1
  Se  Se18  1  0.200782  0.675418  0.100000  1
  Se  Se19  1  0.299211  0.399225  0.474635  1
  Se  Se20  1  0.075408  0.175422  0.474635  1
  Se  Se21  1  0.424583  0.899220  0.100000  1
  Se  Se22  1  0.799219  0.324582  0.900000  1
  Se  Se23  1  0.700789  0.600775  0.525365  1
  Se  Se24  1  0.672694  0.067856  0.740550  1
  Se  Se25  1  0.827312  0.567852  0.395164  1
  Se  Se26  1  0.172688  0.432148  0.604836  1
  Se  Se27  1  0.327306  0.932144  0.259450  1
