# generated using pymatgen
data_Th14FeNi5
_symmetry_space_group_name_H-M   'P 1'
_cell_length_a   9.81453630
_cell_length_b   9.81453653
_cell_length_c   6.24698047
_cell_angle_alpha   90.11832179
_cell_angle_beta   89.88168131
_cell_angle_gamma   119.85288559
_symmetry_Int_Tables_number   1
_chemical_formula_structural   Th14FeNi5
_chemical_formula_sum   'Th14 Fe1 Ni5'
_cell_volume   521.89246356
_cell_formula_units_Z   1
loop_
 _symmetry_equiv_pos_site_id
 _symmetry_equiv_pos_as_xyz
  1  'x, y, z'
loop_
 _atom_site_type_symbol
 _atom_site_label
 _atom_site_symmetry_multiplicity
 _atom_site_fract_x
 _atom_site_fract_y
 _atom_site_fract_z
 _atom_site_occupancy
  Th  Th0  1  0.331041  0.668959  0.065112  1
  Th  Th1  1  0.667301  0.332699  0.570988  1
  Th  Th2  1  0.128598  0.871402  0.232509  1
  Th  Th3  1  0.251649  0.119429  0.739562  1
  Th  Th4  1  0.880571  0.748351  0.739562  1
  Th  Th5  1  0.127120  0.254992  0.240843  1
  Th  Th6  1  0.745008  0.872880  0.240843  1
  Th  Th7  1  0.873396  0.126604  0.740343  1
  Th  Th8  1  0.543491  0.456509  0.038944  1
  Th  Th9  1  0.091221  0.549497  0.543655  1
  Th  Th10  1  0.450503  0.908779  0.543655  1
  Th  Th11  1  0.543125  0.087782  0.040937  1
  Th  Th12  1  0.912218  0.456875  0.040937  1
  Th  Th13  1  0.456710  0.543290  0.541092  1
  Fe  Fe14  1  0.183020  0.816980  0.799799  1
  Ni  Ni15  1  0.814161  0.185839  0.309419  1
  Ni  Ni16  1  0.629246  0.813272  0.809046  1
  Ni  Ni17  1  0.186728  0.370754  0.809046  1
  Ni  Ni18  1  0.811386  0.626492  0.306854  1
  Ni  Ni19  1  0.373508  0.188614  0.306854  1
