# generated using pymatgen
data_Ti4VIr3
_symmetry_space_group_name_H-M   'P 1'
_cell_length_a   6.20377400
_cell_length_b   4.39570700
_cell_length_c   8.77872700
_cell_angle_alpha   90.00000000
_cell_angle_beta   90.00001847
_cell_angle_gamma   90.00000000
_symmetry_Int_Tables_number   1
_chemical_formula_structural   Ti4VIr3
_chemical_formula_sum   'Ti8 V2 Ir6'
_cell_volume   239.39564649
_cell_formula_units_Z   2
loop_
 _symmetry_equiv_pos_site_id
 _symmetry_equiv_pos_as_xyz
  1  'x, y, z'
loop_
 _atom_site_type_symbol
 _atom_site_label
 _atom_site_symmetry_multiplicity
 _atom_site_fract_x
 _atom_site_fract_y
 _atom_site_fract_z
 _atom_site_occupancy
  Ti  Ti0  1  0.997667  0.749999  0.128365  1
  Ti  Ti1  1  0.502353  0.749999  0.128363  1
  Ti  Ti2  1  0.002408  0.249999  0.371662  1
  Ti  Ti3  1  0.497612  0.249999  0.371660  1
  Ti  Ti4  1  0.495127  0.749999  0.618698  1
  Ti  Ti5  1  0.004856  0.749999  0.618703  1
  Ti  Ti6  1  0.504906  0.249999  0.881280  1
  Ti  Ti7  1  0.995075  0.249999  0.881283  1
  V  V8  1  0.750004  0.249999  0.121833  1
  V  V9  1  0.250011  0.749999  0.378145  1
  Ir  Ir10  1  0.749993  0.249999  0.626815  1
  Ir  Ir11  1  0.249994  0.749999  0.873188  1
  Ir  Ir12  1  0.250009  0.249999  0.124965  1
  Ir  Ir13  1  0.750007  0.749999  0.375062  1
  Ir  Ir14  1  0.249991  0.249999  0.627090  1
  Ir  Ir15  1  0.749989  0.749999  0.872888  1
