# generated using pymatgen
data_Dy15Tm(C2Cl3)4
_symmetry_space_group_name_H-M   'P 1'
_cell_length_a   3.65062800
_cell_length_b   10.49181170
_cell_length_c   19.67675531
_cell_angle_alpha   89.95813068
_cell_angle_beta   90.00000000
_cell_angle_gamma   90.00000000
_symmetry_Int_Tables_number   1
_chemical_formula_structural   Dy15Tm(C2Cl3)4
_chemical_formula_sum   'Dy15 Tm1 C8 Cl12'
_cell_volume   753.65300854
_cell_formula_units_Z   1
loop_
 _symmetry_equiv_pos_site_id
 _symmetry_equiv_pos_as_xyz
  1  'x, y, z'
loop_
 _atom_site_type_symbol
 _atom_site_label
 _atom_site_symmetry_multiplicity
 _atom_site_fract_x
 _atom_site_fract_y
 _atom_site_fract_z
 _atom_site_occupancy
  Dy  Dy0  1  0.250000  0.862310  0.573830  1
  Dy  Dy1  1  0.750000  0.137574  0.426050  1
  Dy  Dy2  1  0.750000  0.636853  0.073952  1
  Dy  Dy3  1  0.250000  0.362304  0.926209  1
  Dy  Dy4  1  0.250000  0.863607  0.744457  1
  Dy  Dy5  1  0.750000  0.136082  0.255304  1
  Dy  Dy6  1  0.750000  0.636149  0.244297  1
  Dy  Dy7  1  0.250000  0.363858  0.755525  1
  Dy  Dy8  1  0.250000  0.874697  0.164738  1
  Dy  Dy9  1  0.750000  0.125565  0.835310  1
  Dy  Dy10  1  0.750000  0.625450  0.664693  1
  Dy  Dy11  1  0.250000  0.373882  0.334783  1
  Dy  Dy12  1  0.250000  0.898228  0.332207  1
  Dy  Dy13  1  0.750000  0.101677  0.667793  1
  Dy  Dy14  1  0.750000  0.601780  0.832211  1
  Tm  Tm15  1  0.250000  0.399698  0.169102  1
  C  C16  1  0.250000  0.613084  0.750214  1
  C  C17  1  0.750000  0.387215  0.248508  1
  C  C18  1  0.750000  0.886426  0.249993  1
  C  C19  1  0.250000  0.112972  0.749804  1
  C  C20  1  0.250000  0.632870  0.152639  1
  C  C21  1  0.750000  0.364727  0.847519  1
  C  C22  1  0.750000  0.864931  0.652554  1
  C  C23  1  0.250000  0.135734  0.347174  1
  Cl  Cl24  1  0.250000  0.613776  0.555121  1
  Cl  Cl25  1  0.750000  0.386316  0.444440  1
  Cl  Cl26  1  0.750000  0.885877  0.055250  1
  Cl  Cl27  1  0.250000  0.113779  0.944913  1
  Cl  Cl28  1  0.250000  0.622588  0.952990  1
  Cl  Cl29  1  0.750000  0.377188  0.048615  1
  Cl  Cl30  1  0.750000  0.877170  0.452768  1
  Cl  Cl31  1  0.250000  0.122779  0.547033  1
  Cl  Cl32  1  0.250000  0.637744  0.354809  1
  Cl  Cl33  1  0.750000  0.361908  0.645087  1
  Cl  Cl34  1  0.750000  0.861899  0.854957  1
  Cl  Cl35  1  0.250000  0.141303  0.145150  1
