# generated using pymatgen
data_Tb2DyZnCd3Ga2
_symmetry_space_group_name_H-M   'P 1'
_cell_length_a   7.32489111
_cell_length_b   7.34045396
_cell_length_c   4.32984500
_cell_angle_alpha   90.00000000
_cell_angle_beta   90.00000000
_cell_angle_gamma   120.07031635
_symmetry_Int_Tables_number   1
_chemical_formula_structural   Tb2DyZnCd3Ga2
_chemical_formula_sum   'Tb2 Dy1 Zn1 Cd3 Ga2'
_cell_volume   201.47395700
_cell_formula_units_Z   1
loop_
 _symmetry_equiv_pos_site_id
 _symmetry_equiv_pos_as_xyz
  1  'x, y, z'
loop_
 _atom_site_type_symbol
 _atom_site_label
 _atom_site_symmetry_multiplicity
 _atom_site_fract_x
 _atom_site_fract_y
 _atom_site_fract_z
 _atom_site_occupancy
  Tb  Tb0  1  0.419790  0.420090  0.500000  1
  Tb  Tb1  1  0.580210  0.000300  0.500000  1
  Dy  Dy2  1  0.000000  0.580008  0.500000  1
  Zn  Zn3  1  0.000000  0.999447  0.500000  1
  Cd  Cd4  1  0.752685  0.752440  0.000000  1
  Cd  Cd5  1  0.247315  0.999755  0.000000  1
  Cd  Cd6  1  0.000000  0.247794  0.000000  1
  Ga  Ga7  1  0.667164  0.333665  0.000000  1
  Ga  Ga8  1  0.332836  0.666503  0.000000  1
