# generated using pymatgen
data_DyYInIr2
_symmetry_space_group_name_H-M   'P 1'
_cell_length_a   5.57475394
_cell_length_b   5.57475442
_cell_length_c   5.57475381
_cell_angle_alpha   133.17450921
_cell_angle_beta   115.77450393
_cell_angle_gamma   83.16254184
_symmetry_Int_Tables_number   1
_chemical_formula_structural   DyYInIr2
_chemical_formula_sum   'Dy1 Y1 In1 Ir2'
_cell_volume   109.49576229
_cell_formula_units_Z   1
loop_
 _symmetry_equiv_pos_site_id
 _symmetry_equiv_pos_as_xyz
  1  'x, y, z'
loop_
 _atom_site_type_symbol
 _atom_site_label
 _atom_site_symmetry_multiplicity
 _atom_site_fract_x
 _atom_site_fract_y
 _atom_site_fract_z
 _atom_site_occupancy
  Dy  Dy0  1  0.705104  0.205105  0.500000  1
  Y  Y1  1  0.294884  0.794884  0.500000  1
  In  In2  1  0.999990  0.999990  0.000000  1
  Ir  Ir3  1  0.718462  0.500010  0.218452  1
  Ir  Ir4  1  0.281558  0.500010  0.781548  1
