# generated using pymatgen
data_YbAs4(RuRh)3
_symmetry_space_group_name_H-M   'P 1'
_cell_length_a   7.21208200
_cell_length_b   7.21208267
_cell_length_c   3.83838900
_cell_angle_alpha   90.00000000
_cell_angle_beta   90.00000000
_cell_angle_gamma   119.99999693
_symmetry_Int_Tables_number   1
_chemical_formula_structural   YbAs4(RuRh)3
_chemical_formula_sum   'Yb1 As4 Ru3 Rh3'
_cell_volume   172.90238478
_cell_formula_units_Z   1
loop_
 _symmetry_equiv_pos_site_id
 _symmetry_equiv_pos_as_xyz
  1  'x, y, z'
loop_
 _atom_site_type_symbol
 _atom_site_label
 _atom_site_symmetry_multiplicity
 _atom_site_fract_x
 _atom_site_fract_y
 _atom_site_fract_z
 _atom_site_occupancy
  Yb  Yb0  1  0.000000  0.000000  0.000000  1
  As  As1  1  0.807649  0.615297  0.500000  1
  As  As2  1  0.333333  0.666667  0.000000  1
  As  As3  1  0.384703  0.192351  0.500000  1
  As  As4  1  0.807649  0.192351  0.500000  1
  Ru  Ru5  1  0.534693  0.069387  0.000000  1
  Ru  Ru6  1  0.534693  0.465307  0.000000  1
  Ru  Ru7  1  0.930613  0.465307  0.000000  1
  Rh  Rh8  1  0.604226  0.802113  0.500000  1
  Rh  Rh9  1  0.197887  0.395774  0.500000  1
  Rh  Rh10  1  0.197887  0.802113  0.500000  1
