# generated using pymatgen
data_U6Sn6IrRh5
_symmetry_space_group_name_H-M   'P 1'
_cell_length_a   7.35965000
_cell_length_b   7.35964968
_cell_length_c   8.15812800
_cell_angle_alpha   90.00000000
_cell_angle_beta   90.00000000
_cell_angle_gamma   120.00000135
_symmetry_Int_Tables_number   1
_chemical_formula_structural   U6Sn6IrRh5
_chemical_formula_sum   'U6 Sn6 Ir1 Rh5'
_cell_volume   382.67971737
_cell_formula_units_Z   1
loop_
 _symmetry_equiv_pos_site_id
 _symmetry_equiv_pos_as_xyz
  1  'x, y, z'
loop_
 _atom_site_type_symbol
 _atom_site_label
 _atom_site_symmetry_multiplicity
 _atom_site_fract_x
 _atom_site_fract_y
 _atom_site_fract_z
 _atom_site_occupancy
  U  U0  1  0.580956  0.003934  0.751349  1
  U  U1  1  0.422979  0.419044  0.751349  1
  U  U2  1  0.996066  0.577021  0.751349  1
  U  U3  1  0.579989  0.002112  0.249075  1
  U  U4  1  0.422122  0.420011  0.249075  1
  U  U5  1  0.997888  0.577878  0.249075  1
  Sn  Sn6  1  0.249320  0.997199  0.000285  1
  Sn  Sn7  1  0.747999  0.748953  0.500293  1
  Sn  Sn8  1  0.000954  0.252001  0.500293  1
  Sn  Sn9  1  0.002801  0.252123  0.000285  1
  Sn  Sn10  1  0.747877  0.750680  0.000285  1
  Sn  Sn11  1  0.251047  0.999046  0.500293  1
  Ir  Ir12  1  0.666667  0.333333  0.999784  1
  Rh  Rh13  1  0.666667  0.333333  0.500371  1
  Rh  Rh14  1  0.333333  0.666667  0.000669  1
  Rh  Rh15  1  0.333333  0.666667  0.495318  1
  Rh  Rh16  1  0.000000  0.000000  0.750767  1
  Rh  Rh17  1  0.000000  0.000000  0.250084  1
