# generated using pymatgen
data_Dy5GaSeO12
_symmetry_space_group_name_H-M   'P 1'
_cell_length_a   6.86130993
_cell_length_b   6.86130907
_cell_length_c   7.20894600
_cell_angle_alpha   74.52413346
_cell_angle_beta   74.52413544
_cell_angle_gamma   50.67630104
_symmetry_Int_Tables_number   1
_chemical_formula_structural   Dy5GaSeO12
_chemical_formula_sum   'Dy5 Ga1 Se1 O12'
_cell_volume   250.83404877
_cell_formula_units_Z   1
loop_
 _symmetry_equiv_pos_site_id
 _symmetry_equiv_pos_as_xyz
  1  'x, y, z'
loop_
 _atom_site_type_symbol
 _atom_site_label
 _atom_site_symmetry_multiplicity
 _atom_site_fract_x
 _atom_site_fract_y
 _atom_site_fract_z
 _atom_site_occupancy
  Dy  Dy0  1  0.310106  0.293446  0.359337  1
  Dy  Dy1  1  0.706554  0.689894  0.640663  1
  Dy  Dy2  1  0.300536  0.307824  0.835135  1
  Dy  Dy3  1  0.692176  0.699464  0.164865  1
  Dy  Dy4  1  0.019955  0.980045  0.500000  1
  Ga  Ga5  1  0.754367  0.245633  0.000000  1
  Se  Se6  1  0.240112  0.759888  0.000000  1
  O  O7  1  0.896085  0.430743  0.921266  1
  O  O8  1  0.407802  0.899133  0.921221  1
  O  O9  1  0.100867  0.592198  0.078779  1
  O  O10  1  0.569257  0.103915  0.078734  1
  O  O11  1  0.102657  0.591069  0.572929  1
  O  O12  1  0.604099  0.089219  0.579894  1
  O  O13  1  0.910781  0.395901  0.420106  1
  O  O14  1  0.408931  0.897343  0.427071  1
  O  O15  1  0.019428  0.980415  0.822661  1
  O  O16  1  0.019585  0.980572  0.177339  1
  O  O17  1  0.467950  0.531248  0.819690  1
  O  O18  1  0.468752  0.532050  0.180310  1
