# generated using pymatgen
data_Y2CoH6
_symmetry_space_group_name_H-M   'P 1'
_cell_length_a   6.89995371
_cell_length_b   6.89995298
_cell_length_c   4.95985000
_cell_angle_alpha   90.00000000
_cell_angle_beta   90.00000000
_cell_angle_gamma   137.96294169
_symmetry_Int_Tables_number   1
_chemical_formula_structural   Y2CoH6
_chemical_formula_sum   'Y4 Co2 H12'
_cell_volume   158.11880036
_cell_formula_units_Z   2
loop_
 _symmetry_equiv_pos_site_id
 _symmetry_equiv_pos_as_xyz
  1  'x, y, z'
loop_
 _atom_site_type_symbol
 _atom_site_label
 _atom_site_symmetry_multiplicity
 _atom_site_fract_x
 _atom_site_fract_y
 _atom_site_fract_z
 _atom_site_occupancy
  Y  Y0  1  0.139287  0.860713  0.500000  1
  Y  Y1  1  0.639287  0.360713  0.000000  1
  Y  Y2  1  0.860713  0.139287  0.500000  1
  Y  Y3  1  0.360713  0.639287  0.000000  1
  Co  Co4  1  0.500000  0.500000  0.500000  1
  Co  Co5  1  0.000000  0.000000  0.000000  1
  H  H6  1  0.000040  0.500040  0.750000  1
  H  H7  1  0.499960  0.999960  0.250000  1
  H  H8  1  0.999960  0.499960  0.250000  1
  H  H9  1  0.500040  0.000040  0.750000  1
  H  H10  1  0.375637  0.624363  0.500000  1
  H  H11  1  0.875637  0.124363  0.000000  1
  H  H12  1  0.624363  0.375637  0.500000  1
  H  H13  1  0.124363  0.875637  0.000000  1
  H  H14  1  0.250344  0.250344  0.749918  1
  H  H15  1  0.749656  0.749656  0.250082  1
  H  H16  1  0.249656  0.249656  0.249918  1
  H  H17  1  0.750344  0.750344  0.750082  1
