# generated using pymatgen
data_Ca2Pr17TmGa12
_symmetry_space_group_name_H-M   'P 1'
_cell_length_a   7.92068700
_cell_length_b   7.92068700
_cell_length_c   14.65089900
_cell_angle_alpha   90.00000000
_cell_angle_beta   90.00000000
_cell_angle_gamma   90.00000000
_symmetry_Int_Tables_number   1
_chemical_formula_structural   Ca2Pr17TmGa12
_chemical_formula_sum   'Ca2 Pr17 Tm1 Ga12'
_cell_volume   919.15759020
_cell_formula_units_Z   1
loop_
 _symmetry_equiv_pos_site_id
 _symmetry_equiv_pos_as_xyz
  1  'x, y, z'
loop_
 _atom_site_type_symbol
 _atom_site_label
 _atom_site_symmetry_multiplicity
 _atom_site_fract_x
 _atom_site_fract_y
 _atom_site_fract_z
 _atom_site_occupancy
  Ca  Ca0  1  0.000000  0.500000  0.239543  1
  Ca  Ca1  1  0.500000  0.000000  0.257080  1
  Pr  Pr2  1  0.818624  0.833683  0.603480  1
  Pr  Pr3  1  0.177291  0.833284  0.101156  1
  Pr  Pr4  1  0.167222  0.822440  0.397420  1
  Pr  Pr5  1  0.832778  0.177560  0.397420  1
  Pr  Pr6  1  0.677560  0.667222  0.397420  1
  Pr  Pr7  1  0.666317  0.318624  0.603480  1
  Pr  Pr8  1  0.333683  0.681376  0.603480  1
  Pr  Pr9  1  0.666716  0.677291  0.101156  1
  Pr  Pr10  1  0.681389  0.340418  0.896729  1
  Pr  Pr11  1  0.840418  0.818611  0.896729  1
  Pr  Pr12  1  0.322440  0.332778  0.397420  1
  Pr  Pr13  1  0.181376  0.166317  0.603480  1
  Pr  Pr14  1  0.822709  0.166716  0.101156  1
  Pr  Pr15  1  0.318611  0.659582  0.896729  1
  Pr  Pr16  1  0.333284  0.322709  0.101156  1
  Pr  Pr17  1  0.159582  0.181389  0.896729  1
  Pr  Pr18  1  0.500000  0.000000  0.785108  1
  Tm  Tm19  1  0.000000  0.500000  0.730680  1
  Ga  Ga20  1  0.617974  0.382675  0.249325  1
  Ga  Ga21  1  0.117338  0.876494  0.748509  1
  Ga  Ga22  1  0.376494  0.382662  0.748509  1
  Ga  Ga23  1  0.382026  0.617325  0.249325  1
  Ga  Ga24  1  0.882675  0.882026  0.249325  1
  Ga  Ga25  1  0.623506  0.617338  0.748509  1
  Ga  Ga26  1  0.000000  0.500000  0.507126  1
  Ga  Ga27  1  0.882662  0.123506  0.748509  1
  Ga  Ga28  1  0.500000  0.000000  0.490986  1
  Ga  Ga29  1  0.500000  0.000000  0.999227  1
  Ga  Ga30  1  0.117325  0.117974  0.249325  1
  Ga  Ga31  1  0.000000  0.500000  0.003775  1
