# generated using pymatgen
data_TcSe(BrF12)2
_symmetry_space_group_name_H-M   'P 1'
_cell_length_a   5.20205445
_cell_length_b   9.01330200
_cell_length_c   9.78193732
_cell_angle_alpha   90.00000000
_cell_angle_beta   89.63667892
_cell_angle_gamma   90.00000000
_symmetry_Int_Tables_number   1
_chemical_formula_structural   TcSe(BrF12)2
_chemical_formula_sum   'Tc1 Se1 Br2 F24'
_cell_volume   458.64320142
_cell_formula_units_Z   1
loop_
 _symmetry_equiv_pos_site_id
 _symmetry_equiv_pos_as_xyz
  1  'x, y, z'
loop_
 _atom_site_type_symbol
 _atom_site_label
 _atom_site_symmetry_multiplicity
 _atom_site_fract_x
 _atom_site_fract_y
 _atom_site_fract_z
 _atom_site_occupancy
  Tc  Tc0  1  0.414556  0.250000  0.869918  1
  Se  Se1  1  0.915642  0.750000  0.628561  1
  Br  Br2  1  0.084858  0.250000  0.371148  1
  Br  Br3  1  0.584361  0.750000  0.130226  1
  F  F4  1  0.182524  0.750000  0.521250  1
  F  F5  1  0.803677  0.250000  0.484688  1
  F  F6  1  0.704558  0.250000  0.980010  1
  F  F7  1  0.302670  0.750000  0.019249  1
  F  F8  1  0.648971  0.750000  0.736641  1
  F  F9  1  0.366131  0.250000  0.257512  1
  F  F10  1  0.122992  0.250000  0.761036  1
  F  F11  1  0.866532  0.750000  0.239269  1
  F  F12  1  0.773225  0.613546  0.529482  1
  F  F13  1  0.235389  0.393262  0.476871  1
  F  F14  1  0.266349  0.394687  0.977991  1
  F  F15  1  0.235389  0.106738  0.476871  1
  F  F16  1  0.732048  0.605570  0.023115  1
  F  F17  1  0.773225  0.886454  0.529482  1
  F  F18  1  0.732048  0.894430  0.023115  1
  F  F19  1  0.266349  0.105313  0.977991  1
  F  F20  1  0.057726  0.613910  0.729237  1
  F  F21  1  0.936568  0.393051  0.265528  1
  F  F22  1  0.562536  0.394128  0.761055  1
  F  F23  1  0.936568  0.106949  0.265528  1
  F  F24  1  0.437422  0.607461  0.236968  1
  F  F25  1  0.057726  0.886090  0.729237  1
  F  F26  1  0.437422  0.892539  0.236968  1
  F  F27  1  0.562536  0.105872  0.761055  1
