# generated using pymatgen
data_Li4Y4Co15NiP12
_symmetry_space_group_name_H-M   'P 1'
_cell_length_a   3.69624600
_cell_length_b   10.26063053
_cell_length_c   11.93367331
_cell_angle_alpha   90.16437856
_cell_angle_beta   90.00000000
_cell_angle_gamma   90.00000000
_symmetry_Int_Tables_number   1
_chemical_formula_structural   Li4Y4Co15NiP12
_chemical_formula_sum   'Li4 Y4 Co15 Ni1 P12'
_cell_volume   452.59241825
_cell_formula_units_Z   1
loop_
 _symmetry_equiv_pos_site_id
 _symmetry_equiv_pos_as_xyz
  1  'x, y, z'
loop_
 _atom_site_type_symbol
 _atom_site_label
 _atom_site_symmetry_multiplicity
 _atom_site_fract_x
 _atom_site_fract_y
 _atom_site_fract_z
 _atom_site_occupancy
  Li  Li0  1  0.250000  0.797756  0.493272  1
  Li  Li1  1  0.750000  0.201854  0.507602  1
  Li  Li2  1  0.750000  0.297571  0.007040  1
  Li  Li3  1  0.250000  0.701763  0.993603  1
  Y  Y4  1  0.250000  0.921093  0.202938  1
  Y  Y5  1  0.750000  0.079094  0.796993  1
  Y  Y6  1  0.750000  0.421496  0.297295  1
  Y  Y7  1  0.250000  0.578260  0.702476  1
  Co  Co8  1  0.750000  0.907390  0.014229  1
  Co  Co9  1  0.750000  0.594750  0.514103  1
  Co  Co10  1  0.250000  0.406218  0.485144  1
  Co  Co11  1  0.250000  0.277940  0.671181  1
  Co  Co12  1  0.750000  0.722015  0.326782  1
  Co  Co13  1  0.750000  0.778120  0.827004  1
  Co  Co14  1  0.250000  0.220349  0.173909  1
  Co  Co15  1  0.250000  0.621572  0.199615  1
  Co  Co16  1  0.750000  0.378589  0.799045  1
  Co  Co17  1  0.750000  0.121912  0.302009  1
  Co  Co18  1  0.250000  0.878673  0.700099  1
  Co  Co19  1  0.250000  0.034173  0.433069  1
  Co  Co20  1  0.750000  0.965210  0.567745  1
  Co  Co21  1  0.750000  0.533861  0.067587  1
  Co  Co22  1  0.250000  0.466175  0.932439  1
  Ni  Ni23  1  0.250000  0.094261  0.985492  1
  P  P24  1  0.250000  0.074693  0.614591  1
  P  P25  1  0.750000  0.924667  0.385735  1
  P  P26  1  0.750000  0.575375  0.885551  1
  P  P27  1  0.250000  0.423610  0.114181  1
  P  P28  1  0.250000  0.230445  0.360962  1
  P  P29  1  0.750000  0.769474  0.640028  1
  P  P30  1  0.750000  0.729736  0.140086  1
  P  P31  1  0.250000  0.272942  0.856557  1
  P  P32  1  0.250000  0.894820  0.892337  1
  P  P33  1  0.750000  0.103154  0.110999  1
  P  P34  1  0.750000  0.398174  0.605245  1
  P  P35  1  0.250000  0.602816  0.393056  1
