# generated using pymatgen
data_MgSc(SiPt)2
_symmetry_space_group_name_H-M   'P 1'
_cell_length_a   4.14851400
_cell_length_b   6.61965600
_cell_length_c   7.27059100
_cell_angle_alpha   90.00000000
_cell_angle_beta   90.00000000
_cell_angle_gamma   90.00000000
_symmetry_Int_Tables_number   1
_chemical_formula_structural   MgSc(SiPt)2
_chemical_formula_sum   'Mg2 Sc2 Si4 Pt4'
_cell_volume   199.66304763
_cell_formula_units_Z   2
loop_
 _symmetry_equiv_pos_site_id
 _symmetry_equiv_pos_as_xyz
  1  'x, y, z'
loop_
 _atom_site_type_symbol
 _atom_site_label
 _atom_site_symmetry_multiplicity
 _atom_site_fract_x
 _atom_site_fract_y
 _atom_site_fract_z
 _atom_site_occupancy
  Mg  Mg0  1  0.750000  0.502383  0.805190  1
  Mg  Mg1  1  0.250000  0.997617  0.305190  1
  Sc  Sc2  1  0.750000  0.002016  0.698789  1
  Sc  Sc3  1  0.250000  0.497984  0.198789  1
  Si  Si4  1  0.250000  0.811766  0.905869  1
  Si  Si5  1  0.250000  0.308861  0.593276  1
  Si  Si6  1  0.750000  0.191139  0.093276  1
  Si  Si7  1  0.750000  0.688234  0.405869  1
  Pt  Pt8  1  0.250000  0.697352  0.582835  1
  Pt  Pt9  1  0.250000  0.202428  0.914040  1
  Pt  Pt10  1  0.750000  0.802648  0.082835  1
  Pt  Pt11  1  0.750000  0.297572  0.414040  1
