# generated using pymatgen
data_Hf16Nb4Si15P
_symmetry_space_group_name_H-M   'P 1'
_cell_length_a   6.77075060
_cell_length_b   6.93654544
_cell_length_c   13.36545508
_cell_angle_alpha   89.92251077
_cell_angle_beta   89.69145924
_cell_angle_gamma   90.05410388
_symmetry_Int_Tables_number   1
_chemical_formula_structural   Hf16Nb4Si15P
_chemical_formula_sum   'Hf16 Nb4 Si15 P1'
_cell_volume   627.70691397
_cell_formula_units_Z   1
loop_
 _symmetry_equiv_pos_site_id
 _symmetry_equiv_pos_as_xyz
  1  'x, y, z'
loop_
 _atom_site_type_symbol
 _atom_site_label
 _atom_site_symmetry_multiplicity
 _atom_site_fract_x
 _atom_site_fract_y
 _atom_site_fract_z
 _atom_site_occupancy
  Hf  Hf0  1  0.335877  0.675585  0.875393  1
  Hf  Hf1  1  0.836728  0.825527  0.875171  1
  Hf  Hf2  1  0.663598  0.322447  0.376927  1
  Hf  Hf3  1  0.999970  0.675640  0.094608  1
  Hf  Hf4  1  0.496389  0.824274  0.404596  1
  Hf  Hf5  1  0.501045  0.175696  0.905505  1
  Hf  Hf6  1  0.505167  0.177609  0.595709  1
  Hf  Hf7  1  0.999473  0.324473  0.905327  1
  Hf  Hf8  1  0.163484  0.174725  0.124621  1
  Hf  Hf9  1  0.157404  0.171657  0.377334  1
  Hf  Hf10  1  0.996232  0.678901  0.405503  1
  Hf  Hf11  1  0.664094  0.324230  0.124674  1
  Hf  Hf12  1  0.499245  0.824782  0.094565  1
  Hf  Hf13  1  0.002932  0.322127  0.594567  1
  Hf  Hf14  1  0.339152  0.672624  0.624041  1
  Hf  Hf15  1  0.838431  0.830911  0.621291  1
  Nb  Nb16  1  0.664580  0.501941  0.749573  1
  Nb  Nb17  1  0.165075  0.998587  0.748845  1
  Nb  Nb18  1  0.335200  0.497825  0.250733  1
  Nb  Nb19  1  0.834306  0.000583  0.251074  1
  Si  Si20  1  0.675837  0.531740  0.538496  1
  Si  Si21  1  0.171611  0.970009  0.961367  1
  Si  Si22  1  0.297274  0.359052  0.750641  1
  Si  Si23  1  0.828720  0.030085  0.038663  1
  Si  Si24  1  0.329165  0.469505  0.038641  1
  Si  Si25  1  0.459519  0.105260  0.250684  1
  Si  Si26  1  0.701866  0.640171  0.249886  1
  Si  Si27  1  0.961857  0.395862  0.250538  1
  Si  Si28  1  0.798098  0.141472  0.750288  1
  Si  Si29  1  0.671114  0.530559  0.961336  1
  Si  Si30  1  0.185748  0.968292  0.539281  1
  Si  Si31  1  0.037790  0.605580  0.749164  1
  Si  Si32  1  0.325118  0.467795  0.460994  1
  Si  Si33  1  0.540040  0.895226  0.749384  1
  Si  Si34  1  0.201994  0.858137  0.249580  1
  P  P35  1  0.815867  0.031114  0.460998  1
