# generated using pymatgen
data_Ho8Tm9(LuIr4)3
_symmetry_space_group_name_H-M   'P 1'
_cell_length_a   10.77267515
_cell_length_b   10.77066907
_cell_length_c   6.30793013
_cell_angle_alpha   90.00825994
_cell_angle_beta   89.98896785
_cell_angle_gamma   90.00330873
_symmetry_Int_Tables_number   1
_chemical_formula_structural   Ho8Tm9(LuIr4)3
_chemical_formula_sum   'Ho8 Tm9 Lu3 Ir12'
_cell_volume   731.90229250
_cell_formula_units_Z   1
loop_
 _symmetry_equiv_pos_site_id
 _symmetry_equiv_pos_as_xyz
  1  'x, y, z'
loop_
 _atom_site_type_symbol
 _atom_site_label
 _atom_site_symmetry_multiplicity
 _atom_site_fract_x
 _atom_site_fract_y
 _atom_site_fract_z
 _atom_site_occupancy
  Ho  Ho0  1  0.290868  0.088019  0.377070  1
  Ho  Ho1  1  0.290437  0.912541  0.877126  1
  Ho  Ho2  1  0.709484  0.087814  0.877035  1
  Ho  Ho3  1  0.709265  0.912072  0.376843  1
  Ho  Ho4  1  0.587698  0.789925  0.876876  1
  Ho  Ho5  1  0.587386  0.210043  0.377224  1
  Ho  Ho6  1  0.412563  0.789782  0.376954  1
  Ho  Ho7  1  0.999999  0.000033  0.499829  1
  Tm  Tm8  1  0.412436  0.209615  0.877632  1
  Tm  Tm9  1  0.208903  0.413016  0.622632  1
  Tm  Tm10  1  0.208787  0.586937  0.122383  1
  Tm  Tm11  1  0.791105  0.412880  0.122575  1
  Tm  Tm12  1  0.791211  0.586880  0.622462  1
  Tm  Tm13  1  0.912930  0.708441  0.122465  1
  Tm  Tm14  1  0.912698  0.292031  0.622680  1
  Tm  Tm15  1  0.087232  0.708040  0.622668  1
  Tm  Tm16  1  0.087194  0.291535  0.122545  1
  Lu  Lu17  1  0.000118  0.000062  0.999643  1
  Lu  Lu18  1  0.499916  0.499836  0.999725  1
  Lu  Lu19  1  0.499998  0.499865  0.499832  1
  Ir  Ir20  1  0.847408  0.153865  0.248628  1
  Ir  Ir21  1  0.847249  0.846229  0.751586  1
  Ir  Ir22  1  0.153078  0.154018  0.751557  1
  Ir  Ir23  1  0.152653  0.846028  0.248723  1
  Ir  Ir24  1  0.652567  0.348238  0.750297  1
  Ir  Ir25  1  0.652818  0.651866  0.250280  1
  Ir  Ir26  1  0.347344  0.348032  0.249393  1
  Ir  Ir27  1  0.347133  0.651666  0.749953  1
  Ir  Ir28  1  0.499846  0.000366  0.123440  1
  Ir  Ir29  1  0.499869  0.000296  0.624532  1
  Ir  Ir30  1  0.999938  0.499982  0.877880  1
  Ir  Ir31  1  0.999867  0.500050  0.377530  1
