# generated using pymatgen
data_Sc10(SiAs)3
_symmetry_space_group_name_H-M   'P 1'
_cell_length_a   7.91046100
_cell_length_b   7.90754956
_cell_length_c   5.78950500
_cell_angle_alpha   90.00000000
_cell_angle_beta   90.00000000
_cell_angle_gamma   120.01216765
_symmetry_Int_Tables_number   1
_chemical_formula_structural   Sc10(SiAs)3
_chemical_formula_sum   'Sc10 Si3 As3'
_cell_volume   313.59022709
_cell_formula_units_Z   1
loop_
 _symmetry_equiv_pos_site_id
 _symmetry_equiv_pos_as_xyz
  1  'x, y, z'
loop_
 _atom_site_type_symbol
 _atom_site_label
 _atom_site_symmetry_multiplicity
 _atom_site_fract_x
 _atom_site_fract_y
 _atom_site_fract_z
 _atom_site_occupancy
  Sc  Sc0  1  0.996794  0.753392  0.750000  1
  Sc  Sc1  1  0.996874  0.241382  0.250000  1
  Sc  Sc2  1  0.755492  0.758618  0.250000  1
  Sc  Sc3  1  0.758293  0.000000  0.750000  1
  Sc  Sc4  1  0.243403  0.246608  0.750000  1
  Sc  Sc5  1  0.246515  0.000000  0.250000  1
  Sc  Sc6  1  0.334491  0.666539  0.500955  1
  Sc  Sc7  1  0.667953  0.333461  0.999045  1
  Sc  Sc8  1  0.667953  0.333461  0.500955  1
  Sc  Sc9  1  0.334491  0.666539  0.999045  1
  Si  Si10  1  0.000645  0.392215  0.750000  1
  Si  Si11  1  0.608430  0.607785  0.750000  1
  Si  Si12  1  0.607415  0.000000  0.250000  1
  As  As13  1  0.389871  0.000000  0.750000  1
  As  As14  1  0.390734  0.390091  0.250000  1
  As  As15  1  0.000643  0.609909  0.250000  1
