# generated using pymatgen
data_LaTiFeO5
_symmetry_space_group_name_H-M   'P 1'
_cell_length_a   7.77550500
_cell_length_b   8.83006800
_cell_length_c   5.93351900
_cell_angle_alpha   90.00000000
_cell_angle_beta   90.00000000
_cell_angle_gamma   90.00000000
_symmetry_Int_Tables_number   1
_chemical_formula_structural   LaTiFeO5
_chemical_formula_sum   'La4 Ti4 Fe4 O20'
_cell_volume   407.38495899
_cell_formula_units_Z   4
loop_
 _symmetry_equiv_pos_site_id
 _symmetry_equiv_pos_as_xyz
  1  'x, y, z'
loop_
 _atom_site_type_symbol
 _atom_site_label
 _atom_site_symmetry_multiplicity
 _atom_site_fract_x
 _atom_site_fract_y
 _atom_site_fract_z
 _atom_site_occupancy
  La  La0  1  0.141071  0.172048  0.000000  1
  La  La1  1  0.641070  0.327952  0.000000  1
  La  La2  1  0.358929  0.672048  0.000000  1
  La  La3  1  0.858929  0.827952  0.000000  1
  Ti  Ti4  1  0.880593  0.142242  0.499999  1
  Ti  Ti5  1  0.380593  0.357759  0.499999  1
  Ti  Ti6  1  0.619406  0.642242  0.499999  1
  Ti  Ti7  1  0.119407  0.857759  0.499999  1
  Fe  Fe8  1  0.500000  0.000000  0.248965  1
  Fe  Fe9  1  0.000000  0.500000  0.248965  1
  Fe  Fe10  1  0.500000  0.000000  0.751034  1
  Fe  Fe11  1  0.000000  0.500000  0.751034  1
  O  O12  1  0.662672  0.054126  0.000000  1
  O  O13  1  0.162672  0.445874  0.000000  1
  O  O14  1  0.837329  0.554126  0.000000  1
  O  O15  1  0.337329  0.945873  0.000000  1
  O  O16  1  0.396923  0.213845  0.258496  1
  O  O17  1  0.896923  0.286155  0.258496  1
  O  O18  1  0.103076  0.713845  0.258496  1
  O  O19  1  0.603076  0.786155  0.258496  1
  O  O20  1  0.000000  0.000000  0.288202  1
  O  O21  1  0.500000  0.500000  0.288202  1
  O  O22  1  0.661681  0.074564  0.499999  1
  O  O23  1  0.161680  0.425436  0.499999  1
  O  O24  1  0.838320  0.574564  0.499999  1
  O  O25  1  0.338320  0.925436  0.499999  1
  O  O26  1  0.000000  0.000000  0.711797  1
  O  O27  1  0.500000  0.500000  0.711797  1
  O  O28  1  0.396923  0.213845  0.741503  1
  O  O29  1  0.896923  0.286155  0.741503  1
  O  O30  1  0.103076  0.713845  0.741503  1
  O  O31  1  0.603076  0.786155  0.741503  1
