# generated using pymatgen
data_Dy4Er6SnPb7
_symmetry_space_group_name_H-M   'P 1'
_cell_length_a   8.16793600
_cell_length_b   8.24844200
_cell_length_c   15.58841200
_cell_angle_alpha   90.00000000
_cell_angle_beta   90.00000000
_cell_angle_gamma   90.00000000
_symmetry_Int_Tables_number   1
_chemical_formula_structural   Dy4Er6SnPb7
_chemical_formula_sum   'Dy8 Er12 Sn2 Pb14'
_cell_volume   1050.23412776
_cell_formula_units_Z   2
loop_
 _symmetry_equiv_pos_site_id
 _symmetry_equiv_pos_as_xyz
  1  'x, y, z'
loop_
 _atom_site_type_symbol
 _atom_site_label
 _atom_site_symmetry_multiplicity
 _atom_site_fract_x
 _atom_site_fract_y
 _atom_site_fract_z
 _atom_site_occupancy
  Dy  Dy0  1  0.534582  0.325412  0.899151  1
  Dy  Dy1  1  0.034582  0.174588  0.600849  1
  Dy  Dy2  1  0.465249  0.676598  0.400707  1
  Dy  Dy3  1  0.965249  0.823402  0.099293  1
  Dy  Dy4  1  0.465249  0.676598  0.099293  1
  Dy  Dy5  1  0.965249  0.823402  0.400707  1
  Dy  Dy6  1  0.534582  0.325412  0.600849  1
  Dy  Dy7  1  0.034582  0.174588  0.899151  1
  Er  Er8  1  0.376222  0.839303  0.876689  1
  Er  Er9  1  0.876222  0.660697  0.623311  1
  Er  Er10  1  0.623986  0.158784  0.379053  1
  Er  Er11  1  0.123986  0.341216  0.120947  1
  Er  Er12  1  0.623986  0.158784  0.120947  1
  Er  Er13  1  0.123986  0.341216  0.379053  1
  Er  Er14  1  0.376222  0.839303  0.623311  1
  Er  Er15  1  0.876222  0.660697  0.876689  1
  Er  Er16  1  0.209421  0.507862  0.750000  1
  Er  Er17  1  0.709421  0.992138  0.750000  1
  Er  Er18  1  0.792202  0.495169  0.250000  1
  Er  Er19  1  0.292202  0.004831  0.250000  1
  Sn  Sn20  1  0.572015  0.626132  0.750000  1
  Sn  Sn21  1  0.072015  0.873868  0.750000  1
  Pb  Pb22  1  0.283206  0.034146  0.042115  1
  Pb  Pb23  1  0.783206  0.465854  0.457885  1
  Pb  Pb24  1  0.716398  0.965377  0.542655  1
  Pb  Pb25  1  0.216398  0.534623  0.957345  1
  Pb  Pb26  1  0.716398  0.965377  0.957345  1
  Pb  Pb27  1  0.216398  0.534623  0.542655  1
  Pb  Pb28  1  0.283206  0.034146  0.457885  1
  Pb  Pb29  1  0.783206  0.465854  0.042115  1
  Pb  Pb30  1  0.429203  0.373448  0.250000  1
  Pb  Pb31  1  0.929203  0.126552  0.250000  1
  Pb  Pb32  1  0.344463  0.152525  0.750000  1
  Pb  Pb33  1  0.844463  0.347475  0.750000  1
  Pb  Pb34  1  0.653412  0.846437  0.250000  1
  Pb  Pb35  1  0.153412  0.653563  0.250000  1
