# generated using pymatgen
data_TbHfB6Ru
_symmetry_space_group_name_H-M   'P 1'
_cell_length_a   3.55415400
_cell_length_b   9.03443200
_cell_length_c   11.41022400
_cell_angle_alpha   90.00000000
_cell_angle_beta   90.00000000
_cell_angle_gamma   90.00000000
_symmetry_Int_Tables_number   1
_chemical_formula_structural   TbHfB6Ru
_chemical_formula_sum   'Tb4 Hf4 B24 Ru4'
_cell_volume   366.37958420
_cell_formula_units_Z   4
loop_
 _symmetry_equiv_pos_site_id
 _symmetry_equiv_pos_as_xyz
  1  'x, y, z'
loop_
 _atom_site_type_symbol
 _atom_site_label
 _atom_site_symmetry_multiplicity
 _atom_site_fract_x
 _atom_site_fract_y
 _atom_site_fract_z
 _atom_site_occupancy
  Tb  Tb0  1  0.000000  0.321694  0.413691  1
  Tb  Tb1  1  0.000000  0.678306  0.586309  1
  Tb  Tb2  1  0.000000  0.821694  0.086309  1
  Tb  Tb3  1  0.000000  0.178306  0.913691  1
  Hf  Hf4  1  0.000000  0.944907  0.374156  1
  Hf  Hf5  1  0.000000  0.055093  0.625844  1
  Hf  Hf6  1  0.000000  0.444907  0.125844  1
  Hf  Hf7  1  0.000000  0.555093  0.874156  1
  B  B8  1  0.500000  0.554649  0.433257  1
  B  B9  1  0.500000  0.445351  0.566743  1
  B  B10  1  0.500000  0.054649  0.066743  1
  B  B11  1  0.500000  0.945351  0.933257  1
  B  B12  1  0.500000  0.752619  0.418535  1
  B  B13  1  0.500000  0.247381  0.581465  1
  B  B14  1  0.500000  0.252619  0.081465  1
  B  B15  1  0.500000  0.747381  0.918535  1
  B  B16  1  0.500000  0.795213  0.264349  1
  B  B17  1  0.500000  0.204787  0.735651  1
  B  B18  1  0.500000  0.295213  0.235651  1
  B  B19  1  0.500000  0.704787  0.764349  1
  B  B20  1  0.500000  0.629592  0.182705  1
  B  B21  1  0.500000  0.370408  0.817295  1
  B  B22  1  0.500000  0.129592  0.317295  1
  B  B23  1  0.500000  0.870408  0.682705  1
  B  B24  1  0.500000  0.982021  0.213771  1
  B  B25  1  0.500000  0.017979  0.786229  1
  B  B26  1  0.500000  0.482021  0.286229  1
  B  B27  1  0.500000  0.517979  0.713771  1
  B  B28  1  0.500000  0.600498  0.027173  1
  B  B29  1  0.500000  0.399502  0.972827  1
  B  B30  1  0.500000  0.100498  0.472827  1
  B  B31  1  0.500000  0.899502  0.527173  1
  Ru  Ru32  1  0.000000  0.642314  0.318393  1
  Ru  Ru33  1  0.000000  0.357686  0.681607  1
  Ru  Ru34  1  0.000000  0.142314  0.181607  1
  Ru  Ru35  1  0.000000  0.857686  0.818393  1
