# generated using pymatgen
data_Er2Th2BeSi5
_symmetry_space_group_name_H-M   'P 1'
_cell_length_a   3.91192400
_cell_length_b   4.30978106
_cell_length_c   12.35342000
_cell_angle_alpha   100.04589289
_cell_angle_beta   90.00000000
_cell_angle_gamma   90.00000000
_symmetry_Int_Tables_number   1
_chemical_formula_structural   Er2Th2BeSi5
_chemical_formula_sum   'Er2 Th2 Be1 Si5'
_cell_volume   205.07976086
_cell_formula_units_Z   1
loop_
 _symmetry_equiv_pos_site_id
 _symmetry_equiv_pos_as_xyz
  1  'x, y, z'
loop_
 _atom_site_type_symbol
 _atom_site_label
 _atom_site_symmetry_multiplicity
 _atom_site_fract_x
 _atom_site_fract_y
 _atom_site_fract_z
 _atom_site_occupancy
  Er  Er0  1  0.750000  0.701445  0.402893  1
  Er  Er1  1  0.250000  0.298121  0.596239  1
  Th  Th2  1  0.750000  0.430595  0.861188  1
  Th  Th3  1  0.250000  0.570299  0.140598  1
  Be  Be4  1  0.750000  0.023629  0.047256  1
  Si  Si5  1  0.250000  0.980357  0.960714  1
  Si  Si6  1  0.750000  0.115023  0.230046  1
  Si  Si7  1  0.250000  0.882337  0.764674  1
  Si  Si8  1  0.750000  0.821556  0.643113  1
  Si  Si9  1  0.250000  0.176639  0.353277  1
