# generated using pymatgen
data_Th2B10Ru
_symmetry_space_group_name_H-M   'P 1'
_cell_length_a   4.20036300
_cell_length_b   5.73473900
_cell_length_c   11.47202400
_cell_angle_alpha   90.00000000
_cell_angle_beta   90.00000000
_cell_angle_gamma   90.00000000
_symmetry_Int_Tables_number   1
_chemical_formula_structural   Th2B10Ru
_chemical_formula_sum   'Th4 B20 Ru2'
_cell_volume   276.33794789
_cell_formula_units_Z   2
loop_
 _symmetry_equiv_pos_site_id
 _symmetry_equiv_pos_as_xyz
  1  'x, y, z'
loop_
 _atom_site_type_symbol
 _atom_site_label
 _atom_site_symmetry_multiplicity
 _atom_site_fract_x
 _atom_site_fract_y
 _atom_site_fract_z
 _atom_site_occupancy
  Th  Th0  1  0.500000  0.285040  0.867719  1
  Th  Th1  1  0.500000  0.714960  0.132281  1
  Th  Th2  1  0.500000  0.785040  0.632281  1
  Th  Th3  1  0.500000  0.214960  0.367719  1
  B  B4  1  0.000000  0.118361  0.542712  1
  B  B5  1  0.000000  0.881639  0.457288  1
  B  B6  1  0.000000  0.618361  0.957288  1
  B  B7  1  0.000000  0.381639  0.042712  1
  B  B8  1  0.000000  0.131747  0.696995  1
  B  B9  1  0.000000  0.868253  0.303005  1
  B  B10  1  0.300912  0.221159  0.119033  1
  B  B11  1  0.300912  0.778841  0.880967  1
  B  B12  1  0.699088  0.721159  0.380967  1
  B  B13  1  0.699088  0.278841  0.619033  1
  B  B14  1  0.699088  0.778841  0.880967  1
  B  B15  1  0.699088  0.221159  0.119033  1
  B  B16  1  0.300912  0.278841  0.619033  1
  B  B17  1  0.300912  0.721159  0.380967  1
  B  B18  1  0.000000  0.058786  0.192853  1
  B  B19  1  0.000000  0.941214  0.807147  1
  B  B20  1  0.000000  0.558786  0.307147  1
  B  B21  1  0.000000  0.441214  0.692853  1
  B  B22  1  0.000000  0.368253  0.196995  1
  B  B23  1  0.000000  0.631747  0.803005  1
  Ru  Ru24  1  0.000000  0.500000  0.500000  1
  Ru  Ru25  1  0.000000  0.000000  0.000000  1
