# generated using pymatgen
data_Y10In2BiPb3
_symmetry_space_group_name_H-M   'P 1'
_cell_length_a   9.04058209
_cell_length_b   9.07935686
_cell_length_c   6.69896600
_cell_angle_alpha   90.00000000
_cell_angle_beta   90.00000000
_cell_angle_gamma   120.14198068
_symmetry_Int_Tables_number   1
_chemical_formula_structural   Y10In2BiPb3
_chemical_formula_sum   'Y10 In2 Bi1 Pb3'
_cell_volume   475.51778502
_cell_formula_units_Z   1
loop_
 _symmetry_equiv_pos_site_id
 _symmetry_equiv_pos_as_xyz
  1  'x, y, z'
loop_
 _atom_site_type_symbol
 _atom_site_label
 _atom_site_symmetry_multiplicity
 _atom_site_fract_x
 _atom_site_fract_y
 _atom_site_fract_z
 _atom_site_occupancy
  Y  Y0  1  0.660563  0.328409  0.997983  1
  Y  Y1  1  0.339437  0.667847  0.997983  1
  Y  Y2  1  0.339437  0.667847  0.502017  1
  Y  Y3  1  0.660563  0.328409  0.502017  1
  Y  Y4  1  0.756739  0.765085  0.750000  1
  Y  Y5  1  0.243261  0.008346  0.750000  1
  Y  Y6  1  0.000000  0.234295  0.750000  1
  Y  Y7  1  0.237948  0.236681  0.250000  1
  Y  Y8  1  0.762052  0.998732  0.250000  1
  Y  Y9  1  0.000000  0.762609  0.250000  1
  In  In10  1  0.396457  0.397518  0.750000  1
  In  In11  1  0.603543  0.001063  0.750000  1
  Bi  Bi12  1  0.000000  0.607571  0.750000  1
  Pb  Pb13  1  0.605832  0.602907  0.250000  1
  Pb  Pb14  1  0.394168  0.997075  0.250000  1
  Pb  Pb15  1  0.000000  0.395606  0.250000  1
