# generated using pymatgen
data_Tb19Dy(Ir5Au)2
_symmetry_space_group_name_H-M   'P 1'
_cell_length_a   11.09036065
_cell_length_b   11.04163600
_cell_length_c   6.36412901
_cell_angle_alpha   90.00040943
_cell_angle_beta   89.89187641
_cell_angle_gamma   90.00049745
_symmetry_Int_Tables_number   1
_chemical_formula_structural   Tb19Dy(Ir5Au)2
_chemical_formula_sum   'Tb19 Dy1 Ir10 Au2'
_cell_volume   779.32264620
_cell_formula_units_Z   1
loop_
 _symmetry_equiv_pos_site_id
 _symmetry_equiv_pos_as_xyz
  1  'x, y, z'
loop_
 _atom_site_type_symbol
 _atom_site_label
 _atom_site_symmetry_multiplicity
 _atom_site_fract_x
 _atom_site_fract_y
 _atom_site_fract_z
 _atom_site_occupancy
  Tb  Tb0  1  0.291940  0.088948  0.373765  1
  Tb  Tb1  1  0.291930  0.911064  0.873798  1
  Tb  Tb2  1  0.698345  0.092363  0.866679  1
  Tb  Tb3  1  0.698341  0.907614  0.366640  1
  Tb  Tb4  1  0.578735  0.789732  0.878679  1
  Tb  Tb5  1  0.578724  0.210345  0.378738  1
  Tb  Tb6  1  0.408086  0.790932  0.378252  1
  Tb  Tb7  1  0.408057  0.209012  0.878202  1
  Tb  Tb8  1  0.209732  0.410945  0.620208  1
  Tb  Tb9  1  0.209669  0.589078  0.120243  1
  Tb  Tb10  1  0.789353  0.419156  0.121792  1
  Tb  Tb11  1  0.789293  0.580823  0.621746  1
  Tb  Tb12  1  0.916723  0.705188  0.137790  1
  Tb  Tb13  1  0.916701  0.294811  0.637820  1
  Tb  Tb14  1  0.096359  0.702693  0.622683  1
  Tb  Tb15  1  0.096341  0.297308  0.122632  1
  Tb  Tb16  1  0.009215  0.997540  0.499860  1
  Tb  Tb17  1  0.009239  0.002456  0.999863  1
  Tb  Tb18  1  0.499518  0.498855  0.000327  1
  Dy  Dy19  1  0.499518  0.501154  0.500317  1
  Ir  Ir20  1  0.154206  0.154033  0.750555  1
  Ir  Ir21  1  0.154199  0.845956  0.250542  1
  Ir  Ir22  1  0.655614  0.346553  0.747812  1
  Ir  Ir23  1  0.655612  0.653436  0.248274  1
  Ir  Ir24  1  0.347627  0.346202  0.251778  1
  Ir  Ir25  1  0.347649  0.653806  0.751322  1
  Ir  Ir26  1  0.499889  0.999654  0.121562  1
  Ir  Ir27  1  0.499893  0.000340  0.621555  1
  Ir  Ir28  1  0.999520  0.501146  0.878350  1
  Ir  Ir29  1  0.999518  0.498853  0.378353  1
  Au  Au30  1  0.845233  0.155189  0.249940  1
  Au  Au31  1  0.845225  0.844817  0.749920  1
