# generated using pymatgen
data_Tb16TlNi2Ag3RuRh
_symmetry_space_group_name_H-M   'P 1'
_cell_length_a   9.54641064
_cell_length_b   9.52599099
_cell_length_c   9.55658500
_cell_angle_alpha   60.10586062
_cell_angle_beta   60.36561130
_cell_angle_gamma   60.07073090
_symmetry_Int_Tables_number   1
_chemical_formula_structural   Tb16TlNi2Ag3RuRh
_chemical_formula_sum   'Tb16 Tl1 Ni2 Ag3 Ru1 Rh1'
_cell_volume   617.02833617
_cell_formula_units_Z   1
loop_
 _symmetry_equiv_pos_site_id
 _symmetry_equiv_pos_as_xyz
  1  'x, y, z'
loop_
 _atom_site_type_symbol
 _atom_site_label
 _atom_site_symmetry_multiplicity
 _atom_site_fract_x
 _atom_site_fract_y
 _atom_site_fract_z
 _atom_site_occupancy
  Tb  Tb0  1  0.810247  0.809841  0.189111  1
  Tb  Tb1  1  0.811856  0.189909  0.808325  1
  Tb  Tb2  1  0.185670  0.191565  0.811490  1
  Tb  Tb3  1  0.652752  0.050598  0.651396  1
  Tb  Tb4  1  0.069885  0.057951  0.433568  1
  Tb  Tb5  1  0.436644  0.437327  0.062222  1
  Tb  Tb6  1  0.652752  0.645253  0.651396  1
  Tb  Tb7  1  0.810247  0.190802  0.189111  1
  Tb  Tb8  1  0.185670  0.811275  0.811490  1
  Tb  Tb9  1  0.050350  0.648993  0.651665  1
  Tb  Tb10  1  0.436644  0.063808  0.062222  1
  Tb  Tb11  1  0.442880  0.061237  0.434645  1
  Tb  Tb12  1  0.068869  0.434778  0.061575  1
  Tb  Tb13  1  0.651824  0.648687  0.050801  1
  Tb  Tb14  1  0.183982  0.813366  0.189285  1
  Tb  Tb15  1  0.069885  0.438597  0.433568  1
  Tl  Tl16  1  0.744422  0.418553  0.418472  1
  Ni  Ni17  1  0.857846  0.427350  0.858487  1
  Ni  Ni18  1  0.857846  0.856317  0.858487  1
  Ag  Ag19  1  0.413018  0.421271  0.417905  1
  Ag  Ag20  1  0.412299  0.418618  0.750466  1
  Ag  Ag21  1  0.413018  0.747804  0.417905  1
  Ru  Ru22  1  0.854297  0.858913  0.427879  1
  Rh  Rh23  1  0.427100  0.857186  0.858530  1
