# generated using pymatgen
data_U4ReMo(WC4)2
_symmetry_space_group_name_H-M   'P 1'
_cell_length_a   3.20913000
_cell_length_b   5.62947412
_cell_length_c   11.07821081
_cell_angle_alpha   90.04138006
_cell_angle_beta   90.00000000
_cell_angle_gamma   90.00000000
_symmetry_Int_Tables_number   1
_chemical_formula_structural   U4ReMo(WC4)2
_chemical_formula_sum   'U4 Re1 Mo1 W2 C8'
_cell_volume   200.13573919
_cell_formula_units_Z   1
loop_
 _symmetry_equiv_pos_site_id
 _symmetry_equiv_pos_as_xyz
  1  'x, y, z'
loop_
 _atom_site_type_symbol
 _atom_site_label
 _atom_site_symmetry_multiplicity
 _atom_site_fract_x
 _atom_site_fract_y
 _atom_site_fract_z
 _atom_site_occupancy
  U  U0  1  0.250000  0.079525  0.858805  1
  U  U1  1  0.750000  0.920365  0.141898  1
  U  U2  1  0.250000  0.581639  0.641051  1
  U  U3  1  0.750000  0.420672  0.357741  1
  Re  Re4  1  0.250000  0.921533  0.397230  1
  Mo  Mo5  1  0.250000  0.421752  0.102422  1
  W  W6  1  0.750000  0.080031  0.602185  1
  W  W7  1  0.750000  0.577341  0.897905  1
  C  C8  1  0.250000  0.748983  0.992114  1
  C  C9  1  0.750000  0.250030  0.006827  1
  C  C10  1  0.250000  0.249065  0.506908  1
  C  C11  1  0.750000  0.753239  0.492264  1
  C  C12  1  0.250000  0.159310  0.246635  1
  C  C13  1  0.750000  0.336114  0.743460  1
  C  C14  1  0.250000  0.664290  0.256577  1
  C  C15  1  0.750000  0.836114  0.755979  1
