# generated using pymatgen
data_Ba4DyTl(ClO3)2
_symmetry_space_group_name_H-M   'P 1'
_cell_length_a   4.41572800
_cell_length_b   4.41572800
_cell_length_c   15.23239100
_cell_angle_alpha   90.00000000
_cell_angle_beta   90.00000000
_cell_angle_gamma   90.00000000
_symmetry_Int_Tables_number   1
_chemical_formula_structural   Ba4DyTl(ClO3)2
_chemical_formula_sum   'Ba4 Dy1 Tl1 Cl2 O6'
_cell_volume   297.01111820
_cell_formula_units_Z   1
loop_
 _symmetry_equiv_pos_site_id
 _symmetry_equiv_pos_as_xyz
  1  'x, y, z'
loop_
 _atom_site_type_symbol
 _atom_site_label
 _atom_site_symmetry_multiplicity
 _atom_site_fract_x
 _atom_site_fract_y
 _atom_site_fract_z
 _atom_site_occupancy
  Ba  Ba0  1  0.500000  0.000000  0.095595  1
  Ba  Ba1  1  0.500000  0.000000  0.351582  1
  Ba  Ba2  1  0.000000  0.500000  0.646020  1
  Ba  Ba3  1  0.000000  0.500000  0.904666  1
  Dy  Dy4  1  0.000000  0.500000  0.216231  1
  Tl  Tl5  1  0.500000  0.000000  0.785830  1
  Cl  Cl6  1  0.500000  0.000000  0.574027  1
  Cl  Cl7  1  0.000000  0.500000  0.423234  1
  O  O8  1  0.000000  0.500000  0.074055  1
  O  O9  1  0.000000  0.000000  0.240318  1
  O  O10  1  0.500000  0.500000  0.758699  1
  O  O11  1  0.500000  0.000000  0.930727  1
  O  O12  1  0.000000  0.000000  0.758699  1
  O  O13  1  0.500000  0.500000  0.240318  1
