# generated using pymatgen
data_Tb(Tm3Pb2)3
_symmetry_space_group_name_H-M   'P 1'
_cell_length_a   8.97284918
_cell_length_b   8.95820967
_cell_length_c   6.55710400
_cell_angle_alpha   90.00000000
_cell_angle_beta   90.00000000
_cell_angle_gamma   119.94605265
_symmetry_Int_Tables_number   1
_chemical_formula_structural   Tb(Tm3Pb2)3
_chemical_formula_sum   'Tb1 Tm9 Pb6'
_cell_volume   456.69906714
_cell_formula_units_Z   1
loop_
 _symmetry_equiv_pos_site_id
 _symmetry_equiv_pos_as_xyz
  1  'x, y, z'
loop_
 _atom_site_type_symbol
 _atom_site_label
 _atom_site_symmetry_multiplicity
 _atom_site_fract_x
 _atom_site_fract_y
 _atom_site_fract_z
 _atom_site_occupancy
  Tb  Tb0  1  0.000000  0.764278  0.250000  1
  Tm  Tm1  1  0.667362  0.333792  0.999907  1
  Tm  Tm2  1  0.332638  0.666432  0.999907  1
  Tm  Tm3  1  0.332638  0.666432  0.500093  1
  Tm  Tm4  1  0.667362  0.333792  0.500093  1
  Tm  Tm5  1  0.763308  0.764369  0.750000  1
  Tm  Tm6  1  0.236692  0.001062  0.750000  1
  Tm  Tm7  1  0.000000  0.234538  0.750000  1
  Tm  Tm8  1  0.236323  0.235894  0.250000  1
  Tm  Tm9  1  0.763677  0.999572  0.250000  1
  Pb  Pb10  1  0.394733  0.394809  0.750000  1
  Pb  Pb11  1  0.605267  0.000077  0.750000  1
  Pb  Pb12  1  0.000000  0.605735  0.750000  1
  Pb  Pb13  1  0.602791  0.604380  0.250000  1
  Pb  Pb14  1  0.397209  0.001588  0.250000  1
  Pb  Pb15  1  0.000000  0.393251  0.250000  1
