# generated using pymatgen
data_Er10Hg3Rh
_symmetry_space_group_name_H-M   'P 1'
_cell_length_a   9.57995800
_cell_length_b   9.57995887
_cell_length_c   9.52823500
_cell_angle_alpha   90.00000000
_cell_angle_beta   90.00000000
_cell_angle_gamma   119.99999700
_symmetry_Int_Tables_number   1
_chemical_formula_structural   Er10Hg3Rh
_chemical_formula_sum   'Er20 Hg6 Rh2'
_cell_volume   757.30418057
_cell_formula_units_Z   2
loop_
 _symmetry_equiv_pos_site_id
 _symmetry_equiv_pos_as_xyz
  1  'x, y, z'
loop_
 _atom_site_type_symbol
 _atom_site_label
 _atom_site_symmetry_multiplicity
 _atom_site_fract_x
 _atom_site_fract_y
 _atom_site_fract_z
 _atom_site_occupancy
  Er  Er0  1  0.000000  0.000000  0.500000  1
  Er  Er1  1  0.000000  0.000000  0.000000  1
  Er  Er2  1  0.542459  0.457541  0.250000  1
  Er  Er3  1  0.542459  0.084920  0.250000  1
  Er  Er4  1  0.915080  0.457541  0.250000  1
  Er  Er5  1  0.457541  0.542459  0.750000  1
  Er  Er6  1  0.457541  0.915080  0.750000  1
  Er  Er7  1  0.084920  0.542459  0.750000  1
  Er  Er8  1  0.208388  0.791612  0.439033  1
  Er  Er9  1  0.208388  0.416779  0.439033  1
  Er  Er10  1  0.583221  0.791612  0.439033  1
  Er  Er11  1  0.791612  0.208388  0.560967  1
  Er  Er12  1  0.791612  0.583221  0.560967  1
  Er  Er13  1  0.416779  0.208388  0.560967  1
  Er  Er14  1  0.791612  0.208388  0.939033  1
  Er  Er15  1  0.791612  0.583221  0.939033  1
  Er  Er16  1  0.416779  0.208388  0.939033  1
  Er  Er17  1  0.208388  0.791612  0.060967  1
  Er  Er18  1  0.208388  0.416779  0.060967  1
  Er  Er19  1  0.583221  0.791612  0.060967  1
  Hg  Hg20  1  0.880273  0.119727  0.250000  1
  Hg  Hg21  1  0.880273  0.760546  0.250000  1
  Hg  Hg22  1  0.239454  0.119727  0.250000  1
  Hg  Hg23  1  0.119727  0.880273  0.750000  1
  Hg  Hg24  1  0.119727  0.239454  0.750000  1
  Hg  Hg25  1  0.760546  0.880273  0.750000  1
  Rh  Rh26  1  0.333333  0.666667  0.250000  1
  Rh  Rh27  1  0.666667  0.333333  0.750000  1
