# generated using pymatgen
data_Ho3Lu2In2Sb
_symmetry_space_group_name_H-M   'P 1'
_cell_length_a   6.47727100
_cell_length_b   8.89996512
_cell_length_c   8.87519596
_cell_angle_alpha   119.85411961
_cell_angle_beta   90.00208161
_cell_angle_gamma   89.99722848
_symmetry_Int_Tables_number   1
_chemical_formula_structural   Ho3Lu2In2Sb
_chemical_formula_sum   'Ho6 Lu4 In4 Sb2'
_cell_volume   443.73684069
_cell_formula_units_Z   2
loop_
 _symmetry_equiv_pos_site_id
 _symmetry_equiv_pos_as_xyz
  1  'x, y, z'
loop_
 _atom_site_type_symbol
 _atom_site_label
 _atom_site_symmetry_multiplicity
 _atom_site_fract_x
 _atom_site_fract_y
 _atom_site_fract_z
 _atom_site_occupancy
  Ho  Ho0  1  0.749990  0.233606  0.995553  1
  Ho  Ho1  1  0.750010  0.766289  0.761400  1
  Ho  Ho2  1  0.750061  0.999987  0.237480  1
  Ho  Ho3  1  0.250022  0.763544  0.000264  1
  Ho  Ho4  1  0.250013  0.236453  0.236808  1
  Ho  Ho5  1  0.249981  0.999899  0.763807  1
  Lu  Lu6  1  0.495504  0.334140  0.668289  1
  Lu  Lu7  1  0.495824  0.665832  0.334263  1
  Lu  Lu8  1  0.004172  0.665872  0.334302  1
  Lu  Lu9  1  0.004458  0.334087  0.668285  1
  In  In10  1  0.749964  0.000205  0.595511  1
  In  In11  1  0.250000  0.398103  0.001740  1
  In  In12  1  0.250017  0.601917  0.603773  1
  In  In13  1  0.250006  0.999849  0.401556  1
  Sb  Sb14  1  0.749987  0.604678  0.000817  1
  Sb  Sb15  1  0.749992  0.395542  0.396153  1
