# generated using pymatgen
data_LiTb2DyIn4Co
_symmetry_space_group_name_H-M   'P 1'
_cell_length_a   8.06916301
_cell_length_b   8.06621232
_cell_length_c   3.63692200
_cell_angle_alpha   90.00000000
_cell_angle_beta   90.00000000
_cell_angle_gamma   119.95481278
_symmetry_Int_Tables_number   1
_chemical_formula_structural   LiTb2DyIn4Co
_chemical_formula_sum   'Li1 Tb2 Dy1 In4 Co1'
_cell_volume   205.09748127
_cell_formula_units_Z   1
loop_
 _symmetry_equiv_pos_site_id
 _symmetry_equiv_pos_as_xyz
  1  'x, y, z'
loop_
 _atom_site_type_symbol
 _atom_site_label
 _atom_site_symmetry_multiplicity
 _atom_site_fract_x
 _atom_site_fract_y
 _atom_site_fract_z
 _atom_site_occupancy
  Li  Li0  1  0.666542  0.333215  0.500000  1
  Tb  Tb1  1  0.047347  0.287461  0.500000  1
  Tb  Tb2  1  0.712720  0.759514  0.500000  1
  Dy  Dy3  1  0.239602  0.953050  0.500000  1
  In  In4  1  0.663784  0.067638  0.000000  1
  In  In5  1  0.932860  0.597138  0.000000  1
  In  In6  1  0.403315  0.334890  0.000000  1
  In  In7  1  0.333082  0.667245  0.000000  1
  Co  Co8  1  0.000748  0.999850  0.000000  1
