# generated using pymatgen
data_Y4Er3Co6Sn22Au
_symmetry_space_group_name_H-M   'P 1'
_cell_length_a   9.67322700
_cell_length_b   9.67322697
_cell_length_c   9.94653600
_cell_angle_alpha   90.00000000
_cell_angle_beta   90.00000000
_cell_angle_gamma   120.00000351
_symmetry_Int_Tables_number   1
_chemical_formula_structural   Y4Er3Co6Sn22Au
_chemical_formula_sum   'Y4 Er3 Co6 Sn22 Au1'
_cell_volume   806.01891358
_cell_formula_units_Z   1
loop_
 _symmetry_equiv_pos_site_id
 _symmetry_equiv_pos_as_xyz
  1  'x, y, z'
loop_
 _atom_site_type_symbol
 _atom_site_label
 _atom_site_symmetry_multiplicity
 _atom_site_fract_x
 _atom_site_fract_y
 _atom_site_fract_z
 _atom_site_occupancy
  Y  Y0  1  0.000000  0.000000  0.000052  1
  Y  Y1  1  0.956361  0.478180  0.692772  1
  Y  Y2  1  0.521820  0.043639  0.692772  1
  Y  Y3  1  0.521820  0.478180  0.692772  1
  Er  Er4  1  0.043132  0.521566  0.307047  1
  Er  Er5  1  0.478434  0.956868  0.307047  1
  Er  Er6  1  0.478434  0.521566  0.307047  1
  Co  Co7  1  0.167713  0.832287  0.803892  1
  Co  Co8  1  0.664574  0.832287  0.803892  1
  Co  Co9  1  0.167713  0.335426  0.803892  1
  Co  Co10  1  0.832148  0.167852  0.196384  1
  Co  Co11  1  0.335705  0.167852  0.196384  1
  Co  Co12  1  0.832148  0.664295  0.196384  1
  Sn  Sn13  1  0.113390  0.886610  0.277983  1
  Sn  Sn14  1  0.773221  0.886610  0.277983  1
  Sn  Sn15  1  0.113390  0.226779  0.277983  1
  Sn  Sn16  1  0.886806  0.113194  0.722130  1
  Sn  Sn17  1  0.226389  0.113194  0.722130  1
  Sn  Sn18  1  0.886806  0.773611  0.722130  1
  Sn  Sn19  1  0.346246  0.999986  0.000081  1
  Sn  Sn20  1  0.653740  0.653754  0.000081  1
  Sn  Sn21  1  0.000014  0.346260  0.000081  1
  Sn  Sn22  1  0.346246  0.346260  0.000081  1
  Sn  Sn23  1  0.000014  0.653754  0.000081  1
  Sn  Sn24  1  0.653740  0.999986  0.000081  1
  Sn  Sn25  1  0.783356  0.566713  0.451778  1
  Sn  Sn26  1  0.783356  0.216644  0.451778  1
  Sn  Sn27  1  0.433287  0.216644  0.451778  1
  Sn  Sn28  1  0.216663  0.433325  0.547489  1
  Sn  Sn29  1  0.216663  0.783337  0.547489  1
  Sn  Sn30  1  0.566675  0.783337  0.547489  1
  Sn  Sn31  1  0.666667  0.333333  0.183741  1
  Sn  Sn32  1  0.333333  0.666667  0.816341  1
  Sn  Sn33  1  0.666667  0.333333  0.882535  1
  Sn  Sn34  1  0.333333  0.666667  0.118447  1
  Au  Au35  1  0.000000  0.000000  0.499976  1
