# generated using pymatgen
data_Ho20Bi8RuRh3
_symmetry_space_group_name_H-M   'P 1'
_cell_length_a   7.99177986
_cell_length_b   8.98711000
_cell_length_c   12.42029419
_cell_angle_alpha   90.00000000
_cell_angle_beta   90.25288775
_cell_angle_gamma   90.00000000
_symmetry_Int_Tables_number   1
_chemical_formula_structural   Ho20Bi8RuRh3
_chemical_formula_sum   'Ho20 Bi8 Ru1 Rh3'
_cell_volume   892.05415828
_cell_formula_units_Z   1
loop_
 _symmetry_equiv_pos_site_id
 _symmetry_equiv_pos_as_xyz
  1  'x, y, z'
loop_
 _atom_site_type_symbol
 _atom_site_label
 _atom_site_symmetry_multiplicity
 _atom_site_fract_x
 _atom_site_fract_y
 _atom_site_fract_z
 _atom_site_occupancy
  Ho  Ho0  1  0.838130  0.750000  0.790459  1
  Ho  Ho1  1  0.158920  0.250000  0.206744  1
  Ho  Ho2  1  0.343356  0.250000  0.705116  1
  Ho  Ho3  1  0.655871  0.750000  0.296322  1
  Ho  Ho4  1  0.379516  0.750000  0.694403  1
  Ho  Ho5  1  0.621550  0.250000  0.305515  1
  Ho  Ho6  1  0.878419  0.250000  0.807709  1
  Ho  Ho7  1  0.120402  0.750000  0.191008  1
  Ho  Ho8  1  0.949030  0.750000  0.502466  1
  Ho  Ho9  1  0.050996  0.250000  0.496940  1
  Ho  Ho10  1  0.451464  0.250000  0.999491  1
  Ho  Ho11  1  0.549385  0.750000  0.001267  1
  Ho  Ho12  1  0.677849  0.040340  0.564906  1
  Ho  Ho13  1  0.323533  0.954596  0.436118  1
  Ho  Ho14  1  0.177430  0.957794  0.934221  1
  Ho  Ho15  1  0.323533  0.545404  0.436118  1
  Ho  Ho16  1  0.822070  0.043134  0.065313  1
  Ho  Ho17  1  0.677849  0.459660  0.564906  1
  Ho  Ho18  1  0.822070  0.456866  0.065313  1
  Ho  Ho19  1  0.177430  0.542206  0.934221  1
  Bi  Bi20  1  0.570578  0.489674  0.827967  1
  Bi  Bi21  1  0.428782  0.510145  0.173044  1
  Bi  Bi22  1  0.070884  0.508124  0.673345  1
  Bi  Bi23  1  0.428782  0.989855  0.173044  1
  Bi  Bi24  1  0.930077  0.491431  0.326571  1
  Bi  Bi25  1  0.570578  0.010326  0.827967  1
  Bi  Bi26  1  0.930077  0.008569  0.326571  1
  Bi  Bi27  1  0.070884  0.991876  0.673345  1
  Ru  Ru28  1  0.575005  0.750000  0.513127  1
  Rh  Rh29  1  0.426524  0.250000  0.488486  1
  Rh  Rh30  1  0.071519  0.250000  0.990641  1
  Rh  Rh31  1  0.927506  0.750000  0.007339  1
