# generated using pymatgen
data_Sm8SiBBr12
_symmetry_space_group_name_H-M   'P 1'
_cell_length_a   4.11734500
_cell_length_b   13.38811803
_cell_length_c   14.16283237
_cell_angle_alpha   90.08779894
_cell_angle_beta   90.00000000
_cell_angle_gamma   90.00000000
_symmetry_Int_Tables_number   1
_chemical_formula_structural   Sm8SiBBr12
_chemical_formula_sum   'Sm8 Si1 B1 Br12'
_cell_volume   780.70398554
_cell_formula_units_Z   1
loop_
 _symmetry_equiv_pos_site_id
 _symmetry_equiv_pos_as_xyz
  1  'x, y, z'
loop_
 _atom_site_type_symbol
 _atom_site_label
 _atom_site_symmetry_multiplicity
 _atom_site_fract_x
 _atom_site_fract_y
 _atom_site_fract_z
 _atom_site_occupancy
  Sm  Sm0  1  0.500000  0.112123  0.348994  1
  Sm  Sm1  1  0.500000  0.887877  0.651006  1
  Sm  Sm2  1  0.500000  0.620431  0.162261  1
  Sm  Sm3  1  0.500000  0.379569  0.837739  1
  Sm  Sm4  1  0.000000  0.109763  0.573023  1
  Sm  Sm5  1  0.000000  0.890237  0.426977  1
  Sm  Sm6  1  0.000000  0.621118  0.919314  1
  Sm  Sm7  1  0.000000  0.378882  0.080686  1
  Si  Si8  1  0.500000  0.500000  0.000000  1
  B  B9  1  0.500000  0.000000  0.500000  1
  Br  Br10  1  0.500000  0.242404  0.166192  1
  Br  Br11  1  0.500000  0.757596  0.833808  1
  Br  Br12  1  0.500000  0.750133  0.338225  1
  Br  Br13  1  0.500000  0.249867  0.661775  1
  Br  Br14  1  0.000000  0.254940  0.414232  1
  Br  Br15  1  0.000000  0.745060  0.585768  1
  Br  Br16  1  0.000000  0.758086  0.088412  1
  Br  Br17  1  0.000000  0.241914  0.911588  1
  Br  Br18  1  0.000000  0.999384  0.244077  1
  Br  Br19  1  0.000000  0.000616  0.755923  1
  Br  Br20  1  0.000000  0.501332  0.260402  1
  Br  Br21  1  0.000000  0.498668  0.739598  1
