# generated using pymatgen
data_Nd3CoO6
_symmetry_space_group_name_H-M   'P 1'
_cell_length_a   7.42521510
_cell_length_b   7.42521661
_cell_length_c   5.64037700
_cell_angle_alpha   90.00000000
_cell_angle_beta   90.00000000
_cell_angle_gamma   103.07891380
_symmetry_Int_Tables_number   1
_chemical_formula_structural   Nd3CoO6
_chemical_formula_sum   'Nd6 Co2 O12'
_cell_volume   302.90866925
_cell_formula_units_Z   2
loop_
 _symmetry_equiv_pos_site_id
 _symmetry_equiv_pos_as_xyz
  1  'x, y, z'
loop_
 _atom_site_type_symbol
 _atom_site_label
 _atom_site_symmetry_multiplicity
 _atom_site_fract_x
 _atom_site_fract_y
 _atom_site_fract_z
 _atom_site_occupancy
  Nd  Nd0  1  0.412620  0.202268  0.535523  1
  Nd  Nd1  1  0.797732  0.587380  0.535523  1
  Nd  Nd2  1  0.587380  0.797732  0.035523  1
  Nd  Nd3  1  0.202268  0.412620  0.035523  1
  Nd  Nd4  1  0.104088  0.895912  0.075927  1
  Nd  Nd5  1  0.895912  0.104088  0.575927  1
  Co  Co6  1  0.304962  0.695038  0.502618  1
  Co  Co7  1  0.695038  0.304962  0.002618  1
  O  O8  1  0.171311  0.146801  0.802811  1
  O  O9  1  0.853199  0.828689  0.802811  1
  O  O10  1  0.828689  0.853199  0.302811  1
  O  O11  1  0.146801  0.171311  0.302811  1
  O  O12  1  0.608056  0.085981  0.827833  1
  O  O13  1  0.914019  0.391944  0.827833  1
  O  O14  1  0.391944  0.914019  0.327833  1
  O  O15  1  0.085981  0.608056  0.327833  1
  O  O16  1  0.541405  0.458595  0.869186  1
  O  O17  1  0.458595  0.541405  0.369186  1
  O  O18  1  0.286608  0.713392  0.830056  1
  O  O19  1  0.713392  0.286608  0.330056  1
