# generated using pymatgen
data_TbDy7Sc12Si15Bi
_symmetry_space_group_name_H-M   'P 1'
_cell_length_a   7.17300982
_cell_length_b   7.42034906
_cell_length_c   14.07708021
_cell_angle_alpha   90.12195358
_cell_angle_beta   88.85980741
_cell_angle_gamma   90.19977146
_symmetry_Int_Tables_number   1
_chemical_formula_structural   TbDy7Sc12Si15Bi
_chemical_formula_sum   'Tb1 Dy7 Sc12 Si15 Bi1'
_cell_volume   749.11550477
_cell_formula_units_Z   1
loop_
 _symmetry_equiv_pos_site_id
 _symmetry_equiv_pos_as_xyz
  1  'x, y, z'
loop_
 _atom_site_type_symbol
 _atom_site_label
 _atom_site_symmetry_multiplicity
 _atom_site_fract_x
 _atom_site_fract_y
 _atom_site_fract_z
 _atom_site_occupancy
  Tb  Tb0  1  0.012474  0.176266  0.096534  1
  Dy  Dy1  1  0.987778  0.824915  0.903874  1
  Dy  Dy2  1  0.488543  0.675576  0.903780  1
  Dy  Dy3  1  0.991866  0.831503  0.598551  1
  Dy  Dy4  1  0.512106  0.324597  0.097413  1
  Dy  Dy5  1  0.000844  0.169766  0.398748  1
  Dy  Dy6  1  0.512158  0.318095  0.397577  1
  Dy  Dy7  1  0.510769  0.685859  0.601278  1
  Sc  Sc8  1  0.163765  0.500969  0.756316  1
  Sc  Sc9  1  0.835394  0.498966  0.251471  1
  Sc  Sc10  1  0.335739  0.001598  0.250103  1
  Sc  Sc11  1  0.666127  0.998885  0.751428  1
  Sc  Sc12  1  0.347772  0.155994  0.632071  1
  Sc  Sc13  1  0.659904  0.827124  0.372309  1
  Sc  Sc14  1  0.155730  0.683317  0.369173  1
  Sc  Sc15  1  0.667698  0.822666  0.123810  1
  Sc  Sc16  1  0.825182  0.326159  0.625874  1
  Sc  Sc17  1  0.330286  0.175265  0.875365  1
  Sc  Sc18  1  0.830900  0.323680  0.875750  1
  Sc  Sc19  1  0.168904  0.676549  0.124738  1
  Si  Si20  1  0.035454  0.119873  0.751015  1
  Si  Si21  1  0.961878  0.884175  0.246272  1
  Si  Si22  1  0.461996  0.617007  0.247496  1
  Si  Si23  1  0.535017  0.383758  0.752960  1
  Si  Si24  1  0.288421  0.867660  0.753010  1
  Si  Si25  1  0.711235  0.125872  0.246749  1
  Si  Si26  1  0.210724  0.374416  0.249108  1
  Si  Si27  1  0.792774  0.627885  0.751751  1
  Si  Si28  1  0.814072  0.541367  0.456363  1
  Si  Si29  1  0.332771  0.963617  0.459991  1
  Si  Si30  1  0.843994  0.534804  0.039736  1
  Si  Si31  1  0.668605  0.038601  0.538457  1
  Si  Si32  1  0.155250  0.465792  0.961189  1
  Si  Si33  1  0.654771  0.034586  0.960251  1
  Si  Si34  1  0.344253  0.965840  0.040004  1
  Bi  Bi35  1  0.184846  0.456999  0.539485  1
