# generated using pymatgen
data_SmY17(HoPb8)2
_symmetry_space_group_name_H-M   'P 1'
_cell_length_a   8.24069598
_cell_length_b   8.30432611
_cell_length_c   15.70663663
_cell_angle_alpha   90.01689622
_cell_angle_beta   89.72060515
_cell_angle_gamma   89.92182192
_symmetry_Int_Tables_number   1
_chemical_formula_structural   SmY17(HoPb8)2
_chemical_formula_sum   'Sm1 Y17 Ho2 Pb16'
_cell_volume   1074.84513871
_cell_formula_units_Z   1
loop_
 _symmetry_equiv_pos_site_id
 _symmetry_equiv_pos_as_xyz
  1  'x, y, z'
loop_
 _atom_site_type_symbol
 _atom_site_label
 _atom_site_symmetry_multiplicity
 _atom_site_fract_x
 _atom_site_fract_y
 _atom_site_fract_z
 _atom_site_occupancy
  Sm  Sm0  1  0.967562  0.823293  0.598198  1
  Y  Y1  1  0.624172  0.158470  0.621284  1
  Y  Y2  1  0.122053  0.341686  0.880007  1
  Y  Y3  1  0.378335  0.842466  0.121359  1
  Y  Y4  1  0.875518  0.657936  0.378017  1
  Y  Y5  1  0.375685  0.841782  0.378316  1
  Y  Y6  1  0.877967  0.657998  0.121282  1
  Y  Y7  1  0.621656  0.158120  0.879368  1
  Y  Y8  1  0.123475  0.341704  0.621149  1
  Y  Y9  1  0.464469  0.674735  0.599488  1
  Y  Y10  1  0.962623  0.824531  0.899429  1
  Y  Y11  1  0.536817  0.324915  0.100689  1
  Y  Y12  1  0.035140  0.176115  0.400007  1
  Y  Y13  1  0.534925  0.324178  0.400200  1
  Y  Y14  1  0.037145  0.175231  0.100565  1
  Y  Y15  1  0.463344  0.675128  0.900373  1
  Y  Y16  1  0.790150  0.496030  0.750467  1
  Y  Y17  1  0.290407  0.004420  0.750656  1
  Ho  Ho18  1  0.209556  0.504179  0.249875  1
  Ho  Ho19  1  0.709584  0.995788  0.249360  1
  Pb  Pb20  1  0.716570  0.967235  0.455804  1
  Pb  Pb21  1  0.219350  0.533316  0.043460  1
  Pb  Pb22  1  0.280136  0.032329  0.957353  1
  Pb  Pb23  1  0.781535  0.464768  0.542314  1
  Pb  Pb24  1  0.285131  0.036671  0.542111  1
  Pb  Pb25  1  0.780426  0.466512  0.957579  1
  Pb  Pb26  1  0.719615  0.966986  0.043008  1
  Pb  Pb27  1  0.216996  0.534734  0.456976  1
  Pb  Pb28  1  0.426878  0.374738  0.750263  1
  Pb  Pb29  1  0.927229  0.125870  0.750313  1
  Pb  Pb30  1  0.572161  0.625117  0.249842  1
  Pb  Pb31  1  0.071933  0.874528  0.249900  1
  Pb  Pb32  1  0.651019  0.846493  0.749893  1
  Pb  Pb33  1  0.153125  0.652037  0.750764  1
  Pb  Pb34  1  0.348624  0.154351  0.250243  1
  Pb  Pb35  1  0.848686  0.345611  0.250088  1
