# generated using pymatgen
data_AcZn3Si
_symmetry_space_group_name_H-M   'P 1'
_cell_length_a   6.06495397
_cell_length_b   6.06495429
_cell_length_c   6.12646100
_cell_angle_alpha   90.00000000
_cell_angle_beta   90.00000000
_cell_angle_gamma   116.33308333
_symmetry_Int_Tables_number   1
_chemical_formula_structural   AcZn3Si
_chemical_formula_sum   'Ac2 Zn6 Si2'
_cell_volume   201.96885684
_cell_formula_units_Z   2
loop_
 _symmetry_equiv_pos_site_id
 _symmetry_equiv_pos_as_xyz
  1  'x, y, z'
loop_
 _atom_site_type_symbol
 _atom_site_label
 _atom_site_symmetry_multiplicity
 _atom_site_fract_x
 _atom_site_fract_y
 _atom_site_fract_z
 _atom_site_occupancy
  Ac  Ac0  1  0.263632  0.736368  0.750000  1
  Ac  Ac1  1  0.736368  0.263632  0.250000  1
  Zn  Zn2  1  0.610370  0.389630  0.750000  1
  Zn  Zn3  1  0.389630  0.610370  0.250000  1
  Zn  Zn4  1  0.779168  0.779168  0.000000  1
  Zn  Zn5  1  0.779168  0.779168  0.500000  1
  Zn  Zn6  1  0.220832  0.220832  0.000000  1
  Zn  Zn7  1  0.220832  0.220832  0.500000  1
  Si  Si8  1  0.856288  0.143712  0.750000  1
  Si  Si9  1  0.143712  0.856288  0.250000  1
