# generated using pymatgen
data_Tb8Ho4Co4SnPd
_symmetry_space_group_name_H-M   'P 1'
_cell_length_a   8.34046507
_cell_length_b   8.34046549
_cell_length_c   8.34046440
_cell_angle_alpha   111.08729123
_cell_angle_beta   110.26285509
_cell_angle_gamma   107.09054426
_symmetry_Int_Tables_number   1
_chemical_formula_structural   Tb8Ho4Co4SnPd
_chemical_formula_sum   'Tb8 Ho4 Co4 Sn1 Pd1'
_cell_volume   446.03158864
_cell_formula_units_Z   1
loop_
 _symmetry_equiv_pos_site_id
 _symmetry_equiv_pos_as_xyz
  1  'x, y, z'
loop_
 _atom_site_type_symbol
 _atom_site_label
 _atom_site_symmetry_multiplicity
 _atom_site_fract_x
 _atom_site_fract_y
 _atom_site_fract_z
 _atom_site_occupancy
  Tb  Tb0  1  0.413672  0.214755  0.198917  1
  Tb  Tb1  1  0.586328  0.785245  0.801083  1
  Tb  Tb2  1  0.015837  0.214755  0.801083  1
  Tb  Tb3  1  0.984163  0.785245  0.198917  1
  Tb  Tb4  1  0.185632  0.292881  0.478511  1
  Tb  Tb5  1  0.814368  0.707119  0.521489  1
  Tb  Tb6  1  0.185632  0.707119  0.892752  1
  Tb  Tb7  1  0.814368  0.292881  0.107248  1
  Ho  Ho8  1  0.316383  0.623765  0.307383  1
  Ho  Ho9  1  0.683617  0.376235  0.692617  1
  Ho  Ho10  1  0.316383  0.009000  0.692617  1
  Ho  Ho11  1  0.683617  0.991000  0.307383  1
  Co  Co12  1  0.376856  0.000000  0.376856  1
  Co  Co13  1  0.623144  0.000000  0.623144  1
  Co  Co14  1  0.112666  0.612666  0.500000  1
  Co  Co15  1  0.887334  0.387334  0.500000  1
  Sn  Sn16  1  0.500000  0.500000  0.000000  1
  Pd  Pd17  1  0.000000  0.000000  0.000000  1
