# generated using pymatgen
data_BaLiTmO3
_symmetry_space_group_name_H-M   'P 1'
_cell_length_a   6.08595569
_cell_length_b   6.08595648
_cell_length_c   8.62053100
_cell_angle_alpha   90.00000000
_cell_angle_beta   90.00000000
_cell_angle_gamma   146.66581507
_symmetry_Int_Tables_number   1
_chemical_formula_structural   BaLiTmO3
_chemical_formula_sum   'Ba2 Li2 Tm2 O6'
_cell_volume   175.45924373
_cell_formula_units_Z   2
loop_
 _symmetry_equiv_pos_site_id
 _symmetry_equiv_pos_as_xyz
  1  'x, y, z'
loop_
 _atom_site_type_symbol
 _atom_site_label
 _atom_site_symmetry_multiplicity
 _atom_site_fract_x
 _atom_site_fract_y
 _atom_site_fract_z
 _atom_site_occupancy
  Ba  Ba0  1  0.736811  0.263191  0.250000  1
  Ba  Ba1  1  0.263191  0.736811  0.750000  1
  Li  Li2  1  0.463923  0.536079  0.250000  1
  Li  Li3  1  0.536079  0.463923  0.750000  1
  Tm  Tm4  1  0.000000  0.000000  0.000000  1
  Tm  Tm5  1  0.000000  0.000000  0.500000  1
  O  O6  1  0.380827  0.619175  0.060985  1
  O  O7  1  0.051706  0.948296  0.250000  1
  O  O8  1  0.380827  0.619175  0.439014  1
  O  O9  1  0.619175  0.380827  0.560986  1
  O  O10  1  0.948296  0.051706  0.750000  1
  O  O11  1  0.619175  0.380827  0.939014  1
