# generated using pymatgen
data_LaNd3S4
_symmetry_space_group_name_H-M   'P 1'
_cell_length_a   13.29110397
_cell_length_b   13.29110388
_cell_length_c   13.29110418
_cell_angle_alpha   17.90210456
_cell_angle_beta   17.90210558
_cell_angle_gamma   17.90210689
_symmetry_Int_Tables_number   1
_chemical_formula_structural   LaNd3S4
_chemical_formula_sum   'La1 Nd3 S4'
_cell_volume   193.69393934
_cell_formula_units_Z   1
loop_
 _symmetry_equiv_pos_site_id
 _symmetry_equiv_pos_as_xyz
  1  'x, y, z'
loop_
 _atom_site_type_symbol
 _atom_site_label
 _atom_site_symmetry_multiplicity
 _atom_site_fract_x
 _atom_site_fract_y
 _atom_site_fract_z
 _atom_site_occupancy
  La  La0  1  0.000000  0.000000  0.000000  1
  Nd  Nd1  1  0.249066  0.249066  0.249066  1
  Nd  Nd2  1  0.500000  0.500000  0.500000  1
  Nd  Nd3  1  0.750934  0.750934  0.750934  1
  S  S4  1  0.376577  0.376577  0.376577  1
  S  S5  1  0.125614  0.125614  0.125614  1
  S  S6  1  0.623423  0.623423  0.623423  1
  S  S7  1  0.874386  0.874386  0.874386  1
