# generated using pymatgen
data_Ca3Ni(PO3)8
_symmetry_space_group_name_H-M   'P 1'
_cell_length_a   7.58307844
_cell_length_b   7.70625128
_cell_length_c   10.41342263
_cell_angle_alpha   67.28170920
_cell_angle_beta   66.85537774
_cell_angle_gamma   70.57432957
_symmetry_Int_Tables_number   1
_chemical_formula_structural   Ca3Ni(PO3)8
_chemical_formula_sum   'Ca3 Ni1 P8 O24'
_cell_volume   504.27925584
_cell_formula_units_Z   1
loop_
 _symmetry_equiv_pos_site_id
 _symmetry_equiv_pos_as_xyz
  1  'x, y, z'
loop_
 _atom_site_type_symbol
 _atom_site_label
 _atom_site_symmetry_multiplicity
 _atom_site_fract_x
 _atom_site_fract_y
 _atom_site_fract_z
 _atom_site_occupancy
  Ca  Ca0  1  0.000000  0.500000  0.500000  1
  Ca  Ca1  1  0.536680  0.451254  0.756328  1
  Ca  Ca2  1  0.463320  0.548746  0.243672  1
  Ni  Ni3  1  0.500000  0.000000  0.000000  1
  P  P4  1  0.799222  0.824135  0.695865  1
  P  P5  1  0.189017  0.187704  0.814070  1
  P  P6  1  0.200778  0.175865  0.304135  1
  P  P7  1  0.810983  0.812296  0.185930  1
  P  P8  1  0.766332  0.212687  0.474883  1
  P  P9  1  0.775589  0.226454  0.025191  1
  P  P10  1  0.233668  0.787313  0.525117  1
  P  P11  1  0.224411  0.773546  0.974809  1
  O  O12  1  0.030789  0.814641  0.656422  1
  O  O13  1  0.199592  0.965029  0.839546  1
  O  O14  1  0.969211  0.185359  0.343578  1
  O  O15  1  0.800408  0.034971  0.160454  1
  O  O16  1  0.739610  0.994172  0.558734  1
  O  O17  1  0.999431  0.247060  0.942195  1
  O  O18  1  0.260390  0.005828  0.441266  1
  O  O19  1  0.000569  0.752940  0.057805  1
  O  O20  1  0.694182  0.872630  0.835623  1
  O  O21  1  0.163228  0.301441  0.668448  1
  O  O22  1  0.305818  0.127370  0.164377  1
  O  O23  1  0.836772  0.698559  0.331552  1
  O  O24  1  0.777745  0.642804  0.683449  1
  O  O25  1  0.362899  0.200860  0.845777  1
  O  O26  1  0.222255  0.357196  0.316551  1
  O  O27  1  0.637101  0.799140  0.154223  1
  O  O28  1  0.792568  0.293587  0.576588  1
  O  O29  1  0.691819  0.189026  0.929658  1
  O  O30  1  0.207432  0.706413  0.423412  1
  O  O31  1  0.308181  0.810974  0.070342  1
  O  O32  1  0.395205  0.681671  0.591034  1
  O  O33  1  0.327290  0.605007  0.918590  1
  O  O34  1  0.604795  0.318329  0.408966  1
  O  O35  1  0.672710  0.394993  0.081410  1
