# generated using pymatgen
data_Tb7Yb(ErIr3)2
_symmetry_space_group_name_H-M   'P 1'
_cell_length_a   10.85684816
_cell_length_b   10.88644300
_cell_length_c   6.36353200
_cell_angle_alpha   90.00000000
_cell_angle_beta   90.23862826
_cell_angle_gamma   90.00000000
_symmetry_Int_Tables_number   1
_chemical_formula_structural   Tb7Yb(ErIr3)2
_chemical_formula_sum   'Tb14 Yb2 Er4 Ir12'
_cell_volume   752.11496975
_cell_formula_units_Z   2
loop_
 _symmetry_equiv_pos_site_id
 _symmetry_equiv_pos_as_xyz
  1  'x, y, z'
loop_
 _atom_site_type_symbol
 _atom_site_label
 _atom_site_symmetry_multiplicity
 _atom_site_fract_x
 _atom_site_fract_y
 _atom_site_fract_z
 _atom_site_occupancy
  Tb  Tb0  1  0.709243  0.086538  0.879052  1
  Tb  Tb1  1  0.709243  0.913462  0.379052  1
  Tb  Tb2  1  0.586292  0.791857  0.877866  1
  Tb  Tb3  1  0.586292  0.208143  0.377866  1
  Tb  Tb4  1  0.411576  0.792732  0.378846  1
  Tb  Tb5  1  0.411576  0.207268  0.878846  1
  Tb  Tb6  1  0.210141  0.412953  0.622589  1
  Tb  Tb7  1  0.210141  0.587047  0.122589  1
  Tb  Tb8  1  0.790645  0.412257  0.120690  1
  Tb  Tb9  1  0.790645  0.587743  0.620690  1
  Tb  Tb10  1  0.912418  0.710159  0.123042  1
  Tb  Tb11  1  0.912418  0.289841  0.623042  1
  Tb  Tb12  1  0.088134  0.709870  0.621461  1
  Tb  Tb13  1  0.088134  0.290130  0.121461  1
  Yb  Yb14  1  0.289394  0.087464  0.375763  1
  Yb  Yb15  1  0.289394  0.912536  0.875763  1
  Er  Er16  1  0.001187  0.999889  0.499069  1
  Er  Er17  1  0.001187  0.000111  0.999069  1
  Er  Er18  1  0.500036  0.499710  0.998854  1
  Er  Er19  1  0.500036  0.500290  0.498854  1
  Ir  Ir20  1  0.849695  0.152313  0.250044  1
  Ir  Ir21  1  0.849695  0.847687  0.750044  1
  Ir  Ir22  1  0.147688  0.157323  0.753010  1
  Ir  Ir23  1  0.147688  0.842677  0.253010  1
  Ir  Ir24  1  0.650945  0.347201  0.750217  1
  Ir  Ir25  1  0.650945  0.652799  0.250217  1
  Ir  Ir26  1  0.348620  0.351520  0.247156  1
  Ir  Ir27  1  0.348620  0.648480  0.747156  1
  Ir  Ir28  1  0.503687  0.000496  0.122464  1
  Ir  Ir29  1  0.503687  0.999504  0.622464  1
  Ir  Ir30  1  0.000298  0.500289  0.879878  1
  Ir  Ir31  1  0.000298  0.499711  0.379878  1
