# generated using pymatgen
data_Ho3Th11(TcOs2)2
_symmetry_space_group_name_H-M   'P 1'
_cell_length_a   9.87201997
_cell_length_b   9.95337145
_cell_length_c   6.37499038
_cell_angle_alpha   89.97342654
_cell_angle_beta   90.08109842
_cell_angle_gamma   120.26551710
_symmetry_Int_Tables_number   1
_chemical_formula_structural   Ho3Th11(TcOs2)2
_chemical_formula_sum   'Ho3 Th11 Tc2 Os4'
_cell_volume   541.02552332
_cell_formula_units_Z   1
loop_
 _symmetry_equiv_pos_site_id
 _symmetry_equiv_pos_as_xyz
  1  'x, y, z'
loop_
 _atom_site_type_symbol
 _atom_site_label
 _atom_site_symmetry_multiplicity
 _atom_site_fract_x
 _atom_site_fract_y
 _atom_site_fract_z
 _atom_site_occupancy
  Ho  Ho0  1  0.460775  0.535420  0.296748  1
  Ho  Ho1  1  0.073918  0.535686  0.300897  1
  Ho  Ho2  1  0.926459  0.462158  0.798856  1
  Th  Th3  1  0.251821  0.127755  0.510342  1
  Th  Th4  1  0.543023  0.081104  0.796986  1
  Th  Th5  1  0.747841  0.873212  0.013480  1
  Th  Th6  1  0.668527  0.335679  0.273229  1
  Th  Th7  1  0.123301  0.868564  0.009979  1
  Th  Th8  1  0.461510  0.920386  0.297118  1
  Th  Th9  1  0.538184  0.466386  0.799070  1
  Th  Th10  1  0.875082  0.130482  0.510954  1
  Th  Th11  1  0.122974  0.252861  0.013814  1
  Th  Th12  1  0.874416  0.748805  0.510979  1
  Th  Th13  1  0.331736  0.664245  0.770249  1
  Tc  Tc14  1  0.812476  0.634173  0.045896  1
  Tc  Tc15  1  0.813653  0.176969  0.045718  1
  Os  Os16  1  0.628439  0.812645  0.546761  1
  Os  Os17  1  0.370266  0.186399  0.043736  1
  Os  Os18  1  0.187503  0.369936  0.553847  1
  Os  Os19  1  0.188097  0.817135  0.545337  1
