# generated using pymatgen
data_DyTa5NbCl18
_symmetry_space_group_name_H-M   'P 1'
_cell_length_a   10.15335440
_cell_length_b   10.15163034
_cell_length_c   10.15001404
_cell_angle_alpha   55.99067268
_cell_angle_beta   56.00079177
_cell_angle_gamma   55.97894876
_symmetry_Int_Tables_number   1
_chemical_formula_structural   DyTa5NbCl18
_chemical_formula_sum   'Dy1 Ta5 Nb1 Cl18'
_cell_volume   671.04508279
_cell_formula_units_Z   1
loop_
 _symmetry_equiv_pos_site_id
 _symmetry_equiv_pos_as_xyz
  1  'x, y, z'
loop_
 _atom_site_type_symbol
 _atom_site_label
 _atom_site_symmetry_multiplicity
 _atom_site_fract_x
 _atom_site_fract_y
 _atom_site_fract_z
 _atom_site_occupancy
  Dy  Dy0  1  0.999572  0.999726  0.000234  1
  Ta  Ta1  1  0.409030  0.302245  0.648480  1
  Ta  Ta2  1  0.351204  0.591615  0.698130  1
  Ta  Ta3  1  0.698390  0.351210  0.591295  1
  Ta  Ta4  1  0.301885  0.649171  0.408375  1
  Ta  Ta5  1  0.649081  0.408774  0.301536  1
  Nb  Nb6  1  0.591705  0.699406  0.350293  1
  Cl  Cl7  1  0.568341  0.161612  0.441936  1
  Cl  Cl8  1  0.223570  0.371576  0.907660  1
  Cl  Cl9  1  0.907594  0.223180  0.371666  1
  Cl  Cl10  1  0.368478  0.908635  0.223279  1
  Cl  Cl11  1  0.777593  0.626591  0.090654  1
  Cl  Cl12  1  0.092290  0.776491  0.628575  1
  Cl  Cl13  1  0.704444  0.958579  0.159328  1
  Cl  Cl14  1  0.954801  0.161231  0.703376  1
  Cl  Cl15  1  0.161713  0.702429  0.955372  1
  Cl  Cl16  1  0.296729  0.046152  0.837692  1
  Cl  Cl17  1  0.045127  0.837304  0.297165  1
  Cl  Cl18  1  0.838337  0.296366  0.045475  1
  Cl  Cl19  1  0.557911  0.431658  0.838505  1
  Cl  Cl20  1  0.161778  0.442193  0.568052  1
  Cl  Cl21  1  0.442031  0.568057  0.161650  1
  Cl  Cl22  1  0.429628  0.838462  0.560922  1
  Cl  Cl23  1  0.840100  0.555140  0.433645  1
  Cl  Cl24  1  0.628667  0.092203  0.776702  1
