# generated using pymatgen
data_Y3Al2ZnSi2Pd
_symmetry_space_group_name_H-M   'P 1'
_cell_length_a   6.91612700
_cell_length_b   6.87459156
_cell_length_c   4.26820500
_cell_angle_alpha   90.00000000
_cell_angle_beta   90.00000000
_cell_angle_gamma   120.20007059
_symmetry_Int_Tables_number   1
_chemical_formula_structural   Y3Al2ZnSi2Pd
_chemical_formula_sum   'Y3 Al2 Zn1 Si2 Pd1'
_cell_volume   175.39074398
_cell_formula_units_Z   1
loop_
 _symmetry_equiv_pos_site_id
 _symmetry_equiv_pos_as_xyz
  1  'x, y, z'
loop_
 _atom_site_type_symbol
 _atom_site_label
 _atom_site_symmetry_multiplicity
 _atom_site_fract_x
 _atom_site_fract_y
 _atom_site_fract_z
 _atom_site_occupancy
  Y  Y0  1  0.424024  0.000000  0.000000  1
  Y  Y1  1  0.997055  0.415981  0.000000  1
  Y  Y2  1  0.581073  0.584018  0.000000  1
  Al  Al3  1  0.236049  0.235016  0.500000  1
  Al  Al4  1  0.001034  0.764986  0.500000  1
  Zn  Zn5  1  0.756324  0.000000  0.500000  1
  Si  Si6  1  0.665017  0.336476  0.500000  1
  Si  Si7  1  0.328542  0.663525  0.500000  1
  Pd  Pd8  1  0.010883  0.000000  0.000000  1
