# generated using pymatgen
data_Tm2Hf2IrPt
_symmetry_space_group_name_H-M   'P 1'
_cell_length_a   4.63849900
_cell_length_b   6.97990400
_cell_length_c   8.15511200
_cell_angle_alpha   90.00000000
_cell_angle_beta   90.00000000
_cell_angle_gamma   90.00000000
_symmetry_Int_Tables_number   1
_chemical_formula_structural   Tm2Hf2IrPt
_chemical_formula_sum   'Tm4 Hf4 Ir2 Pt2'
_cell_volume   264.03217098
_cell_formula_units_Z   2
loop_
 _symmetry_equiv_pos_site_id
 _symmetry_equiv_pos_as_xyz
  1  'x, y, z'
loop_
 _atom_site_type_symbol
 _atom_site_label
 _atom_site_symmetry_multiplicity
 _atom_site_fract_x
 _atom_site_fract_y
 _atom_site_fract_z
 _atom_site_occupancy
  Tm  Tm0  1  0.250000  0.982884  0.323062  1
  Tm  Tm1  1  0.250000  0.482884  0.176938  1
  Tm  Tm2  1  0.750000  0.015562  0.676607  1
  Tm  Tm3  1  0.750000  0.515562  0.823393  1
  Hf  Hf4  1  0.250000  0.358003  0.578885  1
  Hf  Hf5  1  0.250000  0.858003  0.921115  1
  Hf  Hf6  1  0.750000  0.646151  0.427942  1
  Hf  Hf7  1  0.750000  0.146151  0.072058  1
  Ir  Ir8  1  0.250000  0.232046  0.907133  1
  Ir  Ir9  1  0.250000  0.732046  0.592867  1
  Pt  Pt10  1  0.750000  0.765354  0.096769  1
  Pt  Pt11  1  0.750000  0.265354  0.403231  1
