# generated using pymatgen
data_TbYb2Dy(Ga2Ag)4
_symmetry_space_group_name_H-M   'P 1'
_cell_length_a   4.34524100
_cell_length_b   6.98648865
_cell_length_c   10.35622300
_cell_angle_alpha   90.03831374
_cell_angle_beta   90.00000000
_cell_angle_gamma   90.00000000
_symmetry_Int_Tables_number   1
_chemical_formula_structural   TbYb2Dy(Ga2Ag)4
_chemical_formula_sum   'Tb1 Yb2 Dy1 Ga8 Ag4'
_cell_volume   314.39390848
_cell_formula_units_Z   1
loop_
 _symmetry_equiv_pos_site_id
 _symmetry_equiv_pos_as_xyz
  1  'x, y, z'
loop_
 _atom_site_type_symbol
 _atom_site_label
 _atom_site_symmetry_multiplicity
 _atom_site_fract_x
 _atom_site_fract_y
 _atom_site_fract_z
 _atom_site_occupancy
  Tb  Tb0  1  0.250000  0.280183  0.672311  1
  Yb  Yb1  1  0.750000  0.223524  0.173013  1
  Yb  Yb2  1  0.750000  0.723471  0.326886  1
  Dy  Dy3  1  0.250000  0.780002  0.828227  1
  Ga  Ga4  1  0.250000  0.927035  0.150774  1
  Ga  Ga5  1  0.750000  0.073923  0.844590  1
  Ga  Ga6  1  0.750000  0.575112  0.655505  1
  Ga  Ga7  1  0.250000  0.427159  0.349232  1
  Ga  Ga8  1  0.250000  0.701091  0.534349  1
  Ga  Ga9  1  0.750000  0.298176  0.465228  1
  Ga  Ga10  1  0.750000  0.798148  0.034496  1
  Ga  Ga11  1  0.250000  0.199829  0.966011  1
  Ag  Ag12  1  0.250000  0.540958  0.098163  1
  Ag  Ag13  1  0.750000  0.455390  0.902822  1
  Ag  Ag14  1  0.750000  0.955157  0.597059  1
  Ag  Ag15  1  0.250000  0.040842  0.401336  1
