# generated using pymatgen
data_Tb10Ho9TmSn16
_symmetry_space_group_name_H-M   'P 1'
_cell_length_a   8.03318386
_cell_length_b   8.17405761
_cell_length_c   15.45963169
_cell_angle_alpha   90.00464488
_cell_angle_beta   90.03395553
_cell_angle_gamma   90.09493032
_symmetry_Int_Tables_number   1
_chemical_formula_structural   Tb10Ho9TmSn16
_chemical_formula_sum   'Tb10 Ho9 Tm1 Sn16'
_cell_volume   1015.13516056
_cell_formula_units_Z   1
loop_
 _symmetry_equiv_pos_site_id
 _symmetry_equiv_pos_as_xyz
  1  'x, y, z'
loop_
 _atom_site_type_symbol
 _atom_site_label
 _atom_site_symmetry_multiplicity
 _atom_site_fract_x
 _atom_site_fract_y
 _atom_site_fract_z
 _atom_site_occupancy
  Tb  Tb0  1  0.367383  0.836453  0.621975  1
  Tb  Tb1  1  0.867689  0.663347  0.878120  1
  Tb  Tb2  1  0.520000  0.320439  0.902637  1
  Tb  Tb3  1  0.020152  0.179866  0.597358  1
  Tb  Tb4  1  0.479971  0.679423  0.402449  1
  Tb  Tb5  1  0.979884  0.820489  0.097715  1
  Tb  Tb6  1  0.480052  0.679373  0.097237  1
  Tb  Tb7  1  0.980054  0.820519  0.402532  1
  Tb  Tb8  1  0.520060  0.320745  0.597496  1
  Tb  Tb9  1  0.020228  0.179554  0.902484  1
  Ho  Ho10  1  0.366907  0.836675  0.877633  1
  Ho  Ho11  1  0.867152  0.663134  0.622305  1
  Ho  Ho12  1  0.632824  0.163180  0.377827  1
  Ho  Ho13  1  0.132820  0.336922  0.121922  1
  Ho  Ho14  1  0.632677  0.163250  0.122552  1
  Ho  Ho15  1  0.132764  0.336809  0.377766  1
  Ho  Ho16  1  0.698365  0.997442  0.749940  1
  Ho  Ho17  1  0.801345  0.496696  0.250158  1
  Ho  Ho18  1  0.301343  0.003111  0.249902  1
  Tm  Tm19  1  0.198510  0.503220  0.750094  1
  Sn  Sn20  1  0.293676  0.036736  0.041587  1
  Sn  Sn21  1  0.793650  0.463055  0.458373  1
  Sn  Sn22  1  0.707491  0.963551  0.541767  1
  Sn  Sn23  1  0.207688  0.536406  0.957818  1
  Sn  Sn24  1  0.705529  0.964169  0.958354  1
  Sn  Sn25  1  0.205649  0.535599  0.542164  1
  Sn  Sn26  1  0.293628  0.037295  0.457752  1
  Sn  Sn27  1  0.793403  0.462370  0.042241  1
  Sn  Sn28  1  0.563896  0.618146  0.750027  1
  Sn  Sn29  1  0.065022  0.880662  0.750037  1
  Sn  Sn30  1  0.434918  0.380419  0.250021  1
  Sn  Sn31  1  0.935270  0.119734  0.249891  1
  Sn  Sn32  1  0.328448  0.148444  0.750080  1
  Sn  Sn33  1  0.829374  0.353177  0.749868  1
  Sn  Sn34  1  0.670985  0.853088  0.249944  1
  Sn  Sn35  1  0.171191  0.646506  0.249973  1
