# generated using pymatgen
data_BaCaNdCuO5
_symmetry_space_group_name_H-M   'P 1'
_cell_length_a   6.70255100
_cell_length_b   6.69546700
_cell_length_c   5.74928900
_cell_angle_alpha   90.00000000
_cell_angle_beta   90.00000000
_cell_angle_gamma   90.00000000
_symmetry_Int_Tables_number   1
_chemical_formula_structural   BaCaNdCuO5
_chemical_formula_sum   'Ba2 Ca2 Nd2 Cu2 O10'
_cell_volume   258.00916962
_cell_formula_units_Z   2
loop_
 _symmetry_equiv_pos_site_id
 _symmetry_equiv_pos_as_xyz
  1  'x, y, z'
loop_
 _atom_site_type_symbol
 _atom_site_label
 _atom_site_symmetry_multiplicity
 _atom_site_fract_x
 _atom_site_fract_y
 _atom_site_fract_z
 _atom_site_occupancy
  Ba  Ba0  1  0.003031  0.010101  0.000000  1
  Ba  Ba1  1  0.503031  0.489899  0.000000  1
  Ca  Ca2  1  0.321221  0.179327  0.500001  1
  Ca  Ca3  1  0.821221  0.320673  0.500001  1
  Nd  Nd4  1  0.171748  0.670513  0.500001  1
  Nd  Nd5  1  0.671748  0.829487  0.500001  1
  Cu  Cu6  1  0.501071  0.997740  0.000000  1
  Cu  Cu7  1  0.001071  0.502260  0.000000  1
  O  O8  1  0.635400  0.130310  0.233604  1
  O  O9  1  0.135400  0.369690  0.233604  1
  O  O10  1  0.866934  0.636988  0.232788  1
  O  O11  1  0.366933  0.863013  0.232788  1
  O  O12  1  0.998263  0.991962  0.500001  1
  O  O13  1  0.498263  0.508038  0.500001  1
  O  O14  1  0.635400  0.130310  0.766396  1
  O  O15  1  0.135400  0.369690  0.766396  1
  O  O16  1  0.866934  0.636988  0.767212  1
  O  O17  1  0.366933  0.863013  0.767212  1
