# generated using pymatgen
data_TmThFe2Te
_symmetry_space_group_name_H-M   'P 1'
_cell_length_a   4.01994600
_cell_length_b   4.01994569
_cell_length_c   16.65947000
_cell_angle_alpha   90.00000000
_cell_angle_beta   90.00000000
_cell_angle_gamma   120.00000255
_symmetry_Int_Tables_number   1
_chemical_formula_structural   TmThFe2Te
_chemical_formula_sum   'Tm2 Th2 Fe4 Te2'
_cell_volume   233.14827485
_cell_formula_units_Z   2
loop_
 _symmetry_equiv_pos_site_id
 _symmetry_equiv_pos_as_xyz
  1  'x, y, z'
loop_
 _atom_site_type_symbol
 _atom_site_label
 _atom_site_symmetry_multiplicity
 _atom_site_fract_x
 _atom_site_fract_y
 _atom_site_fract_z
 _atom_site_occupancy
  Tm  Tm0  1  0.000000  0.000000  0.619181  1
  Tm  Tm1  1  0.000000  0.000000  0.880819  1
  Th  Th2  1  0.000000  0.000000  0.105953  1
  Th  Th3  1  0.000000  0.000000  0.394047  1
  Fe  Fe4  1  0.333334  0.666667  0.997875  1
  Fe  Fe5  1  0.333334  0.666667  0.502125  1
  Fe  Fe6  1  0.666666  0.333334  0.508238  1
  Fe  Fe7  1  0.666666  0.333334  0.991762  1
  Te  Te8  1  0.666666  0.333334  0.250000  1
  Te  Te9  1  0.333334  0.666667  0.750000  1
