# generated using pymatgen
data_Yb2Ga3Cu7
_symmetry_space_group_name_H-M   'P 1'
_cell_length_a   4.14891000
_cell_length_b   5.05345093
_cell_length_c   8.77131805
_cell_angle_alpha   90.39916913
_cell_angle_beta   90.00000000
_cell_angle_gamma   90.00000000
_symmetry_Int_Tables_number   1
_chemical_formula_structural   Yb2Ga3Cu7
_chemical_formula_sum   'Yb2 Ga3 Cu7'
_cell_volume   183.89773753
_cell_formula_units_Z   1
loop_
 _symmetry_equiv_pos_site_id
 _symmetry_equiv_pos_as_xyz
  1  'x, y, z'
loop_
 _atom_site_type_symbol
 _atom_site_label
 _atom_site_symmetry_multiplicity
 _atom_site_fract_x
 _atom_site_fract_y
 _atom_site_fract_z
 _atom_site_occupancy
  Yb  Yb0  1  0.000000  0.999517  0.995505  1
  Yb  Yb1  1  0.000000  0.500490  0.504493  1
  Ga  Ga2  1  0.500000  0.510554  0.994295  1
  Ga  Ga3  1  0.500000  0.989382  0.505741  1
  Ga  Ga4  1  0.500000  0.250137  0.249984  1
  Cu  Cu5  1  0.000000  0.998231  0.333651  1
  Cu  Cu6  1  0.000000  0.497748  0.830523  1
  Cu  Cu7  1  0.000000  0.501918  0.166357  1
  Cu  Cu8  1  0.000000  0.002132  0.669481  1
  Cu  Cu9  1  0.500000  0.749594  0.750006  1
  Cu  Cu10  1  0.500000  0.750164  0.249971  1
  Cu  Cu11  1  0.500000  0.249935  0.749994  1
