# generated using pymatgen
data_Mg(AuF5)2
_symmetry_space_group_name_H-M   'P 1'
_cell_length_a   10.02497900
_cell_length_b   5.58355957
_cell_length_c   8.33978600
_cell_angle_alpha   69.37775337
_cell_angle_beta   90.00000000
_cell_angle_gamma   90.00000000
_symmetry_Int_Tables_number   1
_chemical_formula_structural   Mg(AuF5)2
_chemical_formula_sum   'Mg2 Au4 F20'
_cell_volume   436.90758439
_cell_formula_units_Z   2
loop_
 _symmetry_equiv_pos_site_id
 _symmetry_equiv_pos_as_xyz
  1  'x, y, z'
loop_
 _atom_site_type_symbol
 _atom_site_label
 _atom_site_symmetry_multiplicity
 _atom_site_fract_x
 _atom_site_fract_y
 _atom_site_fract_z
 _atom_site_occupancy
  Mg  Mg0  1  0.750097  0.497551  0.750324  1
  Mg  Mg1  1  0.249903  0.497551  0.250324  1
  Au  Au2  1  0.995149  0.094821  0.590675  1
  Au  Au3  1  0.505401  0.900735  0.909958  1
  Au  Au4  1  0.494599  0.900735  0.409958  1
  Au  Au5  1  0.004851  0.094821  0.090675  1
  F  F6  1  0.134758  0.349955  0.472599  1
  F  F7  1  0.629811  0.618354  0.908281  1
  F  F8  1  0.370189  0.618354  0.408281  1
  F  F9  1  0.865242  0.349955  0.972599  1
  F  F10  1  0.869837  0.376781  0.592587  1
  F  F11  1  0.365283  0.646981  0.027800  1
  F  F12  1  0.634717  0.646981  0.527800  1
  F  F13  1  0.130163  0.376781  0.092587  1
  F  F14  1  0.646167  0.157976  0.798857  1
  F  F15  1  0.117889  0.824687  0.599220  1
  F  F16  1  0.882111  0.824687  0.099220  1
  F  F17  1  0.353833  0.157976  0.298857  1
  F  F18  1  0.383351  0.171690  0.900852  1
  F  F19  1  0.854966  0.836479  0.702177  1
  F  F20  1  0.145034  0.836479  0.202177  1
  F  F21  1  0.616649  0.171690  0.400852  1
  F  F22  1  0.050551  0.095802  0.838876  1
  F  F23  1  0.449305  0.899043  0.662335  1
  F  F24  1  0.550695  0.899043  0.162335  1
  F  F25  1  0.949449  0.095802  0.338876  1
