# generated using pymatgen
data_Er8CrSi16Tc11
_symmetry_space_group_name_H-M   'P 1'
_cell_length_a   6.76438724
_cell_length_b   6.76384116
_cell_length_c   12.56297554
_cell_angle_alpha   90.22927384
_cell_angle_beta   90.20988286
_cell_angle_gamma   89.89591745
_symmetry_Int_Tables_number   1
_chemical_formula_structural   Er8CrSi16Tc11
_chemical_formula_sum   'Er8 Cr1 Si16 Tc11'
_cell_volume   574.78745427
_cell_formula_units_Z   1
loop_
 _symmetry_equiv_pos_site_id
 _symmetry_equiv_pos_as_xyz
  1  'x, y, z'
loop_
 _atom_site_type_symbol
 _atom_site_label
 _atom_site_symmetry_multiplicity
 _atom_site_fract_x
 _atom_site_fract_y
 _atom_site_fract_z
 _atom_site_occupancy
  Er  Er0  1  0.339105  0.993655  0.468966  1
  Er  Er1  1  0.500434  0.837591  0.720195  1
  Er  Er2  1  0.498027  0.160267  0.219975  1
  Er  Er3  1  0.840781  0.502466  0.280801  1
  Er  Er4  1  0.159870  0.494763  0.779949  1
  Er  Er5  1  0.663700  0.002047  0.969573  1
  Er  Er6  1  0.997173  0.335534  0.529480  1
  Er  Er7  1  0.006038  0.659888  0.030902  1
  Cr  Cr8  1  0.011777  0.824531  0.625064  1
  Si  Si9  1  0.192758  0.114121  0.685512  1
  Si  Si10  1  0.382848  0.693343  0.935770  1
  Si  Si11  1  0.614918  0.308101  0.438324  1
  Si  Si12  1  0.692222  0.384986  0.062722  1
  Si  Si13  1  0.299690  0.620448  0.565610  1
  Si  Si14  1  0.809362  0.883889  0.187486  1
  Si  Si15  1  0.117148  0.192065  0.313373  1
  Si  Si16  1  0.884660  0.806532  0.809561  1
  Si  Si17  1  0.276668  0.977970  0.063141  1
  Si  Si18  1  0.520722  0.767718  0.312099  1
  Si  Si19  1  0.472323  0.219439  0.815655  1
  Si  Si20  1  0.782966  0.530632  0.683140  1
  Si  Si21  1  0.233386  0.481016  0.188447  1
  Si  Si22  1  0.719253  0.027922  0.565924  1
  Si  Si23  1  0.975219  0.276221  0.935604  1
  Si  Si24  1  0.024394  0.723182  0.437817  1
  Tc  Tc25  1  0.334055  0.333592  0.000857  1
  Tc  Tc26  1  0.168279  0.832077  0.249828  1
  Tc  Tc27  1  0.834501  0.163753  0.748094  1
  Tc  Tc28  1  0.668495  0.665301  0.501331  1
  Tc  Tc29  1  0.180739  0.979902  0.871801  1
  Tc  Tc30  1  0.526343  0.689718  0.117934  1
  Tc  Tc31  1  0.482142  0.325173  0.626336  1
  Tc  Tc32  1  0.675889  0.516279  0.874078  1
  Tc  Tc33  1  0.312260  0.475837  0.382010  1
  Tc  Tc34  1  0.821740  0.018824  0.374732  1
  Tc  Tc35  1  0.980115  0.181217  0.127912  1
