# generated using pymatgen
data_LiTaNb2(Co4P3)2
_symmetry_space_group_name_H-M   'P 1'
_cell_length_a   11.95014944
_cell_length_b   11.95015061
_cell_length_c   3.57686200
_cell_angle_alpha   90.00000000
_cell_angle_beta   90.00000000
_cell_angle_gamma   119.94381980
_symmetry_Int_Tables_number   1
_chemical_formula_structural   LiTaNb2(Co4P3)2
_chemical_formula_sum   'Li2 Ta2 Nb4 Co16 P12'
_cell_volume   442.61396387
_cell_formula_units_Z   2
loop_
 _symmetry_equiv_pos_site_id
 _symmetry_equiv_pos_as_xyz
  1  'x, y, z'
loop_
 _atom_site_type_symbol
 _atom_site_label
 _atom_site_symmetry_multiplicity
 _atom_site_fract_x
 _atom_site_fract_y
 _atom_site_fract_z
 _atom_site_occupancy
  Li  Li0  1  0.333665  0.666736  0.000000  1
  Li  Li1  1  0.666736  0.333665  0.000000  1
  Ta  Ta2  1  0.444110  0.999982  0.000000  1
  Ta  Ta3  1  0.999982  0.444110  0.000000  1
  Nb  Nb4  1  0.820726  0.000347  0.500000  1
  Nb  Nb5  1  0.000347  0.820726  0.500000  1
  Nb  Nb6  1  0.179704  0.179704  0.500000  1
  Nb  Nb7  1  0.555050  0.555050  0.000000  1
  Co  Co8  1  0.276997  0.999845  0.500000  1
  Co  Co9  1  0.999845  0.276997  0.500000  1
  Co  Co10  1  0.723891  0.723891  0.500000  1
  Co  Co11  1  0.633858  0.807917  0.000000  1
  Co  Co12  1  0.192907  0.826487  0.000000  1
  Co  Co13  1  0.173129  0.366127  0.000000  1
  Co  Co14  1  0.366127  0.173129  0.000000  1
  Co  Co15  1  0.807917  0.633858  0.000000  1
  Co  Co16  1  0.826487  0.192907  0.000000  1
  Co  Co17  1  0.522335  0.874175  0.500000  1
  Co  Co18  1  0.125792  0.648624  0.500000  1
  Co  Co19  1  0.350249  0.477019  0.500000  1
  Co  Co20  1  0.477019  0.350249  0.500000  1
  Co  Co21  1  0.874175  0.522335  0.500000  1
  Co  Co22  1  0.648624  0.125792  0.500000  1
  Co  Co23  1  0.999684  0.999684  0.000000  1
  P  P24  1  0.172807  0.000119  0.000000  1
  P  P25  1  0.000119  0.172807  0.000000  1
  P  P26  1  0.826730  0.826730  0.000000  1
  P  P27  1  0.511952  0.686025  0.500000  1
  P  P28  1  0.314111  0.825815  0.500000  1
  P  P29  1  0.173940  0.488403  0.500000  1
  P  P30  1  0.488403  0.173940  0.500000  1
  P  P31  1  0.686025  0.511952  0.500000  1
  P  P32  1  0.825815  0.314111  0.500000  1
  P  P33  1  0.649364  0.999997  0.000000  1
  P  P34  1  0.999997  0.649364  0.000000  1
  P  P35  1  0.351383  0.351383  0.000000  1
