# generated using pymatgen
data_Sc11FeRuPt2
_symmetry_space_group_name_H-M   'P 1'
_cell_length_a   9.45043926
_cell_length_b   9.45043930
_cell_length_c   9.51440800
_cell_angle_alpha   59.77582716
_cell_angle_beta   59.77582700
_cell_angle_gamma   60.44833401
_symmetry_Int_Tables_number   1
_chemical_formula_structural   Sc11FeRuPt2
_chemical_formula_sum   'Sc22 Fe2 Ru2 Pt4'
_cell_volume   600.80101168
_cell_formula_units_Z   2
loop_
 _symmetry_equiv_pos_site_id
 _symmetry_equiv_pos_as_xyz
  1  'x, y, z'
loop_
 _atom_site_type_symbol
 _atom_site_label
 _atom_site_symmetry_multiplicity
 _atom_site_fract_x
 _atom_site_fract_y
 _atom_site_fract_z
 _atom_site_occupancy
  Sc  Sc0  1  0.808529  0.808529  0.191471  1
  Sc  Sc1  1  0.191387  0.808613  0.191387  1
  Sc  Sc2  1  0.808613  0.191387  0.191387  1
  Sc  Sc3  1  0.191471  0.191471  0.808529  1
  Sc  Sc4  1  0.808613  0.191387  0.808613  1
  Sc  Sc5  1  0.191387  0.808613  0.808613  1
  Sc  Sc6  1  0.613525  0.613525  0.156748  1
  Sc  Sc7  1  0.616201  0.156748  0.613525  1
  Sc  Sc8  1  0.156748  0.616201  0.613525  1
  Sc  Sc9  1  0.613525  0.613525  0.616201  1
  Sc  Sc10  1  0.386475  0.386475  0.843252  1
  Sc  Sc11  1  0.383799  0.843252  0.386475  1
  Sc  Sc12  1  0.843252  0.383799  0.386475  1
  Sc  Sc13  1  0.386475  0.386475  0.383799  1
  Sc  Sc14  1  0.844404  0.844404  0.474651  1
  Sc  Sc15  1  0.836540  0.474651  0.844404  1
  Sc  Sc16  1  0.474651  0.836540  0.844404  1
  Sc  Sc17  1  0.844404  0.844404  0.836540  1
  Sc  Sc18  1  0.155596  0.155596  0.525349  1
  Sc  Sc19  1  0.163460  0.525349  0.155596  1
  Sc  Sc20  1  0.525349  0.163460  0.155596  1
  Sc  Sc21  1  0.155596  0.155596  0.163460  1
  Fe  Fe22  1  0.000000  0.000000  0.000000  1
  Fe  Fe23  1  0.500000  0.500000  0.500000  1
  Ru  Ru24  1  0.000000  0.000000  0.500000  1
  Ru  Ru25  1  0.500000  0.500000  0.000000  1
  Pt  Pt26  1  0.500000  0.000000  0.500000  1
  Pt  Pt27  1  0.000000  0.500000  0.500000  1
  Pt  Pt28  1  0.000000  0.500000  0.000000  1
  Pt  Pt29  1  0.500000  0.000000  0.000000  1
