# generated using pymatgen
data_Tb9DySi5Sn
_symmetry_space_group_name_H-M   'P 1'
_cell_length_a   8.56500600
_cell_length_b   8.59278614
_cell_length_c   6.43323200
_cell_angle_alpha   89.99781237
_cell_angle_beta   89.99992427
_cell_angle_gamma   119.89613903
_symmetry_Int_Tables_number   1
_chemical_formula_structural   Tb9DySi5Sn
_chemical_formula_sum   'Tb9 Dy1 Si5 Sn1'
_cell_volume   410.46401533
_cell_formula_units_Z   1
loop_
 _symmetry_equiv_pos_site_id
 _symmetry_equiv_pos_as_xyz
  1  'x, y, z'
loop_
 _atom_site_type_symbol
 _atom_site_label
 _atom_site_symmetry_multiplicity
 _atom_site_fract_x
 _atom_site_fract_y
 _atom_site_fract_z
 _atom_site_occupancy
  Tb  Tb0  1  0.989364  0.748647  0.749969  1
  Tb  Tb1  1  0.998915  0.242917  0.250025  1
  Tb  Tb2  1  0.756026  0.757054  0.250031  1
  Tb  Tb3  1  0.764754  0.000025  0.749975  1
  Tb  Tb4  1  0.240747  0.251324  0.749979  1
  Tb  Tb5  1  0.241533  0.000025  0.250027  1
  Tb  Tb6  1  0.673371  0.341783  0.003200  1
  Tb  Tb7  1  0.331586  0.658212  0.496785  1
  Tb  Tb8  1  0.331581  0.658210  0.003214  1
  Dy  Dy9  1  0.673375  0.341790  0.496807  1
  Si  Si10  1  0.393617  0.392252  0.250070  1
  Si  Si11  1  0.001180  0.607661  0.250084  1
  Si  Si12  1  0.998657  0.394247  0.749922  1
  Si  Si13  1  0.604505  0.605674  0.749925  1
  Si  Si14  1  0.605798  0.000079  0.250062  1
  Sn  Sn15  1  0.394988  0.000100  0.749927  1
