# generated using pymatgen
data_Ho5Cr3(P3Rh4)4
_symmetry_space_group_name_H-M   'P 1'
_cell_length_a   12.68771200
_cell_length_b   12.68771258
_cell_length_c   3.89936900
_cell_angle_alpha   90.00000000
_cell_angle_beta   90.00000000
_cell_angle_gamma   120.00000370
_symmetry_Int_Tables_number   1
_chemical_formula_structural   Ho5Cr3(P3Rh4)4
_chemical_formula_sum   'Ho5 Cr3 P12 Rh16'
_cell_volume   543.61520313
_cell_formula_units_Z   1
loop_
 _symmetry_equiv_pos_site_id
 _symmetry_equiv_pos_as_xyz
  1  'x, y, z'
loop_
 _atom_site_type_symbol
 _atom_site_label
 _atom_site_symmetry_multiplicity
 _atom_site_fract_x
 _atom_site_fract_y
 _atom_site_fract_z
 _atom_site_occupancy
  Ho  Ho0  1  0.666667  0.333333  0.000000  1
  Ho  Ho1  1  0.333333  0.666667  0.000000  1
  Ho  Ho2  1  0.810426  0.810426  0.500000  1
  Ho  Ho3  1  0.189574  0.000000  0.500000  1
  Ho  Ho4  1  0.000000  0.189574  0.500000  1
  Cr  Cr5  1  0.452181  0.452181  0.000000  1
  Cr  Cr6  1  0.547819  0.000000  0.000000  1
  Cr  Cr7  1  0.000000  0.547819  0.000000  1
  P  P8  1  0.682837  0.165455  0.500000  1
  P  P9  1  0.834545  0.517383  0.500000  1
  P  P10  1  0.482617  0.317163  0.500000  1
  P  P11  1  0.165455  0.682837  0.500000  1
  P  P12  1  0.517383  0.834545  0.500000  1
  P  P13  1  0.317163  0.482617  0.500000  1
  P  P14  1  0.177239  0.177239  0.000000  1
  P  P15  1  0.822761  0.000000  0.000000  1
  P  P16  1  0.000000  0.822761  0.000000  1
  P  P17  1  0.635449  0.635449  0.000000  1
  P  P18  1  0.364551  0.000000  0.000000  1
  P  P19  1  0.000000  0.364551  0.000000  1
  Rh  Rh20  1  0.869562  0.357905  0.500000  1
  Rh  Rh21  1  0.642095  0.511657  0.500000  1
  Rh  Rh22  1  0.488343  0.130438  0.500000  1
  Rh  Rh23  1  0.357905  0.869562  0.500000  1
  Rh  Rh24  1  0.511657  0.642095  0.500000  1
  Rh  Rh25  1  0.130438  0.488343  0.500000  1
  Rh  Rh26  1  0.801859  0.177897  0.000000  1
  Rh  Rh27  1  0.822103  0.623961  0.000000  1
  Rh  Rh28  1  0.376039  0.198141  0.000000  1
  Rh  Rh29  1  0.177897  0.801859  0.000000  1
  Rh  Rh30  1  0.623961  0.822103  0.000000  1
  Rh  Rh31  1  0.198141  0.376039  0.000000  1
  Rh  Rh32  1  0.282179  0.282179  0.500000  1
  Rh  Rh33  1  0.717821  0.000000  0.500000  1
  Rh  Rh34  1  0.000000  0.717821  0.500000  1
  Rh  Rh35  1  0.000000  0.000000  0.000000  1
