# generated using pymatgen
data_Ba6Mn(FeO6)2
_symmetry_space_group_name_H-M   'P 1'
_cell_length_a   9.08265533
_cell_length_b   9.08265676
_cell_length_c   7.24461648
_cell_angle_alpha   67.90125954
_cell_angle_beta   67.90125818
_cell_angle_gamma   36.79724127
_symmetry_Int_Tables_number   1
_chemical_formula_structural   Ba6Mn(FeO6)2
_chemical_formula_sum   'Ba6 Mn1 Fe2 O12'
_cell_volume   328.64145616
_cell_formula_units_Z   1
loop_
 _symmetry_equiv_pos_site_id
 _symmetry_equiv_pos_as_xyz
  1  'x, y, z'
loop_
 _atom_site_type_symbol
 _atom_site_label
 _atom_site_symmetry_multiplicity
 _atom_site_fract_x
 _atom_site_fract_y
 _atom_site_fract_z
 _atom_site_occupancy
  Ba  Ba0  1  0.882078  0.882078  0.714455  1
  Ba  Ba1  1  0.212750  0.212750  0.716332  1
  Ba  Ba2  1  0.547343  0.547343  0.715849  1
  Ba  Ba3  1  0.452657  0.452657  0.284151  1
  Ba  Ba4  1  0.787250  0.787250  0.283668  1
  Ba  Ba5  1  0.117922  0.117922  0.285545  1
  Mn  Mn6  1  0.000000  0.000000  0.000000  1
  Fe  Fe7  1  0.666260  0.666260  0.999804  1
  Fe  Fe8  1  0.333740  0.333740  0.000196  1
  O  O9  1  0.950269  0.950269  0.297860  1
  O  O10  1  0.284531  0.284531  0.293446  1
  O  O11  1  0.617929  0.617929  0.292631  1
  O  O12  1  0.382071  0.382071  0.707369  1
  O  O13  1  0.715469  0.715469  0.706554  1
  O  O14  1  0.049731  0.049731  0.702140  1
  O  O15  1  0.500000  0.000000  0.000000  1
  O  O16  1  0.835190  0.329303  0.999506  1
  O  O17  1  0.164810  0.670697  0.000494  1
  O  O18  1  0.000000  0.500000  0.000000  1
  O  O19  1  0.329303  0.835190  0.999506  1
  O  O20  1  0.670697  0.164810  0.000494  1
