# generated using pymatgen
data_TaNb5V4(Ga3B)2
_symmetry_space_group_name_H-M   'P 1'
_cell_length_a   7.70638901
_cell_length_b   7.70638841
_cell_length_c   5.13396900
_cell_angle_alpha   90.00000000
_cell_angle_beta   90.00000000
_cell_angle_gamma   120.00700421
_symmetry_Int_Tables_number   1
_chemical_formula_structural   TaNb5V4(Ga3B)2
_chemical_formula_sum   'Ta1 Nb5 V4 Ga6 B2'
_cell_volume   264.03107197
_cell_formula_units_Z   1
loop_
 _symmetry_equiv_pos_site_id
 _symmetry_equiv_pos_as_xyz
  1  'x, y, z'
loop_
 _atom_site_type_symbol
 _atom_site_label
 _atom_site_symmetry_multiplicity
 _atom_site_fract_x
 _atom_site_fract_y
 _atom_site_fract_z
 _atom_site_occupancy
  Ta  Ta0  1  0.244619  0.244619  0.750000  1
  Nb  Nb1  1  0.245148  0.000633  0.250000  1
  Nb  Nb2  1  0.755175  0.000069  0.750000  1
  Nb  Nb3  1  0.000633  0.245148  0.250000  1
  Nb  Nb4  1  0.000069  0.755175  0.750000  1
  Nb  Nb5  1  0.755298  0.755298  0.250000  1
  V  V6  1  0.333142  0.666054  0.999650  1
  V  V7  1  0.666054  0.333142  0.999650  1
  V  V8  1  0.666054  0.333142  0.500350  1
  V  V9  1  0.333142  0.666054  0.500350  1
  Ga  Ga10  1  0.593717  0.000008  0.250000  1
  Ga  Ga11  1  0.406362  0.999793  0.750000  1
  Ga  Ga12  1  0.000008  0.593717  0.250000  1
  Ga  Ga13  1  0.999793  0.406362  0.750000  1
  Ga  Ga14  1  0.406617  0.406617  0.250000  1
  Ga  Ga15  1  0.593861  0.593861  0.750000  1
  B  B16  1  0.000154  0.000154  0.000083  1
  B  B17  1  0.000154  0.000154  0.499917  1
