# generated using pymatgen
data_Ca3Ac7(Sn3H)2
_symmetry_space_group_name_H-M   'P 1'
_cell_length_a   9.87619480
_cell_length_b   9.90348074
_cell_length_c   9.88133297
_cell_angle_alpha   128.52666326
_cell_angle_beta   128.45022058
_cell_angle_gamma   75.89835898
_symmetry_Int_Tables_number   1
_chemical_formula_structural   Ca3Ac7(Sn3H)2
_chemical_formula_sum   'Ca3 Ac7 Sn6 H2'
_cell_volume   575.62100983
_cell_formula_units_Z   1
loop_
 _symmetry_equiv_pos_site_id
 _symmetry_equiv_pos_as_xyz
  1  'x, y, z'
loop_
 _atom_site_type_symbol
 _atom_site_label
 _atom_site_symmetry_multiplicity
 _atom_site_fract_x
 _atom_site_fract_y
 _atom_site_fract_z
 _atom_site_occupancy
  Ca  Ca0  1  0.501498  0.501612  0.995398  1
  Ca  Ca1  1  0.006100  0.006214  0.004602  1
  Ca  Ca2  1  0.301883  0.486477  0.500000  1
  Ac  Ac3  1  0.516252  0.019140  0.832599  1
  Ac  Ac4  1  0.183654  0.686541  0.167401  1
  Ac  Ac5  1  0.015593  0.180208  0.500000  1
  Ac  Ac6  1  0.686634  0.518572  0.500000  1
  Ac  Ac7  1  0.482552  0.980359  0.166339  1
  Ac  Ac8  1  0.816213  0.314020  0.833661  1
  Ac  Ac9  1  0.983157  0.815077  0.500000  1
  Sn  Sn10  1  0.252128  0.251262  0.006458  1
  Sn  Sn11  1  0.745670  0.744804  0.993542  1
  Sn  Sn12  1  0.874362  0.369316  0.241652  1
  Sn  Sn13  1  0.132712  0.627666  0.758348  1
  Sn  Sn14  1  0.368697  0.137372  0.500000  1
  Sn  Sn15  1  0.631199  0.868612  0.500000  1
  H  H16  1  0.255221  0.740345  0.500000  1
  H  H17  1  0.746475  0.252403  0.500000  1
