# generated using pymatgen
data_Er4ZnAs5Rh7
_symmetry_space_group_name_H-M   'P 1'
_cell_length_a   7.24631875
_cell_length_b   7.24631932
_cell_length_c   7.24631953
_cell_angle_alpha   108.70965137
_cell_angle_beta   109.85334353
_cell_angle_gamma   109.85333870
_symmetry_Int_Tables_number   1
_chemical_formula_structural   Er4ZnAs5Rh7
_chemical_formula_sum   'Er4 Zn1 As5 Rh7'
_cell_volume   292.86875705
_cell_formula_units_Z   1
loop_
 _symmetry_equiv_pos_site_id
 _symmetry_equiv_pos_as_xyz
  1  'x, y, z'
loop_
 _atom_site_type_symbol
 _atom_site_label
 _atom_site_symmetry_multiplicity
 _atom_site_fract_x
 _atom_site_fract_y
 _atom_site_fract_z
 _atom_site_occupancy
  Er  Er0  1  0.000000  0.996961  0.495039  1
  Er  Er1  1  0.000000  0.495039  0.996961  1
  Er  Er2  1  0.501922  0.996961  0.996961  1
  Er  Er3  1  0.498078  0.495039  0.495039  1
  Zn  Zn4  1  0.000000  0.692363  0.692363  1
  As  As5  1  0.684672  0.680131  0.995460  1
  As  As6  1  0.315328  0.995460  0.310789  1
  As  As7  1  0.000000  0.332458  0.332458  1
  As  As8  1  0.315328  0.310789  0.995460  1
  As  As9  1  0.684672  0.995460  0.680131  1
  Rh  Rh10  1  0.748168  0.248349  0.500181  1
  Rh  Rh11  1  0.748168  0.500181  0.248349  1
  Rh  Rh12  1  0.500000  0.246959  0.746959  1
  Rh  Rh13  1  0.251832  0.500181  0.752013  1
  Rh  Rh14  1  0.251832  0.752013  0.500181  1
  Rh  Rh15  1  0.500000  0.746959  0.246959  1
  Rh  Rh16  1  0.000000  0.014698  0.014698  1
