# generated using pymatgen
data_ErAlFe4Re7
_symmetry_space_group_name_H-M   'P 1'
_cell_length_a   4.81583675
_cell_length_b   6.72423766
_cell_length_c   6.72423695
_cell_angle_alpha   81.67551577
_cell_angle_beta   69.01670826
_cell_angle_gamma   69.01670494
_symmetry_Int_Tables_number   1
_chemical_formula_structural   ErAlFe4Re7
_chemical_formula_sum   'Er1 Al1 Fe4 Re7'
_cell_volume   189.79301734
_cell_formula_units_Z   1
loop_
 _symmetry_equiv_pos_site_id
 _symmetry_equiv_pos_as_xyz
  1  'x, y, z'
loop_
 _atom_site_type_symbol
 _atom_site_label
 _atom_site_symmetry_multiplicity
 _atom_site_fract_x
 _atom_site_fract_y
 _atom_site_fract_z
 _atom_site_occupancy
  Er  Er0  1  0.993409  0.006591  0.006591  1
  Al  Al1  1  0.277692  0.222308  0.222308  1
  Fe  Fe2  1  0.003766  0.999410  0.489893  1
  Fe  Fe3  1  0.506930  0.999410  0.489893  1
  Fe  Fe4  1  0.506930  0.489893  0.999410  1
  Fe  Fe5  1  0.003766  0.489893  0.999410  1
  Re  Re6  1  0.999713  0.356239  0.644335  1
  Re  Re7  1  0.999713  0.644335  0.356239  1
  Re  Re8  1  0.633653  0.366347  0.366347  1
  Re  Re9  1  0.352873  0.647127  0.647127  1
  Re  Re10  1  0.505054  0.779749  0.210142  1
  Re  Re11  1  0.505054  0.210142  0.779749  1
  Re  Re12  1  0.711444  0.788556  0.788556  1
