# generated using pymatgen
data_TmLu11In2Fe3
_symmetry_space_group_name_H-M   'P 1'
_cell_length_a   8.18256015
_cell_length_b   8.18256094
_cell_length_c   8.18964493
_cell_angle_alpha   108.46092278
_cell_angle_beta   108.46092856
_cell_angle_gamma   111.47750942
_symmetry_Int_Tables_number   1
_chemical_formula_structural   TmLu11In2Fe3
_chemical_formula_sum   'Tm1 Lu11 In2 Fe3'
_cell_volume   421.88557573
_cell_formula_units_Z   1
loop_
 _symmetry_equiv_pos_site_id
 _symmetry_equiv_pos_as_xyz
  1  'x, y, z'
loop_
 _atom_site_type_symbol
 _atom_site_label
 _atom_site_symmetry_multiplicity
 _atom_site_fract_x
 _atom_site_fract_y
 _atom_site_fract_z
 _atom_site_occupancy
  Tm  Tm0  1  0.307752  0.307752  0.615505  1
  Lu  Lu1  1  0.691506  0.691506  0.383012  1
  Lu  Lu2  1  0.691819  0.308525  0.000345  1
  Lu  Lu3  1  0.308525  0.691819  0.000345  1
  Lu  Lu4  1  0.190160  0.426318  0.235305  1
  Lu  Lu5  1  0.810130  0.573838  0.764009  1
  Lu  Lu6  1  0.190170  0.953878  0.764009  1
  Lu  Lu7  1  0.953878  0.190170  0.764009  1
  Lu  Lu8  1  0.808987  0.045146  0.235305  1
  Lu  Lu9  1  0.045146  0.808987  0.235305  1
  Lu  Lu10  1  0.426318  0.190160  0.235305  1
  Lu  Lu11  1  0.573838  0.810130  0.764009  1
  In  In12  1  0.000669  0.499422  0.500091  1
  In  In13  1  0.499422  0.000669  0.500091  1
  Fe  Fe14  1  0.383690  0.383690  0.001222  1
  Fe  Fe15  1  0.617532  0.617532  0.001222  1
  Fe  Fe16  1  0.000457  0.000457  0.000915  1
