# generated using pymatgen
data_La3Yb(AlIr3)2
_symmetry_space_group_name_H-M   'P 1'
_cell_length_a   9.87505882
_cell_length_b   9.61942644
_cell_length_c   9.61942753
_cell_angle_alpha   34.58316048
_cell_angle_beta   30.99275745
_cell_angle_gamma   30.99275383
_symmetry_Int_Tables_number   1
_chemical_formula_structural   La3Yb(AlIr3)2
_chemical_formula_sum   'La3 Yb1 Al2 Ir6'
_cell_volume   228.40925383
_cell_formula_units_Z   1
loop_
 _symmetry_equiv_pos_site_id
 _symmetry_equiv_pos_as_xyz
  1  'x, y, z'
loop_
 _atom_site_type_symbol
 _atom_site_label
 _atom_site_symmetry_multiplicity
 _atom_site_fract_x
 _atom_site_fract_y
 _atom_site_fract_z
 _atom_site_occupancy
  La  La0  1  0.366326  0.380486  0.380486  1
  La  La1  1  0.005933  0.993150  0.993150  1
  La  La2  1  0.505751  0.499259  0.499259  1
  Yb  Yb3  1  0.867632  0.879073  0.879073  1
  Al  Al4  1  0.933319  0.438386  0.438386  1
  Al  Al5  1  0.440756  0.937430  0.937430  1
  Ir  Ir6  1  0.436682  0.937559  0.434726  1
  Ir  Ir7  1  0.939277  0.438595  0.937354  1
  Ir  Ir8  1  0.436682  0.434726  0.937559  1
  Ir  Ir9  1  0.939277  0.937354  0.438595  1
  Ir  Ir10  1  0.192092  0.185866  0.185866  1
  Ir  Ir11  1  0.686273  0.688115  0.688115  1
