# generated using pymatgen
data_Gd4Si7
_symmetry_space_group_name_H-M   'P 1'
_cell_length_a   7.78394300
_cell_length_b   7.78394372
_cell_length_c   8.38346600
_cell_angle_alpha   90.00000000
_cell_angle_beta   90.00000000
_cell_angle_gamma   119.91189215
_symmetry_Int_Tables_number   1
_chemical_formula_structural   Gd4Si7
_chemical_formula_sum   'Gd8 Si14'
_cell_volume   440.28964372
_cell_formula_units_Z   2
loop_
 _symmetry_equiv_pos_site_id
 _symmetry_equiv_pos_as_xyz
  1  'x, y, z'
loop_
 _atom_site_type_symbol
 _atom_site_label
 _atom_site_symmetry_multiplicity
 _atom_site_fract_x
 _atom_site_fract_y
 _atom_site_fract_z
 _atom_site_occupancy
  Gd  Gd0  1  0.256240  0.256240  0.000000  1
  Gd  Gd1  1  0.743760  0.743760  0.000000  1
  Gd  Gd2  1  0.743760  0.743760  0.500000  1
  Gd  Gd3  1  0.256240  0.256240  0.500000  1
  Gd  Gd4  1  0.252149  0.747851  0.494538  1
  Gd  Gd5  1  0.747851  0.252149  0.505462  1
  Gd  Gd6  1  0.747851  0.252149  0.994538  1
  Gd  Gd7  1  0.252149  0.747851  0.005462  1
  Si  Si8  1  0.052077  0.358526  0.250000  1
  Si  Si9  1  0.947923  0.641474  0.750000  1
  Si  Si10  1  0.584674  0.415326  0.250000  1
  Si  Si11  1  0.415326  0.584674  0.750000  1
  Si  Si12  1  0.409606  0.590394  0.250000  1
  Si  Si13  1  0.590394  0.409606  0.750000  1
  Si  Si14  1  0.055921  0.944079  0.250000  1
  Si  Si15  1  0.944079  0.055921  0.750000  1
  Si  Si16  1  0.641474  0.947923  0.250000  1
  Si  Si17  1  0.358526  0.052077  0.750000  1
  Si  Si18  1  0.931984  0.590296  0.250000  1
  Si  Si19  1  0.068016  0.409704  0.750000  1
  Si  Si20  1  0.409704  0.068016  0.250000  1
  Si  Si21  1  0.590296  0.931984  0.750000  1
