# generated using pymatgen
data_Dy5BeSiP10Ir19
_symmetry_space_group_name_H-M   'P 1'
_cell_length_a   12.70404344
_cell_length_b   12.71047441
_cell_length_c   3.96412400
_cell_angle_alpha   90.00000000
_cell_angle_beta   90.00000000
_cell_angle_gamma   120.35096472
_symmetry_Int_Tables_number   1
_chemical_formula_structural   Dy5BeSiP10Ir19
_chemical_formula_sum   'Dy5 Be1 Si1 P10 Ir19'
_cell_volume   552.37599684
_cell_formula_units_Z   1
loop_
 _symmetry_equiv_pos_site_id
 _symmetry_equiv_pos_as_xyz
  1  'x, y, z'
loop_
 _atom_site_type_symbol
 _atom_site_label
 _atom_site_symmetry_multiplicity
 _atom_site_fract_x
 _atom_site_fract_y
 _atom_site_fract_z
 _atom_site_occupancy
  Dy  Dy0  1  0.344039  0.667305  0.500000  1
  Dy  Dy1  1  0.667314  0.333739  0.500000  1
  Dy  Dy2  1  0.998759  0.817340  0.000000  1
  Dy  Dy3  1  0.184301  0.185026  0.000000  1
  Dy  Dy4  1  0.809488  0.994233  0.000000  1
  Be  Be5  1  0.520026  0.685765  0.000000  1
  Si  Si6  1  0.001338  0.640286  0.500000  1
  P  P7  1  0.359859  0.363743  0.500000  1
  P  P8  1  0.637874  0.993609  0.500000  1
  P  P9  1  0.314535  0.827602  0.000000  1
  P  P10  1  0.172005  0.483971  0.000000  1
  P  P11  1  0.482720  0.175435  0.000000  1
  P  P12  1  0.691876  0.517748  0.000000  1
  P  P13  1  0.829467  0.312280  0.000000  1
  P  P14  1  0.995895  0.175459  0.500000  1
  P  P15  1  0.817803  0.818359  0.500000  1
  P  P16  1  0.179551  0.000341  0.500000  1
  Ir  Ir17  1  0.510755  0.870862  0.000000  1
  Ir  Ir18  1  0.130642  0.638557  0.000000  1
  Ir  Ir19  1  0.354964  0.485297  0.000000  1
  Ir  Ir20  1  0.493745  0.366588  0.000000  1
  Ir  Ir21  1  0.872834  0.509764  0.000000  1
  Ir  Ir22  1  0.638201  0.135991  0.000000  1
  Ir  Ir23  1  0.001378  0.455195  0.500000  1
  Ir  Ir24  1  0.536381  0.552151  0.500000  1
  Ir  Ir25  1  0.462427  0.002250  0.500000  1
  Ir  Ir26  1  0.998541  0.283702  0.000000  1
  Ir  Ir27  1  0.713466  0.712392  0.000000  1
  Ir  Ir28  1  0.284950  0.000895  0.000000  1
  Ir  Ir29  1  0.625303  0.804531  0.500000  1
  Ir  Ir30  1  0.200655  0.822240  0.500000  1
  Ir  Ir31  1  0.176777  0.373118  0.500000  1
  Ir  Ir32  1  0.376359  0.184049  0.500000  1
  Ir  Ir33  1  0.800322  0.620512  0.500000  1
  Ir  Ir34  1  0.815685  0.190520  0.500000  1
  Ir  Ir35  1  0.999769  0.999148  0.500000  1
