# generated using pymatgen
data_La4Dy6Ir3Rh
_symmetry_space_group_name_H-M   'P 1'
_cell_length_a   6.56182958
_cell_length_b   7.23788490
_cell_length_c   8.89908107
_cell_angle_alpha   96.84877670
_cell_angle_beta   111.69688441
_cell_angle_gamma   90.03512771
_symmetry_Int_Tables_number   1
_chemical_formula_structural   La4Dy6Ir3Rh
_chemical_formula_sum   'La4 Dy6 Ir3 Rh1'
_cell_volume   389.44701983
_cell_formula_units_Z   1
loop_
 _symmetry_equiv_pos_site_id
 _symmetry_equiv_pos_as_xyz
  1  'x, y, z'
loop_
 _atom_site_type_symbol
 _atom_site_label
 _atom_site_symmetry_multiplicity
 _atom_site_fract_x
 _atom_site_fract_y
 _atom_site_fract_z
 _atom_site_occupancy
  La  La0  1  0.784245  0.082900  0.805514  1
  La  La1  1  0.980661  0.418461  0.195192  1
  La  La2  1  0.215518  0.917861  0.193941  1
  La  La3  1  0.021072  0.581994  0.805241  1
  Dy  Dy4  1  0.205420  0.182463  0.565555  1
  Dy  Dy5  1  0.640268  0.314624  0.429999  1
  Dy  Dy6  1  0.792004  0.816256  0.434312  1
  Dy  Dy7  1  0.359973  0.685631  0.567967  1
  Dy  Dy8  1  0.429298  0.250171  0.000875  1
  Dy  Dy9  1  0.570499  0.751196  0.001037  1
  Ir  Ir10  1  0.814615  0.076657  0.227185  1
  Ir  Ir11  1  0.411413  0.575973  0.226371  1
  Ir  Ir12  1  0.183788  0.922789  0.772110  1
  Rh  Rh13  1  0.591225  0.423024  0.774701  1
