# generated using pymatgen
data_Yb8Ga(Si4Au)3
_symmetry_space_group_name_H-M   'P 1'
_cell_length_a   8.30018600
_cell_length_b   8.30018656
_cell_length_c   8.72643800
_cell_angle_alpha   90.00000000
_cell_angle_beta   90.00000000
_cell_angle_gamma   120.00000574
_symmetry_Int_Tables_number   1
_chemical_formula_structural   Yb8Ga(Si4Au)3
_chemical_formula_sum   'Yb8 Ga1 Si12 Au3'
_cell_volume   520.64690677
_cell_formula_units_Z   1
loop_
 _symmetry_equiv_pos_site_id
 _symmetry_equiv_pos_as_xyz
  1  'x, y, z'
loop_
 _atom_site_type_symbol
 _atom_site_label
 _atom_site_symmetry_multiplicity
 _atom_site_fract_x
 _atom_site_fract_y
 _atom_site_fract_z
 _atom_site_occupancy
  Yb  Yb0  1  0.500788  0.499212  0.750600  1
  Yb  Yb1  1  0.500912  0.499088  0.249377  1
  Yb  Yb2  1  0.998424  0.499212  0.750600  1
  Yb  Yb3  1  0.998176  0.499088  0.249377  1
  Yb  Yb4  1  0.500788  0.001576  0.750600  1
  Yb  Yb5  1  0.500912  0.001824  0.249377  1
  Yb  Yb6  1  0.000000  0.000000  0.749662  1
  Yb  Yb7  1  0.000000  0.000000  0.250414  1
  Ga  Ga8  1  0.666667  0.333333  0.500140  1
  Si  Si9  1  0.837174  0.162826  0.000469  1
  Si  Si10  1  0.162772  0.837228  0.999476  1
  Si  Si11  1  0.325652  0.162826  0.000469  1
  Si  Si12  1  0.163686  0.836314  0.499895  1
  Si  Si13  1  0.674455  0.837228  0.999476  1
  Si  Si14  1  0.837355  0.162645  0.500192  1
  Si  Si15  1  0.837174  0.674348  0.000469  1
  Si  Si16  1  0.672629  0.836314  0.499895  1
  Si  Si17  1  0.162772  0.325545  0.999476  1
  Si  Si18  1  0.325290  0.162645  0.500192  1
  Si  Si19  1  0.163686  0.327371  0.499895  1
  Si  Si20  1  0.837355  0.674710  0.500192  1
  Au  Au21  1  0.666667  0.333333  0.999588  1
  Au  Au22  1  0.333333  0.666667  0.000378  1
  Au  Au23  1  0.333333  0.666667  0.499784  1
