# generated using pymatgen
data_Tb7Th(HgPt)2
_symmetry_space_group_name_H-M   'P 1'
_cell_length_a   9.76361191
_cell_length_b   9.76361230
_cell_length_c   9.74129600
_cell_angle_alpha   60.07558028
_cell_angle_beta   60.07557897
_cell_angle_gamma   60.02651907
_symmetry_Int_Tables_number   1
_chemical_formula_structural   Tb7Th(HgPt)2
_chemical_formula_sum   'Tb14 Th2 Hg4 Pt4'
_cell_volume   657.51418751
_cell_formula_units_Z   2
loop_
 _symmetry_equiv_pos_site_id
 _symmetry_equiv_pos_as_xyz
  1  'x, y, z'
loop_
 _atom_site_type_symbol
 _atom_site_label
 _atom_site_symmetry_multiplicity
 _atom_site_fract_x
 _atom_site_fract_y
 _atom_site_fract_z
 _atom_site_occupancy
  Tb  Tb0  1  0.355334  0.935236  0.354715  1
  Tb  Tb1  1  0.935236  0.355334  0.354715  1
  Tb  Tb2  1  0.811452  0.190079  0.188978  1
  Tb  Tb3  1  0.190079  0.811452  0.809491  1
  Tb  Tb4  1  0.190079  0.811452  0.188978  1
  Tb  Tb5  1  0.811452  0.190079  0.809491  1
  Tb  Tb6  1  0.188005  0.188005  0.811995  1
  Tb  Tb7  1  0.809288  0.809288  0.190712  1
  Tb  Tb8  1  0.936524  0.564810  0.565031  1
  Tb  Tb9  1  0.564810  0.936524  0.933635  1
  Tb  Tb10  1  0.564810  0.936524  0.565031  1
  Tb  Tb11  1  0.936524  0.564810  0.933635  1
  Tb  Tb12  1  0.565494  0.565494  0.934506  1
  Tb  Tb13  1  0.936709  0.936709  0.563291  1
  Th  Th14  1  0.351971  0.351971  0.354799  1
  Th  Th15  1  0.351971  0.351971  0.941258  1
  Hg  Hg16  1  0.588207  0.588207  0.585334  1
  Hg  Hg17  1  0.588207  0.588207  0.238252  1
  Hg  Hg18  1  0.589528  0.237641  0.586415  1
  Hg  Hg19  1  0.237641  0.589528  0.586415  1
  Pt  Pt20  1  0.142330  0.142330  0.147311  1
  Pt  Pt21  1  0.142330  0.142330  0.568031  1
  Pt  Pt22  1  0.143678  0.568341  0.143992  1
  Pt  Pt23  1  0.568341  0.143678  0.143992  1
