# generated using pymatgen
data_Li2Y3InSi2Ag
_symmetry_space_group_name_H-M   'P 1'
_cell_length_a   7.26206100
_cell_length_b   7.20657719
_cell_length_c   4.23554300
_cell_angle_alpha   90.00000000
_cell_angle_beta   90.00000000
_cell_angle_gamma   120.25500644
_symmetry_Int_Tables_number   1
_chemical_formula_structural   Li2Y3InSi2Ag
_chemical_formula_sum   'Li2 Y3 In1 Si2 Ag1'
_cell_volume   191.47273825
_cell_formula_units_Z   1
loop_
 _symmetry_equiv_pos_site_id
 _symmetry_equiv_pos_as_xyz
  1  'x, y, z'
loop_
 _atom_site_type_symbol
 _atom_site_label
 _atom_site_symmetry_multiplicity
 _atom_site_fract_x
 _atom_site_fract_y
 _atom_site_fract_z
 _atom_site_occupancy
  Li  Li0  1  0.748482  0.746428  0.500000  1
  Li  Li1  1  0.002054  0.253572  0.500000  1
  Y  Y2  1  0.999631  0.560656  0.000000  1
  Y  Y3  1  0.560700  0.000000  0.000000  1
  Y  Y4  1  0.438975  0.439344  0.000000  1
  In  In5  1  0.992301  0.000000  0.000000  1
  Si  Si6  1  0.332417  0.664188  0.500000  1
  Si  Si7  1  0.668230  0.335812  0.500000  1
  Ag  Ag8  1  0.257209  0.000000  0.500000  1
