# generated using pymatgen
data_Tb3YAl4(PdRh)2
_symmetry_space_group_name_H-M   'P 1'
_cell_length_a   4.37395900
_cell_length_b   6.89619887
_cell_length_c   7.87397016
_cell_angle_alpha   90.04023126
_cell_angle_beta   90.00000000
_cell_angle_gamma   90.00000000
_symmetry_Int_Tables_number   1
_chemical_formula_structural   Tb3YAl4(PdRh)2
_chemical_formula_sum   'Tb3 Y1 Al4 Pd2 Rh2'
_cell_volume   237.50794516
_cell_formula_units_Z   1
loop_
 _symmetry_equiv_pos_site_id
 _symmetry_equiv_pos_as_xyz
  1  'x, y, z'
loop_
 _atom_site_type_symbol
 _atom_site_label
 _atom_site_symmetry_multiplicity
 _atom_site_fract_x
 _atom_site_fract_y
 _atom_site_fract_z
 _atom_site_occupancy
  Tb  Tb0  1  0.750000  0.464074  0.183366  1
  Tb  Tb1  1  0.250000  0.030300  0.677702  1
  Tb  Tb2  1  0.750000  0.969566  0.322417  1
  Y  Y3  1  0.250000  0.535827  0.816236  1
  Al  Al4  1  0.250000  0.637178  0.438807  1
  Al  Al5  1  0.750000  0.362880  0.561433  1
  Al  Al6  1  0.250000  0.144387  0.064294  1
  Al  Al7  1  0.750000  0.855496  0.935518  1
  Pd  Pd8  1  0.750000  0.227126  0.881655  1
  Pd  Pd9  1  0.250000  0.772972  0.118607  1
  Rh  Rh10  1  0.750000  0.733237  0.616456  1
  Rh  Rh11  1  0.250000  0.266958  0.383510  1
