# generated using pymatgen
data_Ac2SmCu6Ni7B2
_symmetry_space_group_name_H-M   'P 1'
_cell_length_a   5.19009500
_cell_length_b   5.19762829
_cell_length_c   11.00578200
_cell_angle_alpha   90.00000000
_cell_angle_beta   90.00000000
_cell_angle_gamma   119.95206041
_symmetry_Int_Tables_number   1
_chemical_formula_structural   Ac2SmCu6Ni7B2
_chemical_formula_sum   'Ac2 Sm1 Cu6 Ni7 B2'
_cell_volume   257.24186834
_cell_formula_units_Z   1
loop_
 _symmetry_equiv_pos_site_id
 _symmetry_equiv_pos_as_xyz
  1  'x, y, z'
loop_
 _atom_site_type_symbol
 _atom_site_label
 _atom_site_symmetry_multiplicity
 _atom_site_fract_x
 _atom_site_fract_y
 _atom_site_fract_z
 _atom_site_occupancy
  Ac  Ac0  1  0.000000  0.000000  0.318459  1
  Ac  Ac1  1  0.000000  0.000000  0.681541  1
  Sm  Sm2  1  0.000000  0.000000  0.000000  1
  Cu  Cu3  1  0.500000  0.500000  0.500000  1
  Cu  Cu4  1  0.000000  0.500000  0.500000  1
  Cu  Cu5  1  0.335066  0.670135  0.312884  1
  Cu  Cu6  1  0.664934  0.329865  0.312884  1
  Cu  Cu7  1  0.664934  0.329865  0.687116  1
  Cu  Cu8  1  0.335066  0.670135  0.687116  1
  Ni  Ni9  1  0.500000  0.000000  0.500000  1
  Ni  Ni10  1  0.500000  0.000000  0.125104  1
  Ni  Ni11  1  0.500000  0.500000  0.125250  1
  Ni  Ni12  1  0.000000  0.500000  0.125250  1
  Ni  Ni13  1  0.500000  0.000000  0.874896  1
  Ni  Ni14  1  0.500000  0.500000  0.874750  1
  Ni  Ni15  1  0.000000  0.500000  0.874750  1
  B  B16  1  0.333312  0.666626  0.000000  1
  B  B17  1  0.666688  0.333374  0.000000  1
