# generated using pymatgen
data_RbTl3F10
_symmetry_space_group_name_H-M   'P 1'
_cell_length_a   8.06846200
_cell_length_b   8.06846220
_cell_length_c   16.54486100
_cell_angle_alpha   90.00000000
_cell_angle_beta   90.00000000
_cell_angle_gamma   114.67485202
_symmetry_Int_Tables_number   1
_chemical_formula_structural   RbTl3F10
_chemical_formula_sum   'Rb4 Tl12 F40'
_cell_volume   978.72597389
_cell_formula_units_Z   4
loop_
 _symmetry_equiv_pos_site_id
 _symmetry_equiv_pos_as_xyz
  1  'x, y, z'
loop_
 _atom_site_type_symbol
 _atom_site_label
 _atom_site_symmetry_multiplicity
 _atom_site_fract_x
 _atom_site_fract_y
 _atom_site_fract_z
 _atom_site_occupancy
  Rb  Rb0  1  0.500000  0.500000  0.000000  1
  Rb  Rb1  1  0.000000  0.000000  0.000000  1
  Rb  Rb2  1  0.000000  0.000000  0.500000  1
  Rb  Rb3  1  0.500000  0.500000  0.500000  1
  Tl  Tl4  1  0.483867  0.022942  0.113444  1
  Tl  Tl5  1  0.977058  0.516133  0.113444  1
  Tl  Tl6  1  0.749809  0.750191  0.750000  1
  Tl  Tl7  1  0.022942  0.483867  0.886556  1
  Tl  Tl8  1  0.249809  0.250191  0.750000  1
  Tl  Tl9  1  0.516133  0.977058  0.886556  1
  Tl  Tl10  1  0.750191  0.749809  0.250000  1
  Tl  Tl11  1  0.983867  0.522942  0.386556  1
  Tl  Tl12  1  0.250191  0.249809  0.250000  1
  Tl  Tl13  1  0.477058  0.016133  0.386556  1
  Tl  Tl14  1  0.522942  0.983867  0.613444  1
  Tl  Tl15  1  0.016133  0.477058  0.613444  1
  F  F16  1  0.433844  0.066156  0.250000  1
  F  F17  1  0.245590  0.754410  0.113963  1
  F  F18  1  0.995254  0.004746  0.718267  1
  F  F19  1  0.100675  0.411700  0.487705  1
  F  F20  1  0.307871  0.692129  0.898752  1
  F  F21  1  0.715752  0.844873  0.872595  1
  F  F22  1  0.399325  0.088300  0.987705  1
  F  F23  1  0.088300  0.399325  0.012295  1
  F  F24  1  0.933844  0.566156  0.250000  1
  F  F25  1  0.692129  0.307871  0.101248  1
  F  F26  1  0.899325  0.588300  0.512295  1
  F  F27  1  0.192129  0.807871  0.398752  1
  F  F28  1  0.057476  0.315667  0.171995  1
  F  F29  1  0.815667  0.557476  0.671995  1
  F  F30  1  0.754410  0.245590  0.886037  1
  F  F31  1  0.844873  0.715752  0.127405  1
  F  F32  1  0.504746  0.495254  0.218267  1
  F  F33  1  0.557476  0.815667  0.328005  1
  F  F34  1  0.004746  0.995254  0.281733  1
  F  F35  1  0.566156  0.933844  0.750000  1
  F  F36  1  0.942524  0.684333  0.828005  1
  F  F37  1  0.784248  0.655127  0.372595  1
  F  F38  1  0.066156  0.433844  0.750000  1
  F  F39  1  0.495254  0.504746  0.781733  1
  F  F40  1  0.215752  0.344873  0.627405  1
  F  F41  1  0.588300  0.899325  0.487705  1
  F  F42  1  0.600675  0.911700  0.012295  1
  F  F43  1  0.254410  0.745590  0.613963  1
  F  F44  1  0.344873  0.215752  0.372595  1
  F  F45  1  0.411700  0.100675  0.512295  1
  F  F46  1  0.155127  0.284248  0.872595  1
  F  F47  1  0.745590  0.254410  0.386037  1
  F  F48  1  0.184333  0.442524  0.328005  1
  F  F49  1  0.684333  0.942524  0.171995  1
  F  F50  1  0.807871  0.192129  0.601248  1
  F  F51  1  0.315667  0.057476  0.828005  1
  F  F52  1  0.655127  0.784248  0.627405  1
  F  F53  1  0.911700  0.600675  0.987705  1
  F  F54  1  0.442524  0.184333  0.671995  1
  F  F55  1  0.284248  0.155127  0.127405  1
