# generated using pymatgen
data_Ca5(ZnAg2)2
_symmetry_space_group_name_H-M   'P 1'
_cell_length_a   16.12230700
_cell_length_b   16.12230853
_cell_length_c   4.08156600
_cell_angle_alpha   90.00000000
_cell_angle_beta   90.00000000
_cell_angle_gamma   164.78112126
_symmetry_Int_Tables_number   1
_chemical_formula_structural   Ca5(ZnAg2)2
_chemical_formula_sum   'Ca5 Zn2 Ag4'
_cell_volume   278.49817145
_cell_formula_units_Z   1
loop_
 _symmetry_equiv_pos_site_id
 _symmetry_equiv_pos_as_xyz
  1  'x, y, z'
loop_
 _atom_site_type_symbol
 _atom_site_label
 _atom_site_symmetry_multiplicity
 _atom_site_fract_x
 _atom_site_fract_y
 _atom_site_fract_z
 _atom_site_occupancy
  Ca  Ca0  1  0.997992  0.002008  0.000000  1
  Ca  Ca1  1  0.619997  0.380001  0.000000  1
  Ca  Ca2  1  0.380051  0.619947  0.000000  1
  Ca  Ca3  1  0.803620  0.196378  0.500001  1
  Ca  Ca4  1  0.196971  0.803027  0.500001  1
  Zn  Zn5  1  0.909065  0.090934  0.500001  1
  Zn  Zn6  1  0.541700  0.458298  0.500001  1
  Ag  Ag7  1  0.720793  0.279205  0.000000  1
  Ag  Ag8  1  0.279333  0.720665  0.000000  1
  Ag  Ag9  1  0.459253  0.540745  0.500001  1
  Ag  Ag10  1  0.091216  0.908783  0.500001  1
