# generated using pymatgen
data_Li4Ho4BiPb3
_symmetry_space_group_name_H-M   'P 1'
_cell_length_a   9.50719877
_cell_length_b   9.51049157
_cell_length_c   7.27111000
_cell_angle_alpha   89.99995469
_cell_angle_beta   90.10489736
_cell_angle_gamma   120.01421244
_symmetry_Int_Tables_number   1
_chemical_formula_structural   Li4Ho4BiPb3
_chemical_formula_sum   'Li8 Ho8 Bi2 Pb6'
_cell_volume   569.27708188
_cell_formula_units_Z   2
loop_
 _symmetry_equiv_pos_site_id
 _symmetry_equiv_pos_as_xyz
  1  'x, y, z'
loop_
 _atom_site_type_symbol
 _atom_site_label
 _atom_site_symmetry_multiplicity
 _atom_site_fract_x
 _atom_site_fract_y
 _atom_site_fract_z
 _atom_site_occupancy
  Li  Li0  1  0.167660  0.333958  0.283809  1
  Li  Li1  1  0.167656  0.833690  0.283810  1
  Li  Li2  1  0.665365  0.832678  0.286601  1
  Li  Li3  1  0.829815  0.664811  0.787461  1
  Li  Li4  1  0.829820  0.165019  0.787465  1
  Li  Li5  1  0.337136  0.168573  0.791032  1
  Li  Li6  1  0.337107  0.668556  0.668865  1
  Li  Li7  1  0.665566  0.332775  0.172299  1
  Ho  Ho8  1  0.516400  0.026300  0.491295  1
  Ho  Ho9  1  0.516404  0.490095  0.491288  1
  Ho  Ho10  1  0.972750  0.486381  0.489535  1
  Ho  Ho11  1  0.492110  0.977804  0.996502  1
  Ho  Ho12  1  0.492109  0.514310  0.996509  1
  Ho  Ho13  1  0.018623  0.509312  0.998229  1
  Ho  Ho14  1  0.995548  0.997770  0.496471  1
  Ho  Ho15  1  0.996201  0.998101  0.004649  1
  Bi  Bi16  1  0.166189  0.333475  0.733819  1
  Bi  Bi17  1  0.166189  0.832695  0.733801  1
  Pb  Pb18  1  0.666707  0.833343  0.732289  1
  Pb  Pb19  1  0.833822  0.666540  0.232426  1
  Pb  Pb20  1  0.833837  0.167304  0.232456  1
  Pb  Pb21  1  0.333193  0.166617  0.232133  1
  Pb  Pb22  1  0.332192  0.666104  0.259768  1
  Pb  Pb23  1  0.667601  0.333789  0.759459  1
