# generated using pymatgen
data_Er3Tm9(CoSi)8
_symmetry_space_group_name_H-M   'P 1'
_cell_length_a   5.48352501
_cell_length_b   7.53131002
_cell_length_c   12.44008100
_cell_angle_alpha   90.00000000
_cell_angle_beta   90.00000000
_cell_angle_gamma   90.00842548
_symmetry_Int_Tables_number   1
_chemical_formula_structural   Er3Tm9(CoSi)8
_chemical_formula_sum   'Er3 Tm9 Co8 Si8'
_cell_volume   513.75203812
_cell_formula_units_Z   1
loop_
 _symmetry_equiv_pos_site_id
 _symmetry_equiv_pos_as_xyz
  1  'x, y, z'
loop_
 _atom_site_type_symbol
 _atom_site_label
 _atom_site_symmetry_multiplicity
 _atom_site_fract_x
 _atom_site_fract_y
 _atom_site_fract_z
 _atom_site_occupancy
  Er  Er0  1  0.629574  0.252737  0.250000  1
  Er  Er1  1  0.370612  0.747102  0.750000  1
  Er  Er2  1  0.370523  0.752717  0.250000  1
  Tm  Tm3  1  0.628871  0.246597  0.750000  1
  Tm  Tm4  1  0.142649  0.395750  0.101142  1
  Tm  Tm5  1  0.857358  0.604016  0.898698  1
  Tm  Tm6  1  0.857358  0.604016  0.601302  1
  Tm  Tm7  1  0.857421  0.895539  0.398916  1
  Tm  Tm8  1  0.142649  0.395750  0.398858  1
  Tm  Tm9  1  0.142439  0.104660  0.601290  1
  Tm  Tm10  1  0.142439  0.104660  0.898710  1
  Tm  Tm11  1  0.857421  0.895539  0.101084  1
  Co  Co12  1  0.366407  0.029803  0.087040  1
  Co  Co13  1  0.633487  0.970655  0.912712  1
  Co  Co14  1  0.633487  0.970655  0.587288  1
  Co  Co15  1  0.633761  0.529660  0.413006  1
  Co  Co16  1  0.366407  0.029803  0.412960  1
  Co  Co17  1  0.366624  0.470168  0.587295  1
  Co  Co18  1  0.366624  0.470168  0.912705  1
  Co  Co19  1  0.633761  0.529660  0.086994  1
  Si  Si20  1  0.150891  0.102241  0.250000  1
  Si  Si21  1  0.848811  0.898337  0.750000  1
  Si  Si22  1  0.849026  0.602104  0.250000  1
  Si  Si23  1  0.151029  0.397499  0.750000  1
  Si  Si24  1  0.612861  0.250108  0.999658  1
  Si  Si25  1  0.387324  0.749976  0.999920  1
  Si  Si26  1  0.387324  0.749976  0.500080  1
  Si  Si27  1  0.612861  0.250108  0.500342  1
