# generated using pymatgen
data_Dy2Er18Ir7Au5
_symmetry_space_group_name_H-M   'P 1'
_cell_length_a   11.07794652
_cell_length_b   11.07686177
_cell_length_c   6.31869732
_cell_angle_alpha   89.89725982
_cell_angle_beta   89.93445806
_cell_angle_gamma   89.58282081
_symmetry_Int_Tables_number   1
_chemical_formula_structural   Dy2Er18Ir7Au5
_chemical_formula_sum   'Dy2 Er18 Ir7 Au5'
_cell_volume   775.33799049
_cell_formula_units_Z   1
loop_
 _symmetry_equiv_pos_site_id
 _symmetry_equiv_pos_as_xyz
  1  'x, y, z'
loop_
 _atom_site_type_symbol
 _atom_site_label
 _atom_site_symmetry_multiplicity
 _atom_site_fract_x
 _atom_site_fract_y
 _atom_site_fract_z
 _atom_site_occupancy
  Dy  Dy0  1  0.299723  0.090906  0.364240  1
  Dy  Dy1  1  0.301377  0.907518  0.862407  1
  Er  Er2  1  0.696957  0.080232  0.860249  1
  Er  Er3  1  0.697281  0.906104  0.361795  1
  Er  Er4  1  0.581153  0.785820  0.876226  1
  Er  Er5  1  0.575821  0.206004  0.363390  1
  Er  Er6  1  0.418693  0.789156  0.375865  1
  Er  Er7  1  0.411921  0.207718  0.878078  1
  Er  Er8  1  0.214064  0.419298  0.623854  1
  Er  Er9  1  0.210399  0.581764  0.124134  1
  Er  Er10  1  0.794165  0.424647  0.136703  1
  Er  Er11  1  0.792683  0.588531  0.621759  1
  Er  Er12  1  0.909343  0.699472  0.135133  1
  Er  Er13  1  0.919789  0.303064  0.639712  1
  Er  Er14  1  0.091850  0.697637  0.636859  1
  Er  Er15  1  0.093558  0.302923  0.138041  1
  Er  Er16  1  0.998328  0.000296  0.499333  1
  Er  Er17  1  0.999345  0.001246  0.000917  1
  Er  Er18  1  0.496028  0.502167  0.001632  1
  Er  Er19  1  0.497973  0.504037  0.498616  1
  Ir  Ir20  1  0.653316  0.651380  0.250418  1
  Ir  Ir21  1  0.348706  0.347463  0.249224  1
  Ir  Ir22  1  0.345580  0.653776  0.749610  1
  Ir  Ir23  1  0.500385  0.999472  0.112024  1
  Ir  Ir24  1  0.500198  0.000210  0.613758  1
  Ir  Ir25  1  0.999719  0.500702  0.886073  1
  Ir  Ir26  1  0.000516  0.500572  0.387960  1
  Au  Au27  1  0.841749  0.158357  0.249957  1
  Au  Au28  1  0.843612  0.845395  0.750461  1
  Au  Au29  1  0.153947  0.156859  0.750580  1
  Au  Au30  1  0.155595  0.843358  0.250924  1
  Au  Au31  1  0.656228  0.343917  0.750070  1
