# generated using pymatgen
data_CaNd3Al18OsPt5
_symmetry_space_group_name_H-M   'P 1'
_cell_length_a   7.66922089
_cell_length_b   7.66063528
_cell_length_c   9.57582607
_cell_angle_alpha   90.06324908
_cell_angle_beta   90.08233883
_cell_angle_gamma   119.69241730
_symmetry_Int_Tables_number   1
_chemical_formula_structural   CaNd3Al18OsPt5
_chemical_formula_sum   'Ca1 Nd3 Al18 Os1 Pt5'
_cell_volume   488.71902452
_cell_formula_units_Z   1
loop_
 _symmetry_equiv_pos_site_id
 _symmetry_equiv_pos_as_xyz
  1  'x, y, z'
loop_
 _atom_site_type_symbol
 _atom_site_label
 _atom_site_symmetry_multiplicity
 _atom_site_fract_x
 _atom_site_fract_y
 _atom_site_fract_z
 _atom_site_occupancy
  Ca  Ca0  1  0.994961  0.671271  0.248934  1
  Nd  Nd1  1  0.005007  0.332074  0.750335  1
  Nd  Nd2  1  0.669820  0.996024  0.249515  1
  Nd  Nd3  1  0.329059  0.003107  0.750722  1
  Al  Al4  1  0.131299  0.133716  0.249242  1
  Al  Al5  1  0.867587  0.867992  0.750715  1
  Al  Al6  1  0.996650  0.337103  0.074632  1
  Al  Al7  1  0.993610  0.659684  0.930442  1
  Al  Al8  1  0.996875  0.666203  0.573340  1
  Al  Al9  1  0.331261  0.000382  0.422042  1
  Al  Al10  1  0.002484  0.337486  0.423252  1
  Al  Al11  1  0.665119  0.997761  0.575189  1
  Al  Al12  1  0.666299  0.002780  0.927260  1
  Al  Al13  1  0.337901  0.003704  0.074430  1
  Al  Al14  1  0.334804  0.335183  0.556743  1
  Al  Al15  1  0.665398  0.664531  0.442570  1
  Al  Al16  1  0.668523  0.660527  0.051274  1
  Al  Al17  1  0.338587  0.332622  0.950228  1
  Al  Al18  1  0.340615  0.545335  0.249229  1
  Al  Al19  1  0.660743  0.453476  0.754281  1
  Al  Al20  1  0.548165  0.340012  0.245658  1
  Al  Al21  1  0.457547  0.661275  0.750625  1
  Os  Os22  1  0.670049  0.327242  0.999675  1
  Pt  Pt23  1  0.329212  0.670355  0.999262  1
  Pt  Pt24  1  0.328214  0.671429  0.500427  1
  Pt  Pt25  1  0.670222  0.328009  0.500164  1
  Pt  Pt26  1  0.000525  0.000097  0.999826  1
  Pt  Pt27  1  0.999467  0.000623  0.499990  1
