# generated using pymatgen
data_SmDy7Sc12Si15Sn
_symmetry_space_group_name_H-M   'P 1'
_cell_length_a   7.14746388
_cell_length_b   7.42865274
_cell_length_c   14.09822063
_cell_angle_alpha   90.03943307
_cell_angle_beta   89.58105622
_cell_angle_gamma   89.98001676
_symmetry_Int_Tables_number   1
_chemical_formula_structural   SmDy7Sc12Si15Sn
_chemical_formula_sum   'Sm1 Dy7 Sc12 Si15 Sn1'
_cell_volume   748.53927053
_cell_formula_units_Z   1
loop_
 _symmetry_equiv_pos_site_id
 _symmetry_equiv_pos_as_xyz
  1  'x, y, z'
loop_
 _atom_site_type_symbol
 _atom_site_label
 _atom_site_symmetry_multiplicity
 _atom_site_fract_x
 _atom_site_fract_y
 _atom_site_fract_z
 _atom_site_occupancy
  Sm  Sm0  1  0.499768  0.682527  0.599424  1
  Dy  Dy1  1  0.012514  0.175789  0.096952  1
  Dy  Dy2  1  0.987502  0.824983  0.904838  1
  Dy  Dy3  1  0.488385  0.675868  0.903722  1
  Dy  Dy4  1  0.988505  0.831559  0.598482  1
  Dy  Dy5  1  0.511675  0.324232  0.097139  1
  Dy  Dy6  1  0.005901  0.169406  0.398026  1
  Dy  Dy7  1  0.513258  0.321290  0.398679  1
  Sc  Sc8  1  0.162409  0.501965  0.755468  1
  Sc  Sc9  1  0.837691  0.497764  0.249043  1
  Sc  Sc10  1  0.338086  0.002422  0.249099  1
  Sc  Sc11  1  0.663541  0.997603  0.752390  1
  Sc  Sc12  1  0.342728  0.162643  0.630701  1
  Sc  Sc13  1  0.664742  0.825622  0.372357  1
  Sc  Sc14  1  0.164309  0.683401  0.369108  1
  Sc  Sc15  1  0.668598  0.822833  0.124121  1
  Sc  Sc16  1  0.822616  0.322911  0.626906  1
  Sc  Sc17  1  0.329813  0.175838  0.876276  1
  Sc  Sc18  1  0.831485  0.323331  0.876296  1
  Sc  Sc19  1  0.169120  0.676577  0.125082  1
  Si  Si20  1  0.034887  0.119265  0.751576  1
  Si  Si21  1  0.963599  0.884092  0.246629  1
  Si  Si22  1  0.465799  0.616672  0.248292  1
  Si  Si23  1  0.533636  0.382474  0.752975  1
  Si  Si24  1  0.284664  0.872369  0.753368  1
  Si  Si25  1  0.712448  0.125965  0.247324  1
  Si  Si26  1  0.212358  0.373657  0.248800  1
  Si  Si27  1  0.790782  0.626370  0.752786  1
  Si  Si28  1  0.831913  0.538567  0.457575  1
  Si  Si29  1  0.338543  0.965863  0.459161  1
  Si  Si30  1  0.843000  0.534493  0.039948  1
  Si  Si31  1  0.662354  0.039689  0.536867  1
  Si  Si32  1  0.156945  0.464977  0.961788  1
  Si  Si33  1  0.655935  0.035188  0.960918  1
  Si  Si34  1  0.342566  0.964953  0.040062  1
  Sn  Sn35  1  0.167928  0.456844  0.537825  1
