# generated using pymatgen
data_Cu4Mo12PdPt3N4
_symmetry_space_group_name_H-M   'P 1'
_cell_length_a   6.80631502
_cell_length_b   6.80631502
_cell_length_c   6.80631502
_cell_angle_alpha   90.00629652
_cell_angle_beta   89.99370348
_cell_angle_gamma   89.99370348
_symmetry_Int_Tables_number   1
_chemical_formula_structural   Cu4Mo12PdPt3N4
_chemical_formula_sum   'Cu4 Mo12 Pd1 Pt3 N4'
_cell_volume   315.30882773
_cell_formula_units_Z   1
loop_
 _symmetry_equiv_pos_site_id
 _symmetry_equiv_pos_as_xyz
  1  'x, y, z'
loop_
 _atom_site_type_symbol
 _atom_site_label
 _atom_site_symmetry_multiplicity
 _atom_site_fract_x
 _atom_site_fract_y
 _atom_site_fract_z
 _atom_site_occupancy
  Cu  Cu0  1  0.184509  0.815491  0.315491  1
  Cu  Cu1  1  0.317029  0.185243  0.815821  1
  Cu  Cu2  1  0.814757  0.315821  0.182971  1
  Cu  Cu3  1  0.684179  0.682971  0.685243  1
  Mo  Mo4  1  0.802693  0.961790  0.372981  1
  Mo  Mo5  1  0.697415  0.036991  0.872588  1
  Mo  Mo6  1  0.196619  0.461601  0.126606  1
  Mo  Mo7  1  0.300868  0.538697  0.626444  1
  Mo  Mo8  1  0.963009  0.372588  0.802585  1
  Mo  Mo9  1  0.038210  0.872981  0.697307  1
  Mo  Mo10  1  0.461303  0.126444  0.199132  1
  Mo  Mo11  1  0.538399  0.626606  0.303381  1
  Mo  Mo12  1  0.373394  0.803381  0.961601  1
  Mo  Mo13  1  0.873556  0.699132  0.038697  1
  Mo  Mo14  1  0.127019  0.197307  0.461790  1
  Mo  Mo15  1  0.627412  0.302585  0.536991  1
  Pd  Pd16  1  0.565908  0.434092  0.934092  1
  Pt  Pt17  1  0.434100  0.933440  0.566304  1
  Pt  Pt18  1  0.933696  0.565900  0.433440  1
  Pt  Pt19  1  0.066560  0.066304  0.065900  1
  N  N20  1  0.873073  0.126927  0.626927  1
  N  N21  1  0.626502  0.873252  0.126958  1
  N  N22  1  0.126748  0.626958  0.873498  1
  N  N23  1  0.373042  0.373498  0.373252  1
