# generated using pymatgen
data_Ca3La4YbZn8
_symmetry_space_group_name_H-M   'P 1'
_cell_length_a   7.40333466
_cell_length_b   5.27019500
_cell_length_c   10.50810296
_cell_angle_alpha   90.00000000
_cell_angle_beta   89.96852461
_cell_angle_gamma   90.00000000
_symmetry_Int_Tables_number   1
_chemical_formula_structural   Ca3La4YbZn8
_chemical_formula_sum   'Ca3 La4 Yb1 Zn8'
_cell_volume   409.99477327
_cell_formula_units_Z   1
loop_
 _symmetry_equiv_pos_site_id
 _symmetry_equiv_pos_as_xyz
  1  'x, y, z'
loop_
 _atom_site_type_symbol
 _atom_site_label
 _atom_site_symmetry_multiplicity
 _atom_site_fract_x
 _atom_site_fract_y
 _atom_site_fract_z
 _atom_site_occupancy
  Ca  Ca0  1  0.249759  0.750000  0.376131  1
  Ca  Ca1  1  0.750240  0.250000  0.623903  1
  Ca  Ca2  1  0.250231  0.750000  0.876114  1
  La  La3  1  0.249723  0.250000  0.124148  1
  La  La4  1  0.749748  0.750000  0.374757  1
  La  La5  1  0.250233  0.250000  0.624162  1
  La  La6  1  0.750232  0.750000  0.877016  1
  Yb  Yb7  1  0.749837  0.250000  0.123914  1
  Zn  Zn8  1  0.500937  0.750000  0.127061  1
  Zn  Zn9  1  0.998601  0.750000  0.127148  1
  Zn  Zn10  1  0.500564  0.250000  0.372192  1
  Zn  Zn11  1  0.999046  0.250000  0.372264  1
  Zn  Zn12  1  0.000291  0.750000  0.627238  1
  Zn  Zn13  1  0.500100  0.750000  0.627299  1
  Zn  Zn14  1  0.999442  0.250000  0.873282  1
  Zn  Zn15  1  0.501013  0.250000  0.873371  1
