# generated using pymatgen
data_PSe6BrF6
_symmetry_space_group_name_H-M   'P 1'
_cell_length_a   7.08843500
_cell_length_b   9.04055683
_cell_length_c   11.48313055
_cell_angle_alpha   61.01089742
_cell_angle_beta   90.00000000
_cell_angle_gamma   90.00000000
_symmetry_Int_Tables_number   1
_chemical_formula_structural   PSe6BrF6
_chemical_formula_sum   'P2 Se12 Br2 F12'
_cell_volume   643.68128031
_cell_formula_units_Z   2
loop_
 _symmetry_equiv_pos_site_id
 _symmetry_equiv_pos_as_xyz
  1  'x, y, z'
loop_
 _atom_site_type_symbol
 _atom_site_label
 _atom_site_symmetry_multiplicity
 _atom_site_fract_x
 _atom_site_fract_y
 _atom_site_fract_z
 _atom_site_occupancy
  P  P0  1  0.000000  0.000000  0.000000  1
  P  P1  1  0.000000  0.000000  0.500000  1
  Se  Se2  1  0.253993  0.668194  0.380518  1
  Se  Se3  1  0.764336  0.555365  0.390587  1
  Se  Se4  1  0.235664  0.555365  0.890587  1
  Se  Se5  1  0.235664  0.444635  0.609413  1
  Se  Se6  1  0.746007  0.668194  0.880518  1
  Se  Se7  1  0.746007  0.331806  0.619482  1
  Se  Se8  1  0.253993  0.331806  0.119482  1
  Se  Se9  1  0.570695  0.767963  0.380816  1
  Se  Se10  1  0.429305  0.767963  0.880816  1
  Se  Se11  1  0.429305  0.232037  0.619184  1
  Se  Se12  1  0.570695  0.232037  0.119184  1
  Se  Se13  1  0.764336  0.444635  0.109413  1
  Br  Br14  1  0.724988  0.500000  0.750000  1
  Br  Br15  1  0.275012  0.500000  0.250000  1
  F  F16  1  0.912626  0.932868  0.402008  1
  F  F17  1  0.912626  0.067132  0.097992  1
  F  F18  1  0.087374  0.067132  0.597992  1
  F  F19  1  0.087374  0.932868  0.902008  1
  F  F20  1  0.079778  0.808695  0.600935  1
  F  F21  1  0.079778  0.191305  0.899065  1
  F  F22  1  0.920222  0.191305  0.399065  1
  F  F23  1  0.920222  0.808695  0.100935  1
  F  F24  1  0.199437  0.045688  0.416605  1
  F  F25  1  0.199437  0.954312  0.083395  1
  F  F26  1  0.800563  0.954312  0.583395  1
  F  F27  1  0.800563  0.045688  0.916605  1
