# generated using pymatgen
data_Nb3SI6Cl
_symmetry_space_group_name_H-M   'P 1'
_cell_length_a   7.62916403
_cell_length_b   7.62916393
_cell_length_c   7.29654600
_cell_angle_alpha   89.99529117
_cell_angle_beta   90.00470883
_cell_angle_gamma   120.14151462
_symmetry_Int_Tables_number   1
_chemical_formula_structural   Nb3SI6Cl
_chemical_formula_sum   'Nb3 S1 I6 Cl1'
_cell_volume   367.26604967
_cell_formula_units_Z   1
loop_
 _symmetry_equiv_pos_site_id
 _symmetry_equiv_pos_as_xyz
  1  'x, y, z'
loop_
 _atom_site_type_symbol
 _atom_site_label
 _atom_site_symmetry_multiplicity
 _atom_site_fract_x
 _atom_site_fract_y
 _atom_site_fract_z
 _atom_site_occupancy
  Nb  Nb0  1  0.592244  0.792866  0.220687  1
  Nb  Nb1  1  0.207134  0.407756  0.220687  1
  Nb  Nb2  1  0.203903  0.796097  0.220956  1
  S  S3  1  0.333259  0.666741  0.455521  1
  I  I4  1  0.997608  0.496330  0.963645  1
  I  I5  1  0.503670  0.002392  0.963645  1
  I  I6  1  0.002109  0.997891  0.021116  1
  I  I7  1  0.338175  0.168644  0.438102  1
  I  I8  1  0.832069  0.167931  0.432488  1
  I  I9  1  0.831356  0.661825  0.438102  1
  Cl  Cl10  1  0.491806  0.508194  0.009953  1
