# generated using pymatgen
data_Tm4VSi8Tc5
_symmetry_space_group_name_H-M   'P 1'
_cell_length_a   6.78673654
_cell_length_b   6.63743357
_cell_length_c   6.78456705
_cell_angle_alpha   70.54862009
_cell_angle_beta   89.96781214
_cell_angle_gamma   90.18167212
_symmetry_Int_Tables_number   1
_chemical_formula_structural   Tm4VSi8Tc5
_chemical_formula_sum   'Tm4 V1 Si8 Tc5'
_cell_volume   288.17571201
_cell_formula_units_Z   1
loop_
 _symmetry_equiv_pos_site_id
 _symmetry_equiv_pos_as_xyz
  1  'x, y, z'
loop_
 _atom_site_type_symbol
 _atom_site_label
 _atom_site_symmetry_multiplicity
 _atom_site_fract_x
 _atom_site_fract_y
 _atom_site_fract_z
 _atom_site_occupancy
  Tm  Tm0  1  0.331058  0.559414  0.807328  1
  Tm  Tm1  1  0.830458  0.942508  0.190111  1
  Tm  Tm2  1  0.667772  0.441033  0.189907  1
  Tm  Tm3  1  0.168944  0.059529  0.806736  1
  V  V4  1  0.657286  0.256039  0.758209  1
  Si  Si5  1  0.548612  0.878063  0.901354  1
  Si  Si6  1  0.048225  0.621559  0.101356  1
  Si  Si7  1  0.452931  0.126810  0.095210  1
  Si  Si8  1  0.951853  0.373671  0.901774  1
  Si  Si9  1  0.138479  0.866872  0.489567  1
  Si  Si10  1  0.639408  0.631342  0.512176  1
  Si  Si11  1  0.862249  0.130540  0.509565  1
  Si  Si12  1  0.363929  0.369929  0.491434  1
  Tc  Tc13  1  0.499559  0.002756  0.503203  1
  Tc  Tc14  1  0.997490  0.497964  0.500630  1
  Tc  Tc15  1  0.843688  0.753909  0.767310  1
  Tc  Tc16  1  0.343087  0.745448  0.234998  1
  Tc  Tc17  1  0.154972  0.242612  0.239131  1
