# generated using pymatgen
data_TbY3Ga18(NiRh2)2
_symmetry_space_group_name_H-M   'P 1'
_cell_length_a   7.54562869
_cell_length_b   7.54580633
_cell_length_c   9.48815000
_cell_angle_alpha   90.00000000
_cell_angle_beta   90.00000000
_cell_angle_gamma   120.02864094
_symmetry_Int_Tables_number   1
_chemical_formula_structural   TbY3Ga18(NiRh2)2
_chemical_formula_sum   'Tb1 Y3 Ga18 Ni2 Rh4'
_cell_volume   467.72205219
_cell_formula_units_Z   1
loop_
 _symmetry_equiv_pos_site_id
 _symmetry_equiv_pos_as_xyz
  1  'x, y, z'
loop_
 _atom_site_type_symbol
 _atom_site_label
 _atom_site_symmetry_multiplicity
 _atom_site_fract_x
 _atom_site_fract_y
 _atom_site_fract_z
 _atom_site_occupancy
  Tb  Tb0  1  0.335091  0.003773  0.750000  1
  Y  Y1  1  0.996126  0.664842  0.250000  1
  Y  Y2  1  0.003786  0.335111  0.750000  1
  Y  Y3  1  0.664834  0.996142  0.250000  1
  Ga  Ga4  1  0.116968  0.116973  0.250000  1
  Ga  Ga5  1  0.882960  0.882909  0.750000  1
  Ga  Ga6  1  0.999645  0.329359  0.077543  1
  Ga  Ga7  1  0.000260  0.670545  0.922464  1
  Ga  Ga8  1  0.000260  0.670545  0.577536  1
  Ga  Ga9  1  0.329361  0.999692  0.422429  1
  Ga  Ga10  1  0.999645  0.329359  0.422457  1
  Ga  Ga11  1  0.670675  0.000360  0.577541  1
  Ga  Ga12  1  0.670675  0.000360  0.922459  1
  Ga  Ga13  1  0.329361  0.999692  0.077571  1
  Ga  Ga14  1  0.328538  0.328598  0.563155  1
  Ga  Ga15  1  0.671428  0.671417  0.436842  1
  Ga  Ga16  1  0.671428  0.671417  0.063158  1
  Ga  Ga17  1  0.328538  0.328598  0.936845  1
  Ga  Ga18  1  0.337237  0.543446  0.250000  1
  Ga  Ga19  1  0.662782  0.456659  0.750000  1
  Ga  Ga20  1  0.543469  0.337223  0.250000  1
  Ga  Ga21  1  0.456701  0.662894  0.750000  1
  Ni  Ni22  1  0.000083  0.000020  0.000002  1
  Ni  Ni23  1  0.000083  0.000020  0.499998  1
  Rh  Rh24  1  0.671400  0.328593  0.000060  1
  Rh  Rh25  1  0.328631  0.671430  0.000045  1
  Rh  Rh26  1  0.328631  0.671430  0.499955  1
  Rh  Rh27  1  0.671400  0.328593  0.499940  1
