# generated using pymatgen
data_Y5Lu15Cd6FeRu
_symmetry_space_group_name_H-M   'P 1'
_cell_length_a   9.44830615
_cell_length_b   9.44834400
_cell_length_c   9.65589000
_cell_angle_alpha   90.00000000
_cell_angle_beta   90.00000000
_cell_angle_gamma   119.89214417
_symmetry_Int_Tables_number   1
_chemical_formula_structural   Y5Lu15Cd6FeRu
_chemical_formula_sum   'Y5 Lu15 Cd6 Fe1 Ru1'
_cell_volume   747.31478247
_cell_formula_units_Z   1
loop_
 _symmetry_equiv_pos_site_id
 _symmetry_equiv_pos_as_xyz
  1  'x, y, z'
loop_
 _atom_site_type_symbol
 _atom_site_label
 _atom_site_symmetry_multiplicity
 _atom_site_fract_x
 _atom_site_fract_y
 _atom_site_fract_z
 _atom_site_occupancy
  Y  Y0  1  0.539273  0.079032  0.250000  1
  Y  Y1  1  0.920910  0.460689  0.250000  1
  Y  Y2  1  0.459341  0.540636  0.750000  1
  Y  Y3  1  0.459460  0.919561  0.750000  1
  Y  Y4  1  0.080424  0.540546  0.750000  1
  Lu  Lu5  1  0.000297  0.999692  0.499758  1
  Lu  Lu6  1  0.000297  0.999692  0.000242  1
  Lu  Lu7  1  0.212409  0.787571  0.436514  1
  Lu  Lu8  1  0.213524  0.424748  0.436180  1
  Lu  Lu9  1  0.575271  0.786492  0.436172  1
  Lu  Lu10  1  0.790252  0.209737  0.559277  1
  Lu  Lu11  1  0.789114  0.580087  0.558728  1
  Lu  Lu12  1  0.419911  0.210885  0.558723  1
  Lu  Lu13  1  0.790252  0.209737  0.940723  1
  Lu  Lu14  1  0.789114  0.580087  0.941272  1
  Lu  Lu15  1  0.419911  0.210885  0.941277  1
  Lu  Lu16  1  0.212409  0.787571  0.063486  1
  Lu  Lu17  1  0.213524  0.424748  0.063820  1
  Lu  Lu18  1  0.575271  0.786492  0.063828  1
  Lu  Lu19  1  0.538383  0.461616  0.250000  1
  Cd  Cd20  1  0.886285  0.113706  0.250000  1
  Cd  Cd21  1  0.884281  0.771414  0.250000  1
  Cd  Cd22  1  0.228586  0.115765  0.250000  1
  Cd  Cd23  1  0.113394  0.886668  0.750000  1
  Cd  Cd24  1  0.113798  0.226468  0.750000  1
  Cd  Cd25  1  0.773522  0.886214  0.750000  1
  Fe  Fe26  1  0.333932  0.666089  0.250000  1
  Ru  Ru27  1  0.666857  0.333172  0.750000  1
