# generated using pymatgen
data_Sr8Cu(RuN4)2
_symmetry_space_group_name_H-M   'P 1'
_cell_length_a   9.85545857
_cell_length_b   5.36251284
_cell_length_c   7.58170131
_cell_angle_alpha   90.00001432
_cell_angle_beta   75.65544629
_cell_angle_gamma   74.21323208
_symmetry_Int_Tables_number   1
_chemical_formula_structural   Sr8Cu(RuN4)2
_chemical_formula_sum   'Sr8 Cu1 Ru2 N8'
_cell_volume   372.58061278
_cell_formula_units_Z   1
loop_
 _symmetry_equiv_pos_site_id
 _symmetry_equiv_pos_as_xyz
  1  'x, y, z'
loop_
 _atom_site_type_symbol
 _atom_site_label
 _atom_site_symmetry_multiplicity
 _atom_site_fract_x
 _atom_site_fract_y
 _atom_site_fract_z
 _atom_site_occupancy
  Sr  Sr0  1  0.048602  0.975700  0.745331  1
  Sr  Sr1  1  0.951398  0.024300  0.254669  1
  Sr  Sr2  1  0.679241  0.660379  0.462729  1
  Sr  Sr3  1  0.320759  0.339621  0.537271  1
  Sr  Sr4  1  0.812159  0.593921  0.968897  1
  Sr  Sr5  1  0.187841  0.406079  0.031103  1
  Sr  Sr6  1  0.594707  0.202647  0.806726  1
  Sr  Sr7  1  0.405293  0.797353  0.193274  1
  Cu  Cu8  1  0.000000  0.500000  0.500000  1
  Ru  Ru9  1  0.376380  0.811810  0.787103  1
  Ru  Ru10  1  0.623620  0.188190  0.212897  1
  N  N11  1  0.210278  0.894861  0.993289  1
  N  N12  1  0.789722  0.105139  0.006711  1
  N  N13  1  0.346844  0.826577  0.555587  1
  N  N14  1  0.653156  0.173423  0.444413  1
  N  N15  1  0.564148  0.717927  0.825300  1
  N  N16  1  0.435852  0.282073  0.174700  1
  N  N17  1  0.049107  0.475445  0.725233  1
  N  N18  1  0.950893  0.524555  0.274767  1
