# generated using pymatgen
data_YTm3Hf4F28
_symmetry_space_group_name_H-M   'P 1'
_cell_length_a   5.64378073
_cell_length_b   8.97388151
_cell_length_c   12.08290293
_cell_angle_alpha   62.51720532
_cell_angle_beta   90.01963762
_cell_angle_gamma   89.98461258
_symmetry_Int_Tables_number   1
_chemical_formula_structural   YTm3Hf4F28
_chemical_formula_sum   'Y1 Tm3 Hf4 F28'
_cell_volume   542.89827652
_cell_formula_units_Z   1
loop_
 _symmetry_equiv_pos_site_id
 _symmetry_equiv_pos_as_xyz
  1  'x, y, z'
loop_
 _atom_site_type_symbol
 _atom_site_label
 _atom_site_symmetry_multiplicity
 _atom_site_fract_x
 _atom_site_fract_y
 _atom_site_fract_z
 _atom_site_occupancy
  Y  Y0  1  0.244021  0.816589  0.764971  1
  Tm  Tm1  1  0.255820  0.817068  0.264954  1
  Tm  Tm2  1  0.743312  0.185285  0.735092  1
  Tm  Tm3  1  0.755822  0.183564  0.235244  1
  Hf  Hf4  1  0.756572  0.725601  0.045583  1
  Hf  Hf5  1  0.243331  0.272464  0.957265  1
  Hf  Hf6  1  0.256918  0.276026  0.455371  1
  Hf  Hf7  1  0.744076  0.725409  0.541717  1
  F  F8  1  0.959496  0.709197  0.416363  1
  F  F9  1  0.040133  0.290196  0.581350  1
  F  F10  1  0.460103  0.289314  0.082167  1
  F  F11  1  0.543864  0.708431  0.919495  1
  F  F12  1  0.480568  0.734284  0.147087  1
  F  F13  1  0.519848  0.266933  0.854676  1
  F  F14  1  0.982115  0.266427  0.353095  1
  F  F15  1  0.022062  0.732074  0.642492  1
  F  F16  1  0.963381  0.747731  0.173988  1
  F  F17  1  0.036098  0.251130  0.828157  1
  F  F18  1  0.465169  0.253291  0.327289  1
  F  F19  1  0.542616  0.746380  0.671943  1
  F  F20  1  0.774374  0.474349  0.140839  1
  F  F21  1  0.220794  0.522765  0.861050  1
  F  F22  1  0.276534  0.526619  0.359301  1
  F  F23  1  0.723204  0.474406  0.638970  1
  F  F24  1  0.946763  0.273669  0.050998  1
  F  F25  1  0.054330  0.724139  0.953710  1
  F  F26  1  0.445173  0.725530  0.449328  1
  F  F27  1  0.553562  0.274689  0.549892  1
  F  F28  1  0.740131  0.975878  0.440110  1
  F  F29  1  0.260728  0.025728  0.556712  1
  F  F30  1  0.239725  0.022475  0.059628  1
  F  F31  1  0.759737  0.975655  0.941186  1
  F  F32  1  0.572974  0.973463  0.233337  1
  F  F33  1  0.424966  0.032314  0.767597  1
  F  F34  1  0.072838  0.026889  0.266850  1
  F  F35  1  0.918842  0.974039  0.732196  1
