# generated using pymatgen
data_Tb3Pr2Y(RuO7)2
_symmetry_space_group_name_H-M   'P 1'
_cell_length_a   6.49428522
_cell_length_b   6.48949216
_cell_length_c   7.55223200
_cell_angle_alpha   90.00000000
_cell_angle_beta   90.00000000
_cell_angle_gamma   110.15159096
_symmetry_Int_Tables_number   1
_chemical_formula_structural   Tb3Pr2Y(RuO7)2
_chemical_formula_sum   'Tb3 Pr2 Y1 Ru2 O14'
_cell_volume   298.80184216
_cell_formula_units_Z   1
loop_
 _symmetry_equiv_pos_site_id
 _symmetry_equiv_pos_as_xyz
  1  'x, y, z'
loop_
 _atom_site_type_symbol
 _atom_site_label
 _atom_site_symmetry_multiplicity
 _atom_site_fract_x
 _atom_site_fract_y
 _atom_site_fract_z
 _atom_site_occupancy
  Tb  Tb0  1  0.481801  0.929525  0.750000  1
  Tb  Tb1  1  0.518216  0.070316  0.250000  1
  Tb  Tb2  1  0.929654  0.481877  0.750000  1
  Pr  Pr3  1  0.000119  0.000064  0.499998  1
  Pr  Pr4  1  0.000119  0.000064  0.000002  1
  Y  Y5  1  0.068866  0.517904  0.250000  1
  Ru  Ru6  1  0.500027  0.500119  0.499925  1
  Ru  Ru7  1  0.500027  0.500119  0.000075  1
  O  O8  1  0.587439  0.587443  0.750000  1
  O  O9  1  0.412453  0.412470  0.250000  1
  O  O10  1  0.838478  0.117330  0.750000  1
  O  O11  1  0.161679  0.881068  0.250000  1
  O  O12  1  0.117481  0.838557  0.750000  1
  O  O13  1  0.883162  0.162371  0.250000  1
  O  O14  1  0.440389  0.182686  0.963601  1
  O  O15  1  0.559843  0.817417  0.463534  1
  O  O16  1  0.182868  0.440678  0.963885  1
  O  O17  1  0.817139  0.559607  0.463623  1
  O  O18  1  0.440389  0.182686  0.536399  1
  O  O19  1  0.559843  0.817417  0.036466  1
  O  O20  1  0.817139  0.559607  0.036377  1
  O  O21  1  0.182868  0.440678  0.536115  1
