# generated using pymatgen
data_Hf3Th5(P3Ir4)4
_symmetry_space_group_name_H-M   'P 1'
_cell_length_a   12.95522500
_cell_length_b   12.95522615
_cell_length_c   4.05341600
_cell_angle_alpha   90.00000000
_cell_angle_beta   90.00000000
_cell_angle_gamma   119.99999962
_symmetry_Int_Tables_number   1
_chemical_formula_structural   Hf3Th5(P3Ir4)4
_chemical_formula_sum   'Hf3 Th5 P12 Ir16'
_cell_volume   589.17155262
_cell_formula_units_Z   1
loop_
 _symmetry_equiv_pos_site_id
 _symmetry_equiv_pos_as_xyz
  1  'x, y, z'
loop_
 _atom_site_type_symbol
 _atom_site_label
 _atom_site_symmetry_multiplicity
 _atom_site_fract_x
 _atom_site_fract_y
 _atom_site_fract_z
 _atom_site_occupancy
  Hf  Hf0  1  0.449233  0.000000  0.000000  1
  Hf  Hf1  1  0.000000  0.449233  0.000000  1
  Hf  Hf2  1  0.550767  0.550767  0.000000  1
  Th  Th3  1  0.333333  0.666667  0.000000  1
  Th  Th4  1  0.666667  0.333333  0.000000  1
  Th  Th5  1  0.815796  0.000000  0.500000  1
  Th  Th6  1  0.000000  0.815796  0.500000  1
  Th  Th7  1  0.184204  0.184204  0.500000  1
  P  P8  1  0.177636  0.000000  0.000000  1
  P  P9  1  0.000000  0.177636  0.000000  1
  P  P10  1  0.822364  0.822364  0.000000  1
  P  P11  1  0.165101  0.480807  0.500000  1
  P  P12  1  0.519193  0.684293  0.500000  1
  P  P13  1  0.315707  0.834899  0.500000  1
  P  P14  1  0.684293  0.519193  0.500000  1
  P  P15  1  0.834899  0.315707  0.500000  1
  P  P16  1  0.480807  0.165101  0.500000  1
  P  P17  1  0.642464  0.000000  0.000000  1
  P  P18  1  0.000000  0.642464  0.000000  1
  P  P19  1  0.357536  0.357536  0.000000  1
  Ir  Ir20  1  0.355517  0.491805  0.500000  1
  Ir  Ir21  1  0.508195  0.863712  0.500000  1
  Ir  Ir22  1  0.136288  0.644483  0.500000  1
  Ir  Ir23  1  0.863712  0.508195  0.500000  1
  Ir  Ir24  1  0.644483  0.136288  0.500000  1
  Ir  Ir25  1  0.491805  0.355517  0.500000  1
  Ir  Ir26  1  0.177433  0.371979  0.000000  1
  Ir  Ir27  1  0.628021  0.805455  0.000000  1
  Ir  Ir28  1  0.194545  0.822567  0.000000  1
  Ir  Ir29  1  0.805455  0.628021  0.000000  1
  Ir  Ir30  1  0.822567  0.194545  0.000000  1
  Ir  Ir31  1  0.371979  0.177433  0.000000  1
  Ir  Ir32  1  0.283738  0.000000  0.500000  1
  Ir  Ir33  1  0.000000  0.283738  0.500000  1
  Ir  Ir34  1  0.716262  0.716262  0.500000  1
  Ir  Ir35  1  0.000000  0.000000  0.000000  1
