# generated using pymatgen
data_Tb10YbIn9Ir4
_symmetry_space_group_name_H-M   'P 1'
_cell_length_a   3.76188100
_cell_length_b   13.09907010
_cell_length_c   13.09907107
_cell_angle_alpha   111.95409204
_cell_angle_beta   90.00000000
_cell_angle_gamma   90.00000000
_symmetry_Int_Tables_number   1
_chemical_formula_structural   Tb10YbIn9Ir4
_chemical_formula_sum   'Tb10 Yb1 In9 Ir4'
_cell_volume   598.67663367
_cell_formula_units_Z   1
loop_
 _symmetry_equiv_pos_site_id
 _symmetry_equiv_pos_as_xyz
  1  'x, y, z'
loop_
 _atom_site_type_symbol
 _atom_site_label
 _atom_site_symmetry_multiplicity
 _atom_site_fract_x
 _atom_site_fract_y
 _atom_site_fract_z
 _atom_site_occupancy
  Tb  Tb0  1  0.000000  0.919958  0.580415  1
  Tb  Tb1  1  0.000000  0.080042  0.419585  1
  Tb  Tb2  1  0.000000  0.580415  0.919958  1
  Tb  Tb3  1  0.000000  0.419585  0.080042  1
  Tb  Tb4  1  0.000000  0.161339  0.838661  1
  Tb  Tb5  1  0.000000  0.838661  0.161339  1
  Tb  Tb6  1  0.000000  0.374655  0.625345  1
  Tb  Tb7  1  0.000000  0.625345  0.374655  1
  Tb  Tb8  1  0.000000  0.685742  0.685742  1
  Tb  Tb9  1  0.000000  0.314258  0.314258  1
  Yb  Yb10  1  0.000000  0.000000  0.000000  1
  In  In11  1  0.500000  0.158282  0.632857  1
  In  In12  1  0.500000  0.841718  0.367143  1
  In  In13  1  0.500000  0.632857  0.158282  1
  In  In14  1  0.500000  0.367143  0.841718  1
  In  In15  1  0.500000  0.924998  0.781540  1
  In  In16  1  0.500000  0.075002  0.218460  1
  In  In17  1  0.500000  0.781540  0.924998  1
  In  In18  1  0.500000  0.218460  0.075002  1
  In  In19  1  0.500000  0.500000  0.500000  1
  Ir  Ir20  1  0.500000  0.752269  0.547952  1
  Ir  Ir21  1  0.500000  0.247731  0.452048  1
  Ir  Ir22  1  0.500000  0.547952  0.752269  1
  Ir  Ir23  1  0.500000  0.452048  0.247731  1
