# generated using pymatgen
data_Sr4Sc(IrO6)2
_symmetry_space_group_name_H-M   'P 1'
_cell_length_a   9.65159442
_cell_length_b   9.65159493
_cell_length_c   9.65159508
_cell_angle_alpha   33.94892364
_cell_angle_beta   33.94891992
_cell_angle_gamma   33.94892576
_symmetry_Int_Tables_number   1
_chemical_formula_structural   Sr4Sc(IrO6)2
_chemical_formula_sum   'Sr4 Sc1 Ir2 O12'
_cell_volume   249.91687656
_cell_formula_units_Z   1
loop_
 _symmetry_equiv_pos_site_id
 _symmetry_equiv_pos_as_xyz
  1  'x, y, z'
loop_
 _atom_site_type_symbol
 _atom_site_label
 _atom_site_symmetry_multiplicity
 _atom_site_fract_x
 _atom_site_fract_y
 _atom_site_fract_z
 _atom_site_occupancy
  Sr  Sr0  1  0.712235  0.712235  0.712235  1
  Sr  Sr1  1  0.287765  0.287765  0.287765  1
  Sr  Sr2  1  0.866282  0.866282  0.866282  1
  Sr  Sr3  1  0.133718  0.133718  0.133718  1
  Sc  Sc4  1  0.000000  0.000000  0.000000  1
  Ir  Ir5  1  0.579037  0.579037  0.579037  1
  Ir  Ir6  1  0.420963  0.420963  0.420963  1
  O  O7  1  0.215966  0.700236  0.215966  1
  O  O8  1  0.215966  0.215966  0.700236  1
  O  O9  1  0.700236  0.215966  0.215966  1
  O  O10  1  0.784034  0.299764  0.784034  1
  O  O11  1  0.784034  0.784034  0.299764  1
  O  O12  1  0.299764  0.784034  0.784034  1
  O  O13  1  0.377792  0.870875  0.377792  1
  O  O14  1  0.377792  0.377792  0.870875  1
  O  O15  1  0.870875  0.377792  0.377792  1
  O  O16  1  0.622208  0.129125  0.622208  1
  O  O17  1  0.622208  0.622208  0.129125  1
  O  O18  1  0.129125  0.622208  0.622208  1
