# generated using pymatgen
data_Mn(NiH)3
_symmetry_space_group_name_H-M   'P 1'
_cell_length_a   3.75171151
_cell_length_b   4.51578138
_cell_length_c   5.30421299
_cell_angle_alpha   90.07736370
_cell_angle_beta   45.05722129
_cell_angle_gamma   65.45367610
_symmetry_Int_Tables_number   1
_chemical_formula_structural   Mn(NiH)3
_chemical_formula_sum   'Mn1 Ni3 H3'
_cell_volume   51.43641382
_cell_formula_units_Z   1
loop_
 _symmetry_equiv_pos_site_id
 _symmetry_equiv_pos_as_xyz
  1  'x, y, z'
loop_
 _atom_site_type_symbol
 _atom_site_label
 _atom_site_symmetry_multiplicity
 _atom_site_fract_x
 _atom_site_fract_y
 _atom_site_fract_z
 _atom_site_occupancy
  Mn  Mn0  1  0.133281  0.599341  0.927710  1
  Ni  Ni1  1  0.137535  0.095831  0.674843  1
  Ni  Ni2  1  0.137337  0.095876  0.175046  1
  Ni  Ni3  1  0.137450  0.595770  0.424948  1
  H  H4  1  0.655821  0.065714  0.670845  1
  H  H5  1  0.654480  0.586115  0.913492  1
  H  H6  1  0.639099  0.590756  0.423870  1
