# generated using pymatgen
data_CrAg2HgF7
_symmetry_space_group_name_H-M   'P 1'
_cell_length_a   7.89424787
_cell_length_b   7.89420157
_cell_length_c   7.89403298
_cell_angle_alpha   120.32441989
_cell_angle_beta   121.04392564
_cell_angle_gamma   88.82055919
_symmetry_Int_Tables_number   1
_chemical_formula_structural   CrAg2HgF7
_chemical_formula_sum   'Cr2 Ag4 Hg2 F14'
_cell_volume   344.16370373
_cell_formula_units_Z   2
loop_
 _symmetry_equiv_pos_site_id
 _symmetry_equiv_pos_as_xyz
  1  'x, y, z'
loop_
 _atom_site_type_symbol
 _atom_site_label
 _atom_site_symmetry_multiplicity
 _atom_site_fract_x
 _atom_site_fract_y
 _atom_site_fract_z
 _atom_site_occupancy
  Cr  Cr0  1  0.500000  0.500000  0.500000  1
  Cr  Cr1  1  0.500000  0.000000  0.000000  1
  Ag  Ag2  1  0.500000  0.500000  0.000000  1
  Ag  Ag3  1  0.000000  0.000000  0.000000  1
  Ag  Ag4  1  0.000000  0.500000  0.000000  1
  Ag  Ag5  1  0.000000  0.000000  0.500000  1
  Hg  Hg6  1  0.000000  0.500000  0.500000  1
  Hg  Hg7  1  0.500000  0.000000  0.500000  1
  F  F8  1  0.873211  0.608632  0.264594  1
  F  F9  1  0.155918  0.891367  0.264537  1
  F  F10  1  0.201759  0.869786  0.811917  1
  F  F11  1  0.442157  0.630226  0.332006  1
  F  F12  1  0.442199  0.110136  0.811938  1
  F  F13  1  0.201760  0.389821  0.331975  1
  F  F14  1  0.798240  0.610179  0.668025  1
  F  F15  1  0.557801  0.889864  0.188062  1
  F  F16  1  0.557843  0.369774  0.667994  1
  F  F17  1  0.798241  0.130214  0.188083  1
  F  F18  1  0.475954  0.250014  0.225945  1
  F  F19  1  0.126789  0.391368  0.735406  1
  F  F20  1  0.844082  0.108633  0.735463  1
  F  F21  1  0.524046  0.749986  0.774055  1
