# generated using pymatgen
data_Tb3Nd3Fe4(Co7P6)2
_symmetry_space_group_name_H-M   'P 1'
_cell_length_a   3.74401100
_cell_length_b   10.63200342
_cell_length_c   12.22250763
_cell_angle_alpha   90.05920754
_cell_angle_beta   90.00000000
_cell_angle_gamma   90.00000000
_symmetry_Int_Tables_number   1
_chemical_formula_structural   Tb3Nd3Fe4(Co7P6)2
_chemical_formula_sum   'Tb3 Nd3 Fe4 Co14 P12'
_cell_volume   486.53300720
_cell_formula_units_Z   1
loop_
 _symmetry_equiv_pos_site_id
 _symmetry_equiv_pos_as_xyz
  1  'x, y, z'
loop_
 _atom_site_type_symbol
 _atom_site_label
 _atom_site_symmetry_multiplicity
 _atom_site_fract_x
 _atom_site_fract_y
 _atom_site_fract_z
 _atom_site_occupancy
  Tb  Tb0  1  0.500000  0.181729  0.203605  1
  Tb  Tb1  1  0.000000  0.680807  0.796412  1
  Tb  Tb2  1  0.000000  0.318977  0.795968  1
  Nd  Nd3  1  0.000000  0.499849  0.522741  1
  Nd  Nd4  1  0.500000  0.000372  0.477859  1
  Nd  Nd5  1  0.500000  0.819396  0.204248  1
  Fe  Fe6  1  0.500000  0.499458  0.153748  1
  Fe  Fe7  1  0.000000  0.000309  0.845724  1
  Fe  Fe8  1  0.000000  0.498809  0.988152  1
  Fe  Fe9  1  0.500000  0.001168  0.009760  1
  Co  Co10  1  0.500000  0.499670  0.704085  1
  Co  Co11  1  0.000000  0.002436  0.296647  1
  Co  Co12  1  0.500000  0.331718  0.994667  1
  Co  Co13  1  0.500000  0.667255  0.993735  1
  Co  Co14  1  0.000000  0.169239  0.004345  1
  Co  Co15  1  0.000000  0.831980  0.003358  1
  Co  Co16  1  0.500000  0.295928  0.429576  1
  Co  Co17  1  0.500000  0.703380  0.431346  1
  Co  Co18  1  0.000000  0.204349  0.570653  1
  Co  Co19  1  0.000000  0.795911  0.571871  1
  Co  Co20  1  0.500000  0.879520  0.711653  1
  Co  Co21  1  0.500000  0.120524  0.711125  1
  Co  Co22  1  0.000000  0.618694  0.289953  1
  Co  Co23  1  0.000000  0.379182  0.288668  1
  P  P24  1  0.500000  0.499411  0.885543  1
  P  P25  1  0.000000  0.002326  0.112305  1
  P  P26  1  0.500000  0.499962  0.337910  1
  P  P27  1  0.000000  0.999908  0.662240  1
  P  P28  1  0.500000  0.306694  0.617314  1
  P  P29  1  0.500000  0.692916  0.618141  1
  P  P30  1  0.000000  0.193688  0.382854  1
  P  P31  1  0.000000  0.805977  0.386038  1
  P  P32  1  0.500000  0.847184  0.894402  1
  P  P33  1  0.500000  0.153330  0.893793  1
  P  P34  1  0.000000  0.650552  0.104050  1
  P  P35  1  0.000000  0.347391  0.105511  1
