# generated using pymatgen
data_Ho2U(SnIr)3
_symmetry_space_group_name_H-M   'P 1'
_cell_length_a   7.41292957
_cell_length_b   7.55574652
_cell_length_c   3.95512800
_cell_angle_alpha   90.00000000
_cell_angle_beta   90.00000000
_cell_angle_gamma   120.63939202
_symmetry_Int_Tables_number   1
_chemical_formula_structural   Ho2U(SnIr)3
_chemical_formula_sum   'Ho2 U1 Sn3 Ir3'
_cell_volume   190.60052085
_cell_formula_units_Z   1
loop_
 _symmetry_equiv_pos_site_id
 _symmetry_equiv_pos_as_xyz
  1  'x, y, z'
loop_
 _atom_site_type_symbol
 _atom_site_label
 _atom_site_symmetry_multiplicity
 _atom_site_fract_x
 _atom_site_fract_y
 _atom_site_fract_z
 _atom_site_occupancy
  Ho  Ho0  1  0.406849  0.404293  0.500000  1
  Ho  Ho1  1  0.593151  0.997444  0.500000  1
  U  U2  1  0.000000  0.585292  0.500000  1
  Sn  Sn3  1  0.728643  0.742981  0.000000  1
  Sn  Sn4  1  0.271357  0.014338  0.000000  1
  Sn  Sn5  1  0.000000  0.244367  0.000000  1
  Ir  Ir6  1  0.699020  0.363164  0.000000  1
  Ir  Ir7  1  0.300980  0.664145  0.000000  1
  Ir  Ir8  1  0.000000  0.983976  0.500000  1
