# generated using pymatgen
data_Tm6Al13Mo3Os7
_symmetry_space_group_name_H-M   'P 1'
_cell_length_a   8.93894460
_cell_length_b   8.93894523
_cell_length_c   8.93894531
_cell_angle_alpha   59.57842362
_cell_angle_beta   59.57842425
_cell_angle_gamma   59.57841827
_symmetry_Int_Tables_number   1
_chemical_formula_structural   Tm6Al13Mo3Os7
_chemical_formula_sum   'Tm6 Al13 Mo3 Os7'
_cell_volume   500.22084551
_cell_formula_units_Z   1
loop_
 _symmetry_equiv_pos_site_id
 _symmetry_equiv_pos_as_xyz
  1  'x, y, z'
loop_
 _atom_site_type_symbol
 _atom_site_label
 _atom_site_symmetry_multiplicity
 _atom_site_fract_x
 _atom_site_fract_y
 _atom_site_fract_z
 _atom_site_occupancy
  Tm  Tm0  1  0.707949  0.707949  0.286116  1
  Tm  Tm1  1  0.292833  0.708719  0.292833  1
  Tm  Tm2  1  0.708719  0.292833  0.292833  1
  Tm  Tm3  1  0.292833  0.292833  0.708719  1
  Tm  Tm4  1  0.707949  0.286116  0.707949  1
  Tm  Tm5  1  0.286116  0.707949  0.707949  1
  Al  Al6  1  0.880425  0.880425  0.880425  1
  Al  Al7  1  0.121128  0.121128  0.639071  1
  Al  Al8  1  0.121128  0.639071  0.121128  1
  Al  Al9  1  0.639071  0.121128  0.121128  1
  Al  Al10  1  0.122408  0.122408  0.122408  1
  Al  Al11  1  0.668838  0.668838  0.996705  1
  Al  Al12  1  0.668838  0.996705  0.668838  1
  Al  Al13  1  0.996705  0.668838  0.668838  1
  Al  Al14  1  0.662850  0.662850  0.662850  1
  Al  Al15  1  0.331682  0.331682  0.007473  1
  Al  Al16  1  0.331682  0.007473  0.331682  1
  Al  Al17  1  0.007473  0.331682  0.331682  1
  Al  Al18  1  0.332308  0.332308  0.332308  1
  Mo  Mo19  1  0.877421  0.877421  0.362552  1
  Mo  Mo20  1  0.877421  0.362552  0.877421  1
  Mo  Mo21  1  0.362552  0.877421  0.877421  1
  Os  Os22  1  0.004967  0.004967  0.004967  1
  Os  Os23  1  0.998171  0.998171  0.497096  1
  Os  Os24  1  0.503738  0.995791  0.503738  1
  Os  Os25  1  0.995791  0.503738  0.503738  1
  Os  Os26  1  0.503738  0.503738  0.995791  1
  Os  Os27  1  0.998171  0.497096  0.998171  1
  Os  Os28  1  0.497096  0.998171  0.998171  1
