# generated using pymatgen
data_LaNdCrGeO8
_symmetry_space_group_name_H-M   'P 1'
_cell_length_a   6.19785874
_cell_length_b   6.19785783
_cell_length_c   6.19785841
_cell_angle_alpha   106.01108885
_cell_angle_beta   106.01109016
_cell_angle_gamma   116.63807932
_symmetry_Int_Tables_number   1
_chemical_formula_structural   LaNdCrGeO8
_chemical_formula_sum   'La1 Nd1 Cr1 Ge1 O8'
_cell_volume   181.09854055
_cell_formula_units_Z   1
loop_
 _symmetry_equiv_pos_site_id
 _symmetry_equiv_pos_as_xyz
  1  'x, y, z'
loop_
 _atom_site_type_symbol
 _atom_site_label
 _atom_site_symmetry_multiplicity
 _atom_site_fract_x
 _atom_site_fract_y
 _atom_site_fract_z
 _atom_site_occupancy
  La  La0  1  0.000000  0.000000  0.000000  1
  Nd  Nd1  1  0.250000  0.750000  0.500000  1
  Cr  Cr2  1  0.500000  0.500000  0.000000  1
  Ge  Ge3  1  0.750000  0.250000  0.500000  1
  O  O4  1  0.343939  0.520169  0.176230  1
  O  O5  1  0.387723  0.068334  0.319388  1
  O  O6  1  0.748947  0.068334  0.680612  1
  O  O7  1  0.343939  0.167708  0.823770  1
  O  O8  1  0.832292  0.656061  0.176230  1
  O  O9  1  0.931666  0.251053  0.319388  1
  O  O10  1  0.931666  0.612277  0.680612  1
  O  O11  1  0.479831  0.656061  0.823770  1
