# generated using pymatgen
data_YErMnCo2Si5
_symmetry_space_group_name_H-M   'P 1'
_cell_length_a   5.43021195
_cell_length_b   7.97016994
_cell_length_c   7.97291000
_cell_angle_alpha   72.95626629
_cell_angle_beta   70.09013595
_cell_angle_gamma   70.08299960
_symmetry_Int_Tables_number   1
_chemical_formula_structural   YErMnCo2Si5
_chemical_formula_sum   'Y2 Er2 Mn2 Co4 Si10'
_cell_volume   298.85105510
_cell_formula_units_Z   2
loop_
 _symmetry_equiv_pos_site_id
 _symmetry_equiv_pos_as_xyz
  1  'x, y, z'
loop_
 _atom_site_type_symbol
 _atom_site_label
 _atom_site_symmetry_multiplicity
 _atom_site_fract_x
 _atom_site_fract_y
 _atom_site_fract_z
 _atom_site_occupancy
  Y  Y0  1  0.364523  0.868203  0.402751  1
  Y  Y1  1  0.635477  0.131797  0.597249  1
  Er  Er2  1  0.864380  0.402945  0.868296  1
  Er  Er3  1  0.135620  0.597055  0.131704  1
  Mn  Mn4  1  0.750228  0.000000  0.000000  1
  Mn  Mn5  1  0.249772  0.000000  0.000000  1
  Co  Co6  1  0.140937  0.261719  0.456405  1
  Co  Co7  1  0.859063  0.738281  0.543595  1
  Co  Co8  1  0.641205  0.457095  0.260494  1
  Co  Co9  1  0.358795  0.542905  0.739506  1
  Si  Si10  1  0.750413  0.500000  0.500000  1
  Si  Si11  1  0.249587  0.500000  0.500000  1
  Si  Si12  1  0.532091  0.218522  0.217632  1
  Si  Si13  1  0.968245  0.781478  0.782368  1
  Si  Si14  1  0.467909  0.781478  0.782368  1
  Si  Si15  1  0.031755  0.218522  0.217632  1
  Si  Si16  1  0.098675  0.069663  0.732987  1
  Si  Si17  1  0.901325  0.930337  0.267013  1
  Si  Si18  1  0.599307  0.732235  0.069151  1
  Si  Si19  1  0.400693  0.267765  0.930849  1
