# generated using pymatgen
data_CdAg5SbO6
_symmetry_space_group_name_H-M   'P 1'
_cell_length_a   5.96351600
_cell_length_b   5.96351656
_cell_length_c   12.58166100
_cell_angle_alpha   90.00000000
_cell_angle_beta   90.00000000
_cell_angle_gamma   119.99999689
_symmetry_Int_Tables_number   1
_chemical_formula_structural   CdAg5SbO6
_chemical_formula_sum   'Cd2 Ag10 Sb2 O12'
_cell_volume   387.50154925
_cell_formula_units_Z   2
loop_
 _symmetry_equiv_pos_site_id
 _symmetry_equiv_pos_as_xyz
  1  'x, y, z'
loop_
 _atom_site_type_symbol
 _atom_site_label
 _atom_site_symmetry_multiplicity
 _atom_site_fract_x
 _atom_site_fract_y
 _atom_site_fract_z
 _atom_site_occupancy
  Cd  Cd0  1  0.666667  0.333333  0.750000  1
  Cd  Cd1  1  0.333333  0.666667  0.250000  1
  Ag  Ag2  1  0.000000  0.000000  0.880865  1
  Ag  Ag3  1  0.000000  0.000000  0.380865  1
  Ag  Ag4  1  0.000000  0.000000  0.119135  1
  Ag  Ag5  1  0.000000  0.000000  0.619135  1
  Ag  Ag6  1  0.500000  0.500000  0.000000  1
  Ag  Ag7  1  0.000000  0.500000  0.000000  1
  Ag  Ag8  1  0.500000  0.000000  0.000000  1
  Ag  Ag9  1  0.000000  0.500000  0.500000  1
  Ag  Ag10  1  0.500000  0.000000  0.500000  1
  Ag  Ag11  1  0.500000  0.500000  0.500000  1
  Sb  Sb12  1  0.333333  0.666667  0.750000  1
  Sb  Sb13  1  0.666667  0.333333  0.250000  1
  O  O14  1  0.603949  0.642085  0.840814  1
  O  O15  1  0.038135  0.396051  0.840814  1
  O  O16  1  0.357915  0.961865  0.840814  1
  O  O17  1  0.961865  0.357915  0.340814  1
  O  O18  1  0.396051  0.038135  0.340814  1
  O  O19  1  0.642085  0.603949  0.340814  1
  O  O20  1  0.396051  0.357915  0.159186  1
  O  O21  1  0.961865  0.603949  0.159186  1
  O  O22  1  0.642085  0.038135  0.159186  1
  O  O23  1  0.038135  0.642085  0.659186  1
  O  O24  1  0.603949  0.961865  0.659186  1
  O  O25  1  0.357915  0.396051  0.659186  1
