# generated using pymatgen
data_Er9MgCd3Pd
_symmetry_space_group_name_H-M   'P 1'
_cell_length_a   9.55900800
_cell_length_b   9.55900684
_cell_length_c   9.51981600
_cell_angle_alpha   90.00000000
_cell_angle_beta   90.00000000
_cell_angle_gamma   119.99999710
_symmetry_Int_Tables_number   1
_chemical_formula_structural   Er9MgCd3Pd
_chemical_formula_sum   'Er18 Mg2 Cd6 Pd2'
_cell_volume   753.32919067
_cell_formula_units_Z   2
loop_
 _symmetry_equiv_pos_site_id
 _symmetry_equiv_pos_as_xyz
  1  'x, y, z'
loop_
 _atom_site_type_symbol
 _atom_site_label
 _atom_site_symmetry_multiplicity
 _atom_site_fract_x
 _atom_site_fract_y
 _atom_site_fract_z
 _atom_site_occupancy
  Er  Er0  1  0.205821  0.794179  0.943592  1
  Er  Er1  1  0.205821  0.411643  0.943592  1
  Er  Er2  1  0.588357  0.794179  0.943592  1
  Er  Er3  1  0.794179  0.205821  0.056408  1
  Er  Er4  1  0.794179  0.588357  0.056408  1
  Er  Er5  1  0.411643  0.205821  0.056408  1
  Er  Er6  1  0.794179  0.205821  0.443592  1
  Er  Er7  1  0.794179  0.588357  0.443592  1
  Er  Er8  1  0.411643  0.205821  0.443592  1
  Er  Er9  1  0.205821  0.794179  0.556408  1
  Er  Er10  1  0.205821  0.411643  0.556408  1
  Er  Er11  1  0.588357  0.794179  0.556408  1
  Er  Er12  1  0.542547  0.457453  0.750000  1
  Er  Er13  1  0.542547  0.085092  0.750000  1
  Er  Er14  1  0.914908  0.457453  0.750000  1
  Er  Er15  1  0.457453  0.542547  0.250000  1
  Er  Er16  1  0.457453  0.914908  0.250000  1
  Er  Er17  1  0.085092  0.542547  0.250000  1
  Mg  Mg18  1  0.000000  0.000000  0.000000  1
  Mg  Mg19  1  0.000000  0.000000  0.500000  1
  Cd  Cd20  1  0.887945  0.112055  0.750000  1
  Cd  Cd21  1  0.887945  0.775890  0.750000  1
  Cd  Cd22  1  0.224110  0.112055  0.750000  1
  Cd  Cd23  1  0.112055  0.887945  0.250000  1
  Cd  Cd24  1  0.112055  0.224110  0.250000  1
  Cd  Cd25  1  0.775890  0.887945  0.250000  1
  Pd  Pd26  1  0.333333  0.666667  0.750000  1
  Pd  Pd27  1  0.666667  0.333333  0.250000  1
