# generated using pymatgen
data_EuWF7
_symmetry_space_group_name_H-M   'P 1'
_cell_length_a   5.73129400
_cell_length_b   9.15114330
_cell_length_c   12.29317418
_cell_angle_alpha   62.06234722
_cell_angle_beta   90.00000000
_cell_angle_gamma   90.00000000
_symmetry_Int_Tables_number   1
_chemical_formula_structural   EuWF7
_chemical_formula_sum   'Eu4 W4 F28'
_cell_volume   569.61045617
_cell_formula_units_Z   4
loop_
 _symmetry_equiv_pos_site_id
 _symmetry_equiv_pos_as_xyz
  1  'x, y, z'
loop_
 _atom_site_type_symbol
 _atom_site_label
 _atom_site_symmetry_multiplicity
 _atom_site_fract_x
 _atom_site_fract_y
 _atom_site_fract_z
 _atom_site_occupancy
  Eu  Eu0  1  0.741140  0.813399  0.264923  1
  Eu  Eu1  1  0.241140  0.186601  0.235077  1
  Eu  Eu2  1  0.258860  0.186601  0.735077  1
  Eu  Eu3  1  0.758860  0.813399  0.764923  1
  W  W4  1  0.743160  0.273115  0.456804  1
  W  W5  1  0.243160  0.726885  0.043196  1
  W  W6  1  0.256840  0.726885  0.543196  1
  W  W7  1  0.756840  0.273115  0.956804  1
  F  F8  1  0.448208  0.709745  0.919956  1
  F  F9  1  0.948208  0.290255  0.580044  1
  F  F10  1  0.551792  0.290255  0.080044  1
  F  F11  1  0.051792  0.709745  0.419956  1
  F  F12  1  0.455262  0.282042  0.544025  1
  F  F13  1  0.955262  0.717958  0.955975  1
  F  F14  1  0.544738  0.717958  0.455975  1
  F  F15  1  0.044738  0.282042  0.044025  1
  F  F16  1  0.769443  0.515873  0.861070  1
  F  F17  1  0.269443  0.484127  0.638930  1
  F  F18  1  0.230557  0.484127  0.138930  1
  F  F19  1  0.730557  0.515873  0.361070  1
  F  F20  1  0.759408  0.030793  0.051907  1
  F  F21  1  0.259408  0.969207  0.448093  1
  F  F22  1  0.240592  0.969207  0.948093  1
  F  F23  1  0.740592  0.030793  0.551907  1
  F  F24  1  0.981137  0.729899  0.639748  1
  F  F25  1  0.481137  0.270101  0.860252  1
  F  F26  1  0.018863  0.270101  0.360252  1
  F  F27  1  0.518863  0.729899  0.139748  1
  F  F28  1  0.047361  0.743765  0.169981  1
  F  F29  1  0.547361  0.256235  0.330019  1
  F  F30  1  0.952639  0.256235  0.830019  1
  F  F31  1  0.452639  0.743765  0.669981  1
  F  F32  1  0.414401  0.968587  0.233242  1
  F  F33  1  0.914401  0.031413  0.266758  1
  F  F34  1  0.585599  0.031413  0.766758  1
  F  F35  1  0.085599  0.968587  0.733242  1
