# generated using pymatgen
data_Tb7SmGaPd24
_symmetry_space_group_name_H-M   'P 1'
_cell_length_a   8.36791018
_cell_length_b   8.36791112
_cell_length_c   8.36791024
_cell_angle_alpha   90.01191392
_cell_angle_beta   89.98808083
_cell_angle_gamma   89.98808691
_symmetry_Int_Tables_number   1
_chemical_formula_structural   Tb7SmGaPd24
_chemical_formula_sum   'Tb7 Sm1 Ga1 Pd24'
_cell_volume   585.93717561
_cell_formula_units_Z   1
loop_
 _symmetry_equiv_pos_site_id
 _symmetry_equiv_pos_as_xyz
  1  'x, y, z'
loop_
 _atom_site_type_symbol
 _atom_site_label
 _atom_site_symmetry_multiplicity
 _atom_site_fract_x
 _atom_site_fract_y
 _atom_site_fract_z
 _atom_site_occupancy
  Tb  Tb0  1  0.251670  0.251829  0.251829  1
  Tb  Tb1  1  0.748233  0.748195  0.748195  1
  Tb  Tb2  1  0.748171  0.748330  0.251829  1
  Tb  Tb3  1  0.748171  0.251829  0.748330  1
  Tb  Tb4  1  0.251805  0.251767  0.748195  1
  Tb  Tb5  1  0.251805  0.748195  0.251767  1
  Tb  Tb6  1  0.252021  0.747979  0.747979  1
  Sm  Sm7  1  0.748128  0.251872  0.251872  1
  Ga  Ga8  1  0.000184  0.999816  0.999816  1
  Pd  Pd9  1  0.260942  0.499902  0.999999  1
  Pd  Pd10  1  0.739156  0.501024  0.998938  1
  Pd  Pd11  1  0.001062  0.260844  0.501024  1
  Pd  Pd12  1  0.498976  0.260844  0.998938  1
  Pd  Pd13  1  0.000001  0.739058  0.499902  1
  Pd  Pd14  1  0.500098  0.739058  0.999999  1
  Pd  Pd15  1  0.498976  0.998938  0.260844  1
  Pd  Pd16  1  0.260942  0.999999  0.499902  1
  Pd  Pd17  1  0.500098  0.999999  0.739058  1
  Pd  Pd18  1  0.739156  0.998938  0.501024  1
  Pd  Pd19  1  0.001062  0.501024  0.260844  1
  Pd  Pd20  1  0.000001  0.499902  0.739058  1
  Pd  Pd21  1  0.253617  0.499871  0.499871  1
  Pd  Pd22  1  0.746192  0.501435  0.501435  1
  Pd  Pd23  1  0.498565  0.253808  0.501435  1
  Pd  Pd24  1  0.500129  0.746383  0.499871  1
  Pd  Pd25  1  0.498565  0.501435  0.253808  1
  Pd  Pd26  1  0.500129  0.499871  0.746383  1
  Pd  Pd27  1  0.292618  0.999927  0.999927  1
  Pd  Pd28  1  0.707345  0.998982  0.998982  1
  Pd  Pd29  1  0.001018  0.292655  0.998982  1
  Pd  Pd30  1  0.000073  0.707382  0.999927  1
  Pd  Pd31  1  0.001018  0.998982  0.292655  1
  Pd  Pd32  1  0.000073  0.999927  0.707382  1
