# generated using pymatgen
data_TbY9(GaBi)3
_symmetry_space_group_name_H-M   'P 1'
_cell_length_a   8.86732854
_cell_length_b   8.89443547
_cell_length_c   6.56899405
_cell_angle_alpha   89.98636283
_cell_angle_beta   90.00494960
_cell_angle_gamma   119.85966357
_symmetry_Int_Tables_number   1
_chemical_formula_structural   TbY9(GaBi)3
_chemical_formula_sum   'Tb1 Y9 Ga3 Bi3'
_cell_volume   449.31724364
_cell_formula_units_Z   1
loop_
 _symmetry_equiv_pos_site_id
 _symmetry_equiv_pos_as_xyz
  1  'x, y, z'
loop_
 _atom_site_type_symbol
 _atom_site_label
 _atom_site_symmetry_multiplicity
 _atom_site_fract_x
 _atom_site_fract_y
 _atom_site_fract_z
 _atom_site_occupancy
  Tb  Tb0  1  0.324125  0.667871  0.004956  1
  Y  Y1  1  0.656661  0.332131  0.495357  1
  Y  Y2  1  0.656565  0.332106  0.004632  1
  Y  Y3  1  0.324367  0.667859  0.495117  1
  Y  Y4  1  0.234063  0.000358  0.250056  1
  Y  Y5  1  0.243487  0.227403  0.749976  1
  Y  Y6  1  0.015502  0.772346  0.749916  1
  Y  Y7  1  0.017018  0.250641  0.250027  1
  Y  Y8  1  0.766333  0.749272  0.250033  1
  Y  Y9  1  0.754158  0.999870  0.749987  1
  Ga  Ga10  1  0.998149  0.601623  0.250117  1
  Ga  Ga11  1  0.396433  0.398042  0.250052  1
  Ga  Ga12  1  0.399992  0.000234  0.749934  1
  Bi  Bi13  1  0.612130  0.000249  0.250159  1
  Bi  Bi14  1  0.605044  0.608599  0.749843  1
  Bi  Bi15  1  0.995976  0.391395  0.749839  1
