# generated using pymatgen
data_TbSm3(Co2Br)2
_symmetry_space_group_name_H-M   'P 1'
_cell_length_a   3.92660900
_cell_length_b   3.92661049
_cell_length_c   16.62543800
_cell_angle_alpha   90.00000000
_cell_angle_beta   90.00000000
_cell_angle_gamma   120.00001272
_symmetry_Int_Tables_number   1
_chemical_formula_structural   TbSm3(Co2Br)2
_chemical_formula_sum   'Tb1 Sm3 Co4 Br2'
_cell_volume   221.99293442
_cell_formula_units_Z   1
loop_
 _symmetry_equiv_pos_site_id
 _symmetry_equiv_pos_as_xyz
  1  'x, y, z'
loop_
 _atom_site_type_symbol
 _atom_site_label
 _atom_site_symmetry_multiplicity
 _atom_site_fract_x
 _atom_site_fract_y
 _atom_site_fract_z
 _atom_site_occupancy
  Tb  Tb0  1  0.000000  0.000000  0.607653  1
  Sm  Sm1  1  0.000000  0.000000  0.109714  1
  Sm  Sm2  1  0.000000  0.000000  0.391287  1
  Sm  Sm3  1  0.000000  0.000000  0.890083  1
  Co  Co4  1  0.333333  0.666667  0.001929  1
  Co  Co5  1  0.666667  0.333333  0.997945  1
  Co  Co6  1  0.333333  0.666667  0.499587  1
  Co  Co7  1  0.666667  0.333333  0.503623  1
  Br  Br8  1  0.333333  0.666667  0.747839  1
  Br  Br9  1  0.666667  0.333333  0.250340  1
