# generated using pymatgen
data_K8TiAs4
_symmetry_space_group_name_H-M   'P 1'
_cell_length_a   10.90843850
_cell_length_b   10.90843860
_cell_length_c   10.90844000
_cell_angle_alpha   60.00000183
_cell_angle_beta   60.00000151
_cell_angle_gamma   60.00000132
_symmetry_Int_Tables_number   1
_chemical_formula_structural   K8TiAs4
_chemical_formula_sum   'K16 Ti2 As8'
_cell_volume   917.85239125
_cell_formula_units_Z   2
loop_
 _symmetry_equiv_pos_site_id
 _symmetry_equiv_pos_as_xyz
  1  'x, y, z'
loop_
 _atom_site_type_symbol
 _atom_site_label
 _atom_site_symmetry_multiplicity
 _atom_site_fract_x
 _atom_site_fract_y
 _atom_site_fract_z
 _atom_site_occupancy
  K  K0  1  0.625000  0.625000  0.125000  1
  K  K1  1  0.625000  0.125000  0.625000  1
  K  K2  1  0.125000  0.625000  0.625000  1
  K  K3  1  0.625000  0.625000  0.625000  1
  K  K4  1  0.029736  0.470264  0.470264  1
  K  K5  1  0.779736  0.220264  0.220264  1
  K  K6  1  0.470264  0.029736  0.470264  1
  K  K7  1  0.470264  0.470264  0.029736  1
  K  K8  1  0.029736  0.029736  0.470264  1
  K  K9  1  0.029736  0.470264  0.029736  1
  K  K10  1  0.470264  0.029736  0.029736  1
  K  K11  1  0.779736  0.220264  0.779736  1
  K  K12  1  0.220264  0.779736  0.220264  1
  K  K13  1  0.220264  0.220264  0.779736  1
  K  K14  1  0.779736  0.779736  0.220264  1
  K  K15  1  0.220264  0.779736  0.779736  1
  Ti  Ti16  1  0.750000  0.750000  0.750000  1
  Ti  Ti17  1  0.500000  0.500000  0.500000  1
  As  As18  1  0.846530  0.846530  0.460410  1
  As  As19  1  0.846530  0.460410  0.846530  1
  As  As20  1  0.403470  0.403470  0.789590  1
  As  As21  1  0.403470  0.789590  0.403470  1
  As  As22  1  0.789590  0.403470  0.403470  1
  As  As23  1  0.846530  0.846530  0.846530  1
  As  As24  1  0.460410  0.846530  0.846530  1
  As  As25  1  0.403470  0.403470  0.403470  1
