# generated using pymatgen
data_K2Zr3GeSe8
_symmetry_space_group_name_H-M   'P 1'
_cell_length_a   6.77782000
_cell_length_b   7.84298200
_cell_length_c   16.15802500
_cell_angle_alpha   90.00000000
_cell_angle_beta   90.00000000
_cell_angle_gamma   90.00000000
_symmetry_Int_Tables_number   1
_chemical_formula_structural   K2Zr3GeSe8
_chemical_formula_sum   'K4 Zr6 Ge2 Se16'
_cell_volume   858.93346771
_cell_formula_units_Z   2
loop_
 _symmetry_equiv_pos_site_id
 _symmetry_equiv_pos_as_xyz
  1  'x, y, z'
loop_
 _atom_site_type_symbol
 _atom_site_label
 _atom_site_symmetry_multiplicity
 _atom_site_fract_x
 _atom_site_fract_y
 _atom_site_fract_z
 _atom_site_occupancy
  K  K0  1  0.340161  0.000000  0.000000  1
  K  K1  1  0.657730  0.500000  0.500000  1
  K  K2  1  0.025047  0.000000  0.500000  1
  K  K3  1  0.975082  0.500000  0.000000  1
  Zr  Zr4  1  0.998814  0.500000  0.252374  1
  Zr  Zr5  1  0.998814  0.500000  0.747626  1
  Zr  Zr6  1  0.500103  0.245879  0.250033  1
  Zr  Zr7  1  0.500103  0.754121  0.749967  1
  Zr  Zr8  1  0.500103  0.754121  0.250033  1
  Zr  Zr9  1  0.500103  0.245879  0.749967  1
  Ge  Ge10  1  0.003319  0.000000  0.247824  1
  Ge  Ge11  1  0.003319  0.000000  0.752176  1
  Se  Se12  1  0.829814  0.254237  0.345265  1
  Se  Se13  1  0.829814  0.745763  0.654735  1
  Se  Se14  1  0.169508  0.743399  0.155008  1
  Se  Se15  1  0.169508  0.256601  0.844992  1
  Se  Se16  1  0.169508  0.256601  0.155008  1
  Se  Se17  1  0.169508  0.743399  0.844992  1
  Se  Se18  1  0.829814  0.745763  0.345265  1
  Se  Se19  1  0.829814  0.254237  0.654735  1
  Se  Se20  1  0.660356  0.000000  0.155229  1
  Se  Se21  1  0.660356  0.000000  0.844771  1
  Se  Se22  1  0.330069  0.500000  0.346268  1
  Se  Se23  1  0.330069  0.500000  0.653732  1
  Se  Se24  1  0.343469  0.000000  0.344672  1
  Se  Se25  1  0.343469  0.000000  0.655328  1
  Se  Se26  1  0.666114  0.500000  0.155199  1
  Se  Se27  1  0.666114  0.500000  0.844801  1
