# generated using pymatgen
data_Th5GaSnBi2
_symmetry_space_group_name_H-M   'P 1'
_cell_length_a   9.68012800
_cell_length_b   9.68690478
_cell_length_c   6.56157700
_cell_angle_alpha   90.00000000
_cell_angle_beta   90.00000000
_cell_angle_gamma   119.97686072
_symmetry_Int_Tables_number   1
_chemical_formula_structural   Th5GaSnBi2
_chemical_formula_sum   'Th10 Ga2 Sn2 Bi4'
_cell_volume   532.97422642
_cell_formula_units_Z   2
loop_
 _symmetry_equiv_pos_site_id
 _symmetry_equiv_pos_as_xyz
  1  'x, y, z'
loop_
 _atom_site_type_symbol
 _atom_site_label
 _atom_site_symmetry_multiplicity
 _atom_site_fract_x
 _atom_site_fract_y
 _atom_site_fract_z
 _atom_site_occupancy
  Th  Th0  1  0.000340  0.263005  0.250000  1
  Th  Th1  1  0.737093  0.000000  0.750000  1
  Th  Th2  1  0.737335  0.736995  0.250000  1
  Th  Th3  1  0.669169  0.336125  0.502024  1
  Th  Th4  1  0.995454  0.732955  0.750000  1
  Th  Th5  1  0.262500  0.267045  0.750000  1
  Th  Th6  1  0.333043  0.663875  0.997976  1
  Th  Th7  1  0.669169  0.336125  0.997976  1
  Th  Th8  1  0.333043  0.663875  0.502024  1
  Th  Th9  1  0.262002  0.000000  0.250000  1
  Ga  Ga10  1  0.000449  0.000000  0.997959  1
  Ga  Ga11  1  0.000449  0.000000  0.502041  1
  Sn  Sn12  1  0.999591  0.385225  0.750000  1
  Sn  Sn13  1  0.614366  0.614775  0.750000  1
  Bi  Bi14  1  0.613842  0.000000  0.250000  1
  Bi  Bi15  1  0.384406  0.000000  0.750000  1
  Bi  Bi16  1  0.387155  0.386563  0.250000  1
  Bi  Bi17  1  0.000593  0.613437  0.250000  1
