# generated using pymatgen
data_Na4Yb2(IrO4)3
_symmetry_space_group_name_H-M   'P 1'
_cell_length_a   9.49238100
_cell_length_b   9.49237931
_cell_length_c   3.18811300
_cell_angle_alpha   90.00000000
_cell_angle_beta   90.00000000
_cell_angle_gamma   119.99999544
_symmetry_Int_Tables_number   1
_chemical_formula_structural   Na4Yb2(IrO4)3
_chemical_formula_sum   'Na4 Yb2 Ir3 O12'
_cell_volume   248.77950716
_cell_formula_units_Z   1
loop_
 _symmetry_equiv_pos_site_id
 _symmetry_equiv_pos_as_xyz
  1  'x, y, z'
loop_
 _atom_site_type_symbol
 _atom_site_label
 _atom_site_symmetry_multiplicity
 _atom_site_fract_x
 _atom_site_fract_y
 _atom_site_fract_z
 _atom_site_occupancy
  Na  Na0  1  0.000000  0.000000  0.000000  1
  Na  Na1  1  0.697840  0.000000  0.500000  1
  Na  Na2  1  0.000000  0.697840  0.500000  1
  Na  Na3  1  0.302160  0.302160  0.500000  1
  Yb  Yb4  1  0.333333  0.666667  0.500000  1
  Yb  Yb5  1  0.666667  0.333333  0.500000  1
  Ir  Ir6  1  0.330682  0.000000  0.000000  1
  Ir  Ir7  1  0.000000  0.330682  0.000000  1
  Ir  Ir8  1  0.669318  0.669318  0.000000  1
  O  O9  1  0.194582  0.000000  0.500000  1
  O  O10  1  0.000000  0.194582  0.500000  1
  O  O11  1  0.805418  0.805418  0.500000  1
  O  O12  1  0.460303  0.000000  0.500000  1
  O  O13  1  0.000000  0.460303  0.500000  1
  O  O14  1  0.539697  0.539697  0.500000  1
  O  O15  1  0.232159  0.452211  0.000000  1
  O  O16  1  0.547789  0.779949  0.000000  1
  O  O17  1  0.452211  0.232159  0.000000  1
  O  O18  1  0.220051  0.767841  0.000000  1
  O  O19  1  0.779949  0.547789  0.000000  1
  O  O20  1  0.767841  0.220051  0.000000  1
