# generated using pymatgen
data_Ca4DySi12Rh19
_symmetry_space_group_name_H-M   'P 1'
_cell_length_a   12.81378600
_cell_length_b   12.81378447
_cell_length_c   4.01062100
_cell_angle_alpha   90.00000000
_cell_angle_beta   90.00000000
_cell_angle_gamma   119.99999880
_symmetry_Int_Tables_number   1
_chemical_formula_structural   Ca4DySi12Rh19
_chemical_formula_sum   'Ca4 Dy1 Si12 Rh19'
_cell_volume   570.29181928
_cell_formula_units_Z   1
loop_
 _symmetry_equiv_pos_site_id
 _symmetry_equiv_pos_as_xyz
  1  'x, y, z'
loop_
 _atom_site_type_symbol
 _atom_site_label
 _atom_site_symmetry_multiplicity
 _atom_site_fract_x
 _atom_site_fract_y
 _atom_site_fract_z
 _atom_site_occupancy
  Ca  Ca0  1  0.999952  0.183833  0.500000  1
  Ca  Ca1  1  0.816167  0.816119  0.500000  1
  Ca  Ca2  1  0.183881  0.000048  0.500000  1
  Ca  Ca3  1  0.333333  0.666667  0.000000  1
  Dy  Dy4  1  0.666667  0.333333  0.000000  1
  Si  Si5  1  0.476231  0.313058  0.500000  1
  Si  Si6  1  0.816467  0.999883  0.000000  1
  Si  Si7  1  0.183416  0.183533  0.000000  1
  Si  Si8  1  0.000117  0.816584  0.000000  1
  Si  Si9  1  0.372330  0.999086  0.000000  1
  Si  Si10  1  0.686942  0.163173  0.500000  1
  Si  Si11  1  0.836827  0.523769  0.500000  1
  Si  Si12  1  0.524014  0.837405  0.500000  1
  Si  Si13  1  0.162595  0.686609  0.500000  1
  Si  Si14  1  0.313391  0.475986  0.500000  1
  Si  Si15  1  0.000914  0.373244  0.000000  1
  Si  Si16  1  0.626756  0.627670  0.000000  1
  Rh  Rh17  1  0.806628  0.184743  0.000000  1
  Rh  Rh18  1  0.378115  0.193372  0.000000  1
  Rh  Rh19  1  0.639867  0.511697  0.500000  1
  Rh  Rh20  1  0.871830  0.360133  0.500000  1
  Rh  Rh21  1  0.360373  0.874714  0.500000  1
  Rh  Rh22  1  0.514340  0.639627  0.500000  1
  Rh  Rh23  1  0.125286  0.485660  0.500000  1
  Rh  Rh24  1  0.815257  0.621885  0.000000  1
  Rh  Rh25  1  0.622465  0.816471  0.000000  1
  Rh  Rh26  1  0.183529  0.805994  0.000000  1
  Rh  Rh27  1  0.194006  0.377535  0.000000  1
  Rh  Rh28  1  0.999565  0.721133  0.500000  1
  Rh  Rh29  1  0.278867  0.278433  0.500000  1
  Rh  Rh30  1  0.721567  0.000435  0.500000  1
  Rh  Rh31  1  0.998447  0.553831  0.000000  1
  Rh  Rh32  1  0.446169  0.444616  0.000000  1
  Rh  Rh33  1  0.555384  0.001553  0.000000  1
  Rh  Rh34  1  0.000000  0.000000  0.000000  1
  Rh  Rh35  1  0.488303  0.128170  0.500000  1
