# generated using pymatgen
data_NpSiNiGe
_symmetry_space_group_name_H-M   'P 1'
_cell_length_a   4.10906700
_cell_length_b   4.00398391
_cell_length_c   8.55110782
_cell_angle_alpha   103.53978319
_cell_angle_beta   90.00000000
_cell_angle_gamma   90.00000000
_symmetry_Int_Tables_number   1
_chemical_formula_structural   NpSiNiGe
_chemical_formula_sum   'Np2 Si2 Ni2 Ge2'
_cell_volume   136.77821681
_cell_formula_units_Z   2
loop_
 _symmetry_equiv_pos_site_id
 _symmetry_equiv_pos_as_xyz
  1  'x, y, z'
loop_
 _atom_site_type_symbol
 _atom_site_label
 _atom_site_symmetry_multiplicity
 _atom_site_fract_x
 _atom_site_fract_y
 _atom_site_fract_z
 _atom_site_occupancy
  Np  Np0  1  0.250000  0.391712  0.783425  1
  Np  Np1  1  0.750000  0.608288  0.216575  1
  Si  Si2  1  0.250000  0.750898  0.501797  1
  Si  Si3  1  0.750000  0.249102  0.498203  1
  Ni  Ni4  1  0.250000  0.183423  0.366845  1
  Ni  Ni5  1  0.750000  0.816577  0.633155  1
  Ge  Ge6  1  0.250000  0.043299  0.086597  1
  Ge  Ge7  1  0.750000  0.956701  0.913403  1
