# generated using pymatgen
data_Zr3NbVSi3N
_symmetry_space_group_name_H-M   'P 1'
_cell_length_a   7.74709400
_cell_length_b   7.74709418
_cell_length_c   5.34131400
_cell_angle_alpha   90.00000000
_cell_angle_beta   90.00000000
_cell_angle_gamma   119.99999067
_symmetry_Int_Tables_number   1
_chemical_formula_structural   Zr3NbVSi3N
_chemical_formula_sum   'Zr6 Nb2 V2 Si6 N2'
_cell_volume   277.62363967
_cell_formula_units_Z   2
loop_
 _symmetry_equiv_pos_site_id
 _symmetry_equiv_pos_as_xyz
  1  'x, y, z'
loop_
 _atom_site_type_symbol
 _atom_site_label
 _atom_site_symmetry_multiplicity
 _atom_site_fract_x
 _atom_site_fract_y
 _atom_site_fract_z
 _atom_site_occupancy
  Zr  Zr0  1  0.237587  0.000000  0.750464  1
  Zr  Zr1  1  0.762413  0.000000  0.249536  1
  Zr  Zr2  1  0.000000  0.237587  0.750464  1
  Zr  Zr3  1  0.000000  0.762413  0.249536  1
  Zr  Zr4  1  0.762413  0.762413  0.750464  1
  Zr  Zr5  1  0.237587  0.237587  0.249536  1
  Nb  Nb6  1  0.666667  0.333333  0.000000  1
  Nb  Nb7  1  0.333333  0.666667  0.000000  1
  V  V8  1  0.333333  0.666667  0.500000  1
  V  V9  1  0.666667  0.333333  0.500000  1
  Si  Si10  1  0.587761  0.000000  0.731338  1
  Si  Si11  1  0.412239  0.000000  0.268662  1
  Si  Si12  1  0.000000  0.587761  0.731338  1
  Si  Si13  1  0.000000  0.412239  0.268662  1
  Si  Si14  1  0.412239  0.412239  0.731338  1
  Si  Si15  1  0.587761  0.587761  0.268662  1
  N  N16  1  0.000000  0.000000  0.500000  1
  N  N17  1  0.000000  0.000000  0.000000  1
