# generated using pymatgen
data_Cs6HoTm3Cl18
_symmetry_space_group_name_H-M   'P 1'
_cell_length_a   9.87820925
_cell_length_b   9.87820962
_cell_length_c   9.87820900
_cell_angle_alpha   83.08520575
_cell_angle_beta   83.08520549
_cell_angle_gamma   83.08521635
_symmetry_Int_Tables_number   1
_chemical_formula_structural   Cs6HoTm3Cl18
_chemical_formula_sum   'Cs6 Ho1 Tm3 Cl18'
_cell_volume   944.43434624
_cell_formula_units_Z   1
loop_
 _symmetry_equiv_pos_site_id
 _symmetry_equiv_pos_as_xyz
  1  'x, y, z'
loop_
 _atom_site_type_symbol
 _atom_site_label
 _atom_site_symmetry_multiplicity
 _atom_site_fract_x
 _atom_site_fract_y
 _atom_site_fract_z
 _atom_site_occupancy
  Cs  Cs0  1  0.588741  0.911576  0.249451  1
  Cs  Cs1  1  0.249478  0.588757  0.911562  1
  Cs  Cs2  1  0.911566  0.249436  0.588745  1
  Cs  Cs3  1  0.750089  0.411099  0.088992  1
  Cs  Cs4  1  0.088992  0.750123  0.411099  1
  Cs  Cs5  1  0.411104  0.088979  0.750115  1
  Ho  Ho6  1  0.651949  0.651951  0.651983  1
  Tm  Tm7  1  0.847660  0.847664  0.847647  1
  Tm  Tm8  1  0.347300  0.347300  0.347243  1
  Tm  Tm9  1  0.152628  0.152607  0.152669  1
  Cl  Cl10  1  0.098721  0.401322  0.249920  1
  Cl  Cl11  1  0.249876  0.098715  0.401292  1
  Cl  Cl12  1  0.401344  0.249943  0.098742  1
  Cl  Cl13  1  0.750481  0.902366  0.598913  1
  Cl  Cl14  1  0.598874  0.750405  0.902351  1
  Cl  Cl15  1  0.902363  0.598916  0.750439  1
  Cl  Cl16  1  0.236229  0.413888  0.576734  1
  Cl  Cl17  1  0.576775  0.236253  0.413829  1
  Cl  Cl18  1  0.413919  0.576779  0.236262  1
  Cl  Cl19  1  0.077005  0.914355  0.736361  1
  Cl  Cl20  1  0.736377  0.077005  0.914290  1
  Cl  Cl21  1  0.914316  0.736354  0.076976  1
  Cl  Cl22  1  0.765091  0.585315  0.420730  1
  Cl  Cl23  1  0.420713  0.765056  0.585370  1
  Cl  Cl24  1  0.585272  0.420738  0.765050  1
  Cl  Cl25  1  0.923164  0.086109  0.263834  1
  Cl  Cl26  1  0.263821  0.923161  0.086196  1
  Cl  Cl27  1  0.086151  0.263827  0.923208  1
