# generated using pymatgen
data_Tb5Y(GaC3)2
_symmetry_space_group_name_H-M   'P 1'
_cell_length_a   3.59406700
_cell_length_b   7.10983187
_cell_length_c   9.90790168
_cell_angle_alpha   90.08368198
_cell_angle_beta   90.00000000
_cell_angle_gamma   90.00000000
_symmetry_Int_Tables_number   1
_chemical_formula_structural   Tb5Y(GaC3)2
_chemical_formula_sum   'Tb5 Y1 Ga2 C6'
_cell_volume   253.17844301
_cell_formula_units_Z   1
loop_
 _symmetry_equiv_pos_site_id
 _symmetry_equiv_pos_as_xyz
  1  'x, y, z'
loop_
 _atom_site_type_symbol
 _atom_site_label
 _atom_site_symmetry_multiplicity
 _atom_site_fract_x
 _atom_site_fract_y
 _atom_site_fract_z
 _atom_site_occupancy
  Tb  Tb0  1  0.500000  0.489699  0.803692  1
  Tb  Tb1  1  0.500000  0.989222  0.196236  1
  Tb  Tb2  1  0.500000  0.010619  0.803914  1
  Tb  Tb3  1  0.000000  0.749863  0.458244  1
  Tb  Tb4  1  0.000000  0.249805  0.541371  1
  Y  Y5  1  0.500000  0.510716  0.196366  1
  Ga  Ga6  1  0.000000  0.749231  0.001929  1
  Ga  Ga7  1  0.000000  0.251077  0.998688  1
  C  C8  1  0.500000  0.508478  0.566108  1
  C  C9  1  0.500000  0.490910  0.433053  1
  C  C10  1  0.500000  0.991173  0.566636  1
  C  C11  1  0.500000  0.008596  0.433502  1
  C  C12  1  0.000000  0.750339  0.209280  1
  C  C13  1  0.000000  0.250272  0.790981  1
