# generated using pymatgen
data_Rb2NbCuTe4
_symmetry_space_group_name_H-M   'P 1'
_cell_length_a   15.26053566
_cell_length_b   13.65694759
_cell_length_c   8.07925916
_cell_angle_alpha   85.08612062
_cell_angle_beta   63.07880694
_cell_angle_gamma   31.83506611
_symmetry_Int_Tables_number   1
_chemical_formula_structural   Rb2NbCuTe4
_chemical_formula_sum   'Rb4 Nb2 Cu2 Te8'
_cell_volume   611.28712172
_cell_formula_units_Z   2
loop_
 _symmetry_equiv_pos_site_id
 _symmetry_equiv_pos_as_xyz
  1  'x, y, z'
loop_
 _atom_site_type_symbol
 _atom_site_label
 _atom_site_symmetry_multiplicity
 _atom_site_fract_x
 _atom_site_fract_y
 _atom_site_fract_z
 _atom_site_occupancy
  Rb  Rb0  1  0.820136  0.820136  0.179864  1
  Rb  Rb1  1  0.179864  0.179864  0.820136  1
  Rb  Rb2  1  0.429864  0.429864  0.070136  1
  Rb  Rb3  1  0.070136  0.070136  0.429864  1
  Nb  Nb4  1  0.000000  0.000000  0.000000  1
  Nb  Nb5  1  0.250000  0.250000  0.250000  1
  Cu  Cu6  1  0.750000  0.750000  0.750000  1
  Cu  Cu7  1  0.500000  0.500000  0.500000  1
  Te  Te8  1  0.158828  0.454798  0.544423  1
  Te  Te9  1  0.454798  0.158828  0.841950  1
  Te  Te10  1  0.091172  0.795202  0.705577  1
  Te  Te11  1  0.408050  0.705577  0.795202  1
  Te  Te12  1  0.705577  0.408050  0.091172  1
  Te  Te13  1  0.795202  0.091172  0.408050  1
  Te  Te14  1  0.544423  0.841950  0.158828  1
  Te  Te15  1  0.841950  0.544423  0.454798  1
