# generated using pymatgen
data_Ho5TmAl24Os5Pt3
_symmetry_space_group_name_H-M   'P 1'
_cell_length_a   8.80181121
_cell_length_b   8.82585841
_cell_length_c   9.53668774
_cell_angle_alpha   90.13898512
_cell_angle_beta   89.71976916
_cell_angle_gamma   119.50831788
_symmetry_Int_Tables_number   1
_chemical_formula_structural   Ho5TmAl24Os5Pt3
_chemical_formula_sum   'Ho5 Tm1 Al24 Os5 Pt3'
_cell_volume   644.73681931
_cell_formula_units_Z   1
loop_
 _symmetry_equiv_pos_site_id
 _symmetry_equiv_pos_as_xyz
  1  'x, y, z'
loop_
 _atom_site_type_symbol
 _atom_site_label
 _atom_site_symmetry_multiplicity
 _atom_site_fract_x
 _atom_site_fract_y
 _atom_site_fract_z
 _atom_site_occupancy
  Ho  Ho0  1  0.187963  0.384107  0.251691  1
  Ho  Ho1  1  0.812036  0.615628  0.748302  1
  Ho  Ho2  1  0.614006  0.814334  0.252356  1
  Ho  Ho3  1  0.386288  0.185625  0.747680  1
  Ho  Ho4  1  0.196156  0.809214  0.251553  1
  Tm  Tm5  1  0.802693  0.191495  0.748019  1
  Al  Al6  1  0.335385  0.671217  0.030355  1
  Al  Al7  1  0.664972  0.328711  0.969075  1
  Al  Al8  1  0.669109  0.331078  0.528285  1
  Al  Al9  1  0.331014  0.668719  0.472179  1
  Al  Al10  1  0.157545  0.325189  0.576177  1
  Al  Al11  1  0.842077  0.674523  0.424241  1
  Al  Al12  1  0.673361  0.840759  0.576386  1
  Al  Al13  1  0.836921  0.676157  0.078170  1
  Al  Al14  1  0.326946  0.159603  0.423987  1
  Al  Al15  1  0.162751  0.323637  0.921483  1
  Al  Al16  1  0.163658  0.834825  0.576346  1
  Al  Al17  1  0.325803  0.159219  0.076637  1
  Al  Al18  1  0.836352  0.165087  0.424187  1
  Al  Al19  1  0.674548  0.841177  0.923002  1
  Al  Al20  1  0.831814  0.159673  0.077311  1
  Al  Al21  1  0.168277  0.840339  0.922145  1
  Al  Al22  1  0.561462  0.125408  0.249862  1
  Al  Al23  1  0.439127  0.874792  0.750142  1
  Al  Al24  1  0.874159  0.437633  0.252660  1
  Al  Al25  1  0.125517  0.561690  0.747508  1
  Al  Al26  1  0.562321  0.436712  0.249813  1
  Al  Al27  1  0.437648  0.563260  0.750221  1
  Al  Al28  1  0.999514  0.003380  0.250247  1
  Al  Al29  1  0.000053  0.997094  0.749833  1
  Os  Os30  1  0.500309  0.000151  0.999800  1
  Os  Os31  1  0.500250  0.000082  0.500198  1
  Os  Os32  1  0.999864  0.499702  0.500180  1
  Os  Os33  1  0.000057  0.000056  0.999964  1
  Os  Os34  1  0.000021  0.000036  0.500089  1
  Pt  Pt35  1  0.999870  0.499782  0.999916  1
  Pt  Pt36  1  0.500075  0.499959  0.000024  1
  Pt  Pt37  1  0.500077  0.499949  0.499975  1
