# generated using pymatgen
data_Cs3Gd(IO3)6
_symmetry_space_group_name_H-M   'P 1'
_cell_length_a   7.46232426
_cell_length_b   7.45007593
_cell_length_c   11.33507603
_cell_angle_alpha   87.65033926
_cell_angle_beta   107.44142160
_cell_angle_gamma   107.49396052
_symmetry_Int_Tables_number   1
_chemical_formula_structural   Cs3Gd(IO3)6
_chemical_formula_sum   'Cs3 Gd1 I6 O18'
_cell_volume   572.55752969
_cell_formula_units_Z   1
loop_
 _symmetry_equiv_pos_site_id
 _symmetry_equiv_pos_as_xyz
  1  'x, y, z'
loop_
 _atom_site_type_symbol
 _atom_site_label
 _atom_site_symmetry_multiplicity
 _atom_site_fract_x
 _atom_site_fract_y
 _atom_site_fract_z
 _atom_site_occupancy
  Cs  Cs0  1  0.000000  0.000000  0.000000  1
  Cs  Cs1  1  0.834489  0.029417  0.599943  1
  Cs  Cs2  1  0.165511  0.970583  0.400057  1
  Gd  Gd3  1  0.500000  0.500000  0.000000  1
  I  I4  1  0.022402  0.473093  0.192079  1
  I  I5  1  0.977598  0.526907  0.807921  1
  I  I6  1  0.558346  0.954019  0.191323  1
  I  I7  1  0.441654  0.045981  0.808677  1
  I  I8  1  0.422395  0.554467  0.639567  1
  I  I9  1  0.577605  0.445533  0.360433  1
  O  O10  1  0.836519  0.536651  0.058367  1
  O  O11  1  0.163481  0.463349  0.941633  1
  O  O12  1  0.952843  0.547000  0.318331  1
  O  O13  1  0.047157  0.453000  0.681669  1
  O  O14  1  0.918163  0.217118  0.185804  1
  O  O15  1  0.081837  0.782882  0.814196  1
  O  O16  1  0.570697  0.817016  0.060907  1
  O  O17  1  0.429303  0.182984  0.939093  1
  O  O18  1  0.301731  0.847061  0.187084  1
  O  O19  1  0.698269  0.152939  0.812916  1
  O  O20  1  0.687152  0.843567  0.322281  1
  O  O21  1  0.312848  0.156433  0.677719  1
  O  O22  1  0.520214  0.593009  0.810582  1
  O  O23  1  0.479786  0.406991  0.189418  1
  O  O24  1  0.659876  0.569633  0.615937  1
  O  O25  1  0.340124  0.430367  0.384063  1
  O  O26  1  0.411831  0.792920  0.605977  1
  O  O27  1  0.588169  0.207080  0.394023  1
