# generated using pymatgen
data_Ho4Tc3B16Os
_symmetry_space_group_name_H-M   'P 1'
_cell_length_a   3.58025800
_cell_length_b   5.95730288
_cell_length_c   11.52419356
_cell_angle_alpha   90.11266474
_cell_angle_beta   90.00000000
_cell_angle_gamma   90.00000000
_symmetry_Int_Tables_number   1
_chemical_formula_structural   Ho4Tc3B16Os
_chemical_formula_sum   'Ho4 Tc3 B16 Os1'
_cell_volume   245.79537660
_cell_formula_units_Z   1
loop_
 _symmetry_equiv_pos_site_id
 _symmetry_equiv_pos_as_xyz
  1  'x, y, z'
loop_
 _atom_site_type_symbol
 _atom_site_label
 _atom_site_symmetry_multiplicity
 _atom_site_fract_x
 _atom_site_fract_y
 _atom_site_fract_z
 _atom_site_occupancy
  Ho  Ho0  1  0.000000  0.629429  0.350485  1
  Ho  Ho1  1  0.000000  0.371266  0.648625  1
  Ho  Ho2  1  0.000000  0.127218  0.151253  1
  Ho  Ho3  1  0.000000  0.873043  0.849491  1
  Tc  Tc4  1  0.000000  0.632027  0.087065  1
  Tc  Tc5  1  0.000000  0.367544  0.912000  1
  Tc  Tc6  1  0.000000  0.138649  0.409556  1
  B  B7  1  0.500000  0.788166  0.185247  1
  B  B8  1  0.500000  0.211054  0.814638  1
  B  B9  1  0.500000  0.288326  0.314545  1
  B  B10  1  0.500000  0.710931  0.685419  1
  B  B11  1  0.500000  0.864781  0.031551  1
  B  B12  1  0.500000  0.134981  0.968410  1
  B  B13  1  0.500000  0.364661  0.469670  1
  B  B14  1  0.500000  0.636289  0.530619  1
  B  B15  1  0.500000  0.887108  0.452960  1
  B  B16  1  0.500000  0.112703  0.547253  1
  B  B17  1  0.500000  0.386580  0.047148  1
  B  B18  1  0.500000  0.612825  0.952538  1
  B  B19  1  0.500000  0.975318  0.307766  1
  B  B20  1  0.500000  0.025074  0.692105  1
  B  B21  1  0.500000  0.478169  0.192539  1
  B  B22  1  0.500000  0.522467  0.807327  1
  Os  Os23  1  0.000000  0.861389  0.591789  1
