# generated using pymatgen
data_Pr3NiPd2Pb3
_symmetry_space_group_name_H-M   'P 1'
_cell_length_a   7.86446448
_cell_length_b   7.87346304
_cell_length_c   4.06801400
_cell_angle_alpha   90.00000000
_cell_angle_beta   90.00000000
_cell_angle_gamma   120.00215756
_symmetry_Int_Tables_number   1
_chemical_formula_structural   Pr3NiPd2Pb3
_chemical_formula_sum   'Pr3 Ni1 Pd2 Pb3'
_cell_volume   218.14164119
_cell_formula_units_Z   1
loop_
 _symmetry_equiv_pos_site_id
 _symmetry_equiv_pos_as_xyz
  1  'x, y, z'
loop_
 _atom_site_type_symbol
 _atom_site_label
 _atom_site_symmetry_multiplicity
 _atom_site_fract_x
 _atom_site_fract_y
 _atom_site_fract_z
 _atom_site_occupancy
  Pr  Pr0  1  0.404901  0.404858  0.500000  1
  Pr  Pr1  1  0.595071  0.000095  0.500000  1
  Pr  Pr2  1  0.000133  0.594966  0.500000  1
  Ni  Ni3  1  0.999991  0.000007  0.500000  1
  Pd  Pd4  1  0.666630  0.333358  0.000000  1
  Pd  Pd5  1  0.333288  0.666638  0.000000  1
  Pb  Pb6  1  0.751567  0.751524  0.000000  1
  Pb  Pb7  1  0.248389  0.000103  0.000000  1
  Pb  Pb8  1  0.000030  0.248451  0.000000  1
