# generated using pymatgen
data_Tb11Nd5MgZn2AgRh4
_symmetry_space_group_name_H-M   'P 1'
_cell_length_a   9.68969560
_cell_length_b   9.70537307
_cell_length_c   9.70537200
_cell_angle_alpha   60.05810658
_cell_angle_beta   60.03750359
_cell_angle_gamma   60.03750160
_symmetry_Int_Tables_number   1
_chemical_formula_structural   Tb11Nd5MgZn2AgRh4
_chemical_formula_sum   'Tb11 Nd5 Mg1 Zn2 Ag1 Rh4'
_cell_volume   646.03504029
_cell_formula_units_Z   1
loop_
 _symmetry_equiv_pos_site_id
 _symmetry_equiv_pos_as_xyz
  1  'x, y, z'
loop_
 _atom_site_type_symbol
 _atom_site_label
 _atom_site_symmetry_multiplicity
 _atom_site_fract_x
 _atom_site_fract_y
 _atom_site_fract_z
 _atom_site_occupancy
  Tb  Tb0  1  0.600125  0.598563  0.597932  1
  Tb  Tb1  1  0.599957  0.600977  0.204021  1
  Tb  Tb2  1  0.600496  0.202638  0.600004  1
  Tb  Tb3  1  0.189005  0.605364  0.602834  1
  Tb  Tb4  1  0.058986  0.439513  0.438384  1
  Tb  Tb5  1  0.435387  0.062838  0.064277  1
  Tb  Tb6  1  0.436382  0.060923  0.438346  1
  Tb  Tb7  1  0.059830  0.439971  0.060951  1
  Tb  Tb8  1  0.434610  0.438069  0.062058  1
  Tb  Tb9  1  0.058416  0.059433  0.441198  1
  Tb  Tb10  1  0.186099  0.809816  0.809468  1
  Nd  Nd11  1  0.809327  0.187798  0.190079  1
  Nd  Nd12  1  0.812004  0.185509  0.811957  1
  Nd  Nd13  1  0.186441  0.810604  0.188101  1
  Nd  Nd14  1  0.812732  0.812793  0.187083  1
  Nd  Nd15  1  0.188355  0.186501  0.810976  1
  Mg  Mg16  1  0.539443  0.820065  0.819771  1
  Zn  Zn17  1  0.835514  0.831589  0.831080  1
  Zn  Zn18  1  0.832762  0.832308  0.503939  1
  Ag  Ag19  1  0.831894  0.508343  0.831009  1
  Rh  Rh20  1  0.390571  0.392841  0.392865  1
  Rh  Rh21  1  0.389228  0.397934  0.821908  1
  Rh  Rh22  1  0.389450  0.823134  0.397959  1
  Rh  Rh23  1  0.822984  0.392479  0.393802  1
