# generated using pymatgen
data_Er4Ga18Co3IrPd2
_symmetry_space_group_name_H-M   'P 1'
_cell_length_a   7.48530093
_cell_length_b   7.48530197
_cell_length_c   9.40498866
_cell_angle_alpha   89.96540324
_cell_angle_beta   89.96540148
_cell_angle_gamma   119.58873311
_symmetry_Int_Tables_number   1
_chemical_formula_structural   Er4Ga18Co3IrPd2
_chemical_formula_sum   'Er4 Ga18 Co3 Ir1 Pd2'
_cell_volume   458.23906619
_cell_formula_units_Z   1
loop_
 _symmetry_equiv_pos_site_id
 _symmetry_equiv_pos_as_xyz
  1  'x, y, z'
loop_
 _atom_site_type_symbol
 _atom_site_label
 _atom_site_symmetry_multiplicity
 _atom_site_fract_x
 _atom_site_fract_y
 _atom_site_fract_z
 _atom_site_occupancy
  Er  Er0  1  0.991982  0.672531  0.749502  1
  Er  Er1  1  0.997863  0.320059  0.249753  1
  Er  Er2  1  0.679941  0.002137  0.750247  1
  Er  Er3  1  0.327469  0.008018  0.250498  1
  Ga  Ga4  1  0.139818  0.138930  0.749207  1
  Ga  Ga5  1  0.861070  0.860182  0.250793  1
  Ga  Ga6  1  0.998913  0.344932  0.575991  1
  Ga  Ga7  1  0.005172  0.656018  0.423285  1
  Ga  Ga8  1  0.011466  0.662192  0.079434  1
  Ga  Ga9  1  0.337808  0.988534  0.920566  1
  Ga  Ga10  1  0.011700  0.347477  0.921195  1
  Ga  Ga11  1  0.652523  0.988300  0.078805  1
  Ga  Ga12  1  0.655068  0.001087  0.424009  1
  Ga  Ga13  1  0.343982  0.994828  0.576715  1
  Ga  Ga14  1  0.337891  0.344149  0.067230  1
  Ga  Ga15  1  0.655851  0.662109  0.932770  1
  Ga  Ga16  1  0.657405  0.659238  0.563420  1
  Ga  Ga17  1  0.340762  0.342595  0.436580  1
  Ga  Ga18  1  0.335762  0.563216  0.748364  1
  Ga  Ga19  1  0.665620  0.450708  0.256414  1
  Ga  Ga20  1  0.549292  0.334380  0.743586  1
  Ga  Ga21  1  0.436784  0.664238  0.251636  1
  Co  Co22  1  0.671299  0.328701  0.500000  1
  Co  Co23  1  0.329699  0.670301  0.500000  1
  Co  Co24  1  0.330249  0.669751  0.000000  1
  Ir  Ir25  1  0.673213  0.326787  0.000000  1
  Pd  Pd26  1  0.000554  0.999446  0.500000  1
  Pd  Pd27  1  0.000843  0.999157  0.000000  1
