# generated using pymatgen
data_Y9TmCdIn7
_symmetry_space_group_name_H-M   'P 1'
_cell_length_a   9.29722800
_cell_length_b   9.29722868
_cell_length_c   6.72782200
_cell_angle_alpha   90.00000000
_cell_angle_beta   90.00000000
_cell_angle_gamma   119.99999045
_symmetry_Int_Tables_number   1
_chemical_formula_structural   Y9TmCdIn7
_chemical_formula_sum   'Y9 Tm1 Cd1 In7'
_cell_volume   503.63065988
_cell_formula_units_Z   1
loop_
 _symmetry_equiv_pos_site_id
 _symmetry_equiv_pos_as_xyz
  1  'x, y, z'
loop_
 _atom_site_type_symbol
 _atom_site_label
 _atom_site_symmetry_multiplicity
 _atom_site_fract_x
 _atom_site_fract_y
 _atom_site_fract_z
 _atom_site_occupancy
  Y  Y0  1  0.333333  0.666667  0.500000  1
  Y  Y1  1  0.666667  0.333333  0.500000  1
  Y  Y2  1  0.666667  0.333333  0.000000  1
  Y  Y3  1  0.288432  0.999625  0.750438  1
  Y  Y4  1  0.711193  0.999625  0.249562  1
  Y  Y5  1  0.000375  0.288807  0.750438  1
  Y  Y6  1  0.000375  0.711568  0.249562  1
  Y  Y7  1  0.711193  0.711568  0.750438  1
  Y  Y8  1  0.288432  0.288807  0.249562  1
  Tm  Tm9  1  0.333333  0.666667  0.000000  1
  Cd  Cd10  1  0.000000  0.000000  0.500000  1
  In  In11  1  0.000000  0.000000  0.000000  1
  In  In12  1  0.627184  0.999567  0.750032  1
  In  In13  1  0.372383  0.999567  0.249968  1
  In  In14  1  0.000433  0.627617  0.750032  1
  In  In15  1  0.000433  0.372816  0.249968  1
  In  In16  1  0.372383  0.372816  0.750032  1
  In  In17  1  0.627184  0.627617  0.249968  1
