# generated using pymatgen
data_CeBeOs2C
_symmetry_space_group_name_H-M   'P 1'
_cell_length_a   5.65711680
_cell_length_b   5.65711515
_cell_length_c   7.08230500
_cell_angle_alpha   90.00000000
_cell_angle_beta   90.00000000
_cell_angle_gamma   139.44213625
_symmetry_Int_Tables_number   1
_chemical_formula_structural   CeBeOs2C
_chemical_formula_sum   'Ce2 Be2 Os4 C2'
_cell_volume   147.37445633
_cell_formula_units_Z   2
loop_
 _symmetry_equiv_pos_site_id
 _symmetry_equiv_pos_as_xyz
  1  'x, y, z'
loop_
 _atom_site_type_symbol
 _atom_site_label
 _atom_site_symmetry_multiplicity
 _atom_site_fract_x
 _atom_site_fract_y
 _atom_site_fract_z
 _atom_site_occupancy
  Ce  Ce0  1  0.545137  0.454863  0.250000  1
  Ce  Ce1  1  0.454863  0.545137  0.750000  1
  Be  Be2  1  0.269149  0.730851  0.250000  1
  Be  Be3  1  0.730851  0.269149  0.750000  1
  Os  Os4  1  0.823023  0.176977  0.060197  1
  Os  Os5  1  0.176977  0.823023  0.939803  1
  Os  Os6  1  0.176977  0.823023  0.560197  1
  Os  Os7  1  0.823023  0.176977  0.439803  1
  C  C8  1  0.000000  0.000000  0.000000  1
  C  C9  1  0.000000  0.000000  0.500000  1
