# generated using pymatgen
data_Li26Si7Pb
_symmetry_space_group_name_H-M   'P 1'
_cell_length_a   4.45077900
_cell_length_b   8.02016788
_cell_length_c   15.24626862
_cell_angle_alpha   89.67688121
_cell_angle_beta   90.00000000
_cell_angle_gamma   90.00000000
_symmetry_Int_Tables_number   1
_chemical_formula_structural   Li26Si7Pb
_chemical_formula_sum   'Li26 Si7 Pb1'
_cell_volume   544.22207070
_cell_formula_units_Z   1
loop_
 _symmetry_equiv_pos_site_id
 _symmetry_equiv_pos_as_xyz
  1  'x, y, z'
loop_
 _atom_site_type_symbol
 _atom_site_label
 _atom_site_symmetry_multiplicity
 _atom_site_fract_x
 _atom_site_fract_y
 _atom_site_fract_z
 _atom_site_occupancy
  Li  Li0  1  0.000000  0.771317  0.152571  1
  Li  Li1  1  0.000000  0.348189  0.522323  1
  Li  Li2  1  0.000000  0.153629  0.025970  1
  Li  Li3  1  0.500000  0.758125  0.405373  1
  Li  Li4  1  0.000000  0.218486  0.848471  1
  Li  Li5  1  0.000000  0.396337  0.686951  1
  Li  Li6  1  0.000000  0.916239  0.805010  1
  Li  Li7  1  0.500000  0.590211  0.733049  1
  Li  Li8  1  0.500000  0.904323  0.605976  1
  Li  Li9  1  0.000000  0.732799  0.646824  1
  Li  Li10  1  0.500000  0.241000  0.593286  1
  Li  Li11  1  0.500000  0.257840  0.095839  1
  Li  Li12  1  0.500000  0.096501  0.393625  1
  Li  Li13  1  0.500000  0.753846  0.912648  1
  Li  Li14  1  0.500000  0.093681  0.753829  1
  Li  Li15  1  0.000000  0.271147  0.347357  1
  Li  Li16  1  0.500000  0.408517  0.255698  1
  Li  Li17  1  0.000000  0.999874  0.499264  1
  Li  Li18  1  0.000000  0.094846  0.194751  1
  Li  Li19  1  0.500000  0.389009  0.900618  1
  Li  Li20  1  0.000000  0.650218  0.473546  1
  Li  Li21  1  0.000000  0.859146  0.978603  1
  Li  Li22  1  0.500000  0.908660  0.245146  1
  Li  Li23  1  0.000000  0.498585  0.009019  1
  Li  Li24  1  0.500000  0.596737  0.107005  1
  Li  Li25  1  0.000000  0.596247  0.306210  1
  Si  Si26  1  0.500000  0.926671  0.070876  1
  Si  Si27  1  0.000000  0.414673  0.163690  1
  Si  Si28  1  0.500000  0.572723  0.565674  1
  Si  Si29  1  0.000000  0.081118  0.658006  1
  Si  Si30  1  0.500000  0.425695  0.429866  1
  Si  Si31  1  0.500000  0.073912  0.932677  1
  Si  Si32  1  0.000000  0.916951  0.340464  1
  Pb  Pb33  1  0.000000  0.582746  0.839786  1
