# generated using pymatgen
data_Sc7Co16P12Ru
_symmetry_space_group_name_H-M   'P 1'
_cell_length_a   11.98894204
_cell_length_b   11.98894143
_cell_length_c   3.62147400
_cell_angle_alpha   90.00000000
_cell_angle_beta   90.00000000
_cell_angle_gamma   120.00943681
_symmetry_Int_Tables_number   1
_chemical_formula_structural   Sc7Co16P12Ru
_chemical_formula_sum   'Sc7 Co16 P12 Ru1'
_cell_volume   450.75068662
_cell_formula_units_Z   1
loop_
 _symmetry_equiv_pos_site_id
 _symmetry_equiv_pos_as_xyz
  1  'x, y, z'
loop_
 _atom_site_type_symbol
 _atom_site_label
 _atom_site_symmetry_multiplicity
 _atom_site_fract_x
 _atom_site_fract_y
 _atom_site_fract_z
 _atom_site_occupancy
  Sc  Sc0  1  0.813907  0.813907  0.500000  1
  Sc  Sc1  1  0.998735  0.181323  0.500000  1
  Sc  Sc2  1  0.557819  0.000741  0.000000  1
  Sc  Sc3  1  0.334419  0.667091  0.000000  1
  Sc  Sc4  1  0.667091  0.334419  0.000000  1
  Sc  Sc5  1  0.000741  0.557819  0.000000  1
  Sc  Sc6  1  0.181323  0.998735  0.500000  1
  Co  Co7  1  0.624534  0.816996  0.000000  1
  Co  Co8  1  0.372228  0.199187  0.000000  1
  Co  Co9  1  0.997006  0.720953  0.500000  1
  Co  Co10  1  0.281276  0.281276  0.500000  1
  Co  Co11  1  0.876349  0.354989  0.500000  1
  Co  Co12  1  0.720953  0.997006  0.500000  1
  Co  Co13  1  0.816996  0.624534  0.000000  1
  Co  Co14  1  0.178246  0.807893  0.000000  1
  Co  Co15  1  0.354989  0.876349  0.500000  1
  Co  Co16  1  0.130236  0.480830  0.500000  1
  Co  Co17  1  0.641606  0.516711  0.500000  1
  Co  Co18  1  0.000492  0.000492  0.000000  1
  Co  Co19  1  0.516711  0.641606  0.500000  1
  Co  Co20  1  0.480830  0.130236  0.500000  1
  Co  Co21  1  0.199187  0.372228  0.000000  1
  Co  Co22  1  0.807893  0.178246  0.000000  1
  P  P23  1  0.003933  0.351411  0.000000  1
  P  P24  1  0.825724  0.514331  0.500000  1
  P  P25  1  0.690997  0.173988  0.500000  1
  P  P26  1  0.176296  0.176296  0.000000  1
  P  P27  1  0.642398  0.642398  0.000000  1
  P  P28  1  0.823068  0.998074  0.000000  1
  P  P29  1  0.514331  0.825724  0.500000  1
  P  P30  1  0.173988  0.690997  0.500000  1
  P  P31  1  0.351411  0.003933  0.000000  1
  P  P32  1  0.481407  0.315124  0.500000  1
  P  P33  1  0.998074  0.823068  0.000000  1
  P  P34  1  0.315124  0.481407  0.500000  1
  Ru  Ru35  1  0.449682  0.449682  0.000000  1
