# generated using pymatgen
data_TbDyTh7Se17
_symmetry_space_group_name_H-M   'P 1'
_cell_length_a   8.49031686
_cell_length_b   8.46959346
_cell_length_c   11.24954800
_cell_angle_alpha   80.72211804
_cell_angle_beta   80.84299738
_cell_angle_gamma   65.06937360
_symmetry_Int_Tables_number   1
_chemical_formula_structural   TbDyTh7Se17
_chemical_formula_sum   'Tb1 Dy1 Th7 Se17'
_cell_volume   720.20694685
_cell_formula_units_Z   1
loop_
 _symmetry_equiv_pos_site_id
 _symmetry_equiv_pos_as_xyz
  1  'x, y, z'
loop_
 _atom_site_type_symbol
 _atom_site_label
 _atom_site_symmetry_multiplicity
 _atom_site_fract_x
 _atom_site_fract_y
 _atom_site_fract_z
 _atom_site_occupancy
  Tb  Tb0  1  0.811589  0.304998  0.300414  1
  Dy  Dy1  1  0.996419  0.004010  0.002213  1
  Th  Th2  1  0.302812  0.811415  0.299205  1
  Th  Th3  1  0.186574  0.698282  0.699268  1
  Th  Th4  1  0.698284  0.188673  0.697037  1
  Th  Th5  1  0.206827  0.204828  0.536774  1
  Th  Th6  1  0.793511  0.794513  0.460110  1
  Th  Th7  1  0.682631  0.679834  0.981635  1
  Th  Th8  1  0.316979  0.318846  0.022173  1
  Se  Se9  1  0.824840  0.429142  0.530703  1
  Se  Se10  1  0.432512  0.820632  0.532597  1
  Se  Se11  1  0.177297  0.567271  0.466511  1
  Se  Se12  1  0.570619  0.177620  0.466796  1
  Se  Se13  1  0.941967  0.336554  0.040911  1
  Se  Se14  1  0.334862  0.941759  0.037038  1
  Se  Se15  1  0.058874  0.666478  0.960935  1
  Se  Se16  1  0.663694  0.059151  0.960105  1
  Se  Se17  1  0.207669  0.205514  0.277721  1
  Se  Se18  1  0.791323  0.791127  0.723069  1
  Se  Se19  1  0.065521  0.065809  0.762428  1
  Se  Se20  1  0.935362  0.939129  0.240872  1
  Se  Se21  1  0.305243  0.304729  0.751909  1
  Se  Se22  1  0.693274  0.695392  0.247675  1
  Se  Se23  1  0.521034  0.521886  0.831739  1
  Se  Se24  1  0.477381  0.479449  0.165670  1
  Se  Se25  1  0.002900  0.992959  0.504492  1
