# generated using pymatgen
data_Zr4P4IrOs3
_symmetry_space_group_name_H-M   'P 1'
_cell_length_a   3.90507500
_cell_length_b   6.52005866
_cell_length_c   7.36182281
_cell_angle_alpha   89.82353688
_cell_angle_beta   90.00000000
_cell_angle_gamma   90.00000000
_symmetry_Int_Tables_number   1
_chemical_formula_structural   Zr4P4IrOs3
_chemical_formula_sum   'Zr4 P4 Ir1 Os3'
_cell_volume   187.44082314
_cell_formula_units_Z   1
loop_
 _symmetry_equiv_pos_site_id
 _symmetry_equiv_pos_as_xyz
  1  'x, y, z'
loop_
 _atom_site_type_symbol
 _atom_site_label
 _atom_site_symmetry_multiplicity
 _atom_site_fract_x
 _atom_site_fract_y
 _atom_site_fract_z
 _atom_site_occupancy
  Zr  Zr0  1  0.250000  0.018891  0.822482  1
  Zr  Zr1  1  0.250000  0.521700  0.677941  1
  Zr  Zr2  1  0.750000  0.976459  0.177451  1
  Zr  Zr3  1  0.750000  0.480286  0.323732  1
  P  P4  1  0.250000  0.771562  0.378932  1
  P  P5  1  0.250000  0.276160  0.117691  1
  P  P6  1  0.750000  0.225578  0.626950  1
  P  P7  1  0.750000  0.722433  0.877613  1
  Ir  Ir8  1  0.250000  0.152956  0.436602  1
  Os  Os9  1  0.250000  0.653183  0.059799  1
  Os  Os10  1  0.750000  0.851512  0.559730  1
  Os  Os11  1  0.750000  0.349280  0.941077  1
