# generated using pymatgen
data_ErSc15(In3Tc)2
_symmetry_space_group_name_H-M   'P 1'
_cell_length_a   9.88949041
_cell_length_b   9.88461916
_cell_length_c   6.46832501
_cell_angle_alpha   90.00471202
_cell_angle_beta   89.99523843
_cell_angle_gamma   119.98445953
_symmetry_Int_Tables_number   1
_chemical_formula_structural   ErSc15(In3Tc)2
_chemical_formula_sum   'Er1 Sc15 In6 Tc2'
_cell_volume   547.67675076
_cell_formula_units_Z   1
loop_
 _symmetry_equiv_pos_site_id
 _symmetry_equiv_pos_as_xyz
  1  'x, y, z'
loop_
 _atom_site_type_symbol
 _atom_site_label
 _atom_site_symmetry_multiplicity
 _atom_site_fract_x
 _atom_site_fract_y
 _atom_site_fract_z
 _atom_site_occupancy
  Er  Er0  1  0.000001  0.000003  0.273640  1
  Sc  Sc1  1  0.522347  0.044648  0.792500  1
  Sc  Sc2  1  0.955376  0.477701  0.792515  1
  Sc  Sc3  1  0.522346  0.477682  0.792499  1
  Sc  Sc4  1  0.476635  0.953295  0.292544  1
  Sc  Sc5  1  0.046623  0.523308  0.292553  1
  Sc  Sc6  1  0.476643  0.523333  0.292537  1
  Sc  Sc7  1  0.819402  0.638796  0.506709  1
  Sc  Sc8  1  0.361203  0.180597  0.506678  1
  Sc  Sc9  1  0.819404  0.180604  0.506699  1
  Sc  Sc10  1  0.180566  0.361122  0.005489  1
  Sc  Sc11  1  0.638820  0.819429  0.005512  1
  Sc  Sc12  1  0.180535  0.819424  0.005492  1
  Sc  Sc13  1  0.666679  0.333329  0.164482  1
  Sc  Sc14  1  0.333330  0.666661  0.664242  1
  Sc  Sc15  1  0.999986  0.999989  0.772756  1
  In  In16  1  0.834769  0.669715  0.026114  1
  In  In17  1  0.330520  0.165252  0.026130  1
  In  In18  1  0.834902  0.165174  0.026041  1
  In  In19  1  0.164727  0.329389  0.532393  1
  In  In20  1  0.670518  0.835246  0.532543  1
  In  In21  1  0.164706  0.835330  0.532373  1
  Tc  Tc22  1  0.666643  0.333315  0.597923  1
  Tc  Tc23  1  0.333317  0.666659  0.095542  1
