# generated using pymatgen
data_Tb7Er(Ga3Pt)4
_symmetry_space_group_name_H-M   'P 1'
_cell_length_a   8.87774600
_cell_length_b   8.90684776
_cell_length_c   7.08094900
_cell_angle_alpha   90.00000000
_cell_angle_beta   90.00000000
_cell_angle_gamma   120.10423245
_symmetry_Int_Tables_number   1
_chemical_formula_structural   Tb7Er(Ga3Pt)4
_chemical_formula_sum   'Tb7 Er1 Ga12 Pt4'
_cell_volume   484.38617301
_cell_formula_units_Z   1
loop_
 _symmetry_equiv_pos_site_id
 _symmetry_equiv_pos_as_xyz
  1  'x, y, z'
loop_
 _atom_site_type_symbol
 _atom_site_label
 _atom_site_symmetry_multiplicity
 _atom_site_fract_x
 _atom_site_fract_y
 _atom_site_fract_z
 _atom_site_occupancy
  Tb  Tb0  1  0.000442  0.000147  0.250000  1
  Tb  Tb1  1  0.999559  0.999870  0.750000  1
  Tb  Tb2  1  0.519581  0.039468  0.250000  1
  Tb  Tb3  1  0.519513  0.480234  0.250000  1
  Tb  Tb4  1  0.961622  0.480840  0.250000  1
  Tb  Tb5  1  0.479906  0.960220  0.750000  1
  Tb  Tb6  1  0.479961  0.519567  0.750000  1
  Er  Er7  1  0.039702  0.519794  0.750000  1
  Ga  Ga8  1  0.166761  0.334151  0.045809  1
  Ga  Ga9  1  0.166891  0.832563  0.454199  1
  Ga  Ga10  1  0.664912  0.832501  0.453501  1
  Ga  Ga11  1  0.664912  0.832501  0.046499  1
  Ga  Ga12  1  0.166891  0.832563  0.045801  1
  Ga  Ga13  1  0.833491  0.665266  0.952044  1
  Ga  Ga14  1  0.833362  0.168273  0.952044  1
  Ga  Ga15  1  0.335033  0.167479  0.953666  1
  Ga  Ga16  1  0.166761  0.334151  0.454191  1
  Ga  Ga17  1  0.335033  0.167479  0.546334  1
  Ga  Ga18  1  0.833491  0.665266  0.547956  1
  Ga  Ga19  1  0.833362  0.168273  0.547956  1
  Pt  Pt20  1  0.331592  0.665714  0.029520  1
  Pt  Pt21  1  0.331592  0.665714  0.470480  1
  Pt  Pt22  1  0.667817  0.333982  0.968009  1
  Pt  Pt23  1  0.667817  0.333982  0.531991  1
