# generated using pymatgen
data_Nd20Ir3Ru5Au4
_symmetry_space_group_name_H-M   'P 1'
_cell_length_a   11.42888645
_cell_length_b   11.42888613
_cell_length_c   6.65565027
_cell_angle_alpha   90.02201731
_cell_angle_beta   90.02201703
_cell_angle_gamma   91.57340581
_symmetry_Int_Tables_number   1
_chemical_formula_structural   Nd20Ir3Ru5Au4
_chemical_formula_sum   'Nd20 Ir3 Ru5 Au4'
_cell_volume   869.02941456
_cell_formula_units_Z   1
loop_
 _symmetry_equiv_pos_site_id
 _symmetry_equiv_pos_as_xyz
  1  'x, y, z'
loop_
 _atom_site_type_symbol
 _atom_site_label
 _atom_site_symmetry_multiplicity
 _atom_site_fract_x
 _atom_site_fract_y
 _atom_site_fract_z
 _atom_site_occupancy
  Nd  Nd0  1  0.076806  0.300176  0.133849  1
  Nd  Nd1  1  0.794419  0.404163  0.114922  1
  Nd  Nd2  1  0.206378  0.596276  0.114808  1
  Nd  Nd3  1  0.924153  0.701108  0.133809  1
  Nd  Nd4  1  0.403724  0.793622  0.385192  1
  Nd  Nd5  1  0.595837  0.205581  0.385078  1
  Nd  Nd6  1  0.298892  0.075847  0.366191  1
  Nd  Nd7  1  0.699824  0.923194  0.366151  1
  Nd  Nd8  1  0.424133  0.200498  0.865386  1
  Nd  Nd9  1  0.707122  0.095701  0.886012  1
  Nd  Nd10  1  0.292767  0.904016  0.886830  1
  Nd  Nd11  1  0.575799  0.799922  0.866020  1
  Nd  Nd12  1  0.095984  0.707233  0.613170  1
  Nd  Nd13  1  0.904299  0.292878  0.613988  1
  Nd  Nd14  1  0.200078  0.424201  0.633980  1
  Nd  Nd15  1  0.799502  0.575867  0.634614  1
  Nd  Nd16  1  0.002110  0.000318  0.003347  1
  Nd  Nd17  1  0.499781  0.499855  0.997608  1
  Nd  Nd18  1  0.500145  0.500219  0.502392  1
  Nd  Nd19  1  0.999682  0.997890  0.496653  1
  Ir  Ir20  1  0.850529  0.149471  0.250000  1
  Ir  Ir21  1  0.351530  0.648470  0.750000  1
  Ir  Ir22  1  0.649116  0.350884  0.750000  1
  Ru  Ru23  1  0.146556  0.853444  0.250000  1
  Ru  Ru24  1  0.000000  0.499839  0.379067  1
  Ru  Ru25  1  0.500161  0.000000  0.120933  1
  Ru  Ru26  1  0.500280  0.000192  0.621684  1
  Ru  Ru27  1  0.999808  0.499720  0.878316  1
  Au  Au28  1  0.341102  0.340826  0.250271  1
  Au  Au29  1  0.659174  0.658898  0.249729  1
  Au  Au30  1  0.159641  0.159329  0.748308  1
  Au  Au31  1  0.840671  0.840359  0.751692  1
