# generated using pymatgen
data_Sc2SiNi3(P2Ru3)3
_symmetry_space_group_name_H-M   'P 1'
_cell_length_a   9.32361300
_cell_length_b   9.32361213
_cell_length_c   3.79145900
_cell_angle_alpha   90.00000000
_cell_angle_beta   90.00000000
_cell_angle_gamma   119.99999953
_symmetry_Int_Tables_number   1
_chemical_formula_structural   Sc2SiNi3(P2Ru3)3
_chemical_formula_sum   'Sc2 Si1 Ni3 P6 Ru9'
_cell_volume   285.43382330
_cell_formula_units_Z   1
loop_
 _symmetry_equiv_pos_site_id
 _symmetry_equiv_pos_as_xyz
  1  'x, y, z'
loop_
 _atom_site_type_symbol
 _atom_site_label
 _atom_site_symmetry_multiplicity
 _atom_site_fract_x
 _atom_site_fract_y
 _atom_site_fract_z
 _atom_site_occupancy
  Sc  Sc0  1  0.666667  0.333333  0.500000  1
  Sc  Sc1  1  0.333333  0.666667  0.000000  1
  Si  Si2  1  0.000000  0.000000  0.000000  1
  Ni  Ni3  1  0.718913  0.882008  0.000000  1
  Ni  Ni4  1  0.117992  0.836903  0.000000  1
  Ni  Ni5  1  0.163097  0.281087  0.000000  1
  P  P6  1  0.593346  0.711255  0.500000  1
  P  P7  1  0.288745  0.882091  0.500000  1
  P  P8  1  0.117909  0.406654  0.500000  1
  P  P9  1  0.885410  0.586889  0.000000  1
  P  P10  1  0.413111  0.298520  0.000000  1
  P  P11  1  0.701480  0.114590  0.000000  1
  Ru  Ru12  1  0.562837  0.945729  0.500000  1
  Ru  Ru13  1  0.382894  0.437163  0.500000  1
  Ru  Ru14  1  0.914923  0.124054  0.500000  1
  Ru  Ru15  1  0.209131  0.085077  0.500000  1
  Ru  Ru16  1  0.875946  0.790869  0.500000  1
  Ru  Ru17  1  0.432216  0.065560  0.000000  1
  Ru  Ru18  1  0.934440  0.366657  0.000000  1
  Ru  Ru19  1  0.633343  0.567784  0.000000  1
  Ru  Ru20  1  0.054271  0.617106  0.500000  1
