# generated using pymatgen
data_CdIr3PdPb3O14
_symmetry_space_group_name_H-M   'P 1'
_cell_length_a   7.36720162
_cell_length_b   7.36720079
_cell_length_c   7.27152209
_cell_angle_alpha   59.69215056
_cell_angle_beta   59.69216583
_cell_angle_gamma   60.09554690
_symmetry_Int_Tables_number   1
_chemical_formula_structural   CdIr3PdPb3O14
_chemical_formula_sum   'Cd1 Ir3 Pd1 Pb3 O14'
_cell_volume   277.96397850
_cell_formula_units_Z   1
loop_
 _symmetry_equiv_pos_site_id
 _symmetry_equiv_pos_as_xyz
  1  'x, y, z'
loop_
 _atom_site_type_symbol
 _atom_site_label
 _atom_site_symmetry_multiplicity
 _atom_site_fract_x
 _atom_site_fract_y
 _atom_site_fract_z
 _atom_site_occupancy
  Cd  Cd0  1  0.125000  0.125000  0.625000  1
  Ir  Ir1  1  0.125000  0.625000  0.625000  1
  Ir  Ir2  1  0.625000  0.125000  0.625000  1
  Ir  Ir3  1  0.625000  0.625000  0.125000  1
  Pd  Pd4  1  0.625000  0.625000  0.625000  1
  Pb  Pb5  1  0.625000  0.125000  0.125000  1
  Pb  Pb6  1  0.125000  0.625000  0.125000  1
  Pb  Pb7  1  0.125000  0.125000  0.125000  1
  O  O8  1  0.707396  0.707396  0.285778  1
  O  O9  1  0.302373  0.302373  0.712373  1
  O  O10  1  0.706622  0.286282  0.707638  1
  O  O11  1  0.296992  0.708188  0.293600  1
  O  O12  1  0.286282  0.706622  0.707638  1
  O  O13  1  0.708188  0.296992  0.293600  1
  O  O14  1  0.542604  0.542604  0.964222  1
  O  O15  1  0.947627  0.947627  0.537627  1
  O  O16  1  0.543378  0.963718  0.542362  1
  O  O17  1  0.953008  0.541812  0.956400  1
  O  O18  1  0.963718  0.543378  0.542362  1
  O  O19  1  0.541812  0.953008  0.956400  1
  O  O20  1  0.246958  0.246958  0.259587  1
  O  O21  1  0.003042  0.003042  0.990413  1
