# generated using pymatgen
data_Sm3Th11TcRu5
_symmetry_space_group_name_H-M   'P 1'
_cell_length_a   9.84590235
_cell_length_b   9.93592945
_cell_length_c   6.41761710
_cell_angle_alpha   89.82525774
_cell_angle_beta   90.07596379
_cell_angle_gamma   120.26555331
_symmetry_Int_Tables_number   1
_chemical_formula_structural   Sm3Th11TcRu5
_chemical_formula_sum   'Sm3 Th11 Tc1 Ru5'
_cell_volume   542.24813687
_cell_formula_units_Z   1
loop_
 _symmetry_equiv_pos_site_id
 _symmetry_equiv_pos_as_xyz
  1  'x, y, z'
loop_
 _atom_site_type_symbol
 _atom_site_label
 _atom_site_symmetry_multiplicity
 _atom_site_fract_x
 _atom_site_fract_y
 _atom_site_fract_z
 _atom_site_occupancy
  Sm  Sm0  1  0.463478  0.537037  0.294262  1
  Sm  Sm1  1  0.073996  0.537317  0.296799  1
  Sm  Sm2  1  0.924473  0.459766  0.796976  1
  Th  Th3  1  0.249089  0.125639  0.509746  1
  Th  Th4  1  0.541386  0.080765  0.799817  1
  Th  Th5  1  0.750181  0.873185  0.012002  1
  Th  Th6  1  0.666796  0.334383  0.277600  1
  Th  Th7  1  0.123629  0.871255  0.006146  1
  Th  Th8  1  0.461051  0.920451  0.300290  1
  Th  Th9  1  0.538425  0.462041  0.796815  1
  Th  Th10  1  0.875944  0.127932  0.509739  1
  Th  Th11  1  0.124595  0.250351  0.010169  1
  Th  Th12  1  0.874601  0.750834  0.509814  1
  Th  Th13  1  0.333986  0.665863  0.775942  1
  Tc  Tc14  1  0.810799  0.635238  0.046090  1
  Ru  Ru15  1  0.809934  0.175559  0.049077  1
  Ru  Ru16  1  0.631568  0.820949  0.549553  1
  Ru  Ru17  1  0.369582  0.185078  0.042020  1
  Ru  Ru18  1  0.183886  0.362455  0.555522  1
  Ru  Ru19  1  0.192600  0.823903  0.545613  1
