# generated using pymatgen
data_TmLu3GeSe3
_symmetry_space_group_name_H-M   'P 1'
_cell_length_a   6.98246854
_cell_length_b   6.98246844
_cell_length_c   6.98246800
_cell_angle_alpha   131.99761067
_cell_angle_beta   131.99761607
_cell_angle_gamma   70.23279650
_symmetry_Int_Tables_number   1
_chemical_formula_structural   TmLu3GeSe3
_chemical_formula_sum   'Tm1 Lu3 Ge1 Se3'
_cell_volume   184.28905601
_cell_formula_units_Z   1
loop_
 _symmetry_equiv_pos_site_id
 _symmetry_equiv_pos_as_xyz
  1  'x, y, z'
loop_
 _atom_site_type_symbol
 _atom_site_label
 _atom_site_symmetry_multiplicity
 _atom_site_fract_x
 _atom_site_fract_y
 _atom_site_fract_z
 _atom_site_occupancy
  Tm  Tm0  1  0.241831  0.241831  0.000000  1
  Lu  Lu1  1  0.758417  0.758417  0.000000  1
  Lu  Lu2  1  0.499965  0.999966  0.499999  1
  Lu  Lu3  1  0.999966  0.499965  0.499999  1
  Ge  Ge4  1  0.999204  0.999204  0.000000  1
  Se  Se5  1  0.500741  0.500741  0.000000  1
  Se  Se6  1  0.749937  0.249938  0.499999  1
  Se  Se7  1  0.249938  0.749937  0.499999  1
