# generated using pymatgen
data_Pr3Bi2Rh3Pb
_symmetry_space_group_name_H-M   'P 1'
_cell_length_a   7.80538221
_cell_length_b   7.76418079
_cell_length_c   4.13586400
_cell_angle_alpha   90.00000000
_cell_angle_beta   90.00000000
_cell_angle_gamma   119.82553387
_symmetry_Int_Tables_number   1
_chemical_formula_structural   Pr3Bi2Rh3Pb
_chemical_formula_sum   'Pr3 Bi2 Rh3 Pb1'
_cell_volume   217.44404515
_cell_formula_units_Z   1
loop_
 _symmetry_equiv_pos_site_id
 _symmetry_equiv_pos_as_xyz
  1  'x, y, z'
loop_
 _atom_site_type_symbol
 _atom_site_label
 _atom_site_symmetry_multiplicity
 _atom_site_fract_x
 _atom_site_fract_y
 _atom_site_fract_z
 _atom_site_occupancy
  Pr  Pr0  1  0.596565  0.004757  0.500000  1
  Pr  Pr1  1  0.403435  0.408191  0.500000  1
  Pr  Pr2  1  0.000000  0.589542  0.500000  1
  Bi  Bi3  1  0.259983  0.001975  0.000000  1
  Bi  Bi4  1  0.740017  0.741993  0.000000  1
  Rh  Rh5  1  0.000000  0.995506  0.500000  1
  Rh  Rh6  1  0.333439  0.665910  0.000000  1
  Rh  Rh7  1  0.666561  0.332470  0.000000  1
  Pb  Pb8  1  0.000000  0.259656  0.000000  1
