# generated using pymatgen
data_SrNd3Os6O19
_symmetry_space_group_name_H-M   'P 1'
_cell_length_a   7.96424376
_cell_length_b   7.96424300
_cell_length_c   7.79336300
_cell_angle_alpha   109.03716563
_cell_angle_beta   109.03716374
_cell_angle_gamma   109.90177352
_symmetry_Int_Tables_number   1
_chemical_formula_structural   SrNd3Os6O19
_chemical_formula_sum   'Sr1 Nd3 Os6 O19'
_cell_volume   382.55200173
_cell_formula_units_Z   1
loop_
 _symmetry_equiv_pos_site_id
 _symmetry_equiv_pos_as_xyz
  1  'x, y, z'
loop_
 _atom_site_type_symbol
 _atom_site_label
 _atom_site_symmetry_multiplicity
 _atom_site_fract_x
 _atom_site_fract_y
 _atom_site_fract_z
 _atom_site_occupancy
  Sr  Sr0  1  0.000000  0.000000  0.320879  1
  Nd  Nd1  1  0.989344  0.295687  0.990848  1
  Nd  Nd2  1  0.704313  0.693657  0.695162  1
  Nd  Nd3  1  0.306343  0.010656  0.001505  1
  Os  Os4  1  0.366598  0.501975  0.861996  1
  Os  Os5  1  0.864957  0.363029  0.504037  1
  Os  Os6  1  0.498072  0.135043  0.639080  1
  Os  Os7  1  0.135377  0.633402  0.495399  1
  Os  Os8  1  0.498025  0.864623  0.360021  1
  Os  Os9  1  0.636971  0.501928  0.141009  1
  O  O10  1  0.329224  0.004145  0.322076  1
  O  O11  1  0.327163  0.333248  0.009681  1
  O  O12  1  0.006084  0.672837  0.682517  1
  O  O13  1  0.674921  0.670776  0.992852  1
  O  O14  1  0.995855  0.325079  0.317932  1
  O  O15  1  0.666752  0.993916  0.676433  1
  O  O16  1  0.000000  0.000000  0.974824  1
  O  O17  1  0.357598  0.289862  0.637419  1
  O  O18  1  0.064671  0.341694  0.715829  1
  O  O19  1  0.729574  0.371832  0.674738  1
  O  O20  1  0.371873  0.646620  0.701173  1
  O  O21  1  0.277023  0.935329  0.651157  1
  O  O22  1  0.628168  0.357741  0.302904  1
  O  O23  1  0.274747  0.628127  0.329300  1
  O  O24  1  0.710138  0.067735  0.347556  1
  O  O25  1  0.932265  0.642402  0.279821  1
  O  O26  1  0.658306  0.722977  0.374134  1
  O  O27  1  0.642259  0.270426  0.945164  1
  O  O28  1  0.353380  0.725253  0.054551  1
