# generated using pymatgen
data_Tb16In6NiRh
_symmetry_space_group_name_H-M   'P 1'
_cell_length_a   10.48798900
_cell_length_b   10.48799020
_cell_length_c   7.02573400
_cell_angle_alpha   90.00000000
_cell_angle_beta   90.00000000
_cell_angle_gamma   119.99999938
_symmetry_Int_Tables_number   1
_chemical_formula_structural   Tb16In6NiRh
_chemical_formula_sum   'Tb16 In6 Ni1 Rh1'
_cell_volume   669.27843742
_cell_formula_units_Z   1
loop_
 _symmetry_equiv_pos_site_id
 _symmetry_equiv_pos_as_xyz
  1  'x, y, z'
loop_
 _atom_site_type_symbol
 _atom_site_label
 _atom_site_symmetry_multiplicity
 _atom_site_fract_x
 _atom_site_fract_y
 _atom_site_fract_z
 _atom_site_occupancy
  Tb  Tb0  1  0.467683  0.532317  0.480985  1
  Tb  Tb1  1  0.064632  0.532317  0.480985  1
  Tb  Tb2  1  0.467683  0.935368  0.480985  1
  Tb  Tb3  1  0.532966  0.467034  0.980675  1
  Tb  Tb4  1  0.934067  0.467034  0.980675  1
  Tb  Tb5  1  0.532966  0.065933  0.980675  1
  Tb  Tb6  1  0.822745  0.177255  0.272616  1
  Tb  Tb7  1  0.354509  0.177255  0.272616  1
  Tb  Tb8  1  0.822745  0.645491  0.272616  1
  Tb  Tb9  1  0.175756  0.824244  0.774068  1
  Tb  Tb10  1  0.648488  0.824244  0.774068  1
  Tb  Tb11  1  0.175756  0.351512  0.774068  1
  Tb  Tb12  1  0.333333  0.666667  0.102261  1
  Tb  Tb13  1  0.666667  0.333333  0.595445  1
  Tb  Tb14  1  0.000000  0.000000  0.493801  1
  Tb  Tb15  1  0.000000  0.000000  0.997640  1
  In  In16  1  0.162585  0.837415  0.236705  1
  In  In17  1  0.674831  0.837415  0.236705  1
  In  In18  1  0.162585  0.325169  0.236705  1
  In  In19  1  0.836369  0.163631  0.735537  1
  In  In20  1  0.327263  0.163631  0.735537  1
  In  In21  1  0.836369  0.672737  0.735537  1
  Ni  Ni22  1  0.666667  0.333333  0.207541  1
  Rh  Rh23  1  0.333333  0.666667  0.706104  1
