# generated using pymatgen
data_EuLu3(Sc3Sn4)2
_symmetry_space_group_name_H-M   'P 1'
_cell_length_a   7.65081033
_cell_length_b   7.87910395
_cell_length_c   14.75545300
_cell_angle_alpha   89.98227119
_cell_angle_beta   90.06762434
_cell_angle_gamma   89.97820534
_symmetry_Int_Tables_number   1
_chemical_formula_structural   EuLu3(Sc3Sn4)2
_chemical_formula_sum   'Eu2 Lu6 Sc12 Sn16'
_cell_volume   889.48055418
_cell_formula_units_Z   2
loop_
 _symmetry_equiv_pos_site_id
 _symmetry_equiv_pos_as_xyz
  1  'x, y, z'
loop_
 _atom_site_type_symbol
 _atom_site_label
 _atom_site_symmetry_multiplicity
 _atom_site_fract_x
 _atom_site_fract_y
 _atom_site_fract_z
 _atom_site_occupancy
  Eu  Eu0  1  0.491826  0.324286  0.407675  1
  Eu  Eu1  1  0.508174  0.675714  0.592325  1
  Lu  Lu2  1  0.989364  0.178171  0.090654  1
  Lu  Lu3  1  0.010636  0.821829  0.909346  1
  Lu  Lu4  1  0.511068  0.679404  0.906746  1
  Lu  Lu5  1  0.012810  0.824109  0.596040  1
  Lu  Lu6  1  0.488932  0.320596  0.093254  1
  Lu  Lu7  1  0.987190  0.175891  0.403960  1
  Sc  Sc8  1  0.175414  0.495280  0.752180  1
  Sc  Sc9  1  0.824586  0.504720  0.247820  1
  Sc  Sc10  1  0.323741  0.996780  0.248663  1
  Sc  Sc11  1  0.676259  0.003220  0.751337  1
  Sc  Sc12  1  0.343028  0.158865  0.626728  1
  Sc  Sc13  1  0.656972  0.841135  0.373272  1
  Sc  Sc14  1  0.157487  0.661876  0.369823  1
  Sc  Sc15  1  0.653797  0.839444  0.124144  1
  Sc  Sc16  1  0.842513  0.338124  0.630177  1
  Sc  Sc17  1  0.346203  0.160556  0.875856  1
  Sc  Sc18  1  0.846872  0.339992  0.873932  1
  Sc  Sc19  1  0.153128  0.660008  0.126068  1
  Sn  Sn20  1  0.039317  0.122576  0.752357  1
  Sn  Sn21  1  0.960683  0.877424  0.247643  1
  Sn  Sn22  1  0.463084  0.625342  0.248403  1
  Sn  Sn23  1  0.536916  0.374658  0.751597  1
  Sn  Sn24  1  0.312612  0.850053  0.754187  1
  Sn  Sn25  1  0.687388  0.149947  0.245813  1
  Sn  Sn26  1  0.181271  0.347187  0.246368  1
  Sn  Sn27  1  0.818729  0.652813  0.753632  1
  Sn  Sn28  1  0.170033  0.456372  0.542572  1
  Sn  Sn29  1  0.829967  0.543628  0.457428  1
  Sn  Sn30  1  0.307339  0.956877  0.457070  1
  Sn  Sn31  1  0.809946  0.542297  0.041229  1
  Sn  Sn32  1  0.692661  0.043123  0.542930  1
  Sn  Sn33  1  0.190054  0.457703  0.958771  1
  Sn  Sn34  1  0.689554  0.043665  0.957778  1
  Sn  Sn35  1  0.310446  0.956335  0.042222  1
