# generated using pymatgen
data_La3Nd9(IrBr3)4
_symmetry_space_group_name_H-M   'P 1'
_cell_length_a   10.50200733
_cell_length_b   10.55091814
_cell_length_c   10.55091658
_cell_angle_alpha   109.05839507
_cell_angle_beta   109.64278592
_cell_angle_gamma   109.64278927
_symmetry_Int_Tables_number   1
_chemical_formula_structural   La3Nd9(IrBr3)4
_chemical_formula_sum   'La3 Nd9 Ir4 Br12'
_cell_volume   900.72570937
_cell_formula_units_Z   1
loop_
 _symmetry_equiv_pos_site_id
 _symmetry_equiv_pos_as_xyz
  1  'x, y, z'
loop_
 _atom_site_type_symbol
 _atom_site_label
 _atom_site_symmetry_multiplicity
 _atom_site_fract_x
 _atom_site_fract_y
 _atom_site_fract_z
 _atom_site_occupancy
  La  La0  1  0.750000  0.017931  0.482069  1
  La  La1  1  0.467505  0.483292  0.233850  1
  La  La2  1  0.032495  0.266150  0.016708  1
  Nd  Nd3  1  0.263807  0.751328  0.235208  1
  Nd  Nd4  1  0.482269  0.747850  0.014545  1
  Nd  Nd5  1  0.230747  0.467232  0.488321  1
  Nd  Nd6  1  0.018086  0.032769  0.265055  1
  Nd  Nd7  1  0.236193  0.264792  0.748672  1
  Nd  Nd8  1  0.017731  0.485455  0.752150  1
  Nd  Nd9  1  0.481914  0.234945  0.467231  1
  Nd  Nd10  1  0.269253  0.011679  0.032768  1
  Nd  Nd11  1  0.750000  0.234586  0.265414  1
  Ir  Ir12  1  0.500702  0.999915  0.251107  1
  Ir  Ir13  1  0.250000  0.498679  0.001321  1
  Ir  Ir14  1  0.999298  0.248893  0.500085  1
  Ir  Ir15  1  0.250000  0.251102  0.248898  1
  Br  Br16  1  0.250000  0.995908  0.504092  1
  Br  Br17  1  0.509006  0.504727  0.754458  1
  Br  Br18  1  0.250000  0.754113  0.745887  1
  Br  Br19  1  0.990994  0.745542  0.995273  1
  Br  Br20  1  0.998128  0.508282  0.255335  1
  Br  Br21  1  0.744613  0.994529  0.993129  1
  Br  Br22  1  0.755135  0.746743  0.243856  1
  Br  Br23  1  0.497190  0.753353  0.507472  1
  Br  Br24  1  0.501872  0.244665  0.991718  1
  Br  Br25  1  0.755387  0.506871  0.505471  1
  Br  Br26  1  0.744865  0.256144  0.753257  1
  Br  Br27  1  0.002810  0.992528  0.746647  1
