# generated using pymatgen
data_Mn7BeNb4
_symmetry_space_group_name_H-M   'P 1'
_cell_length_a   4.81100131
_cell_length_b   4.76186218
_cell_length_c   7.84501700
_cell_angle_alpha   90.00000000
_cell_angle_beta   90.00000000
_cell_angle_gamma   119.66269479
_symmetry_Int_Tables_number   1
_chemical_formula_structural   Mn7BeNb4
_chemical_formula_sum   'Mn7 Be1 Nb4'
_cell_volume   156.17191443
_cell_formula_units_Z   1
loop_
 _symmetry_equiv_pos_site_id
 _symmetry_equiv_pos_as_xyz
  1  'x, y, z'
loop_
 _atom_site_type_symbol
 _atom_site_label
 _atom_site_symmetry_multiplicity
 _atom_site_fract_x
 _atom_site_fract_y
 _atom_site_fract_z
 _atom_site_occupancy
  Mn  Mn0  1  0.000594  0.000298  0.499689  1
  Mn  Mn1  1  0.000594  0.000298  0.000311  1
  Mn  Mn2  1  0.169500  0.826893  0.750000  1
  Mn  Mn3  1  0.169500  0.342607  0.750000  1
  Mn  Mn4  1  0.660099  0.830050  0.750000  1
  Mn  Mn5  1  0.835738  0.172077  0.250000  1
  Mn  Mn6  1  0.835738  0.663661  0.250000  1
  Be  Be7  1  0.341673  0.170836  0.250000  1
  Nb  Nb8  1  0.331310  0.665656  0.433987  1
  Nb  Nb9  1  0.661971  0.330985  0.557264  1
  Nb  Nb10  1  0.661971  0.330985  0.942736  1
  Nb  Nb11  1  0.331310  0.665656  0.066013  1
