# generated using pymatgen
data_Na2LiVB28
_symmetry_space_group_name_H-M   'P 1'
_cell_length_a   7.23584185
_cell_length_b   7.23584199
_cell_length_c   7.22108687
_cell_angle_alpha   132.21634482
_cell_angle_beta   111.05205315
_cell_angle_gamma   88.33559055
_symmetry_Int_Tables_number   1
_chemical_formula_structural   Na2LiVB28
_chemical_formula_sum   'Na2 Li1 V1 B28'
_cell_volume   248.68442960
_cell_formula_units_Z   1
loop_
 _symmetry_equiv_pos_site_id
 _symmetry_equiv_pos_as_xyz
  1  'x, y, z'
loop_
 _atom_site_type_symbol
 _atom_site_label
 _atom_site_symmetry_multiplicity
 _atom_site_fract_x
 _atom_site_fract_y
 _atom_site_fract_z
 _atom_site_occupancy
  Na  Na0  1  0.597755  0.249534  0.347289  1
  Na  Na1  1  0.402245  0.750466  0.652711  1
  Li  Li2  1  0.000000  0.500000  0.000000  1
  V  V3  1  0.000000  0.000000  0.500000  1
  B  B4  1  0.636676  0.664965  0.969616  1
  B  B5  1  0.363324  0.335035  0.030384  1
  B  B6  1  0.195349  0.167060  0.030384  1
  B  B7  1  0.804651  0.832940  0.969616  1
  B  B8  1  0.772202  0.149635  0.624065  1
  B  B9  1  0.227798  0.850365  0.375935  1
  B  B10  1  0.025572  0.648138  0.375935  1
  B  B11  1  0.974428  0.351862  0.624065  1
  B  B12  1  0.917605  0.086752  0.831816  1
  B  B13  1  0.082395  0.913248  0.168184  1
  B  B14  1  0.754937  0.585789  0.168184  1
  B  B15  1  0.245063  0.414211  0.831816  1
  B  B16  1  0.397866  0.401106  0.677450  1
  B  B17  1  0.602762  0.280024  0.004399  1
  B  B18  1  0.224373  0.901637  0.004399  1
  B  B19  1  0.776344  0.779585  0.677450  1
  B  B20  1  0.602134  0.598894  0.322550  1
  B  B21  1  0.397238  0.719976  0.995601  1
  B  B22  1  0.775627  0.098363  0.995601  1
  B  B23  1  0.223656  0.220415  0.322550  1
  B  B24  1  0.033374  0.833824  0.708851  1
  B  B25  1  0.963925  0.667626  0.792558  1
  B  B26  1  0.624931  0.328633  0.792558  1
  B  B27  1  0.375027  0.175477  0.708851  1
  B  B28  1  0.966626  0.166176  0.291149  1
  B  B29  1  0.036075  0.332374  0.207442  1
  B  B30  1  0.375069  0.671367  0.207442  1
  B  B31  1  0.624973  0.824523  0.291149  1
