# generated using pymatgen
data_Gd2NpO6
_symmetry_space_group_name_H-M   'P 1'
_cell_length_a   9.60250100
_cell_length_b   9.60250055
_cell_length_c   5.14548500
_cell_angle_alpha   90.00000000
_cell_angle_beta   90.00000000
_cell_angle_gamma   120.00000499
_symmetry_Int_Tables_number   1
_chemical_formula_structural   Gd2NpO6
_chemical_formula_sum   'Gd6 Np3 O18'
_cell_volume   410.89005340
_cell_formula_units_Z   3
loop_
 _symmetry_equiv_pos_site_id
 _symmetry_equiv_pos_as_xyz
  1  'x, y, z'
loop_
 _atom_site_type_symbol
 _atom_site_label
 _atom_site_symmetry_multiplicity
 _atom_site_fract_x
 _atom_site_fract_y
 _atom_site_fract_z
 _atom_site_occupancy
  Gd  Gd0  1  0.999990  0.627468  0.000066  1
  Gd  Gd1  1  0.999991  0.289509  0.500074  1
  Gd  Gd2  1  0.372521  0.372539  0.999952  1
  Gd  Gd3  1  0.289503  0.999996  0.499977  1
  Gd  Gd4  1  0.710456  0.710471  0.499934  1
  Gd  Gd5  1  0.627488  0.000010  0.999974  1
  Np  Np6  1  0.333333  0.666607  0.500911  1
  Np  Np7  1  0.000002  0.000102  0.999995  1
  Np  Np8  1  0.666660  0.333311  0.499087  1
  O  O9  1  0.084073  0.876624  0.782768  1
  O  O10  1  0.221660  0.763878  0.279982  1
  O  O11  1  0.126388  0.539247  0.721686  1
  O  O12  1  0.412876  0.873591  0.721603  1
  O  O13  1  0.236125  0.457788  0.280015  1
  O  O14  1  0.123464  0.207522  0.782762  1
  O  O15  1  0.207456  0.123411  0.217251  1
  O  O16  1  0.542216  0.778355  0.279963  1
  O  O17  1  0.460736  0.587133  0.721637  1
  O  O18  1  0.792533  0.915937  0.782719  1
  O  O19  1  0.457782  0.236119  0.720009  1
  O  O20  1  0.587107  0.460733  0.278340  1
  O  O21  1  0.539276  0.126410  0.278362  1
  O  O22  1  0.778322  0.542185  0.719984  1
  O  O23  1  0.915947  0.792500  0.217259  1
  O  O24  1  0.763884  0.221629  0.720041  1
  O  O25  1  0.873602  0.412856  0.278379  1
  O  O26  1  0.876607  0.084069  0.217271  1
