# generated using pymatgen
data_DyY2(IrRh2)3
_symmetry_space_group_name_H-M   'P 1'
_cell_length_a   5.28603132
_cell_length_b   5.28613458
_cell_length_c   17.51123762
_cell_angle_alpha   90.00000141
_cell_angle_beta   89.76330824
_cell_angle_gamma   120.00064093
_symmetry_Int_Tables_number   1
_chemical_formula_structural   DyY2(IrRh2)3
_chemical_formula_sum   'Dy2 Y4 Ir6 Rh12'
_cell_volume   423.74801274
_cell_formula_units_Z   2
loop_
 _symmetry_equiv_pos_site_id
 _symmetry_equiv_pos_as_xyz
  1  'x, y, z'
loop_
 _atom_site_type_symbol
 _atom_site_label
 _atom_site_symmetry_multiplicity
 _atom_site_fract_x
 _atom_site_fract_y
 _atom_site_fract_z
 _atom_site_occupancy
  Dy  Dy0  1  0.333415  0.666708  0.958383  1
  Dy  Dy1  1  0.666816  0.333407  0.041876  1
  Y  Y2  1  0.666623  0.333311  0.458656  1
  Y  Y3  1  0.332235  0.666118  0.541384  1
  Y  Y4  1  0.333158  0.666579  0.748874  1
  Y  Y5  1  0.666975  0.333487  0.251619  1
  Ir  Ir6  1  0.168037  0.833116  0.373053  1
  Ir  Ir7  1  0.168037  0.334922  0.373053  1
  Ir  Ir8  1  0.665046  0.832523  0.373393  1
  Ir  Ir9  1  0.834679  0.168623  0.626998  1
  Ir  Ir10  1  0.834679  0.666056  0.626998  1
  Ir  Ir11  1  0.000726  0.000363  0.000017  1
  Rh  Rh12  1  0.336265  0.168132  0.626529  1
  Rh  Rh13  1  0.832916  0.167623  0.875616  1
  Rh  Rh14  1  0.832916  0.665293  0.875616  1
  Rh  Rh15  1  0.333863  0.166932  0.874624  1
  Rh  Rh16  1  0.167062  0.832431  0.124324  1
  Rh  Rh17  1  0.167062  0.334631  0.124324  1
  Rh  Rh18  1  0.665463  0.832732  0.124494  1
  Rh  Rh19  1  0.333619  0.666810  0.249524  1
  Rh  Rh20  1  0.668017  0.334008  0.750522  1
  Rh  Rh21  1  0.000070  0.000035  0.249852  1
  Rh  Rh22  1  0.996293  0.998147  0.750179  1
  Rh  Rh23  1  0.996029  0.998014  0.500091  1
