# generated using pymatgen
data_Tb5Th7Pd12
_symmetry_space_group_name_H-M   'P 1'
_cell_length_a   4.55047700
_cell_length_b   5.84536352
_cell_length_c   21.96256500
_cell_angle_alpha   83.95571427
_cell_angle_beta   90.00000000
_cell_angle_gamma   90.00000000
_symmetry_Int_Tables_number   1
_chemical_formula_structural   Tb5Th7Pd12
_chemical_formula_sum   'Tb5 Th7 Pd12'
_cell_volume   580.93888179
_cell_formula_units_Z   1
loop_
 _symmetry_equiv_pos_site_id
 _symmetry_equiv_pos_as_xyz
  1  'x, y, z'
loop_
 _atom_site_type_symbol
 _atom_site_label
 _atom_site_symmetry_multiplicity
 _atom_site_fract_x
 _atom_site_fract_y
 _atom_site_fract_z
 _atom_site_occupancy
  Tb  Tb0  1  0.250000  0.673431  0.438352  1
  Tb  Tb1  1  0.750000  0.032385  0.728277  1
  Tb  Tb2  1  0.250000  0.966897  0.271976  1
  Tb  Tb3  1  0.750000  0.175262  0.893628  1
  Tb  Tb4  1  0.250000  0.824502  0.106798  1
  Th  Th5  1  0.750000  0.323795  0.061375  1
  Th  Th6  1  0.250000  0.676051  0.939179  1
  Th  Th7  1  0.750000  0.488965  0.227322  1
  Th  Th8  1  0.250000  0.508916  0.773988  1
  Th  Th9  1  0.750000  0.194290  0.393293  1
  Th  Th10  1  0.250000  0.805532  0.606914  1
  Th  Th11  1  0.750000  0.330879  0.559418  1
  Pd  Pd12  1  0.750000  0.832696  0.016026  1
  Pd  Pd13  1  0.250000  0.167312  0.984455  1
  Pd  Pd14  1  0.750000  0.997795  0.181843  1
  Pd  Pd15  1  0.250000  0.000012  0.818606  1
  Pd  Pd16  1  0.750000  0.730092  0.346482  1
  Pd  Pd17  1  0.250000  0.268008  0.652802  1
  Pd  Pd18  1  0.750000  0.841603  0.513606  1
  Pd  Pd19  1  0.250000  0.163274  0.483900  1
  Pd  Pd20  1  0.750000  0.562216  0.683500  1
  Pd  Pd21  1  0.250000  0.437232  0.317432  1
  Pd  Pd22  1  0.750000  0.677529  0.848462  1
  Pd  Pd23  1  0.250000  0.321324  0.152368  1
