# generated using pymatgen
data_Dy3ErAl22Ga2Pt9
_symmetry_space_group_name_H-M   'P 1'
_cell_length_a   7.51203545
_cell_length_b   7.51855881
_cell_length_c   13.19262617
_cell_angle_alpha   84.59783251
_cell_angle_beta   100.82405297
_cell_angle_gamma   119.82184056
_symmetry_Int_Tables_number   1
_chemical_formula_structural   Dy3ErAl22Ga2Pt9
_chemical_formula_sum   'Dy3 Er1 Al22 Ga2 Pt9'
_cell_volume   634.94266131
_cell_formula_units_Z   1
loop_
 _symmetry_equiv_pos_site_id
 _symmetry_equiv_pos_as_xyz
  1  'x, y, z'
loop_
 _atom_site_type_symbol
 _atom_site_label
 _atom_site_symmetry_multiplicity
 _atom_site_fract_x
 _atom_site_fract_y
 _atom_site_fract_z
 _atom_site_occupancy
  Dy  Dy0  1  0.734833  0.998536  0.192111  1
  Dy  Dy1  1  0.265172  0.001573  0.807872  1
  Dy  Dy2  1  0.061677  0.670633  0.192098  1
  Er  Er3  1  0.938132  0.329077  0.807480  1
  Al  Al4  1  0.981572  0.665686  0.944632  1
  Al  Al5  1  0.018339  0.334015  0.055030  1
  Al  Al6  1  0.397638  0.665180  0.816383  1
  Al  Al7  1  0.601982  0.334461  0.183630  1
  Al  Al8  1  0.882113  0.664729  0.669938  1
  Al  Al9  1  0.117939  0.335061  0.330220  1
  Al  Al10  1  0.604713  0.457863  0.815979  1
  Al  Al11  1  0.395580  0.542097  0.184021  1
  Al  Al12  1  0.230832  0.340629  0.669502  1
  Al  Al13  1  0.769009  0.659372  0.330717  1
  Al  Al14  1  0.853528  0.333384  0.558547  1
  Al  Al15  1  0.185796  0.999186  0.558823  1
  Al  Al16  1  0.814224  0.000849  0.441228  1
  Al  Al17  1  0.352416  0.999639  0.055354  1
  Al  Al18  1  0.647877  0.000685  0.944489  1
  Al  Al19  1  0.555897  0.993759  0.670131  1
  Al  Al20  1  0.444380  0.006454  0.330047  1
  Al  Al21  1  0.520944  0.668009  0.560959  1
  Al  Al22  1  0.479093  0.332004  0.439087  1
  Al  Al23  1  0.683083  0.667101  0.048161  1
  Al  Al24  1  0.316559  0.332943  0.951635  1
  Al  Al25  1  0.146470  0.666611  0.441548  1
  Ga  Ga26  1  0.802407  0.864133  0.815209  1
  Ga  Ga27  1  0.197592  0.136188  0.184808  1
  Pt  Pt28  1  0.329068  0.671115  0.999959  1
  Pt  Pt29  1  0.546628  0.325269  0.637620  1
  Pt  Pt30  1  0.453599  0.674689  0.362570  1
  Pt  Pt31  1  0.888244  0.009157  0.637140  1
  Pt  Pt32  1  0.111877  0.991128  0.363061  1
  Pt  Pt33  1  0.670934  0.328910  0.999911  1
  Pt  Pt34  1  0.204705  0.666714  0.639055  1
  Pt  Pt35  1  0.795104  0.333084  0.361120  1
  Pt  Pt36  1  0.000042  0.000076  0.999926  1
