# generated using pymatgen
data_Sr2AlNi5(PO4)6
_symmetry_space_group_name_H-M   'P 1'
_cell_length_a   9.03592990
_cell_length_b   9.02409793
_cell_length_c   9.03593123
_cell_angle_alpha   137.33289174
_cell_angle_beta   110.30069796
_cell_angle_gamma   85.33126253
_symmetry_Int_Tables_number   1
_chemical_formula_structural   Sr2AlNi5(PO4)6
_chemical_formula_sum   'Sr2 Al1 Ni5 P6 O24'
_cell_volume   450.50987462
_cell_formula_units_Z   1
loop_
 _symmetry_equiv_pos_site_id
 _symmetry_equiv_pos_as_xyz
  1  'x, y, z'
loop_
 _atom_site_type_symbol
 _atom_site_label
 _atom_site_symmetry_multiplicity
 _atom_site_fract_x
 _atom_site_fract_y
 _atom_site_fract_z
 _atom_site_occupancy
  Sr  Sr0  1  0.748918  0.157467  0.408548  1
  Sr  Sr1  1  0.251082  0.842533  0.591452  1
  Al  Al2  1  0.000000  0.000000  0.000000  1
  Ni  Ni3  1  0.618212  0.615621  0.500456  1
  Ni  Ni4  1  0.381788  0.384379  0.499544  1
  Ni  Ni5  1  0.115164  0.615621  0.997409  1
  Ni  Ni6  1  0.884836  0.384379  0.002591  1
  Ni  Ni7  1  0.500000  0.500000  0.000000  1
  P  P8  1  0.317925  0.821557  0.997853  1
  P  P9  1  0.753433  0.669547  0.916114  1
  P  P10  1  0.176295  0.178443  0.496367  1
  P  P11  1  0.682075  0.178443  0.002147  1
  P  P12  1  0.246567  0.330453  0.083886  1
  P  P13  1  0.823705  0.821557  0.503633  1
  O  O14  1  0.575198  0.931541  0.777521  1
  O  O15  1  0.071140  0.296689  0.638010  1
  O  O16  1  0.853021  0.891134  0.038112  1
  O  O17  1  0.341321  0.703311  0.774451  1
  O  O18  1  0.139110  0.204722  0.332176  1
  O  O19  1  0.336405  0.275573  0.939168  1
  O  O20  1  0.633253  0.696414  0.345121  1
  O  O21  1  0.860890  0.795278  0.667824  1
  O  O22  1  0.369136  0.481258  0.350631  1
  O  O23  1  0.154020  0.931541  0.356342  1
  O  O24  1  0.648706  0.303586  0.936838  1
  O  O25  1  0.630864  0.518742  0.649369  1
  O  O26  1  0.872547  0.204722  0.065612  1
  O  O27  1  0.845980  0.068459  0.643658  1
  O  O28  1  0.351294  0.696414  0.063162  1
  O  O29  1  0.366747  0.303586  0.654879  1
  O  O30  1  0.663595  0.724427  0.060832  1
  O  O31  1  0.928860  0.703311  0.361990  1
  O  O32  1  0.146979  0.108865  0.961888  1
  O  O33  1  0.869373  0.518742  0.887878  1
  O  O34  1  0.130627  0.481258  0.112122  1
  O  O35  1  0.127453  0.795278  0.934388  1
  O  O36  1  0.658679  0.296689  0.225549  1
  O  O37  1  0.424802  0.068459  0.222479  1
