# generated using pymatgen
data_Sr8Li4EuEr3O16
_symmetry_space_group_name_H-M   'P 1'
_cell_length_a   11.56947191
_cell_length_b   3.46487100
_cell_length_c   11.56889936
_cell_angle_alpha   90.00000000
_cell_angle_beta   90.13166078
_cell_angle_gamma   90.00000000
_symmetry_Int_Tables_number   1
_chemical_formula_structural   Sr8Li4EuEr3O16
_chemical_formula_sum   'Sr8 Li4 Eu1 Er3 O16'
_cell_volume   463.75809439
_cell_formula_units_Z   1
loop_
 _symmetry_equiv_pos_site_id
 _symmetry_equiv_pos_as_xyz
  1  'x, y, z'
loop_
 _atom_site_type_symbol
 _atom_site_label
 _atom_site_symmetry_multiplicity
 _atom_site_fract_x
 _atom_site_fract_y
 _atom_site_fract_z
 _atom_site_occupancy
  Sr  Sr0  1  0.634607  0.499999  0.073978  1
  Sr  Sr1  1  0.098377  0.000000  0.116713  1
  Sr  Sr2  1  0.597662  0.000000  0.382410  1
  Sr  Sr3  1  0.134864  0.499999  0.427863  1
  Sr  Sr4  1  0.866356  0.000000  0.570793  1
  Sr  Sr5  1  0.400005  0.499999  0.613853  1
  Sr  Sr6  1  0.903168  0.499999  0.885113  1
  Sr  Sr7  1  0.363540  0.000000  0.929553  1
  Li  Li8  1  0.847845  0.000000  0.093017  1
  Li  Li9  1  0.346630  0.000000  0.408034  1
  Li  Li10  1  0.653695  0.499999  0.588271  1
  Li  Li11  1  0.153414  0.499999  0.908543  1
  Eu  Eu12  1  0.641764  0.000000  0.794245  1
  Er  Er13  1  0.357023  0.499999  0.206371  1
  Er  Er14  1  0.857669  0.499999  0.294284  1
  Er  Er15  1  0.142697  0.000000  0.705631  1
  O  O16  1  0.246423  0.499999  0.047440  1
  O  O17  1  0.937406  0.499999  0.113860  1
  O  O18  1  0.470132  0.000000  0.136921  1
  O  O19  1  0.744841  0.000000  0.222234  1
  O  O20  1  0.243883  0.000000  0.278174  1
  O  O21  1  0.970270  0.000000  0.365610  1
  O  O22  1  0.435862  0.499999  0.386456  1
  O  O23  1  0.746934  0.499999  0.451868  1
  O  O24  1  0.252569  0.000000  0.546103  1
  O  O25  1  0.561268  0.000000  0.608175  1
  O  O26  1  0.031137  0.499999  0.633010  1
  O  O27  1  0.760710  0.499999  0.717521  1
  O  O28  1  0.255217  0.499999  0.777598  1
  O  O29  1  0.525058  0.499999  0.872886  1
  O  O30  1  0.063663  0.000000  0.886515  1
  O  O31  1  0.755299  0.000000  0.956946  1
