# generated using pymatgen
data_Zn2CrNi2SbO8
_symmetry_space_group_name_H-M   'P 1'
_cell_length_a   6.12344592
_cell_length_b   6.12341975
_cell_length_c   6.13436200
_cell_angle_alpha   58.85890388
_cell_angle_beta   58.85913141
_cell_angle_gamma   58.76483523
_symmetry_Int_Tables_number   1
_chemical_formula_structural   Zn2CrNi2SbO8
_chemical_formula_sum   'Zn2 Cr1 Ni2 Sb1 O8'
_cell_volume   158.29214073
_cell_formula_units_Z   1
loop_
 _symmetry_equiv_pos_site_id
 _symmetry_equiv_pos_as_xyz
  1  'x, y, z'
loop_
 _atom_site_type_symbol
 _atom_site_label
 _atom_site_symmetry_multiplicity
 _atom_site_fract_x
 _atom_site_fract_y
 _atom_site_fract_z
 _atom_site_occupancy
  Zn  Zn0  1  0.139169  0.139171  0.127985  1
  Zn  Zn1  1  0.860818  0.860818  0.872057  1
  Cr  Cr2  1  0.500003  0.500003  0.999977  1
  Ni  Ni3  1  0.000009  0.500000  0.499998  1
  Ni  Ni4  1  0.500004  0.000009  0.499994  1
  Sb  Sb5  1  0.499994  0.499998  0.499964  1
  O  O6  1  0.267365  0.267362  0.257450  1
  O  O7  1  0.267206  0.267201  0.721327  1
  O  O8  1  0.270846  0.723882  0.255844  1
  O  O9  1  0.723887  0.270847  0.255840  1
  O  O10  1  0.276098  0.729168  0.744161  1
  O  O11  1  0.729162  0.276104  0.744166  1
  O  O12  1  0.732786  0.732785  0.278703  1
  O  O13  1  0.732654  0.732655  0.742532  1
