# generated using pymatgen
data_Yb14ScBi11
_symmetry_space_group_name_H-M   'P 1'
_cell_length_a   16.56076811
_cell_length_b   16.56074666
_cell_length_c   16.56074500
_cell_angle_alpha   94.28259823
_cell_angle_beta   117.55893693
_cell_angle_gamma   117.55893751
_symmetry_Int_Tables_number   1
_chemical_formula_structural   Yb14ScBi11
_chemical_formula_sum   'Yb56 Sc4 Bi44'
_cell_volume   3320.09671657
_cell_formula_units_Z   4
loop_
 _symmetry_equiv_pos_site_id
 _symmetry_equiv_pos_as_xyz
  1  'x, y, z'
loop_
 _atom_site_type_symbol
 _atom_site_label
 _atom_site_symmetry_multiplicity
 _atom_site_fract_x
 _atom_site_fract_y
 _atom_site_fract_z
 _atom_site_occupancy
  Yb  Yb0  1  0.645902  0.395910  0.249999  1
  Yb  Yb1  1  0.732193  0.569620  0.479345  1
  Yb  Yb2  1  0.767807  0.020655  0.930380  1
  Yb  Yb3  1  0.145902  0.749999  0.895910  1
  Yb  Yb4  1  0.383597  0.597271  0.129983  1
  Yb  Yb5  1  0.090310  0.069659  0.337447  1
  Yb  Yb6  1  0.855596  0.980226  0.385328  1
  Yb  Yb7  1  0.232165  0.752854  0.162561  1
  Yb  Yb8  1  0.905136  0.875389  0.019735  1
  Yb  Yb9  1  0.405136  0.519735  0.375389  1
  Yb  Yb10  1  0.594848  0.614622  0.970244  1
  Yb  Yb11  1  0.267835  0.337439  0.747146  1
  Yb  Yb12  1  0.383568  0.286291  0.253548  1
  Yb  Yb13  1  0.267807  0.430380  0.520655  1
  Yb  Yb14  1  0.094848  0.470244  0.114622  1
  Yb  Yb15  1  0.854098  0.250001  0.104090  1
  Yb  Yb16  1  0.909690  0.930341  0.662553  1
  Yb  Yb17  1  0.409737  0.747151  0.979353  1
  Yb  Yb18  1  0.354033  0.249985  0.604084  1
  Yb  Yb19  1  0.090263  0.520647  0.752849  1
  Yb  Yb20  1  0.905152  0.529756  0.885378  1
  Yb  Yb21  1  0.032733  0.746441  0.630021  1
  Yb  Yb22  1  0.144404  0.019774  0.614672  1
  Yb  Yb23  1  0.644422  0.029656  0.124612  1
  Yb  Yb24  1  0.145967  0.895916  0.250015  1
  Yb  Yb25  1  0.590263  0.252849  0.020647  1
  Yb  Yb26  1  0.883597  0.629983  0.097271  1
  Yb  Yb27  1  0.767835  0.247146  0.837439  1
  Yb  Yb28  1  0.409690  0.162553  0.430341  1
  Yb  Yb29  1  0.405152  0.385378  0.029756  1
  Yb  Yb30  1  0.032790  0.786277  0.402774  1
  Yb  Yb31  1  0.144422  0.624612  0.529656  1
  Yb  Yb32  1  0.590310  0.837447  0.569659  1
  Yb  Yb33  1  0.855578  0.375388  0.470344  1
  Yb  Yb34  1  0.645967  0.750015  0.395916  1
  Yb  Yb35  1  0.594864  0.480265  0.624611  1
  Yb  Yb36  1  0.532790  0.902774  0.286277  1
  Yb  Yb37  1  0.854033  0.104084  0.749985  1
  Yb  Yb38  1  0.094864  0.124611  0.980265  1
  Yb  Yb39  1  0.116432  0.246452  0.213709  1
  Yb  Yb40  1  0.967267  0.253559  0.369979  1
  Yb  Yb41  1  0.732165  0.662561  0.252854  1
  Yb  Yb42  1  0.909737  0.479353  0.247151  1
  Yb  Yb43  1  0.532733  0.130021  0.246441  1
  Yb  Yb44  1  0.355578  0.970344  0.875388  1
  Yb  Yb45  1  0.967210  0.213723  0.597226  1
  Yb  Yb46  1  0.232193  0.979345  0.069620  1
  Yb  Yb47  1  0.467267  0.869979  0.753559  1
  Yb  Yb48  1  0.616432  0.713709  0.746452  1
  Yb  Yb49  1  0.616403  0.402729  0.870017  1
  Yb  Yb50  1  0.467210  0.097226  0.713723  1
  Yb  Yb51  1  0.354098  0.604090  0.750001  1
  Yb  Yb52  1  0.644404  0.114672  0.519774  1
  Yb  Yb53  1  0.355596  0.885328  0.480226  1
  Yb  Yb54  1  0.883568  0.753548  0.786291  1
  Yb  Yb55  1  0.116403  0.370017  0.902729  1
  Sc  Sc56  1  0.750204  0.874904  0.125044  1
  Sc  Sc57  1  0.249796  0.125096  0.874956  1
  Sc  Sc58  1  0.749796  0.374956  0.625096  1
  Sc  Sc59  1  0.250204  0.625044  0.374904  1
  Bi  Bi60  1  0.885956  0.304399  0.702575  1
  Bi  Bi61  1  0.101779  0.418308  0.304359  1
  Bi  Bi62  1  0.601779  0.804359  0.918308  1
  Bi  Bi63  1  0.524188  0.512098  0.262101  1
  Bi  Bi64  1  0.341045  0.320734  0.424910  1
  Bi  Bi65  1  0.750000  0.987900  0.512100  1
  Bi  Bi66  1  0.250000  0.012100  0.487900  1
  Bi  Bi67  1  0.604163  0.083856  0.924910  1
  Bi  Bi68  1  0.658963  0.479705  0.083866  1
  Bi  Bi69  1  0.386077  0.683459  0.581672  1
  Bi  Bi70  1  0.601366  0.297203  0.683595  1
  Bi  Bi71  1  0.104163  0.424910  0.583856  1
  Bi  Bi72  1  0.475812  0.487902  0.737899  1
  Bi  Bi73  1  0.886077  0.081672  0.183459  1
  Bi  Bi74  1  0.898634  0.816405  0.202797  1
  Bi  Bi75  1  0.841045  0.924910  0.820734  1
  Bi  Bi76  1  0.395837  0.916144  0.075090  1
  Bi  Bi77  1  0.250000  0.874997  0.625003  1
  Bi  Bi78  1  0.395843  0.979689  0.320744  1
  Bi  Bi79  1  0.604157  0.020311  0.679256  1
  Bi  Bi80  1  0.101366  0.183595  0.797203  1
  Bi  Bi81  1  0.113923  0.918328  0.816541  1
  Bi  Bi82  1  0.385956  0.202575  0.804399  1
  Bi  Bi83  1  0.613923  0.316541  0.418328  1
  Bi  Bi84  1  0.398634  0.702797  0.316405  1
  Bi  Bi85  1  0.614044  0.797425  0.195601  1
  Bi  Bi86  1  0.250000  0.737902  0.762098  1
  Bi  Bi87  1  0.750000  0.624997  0.875003  1
  Bi  Bi88  1  0.658955  0.679266  0.575090  1
  Bi  Bi89  1  0.750000  0.125003  0.374997  1
  Bi  Bi90  1  0.898221  0.581692  0.695641  1
  Bi  Bi91  1  0.750000  0.262098  0.237902  1
  Bi  Bi92  1  0.895843  0.820744  0.479689  1
  Bi  Bi93  1  0.158955  0.075090  0.179266  1
  Bi  Bi94  1  0.398221  0.195641  0.081692  1
  Bi  Bi95  1  0.104157  0.179256  0.520311  1
  Bi  Bi96  1  0.158963  0.583866  0.979705  1
  Bi  Bi97  1  0.841037  0.416134  0.020295  1
  Bi  Bi98  1  0.895837  0.575090  0.416144  1
  Bi  Bi99  1  0.250000  0.375003  0.124997  1
  Bi  Bi100  1  0.114044  0.695601  0.297425  1
  Bi  Bi101  1  0.024188  0.762101  0.012098  1
  Bi  Bi102  1  0.975812  0.237899  0.987902  1
  Bi  Bi103  1  0.341037  0.520295  0.916134  1
