# generated using pymatgen
data_Sc20Cd6TcNi
_symmetry_space_group_name_H-M   'P 1'
_cell_length_a   8.96225100
_cell_length_b   8.96225158
_cell_length_c   9.14064200
_cell_angle_alpha   90.00000000
_cell_angle_beta   90.00000000
_cell_angle_gamma   119.99999417
_symmetry_Int_Tables_number   1
_chemical_formula_structural   Sc20Cd6TcNi
_chemical_formula_sum   'Sc20 Cd6 Tc1 Ni1'
_cell_volume   635.83084262
_cell_formula_units_Z   1
loop_
 _symmetry_equiv_pos_site_id
 _symmetry_equiv_pos_as_xyz
  1  'x, y, z'
loop_
 _atom_site_type_symbol
 _atom_site_label
 _atom_site_symmetry_multiplicity
 _atom_site_fract_x
 _atom_site_fract_y
 _atom_site_fract_z
 _atom_site_occupancy
  Sc  Sc0  1  0.000000  0.000000  0.500423  1
  Sc  Sc1  1  0.000000  0.000000  0.999577  1
  Sc  Sc2  1  0.540492  0.459508  0.250000  1
  Sc  Sc3  1  0.540492  0.080984  0.250000  1
  Sc  Sc4  1  0.919016  0.459508  0.250000  1
  Sc  Sc5  1  0.458119  0.541881  0.750000  1
  Sc  Sc6  1  0.458119  0.916238  0.750000  1
  Sc  Sc7  1  0.083762  0.541881  0.750000  1
  Sc  Sc8  1  0.209839  0.790161  0.443038  1
  Sc  Sc9  1  0.209839  0.419679  0.443038  1
  Sc  Sc10  1  0.580321  0.790161  0.443038  1
  Sc  Sc11  1  0.788664  0.211336  0.561335  1
  Sc  Sc12  1  0.788664  0.577327  0.561335  1
  Sc  Sc13  1  0.422673  0.211336  0.561335  1
  Sc  Sc14  1  0.788664  0.211336  0.938665  1
  Sc  Sc15  1  0.788664  0.577327  0.938665  1
  Sc  Sc16  1  0.422673  0.211336  0.938665  1
  Sc  Sc17  1  0.209839  0.790161  0.056962  1
  Sc  Sc18  1  0.209839  0.419679  0.056962  1
  Sc  Sc19  1  0.580321  0.790161  0.056962  1
  Cd  Cd20  1  0.883785  0.116215  0.250000  1
  Cd  Cd21  1  0.883785  0.767571  0.250000  1
  Cd  Cd22  1  0.232429  0.116215  0.250000  1
  Cd  Cd23  1  0.115802  0.884198  0.750000  1
  Cd  Cd24  1  0.115802  0.231603  0.750000  1
  Cd  Cd25  1  0.768397  0.884198  0.750000  1
  Tc  Tc26  1  0.333333  0.666667  0.250000  1
  Ni  Ni27  1  0.666667  0.333333  0.750000  1
