# generated using pymatgen
data_Er2Al20RuRh3
_symmetry_space_group_name_H-M   'P 1'
_cell_length_a   6.83723726
_cell_length_b   6.83780881
_cell_length_c   9.14456826
_cell_angle_alpha   90.15296757
_cell_angle_beta   90.14216926
_cell_angle_gamma   97.17498549
_symmetry_Int_Tables_number   1
_chemical_formula_structural   Er2Al20RuRh3
_chemical_formula_sum   'Er2 Al20 Ru1 Rh3'
_cell_volume   424.17328328
_cell_formula_units_Z   1
loop_
 _symmetry_equiv_pos_site_id
 _symmetry_equiv_pos_as_xyz
  1  'x, y, z'
loop_
 _atom_site_type_symbol
 _atom_site_label
 _atom_site_symmetry_multiplicity
 _atom_site_fract_x
 _atom_site_fract_y
 _atom_site_fract_z
 _atom_site_occupancy
  Er  Er0  1  0.869707  0.127859  0.749770  1
  Er  Er1  1  0.130293  0.872141  0.250230  1
  Al  Al2  1  0.621682  0.375483  0.548706  1
  Al  Al3  1  0.378318  0.624517  0.451294  1
  Al  Al4  1  0.377731  0.622994  0.049937  1
  Al  Al5  1  0.622269  0.377006  0.950063  1
  Al  Al6  1  0.222579  0.221098  0.499168  1
  Al  Al7  1  0.777421  0.778902  0.500832  1
  Al  Al8  1  0.776776  0.777206  0.000122  1
  Al  Al9  1  0.223224  0.222794  0.999878  1
  Al  Al10  1  0.846525  0.153881  0.102864  1
  Al  Al11  1  0.153475  0.846119  0.897136  1
  Al  Al12  1  0.154616  0.847206  0.601725  1
  Al  Al13  1  0.845384  0.152794  0.398275  1
  Al  Al14  1  0.856891  0.589085  0.749368  1
  Al  Al15  1  0.143109  0.410915  0.250632  1
  Al  Al16  1  0.411435  0.142202  0.749163  1
  Al  Al17  1  0.588565  0.857798  0.250837  1
  Al  Al18  1  0.225844  0.480134  0.749990  1
  Al  Al19  1  0.774156  0.519866  0.250010  1
  Al  Al20  1  0.519525  0.775758  0.747345  1
  Al  Al21  1  0.480475  0.224242  0.252655  1
  Ru  Ru22  1  0.500000  0.000000  0.500000  1
  Rh  Rh23  1  0.000000  0.500000  0.500000  1
  Rh  Rh24  1  0.000000  0.500000  0.000000  1
  Rh  Rh25  1  0.500000  0.000000  0.000000  1
