# generated using pymatgen
data_Tm4Ta5TiSi8
_symmetry_space_group_name_H-M   'P 1'
_cell_length_a   7.01645002
_cell_length_b   7.00972624
_cell_length_c   12.88173600
_cell_angle_alpha   90.00000000
_cell_angle_beta   90.00000000
_cell_angle_gamma   89.98021590
_symmetry_Int_Tables_number   1
_chemical_formula_structural   Tm4Ta5TiSi8
_chemical_formula_sum   'Tm8 Ta10 Ti2 Si16'
_cell_volume   633.56745745
_cell_formula_units_Z   2
loop_
 _symmetry_equiv_pos_site_id
 _symmetry_equiv_pos_as_xyz
  1  'x, y, z'
loop_
 _atom_site_type_symbol
 _atom_site_label
 _atom_site_symmetry_multiplicity
 _atom_site_fract_x
 _atom_site_fract_y
 _atom_site_fract_z
 _atom_site_occupancy
  Tm  Tm0  1  0.342083  0.001909  0.467841  1
  Tm  Tm1  1  0.498713  0.842018  0.718064  1
  Tm  Tm2  1  0.501287  0.157982  0.218064  1
  Tm  Tm3  1  0.842059  0.498933  0.282218  1
  Tm  Tm4  1  0.157941  0.501067  0.782218  1
  Tm  Tm5  1  0.657917  0.998092  0.967841  1
  Tm  Tm6  1  0.002138  0.340910  0.531750  1
  Tm  Tm7  1  0.997863  0.659090  0.031750  1
  Ta  Ta8  1  0.328953  0.329235  0.999631  1
  Ta  Ta9  1  0.172944  0.826575  0.250117  1
  Ta  Ta10  1  0.827056  0.173425  0.750117  1
  Ta  Ta11  1  0.671047  0.670765  0.499631  1
  Ta  Ta12  1  0.152250  0.007021  0.873681  1
  Ta  Ta13  1  0.493225  0.651974  0.124053  1
  Ta  Ta14  1  0.506775  0.348026  0.624053  1
  Ta  Ta15  1  0.651650  0.492170  0.876148  1
  Ta  Ta16  1  0.348350  0.507830  0.376148  1
  Ta  Ta17  1  0.847750  0.992979  0.373681  1
  Ti  Ti18  1  0.007449  0.152768  0.126347  1
  Ti  Ti19  1  0.992551  0.847232  0.626347  1
  Si  Si20  1  0.202624  0.132757  0.680483  1
  Si  Si21  1  0.364826  0.705419  0.930761  1
  Si  Si22  1  0.635174  0.294581  0.430761  1
  Si  Si23  1  0.705809  0.363522  0.069822  1
  Si  Si24  1  0.294191  0.636478  0.569822  1
  Si  Si25  1  0.797376  0.867243  0.180483  1
  Si  Si26  1  0.135239  0.203570  0.318690  1
  Si  Si27  1  0.864761  0.796430  0.818690  1
  Si  Si28  1  0.293198  0.955070  0.064432  1
  Si  Si29  1  0.546421  0.795525  0.313590  1
  Si  Si30  1  0.453579  0.204475  0.813590  1
  Si  Si31  1  0.797076  0.547271  0.685290  1
  Si  Si32  1  0.202924  0.452729  0.185290  1
  Si  Si33  1  0.706802  0.044930  0.564432  1
  Si  Si34  1  0.954383  0.295012  0.937082  1
  Si  Si35  1  0.045617  0.704988  0.437082  1
