# generated using pymatgen
data_Er4FeNi2Ru5
_symmetry_space_group_name_H-M   'P 1'
_cell_length_a   5.25917863
_cell_length_b   5.09785541
_cell_length_c   8.73613600
_cell_angle_alpha   90.00000000
_cell_angle_beta   90.00000000
_cell_angle_gamma   120.20808178
_symmetry_Int_Tables_number   1
_chemical_formula_structural   Er4FeNi2Ru5
_chemical_formula_sum   'Er4 Fe1 Ni2 Ru5'
_cell_volume   202.41421728
_cell_formula_units_Z   1
loop_
 _symmetry_equiv_pos_site_id
 _symmetry_equiv_pos_as_xyz
  1  'x, y, z'
loop_
 _atom_site_type_symbol
 _atom_site_label
 _atom_site_symmetry_multiplicity
 _atom_site_fract_x
 _atom_site_fract_y
 _atom_site_fract_z
 _atom_site_occupancy
  Er  Er0  1  0.329913  0.666724  0.434790  1
  Er  Er1  1  0.665171  0.334527  0.565678  1
  Er  Er2  1  0.665171  0.334527  0.934322  1
  Er  Er3  1  0.329913  0.666724  0.065210  1
  Fe  Fe4  1  0.171618  0.330471  0.750000  1
  Ni  Ni5  1  0.169968  0.825009  0.750000  1
  Ni  Ni6  1  0.338623  0.169841  0.250000  1
  Ru  Ru7  1  0.833262  0.659620  0.250000  1
  Ru  Ru8  1  0.659213  0.823127  0.750000  1
  Ru  Ru9  1  0.000466  0.008744  0.996780  1
  Ru  Ru10  1  0.836215  0.171942  0.250000  1
  Ru  Ru11  1  0.000466  0.008744  0.503220  1
