# generated using pymatgen
data_Ca3CrOsC6
_symmetry_space_group_name_H-M   'P 1'
_cell_length_a   8.20524900
_cell_length_b   8.20524868
_cell_length_c   5.15302500
_cell_angle_alpha   90.00000000
_cell_angle_beta   90.00000000
_cell_angle_gamma   119.99999725
_symmetry_Int_Tables_number   1
_chemical_formula_structural   Ca3CrOsC6
_chemical_formula_sum   'Ca6 Cr2 Os2 C12'
_cell_volume   300.45290407
_cell_formula_units_Z   2
loop_
 _symmetry_equiv_pos_site_id
 _symmetry_equiv_pos_as_xyz
  1  'x, y, z'
loop_
 _atom_site_type_symbol
 _atom_site_label
 _atom_site_symmetry_multiplicity
 _atom_site_fract_x
 _atom_site_fract_y
 _atom_site_fract_z
 _atom_site_occupancy
  Ca  Ca0  1  0.607826  0.689168  0.750000  1
  Ca  Ca1  1  0.918660  0.607826  0.250000  1
  Ca  Ca2  1  0.689168  0.081340  0.250000  1
  Ca  Ca3  1  0.310832  0.918660  0.750000  1
  Ca  Ca4  1  0.081340  0.392174  0.750000  1
  Ca  Ca5  1  0.392174  0.310832  0.250000  1
  Cr  Cr6  1  0.000000  0.000000  0.500000  1
  Cr  Cr7  1  0.000000  0.000000  0.000000  1
  Os  Os8  1  0.666667  0.333333  0.750000  1
  Os  Os9  1  0.333333  0.666667  0.250000  1
  C  C10  1  0.955950  0.778869  0.750000  1
  C  C11  1  0.177081  0.955950  0.250000  1
  C  C12  1  0.778869  0.822919  0.250000  1
  C  C13  1  0.221131  0.177081  0.750000  1
  C  C14  1  0.822919  0.044050  0.750000  1
  C  C15  1  0.044050  0.221131  0.250000  1
  C  C16  1  0.860640  0.591191  0.750000  1
  C  C17  1  0.269447  0.860640  0.250000  1
  C  C18  1  0.591191  0.730553  0.250000  1
  C  C19  1  0.408809  0.269447  0.750000  1
  C  C20  1  0.139360  0.408809  0.250000  1
  C  C21  1  0.730553  0.139360  0.750000  1
