# generated using pymatgen
data_RbCoAsO4
_symmetry_space_group_name_H-M   'P 1'
_cell_length_a   9.19817625
_cell_length_b   5.68881500
_cell_length_c   9.35906835
_cell_angle_alpha   90.00000000
_cell_angle_beta   90.05222084
_cell_angle_gamma   90.00000000
_symmetry_Int_Tables_number   1
_chemical_formula_structural   RbCoAsO4
_chemical_formula_sum   'Rb4 Co4 As4 O16'
_cell_volume   489.72917393
_cell_formula_units_Z   4
loop_
 _symmetry_equiv_pos_site_id
 _symmetry_equiv_pos_as_xyz
  1  'x, y, z'
loop_
 _atom_site_type_symbol
 _atom_site_label
 _atom_site_symmetry_multiplicity
 _atom_site_fract_x
 _atom_site_fract_y
 _atom_site_fract_z
 _atom_site_occupancy
  Rb  Rb0  1  0.008409  0.247195  0.196901  1
  Rb  Rb1  1  0.500394  0.217238  0.314443  1
  Rb  Rb2  1  0.499606  0.717238  0.685556  1
  Rb  Rb3  1  0.991591  0.747195  0.803099  1
  Co  Co4  1  0.325142  0.707584  0.094710  1
  Co  Co5  1  0.823258  0.757347  0.425543  1
  Co  Co6  1  0.176742  0.257347  0.574456  1
  Co  Co7  1  0.674859  0.207584  0.905291  1
  As  As8  1  0.692196  0.709616  0.098494  1
  As  As9  1  0.192821  0.745570  0.425431  1
  As  As10  1  0.807179  0.245570  0.574570  1
  As  As11  1  0.307803  0.209616  0.901507  1
  O  O12  1  0.289442  0.365584  0.059314  1
  O  O13  1  0.726357  0.413699  0.069442  1
  O  O14  1  0.521983  0.748471  0.173007  1
  O  O15  1  0.820543  0.813366  0.217063  1
  O  O16  1  0.185964  0.805216  0.244664  1
  O  O17  1  0.287431  0.488220  0.459223  1
  O  O18  1  0.022776  0.699723  0.495662  1
  O  O19  1  0.717051  0.468274  0.485631  1
  O  O20  1  0.282950  0.968274  0.514370  1
  O  O21  1  0.977224  0.199723  0.504339  1
  O  O22  1  0.712569  0.988220  0.540776  1
  O  O23  1  0.814037  0.305215  0.755336  1
  O  O24  1  0.179457  0.313366  0.782936  1
  O  O25  1  0.478017  0.248471  0.826993  1
  O  O26  1  0.273642  0.913699  0.930557  1
  O  O27  1  0.710557  0.865584  0.940685  1
