# generated using pymatgen
data_KPuCl3O2
_symmetry_space_group_name_H-M   'P 1'
_cell_length_a   6.66218701
_cell_length_b   6.96437832
_cell_length_c   9.84306384
_cell_angle_alpha   108.84909281
_cell_angle_beta   89.23977079
_cell_angle_gamma   111.71963290
_symmetry_Int_Tables_number   1
_chemical_formula_structural   KPuCl3O2
_chemical_formula_sum   'K2 Pu2 Cl6 O4'
_cell_volume   398.57758000
_cell_formula_units_Z   2
loop_
 _symmetry_equiv_pos_site_id
 _symmetry_equiv_pos_as_xyz
  1  'x, y, z'
loop_
 _atom_site_type_symbol
 _atom_site_label
 _atom_site_symmetry_multiplicity
 _atom_site_fract_x
 _atom_site_fract_y
 _atom_site_fract_z
 _atom_site_occupancy
  K  K0  1  0.938636  0.645073  0.804921  1
  K  K1  1  0.061364  0.354927  0.195079  1
  Pu  Pu2  1  0.634829  0.975425  0.680657  1
  Pu  Pu3  1  0.365171  0.024575  0.319343  1
  Cl  Cl4  1  0.757450  0.209742  0.493316  1
  Cl  Cl5  1  0.242550  0.790258  0.506684  1
  Cl  Cl6  1  0.472781  0.731620  0.837974  1
  Cl  Cl7  1  0.527219  0.268380  0.162026  1
  Cl  Cl8  1  0.012455  0.173903  0.843042  1
  Cl  Cl9  1  0.987545  0.826097  0.156958  1
  O  O10  1  0.285582  0.235292  0.428663  1
  O  O11  1  0.714418  0.764708  0.571337  1
  O  O12  1  0.561763  0.192364  0.787959  1
  O  O13  1  0.438237  0.807636  0.212041  1
