# generated using pymatgen
data_Yb2HoSbO6
_symmetry_space_group_name_H-M   'P 1'
_cell_length_a   6.56088514
_cell_length_b   6.57353968
_cell_length_c   6.55392518
_cell_angle_alpha   91.76949845
_cell_angle_beta   91.69777454
_cell_angle_gamma   91.55130699
_symmetry_Int_Tables_number   1
_chemical_formula_structural   Yb2HoSbO6
_chemical_formula_sum   'Yb4 Ho2 Sb2 O12'
_cell_volume   282.28961406
_cell_formula_units_Z   2
loop_
 _symmetry_equiv_pos_site_id
 _symmetry_equiv_pos_as_xyz
  1  'x, y, z'
loop_
 _atom_site_type_symbol
 _atom_site_label
 _atom_site_symmetry_multiplicity
 _atom_site_fract_x
 _atom_site_fract_y
 _atom_site_fract_z
 _atom_site_occupancy
  Yb  Yb0  1  0.563989  0.061160  0.753090  1
  Yb  Yb1  1  0.936511  0.245563  0.438327  1
  Yb  Yb2  1  0.248098  0.430210  0.938977  1
  Yb  Yb3  1  0.439126  0.946385  0.248271  1
  Ho  Ho4  1  0.064517  0.753387  0.564204  1
  Ho  Ho5  1  0.751072  0.563965  0.060305  1
  Sb  Sb6  1  0.499349  0.501520  0.499965  1
  Sb  Sb7  1  0.000498  0.000409  0.001518  1
  O  O8  1  0.037262  0.701759  0.911412  1
  O  O9  1  0.710712  0.907295  0.043903  1
  O  O10  1  0.919141  0.034193  0.705847  1
  O  O11  1  0.947616  0.292375  0.083345  1
  O  O12  1  0.289476  0.081152  0.957468  1
  O  O13  1  0.081393  0.951234  0.294989  1
  O  O14  1  0.797289  0.576930  0.425753  1
  O  O15  1  0.573633  0.437939  0.794889  1
  O  O16  1  0.420999  0.792170  0.567456  1
  O  O17  1  0.206174  0.436773  0.570316  1
  O  O18  1  0.439662  0.570496  0.205140  1
  O  O19  1  0.573484  0.215085  0.434821  1
