# generated using pymatgen
data_Ho3Cd3Ga2Cu
_symmetry_space_group_name_H-M   'P 1'
_cell_length_a   7.26543151
_cell_length_b   7.26386995
_cell_length_c   4.31374400
_cell_angle_alpha   89.97038650
_cell_angle_beta   90.02029001
_cell_angle_gamma   119.98189786
_symmetry_Int_Tables_number   1
_chemical_formula_structural   Ho3Cd3Ga2Cu
_chemical_formula_sum   'Ho3 Cd3 Ga2 Cu1'
_cell_volume   197.19395745
_cell_formula_units_Z   1
loop_
 _symmetry_equiv_pos_site_id
 _symmetry_equiv_pos_as_xyz
  1  'x, y, z'
loop_
 _atom_site_type_symbol
 _atom_site_label
 _atom_site_symmetry_multiplicity
 _atom_site_fract_x
 _atom_site_fract_y
 _atom_site_fract_z
 _atom_site_occupancy
  Ho  Ho0  1  0.000205  0.410718  0.499855  1
  Ho  Ho1  1  0.589492  0.589351  0.499798  1
  Ho  Ho2  1  0.410515  0.000057  0.499848  1
  Cd  Cd3  1  0.000144  0.756956  0.999983  1
  Cd  Cd4  1  0.243287  0.243176  0.999911  1
  Cd  Cd5  1  0.756634  0.000056  0.999732  1
  Ga  Ga6  1  0.333460  0.666683  0.999924  1
  Ga  Ga7  1  0.666917  0.333445  0.999953  1
  Cu  Cu8  1  0.999347  0.999558  0.500995  1
