# generated using pymatgen
data_Yb3NbIn2Ir3
_symmetry_space_group_name_H-M   'P 1'
_cell_length_a   7.15260453
_cell_length_b   6.92217018
_cell_length_c   4.43639100
_cell_angle_alpha   90.00000000
_cell_angle_beta   90.00000000
_cell_angle_gamma   118.93988347
_symmetry_Int_Tables_number   1
_chemical_formula_structural   Yb3NbIn2Ir3
_chemical_formula_sum   'Yb3 Nb1 In2 Ir3'
_cell_volume   192.22409840
_cell_formula_units_Z   1
loop_
 _symmetry_equiv_pos_site_id
 _symmetry_equiv_pos_as_xyz
  1  'x, y, z'
loop_
 _atom_site_type_symbol
 _atom_site_label
 _atom_site_symmetry_multiplicity
 _atom_site_fract_x
 _atom_site_fract_y
 _atom_site_fract_z
 _atom_site_occupancy
  Yb  Yb0  1  0.576451  0.582740  0.000000  1
  Yb  Yb1  1  0.423549  0.006288  0.000000  1
  Yb  Yb2  1  0.000000  0.413196  0.000000  1
  Nb  Nb3  1  0.000000  0.750812  0.500000  1
  In  In4  1  0.245177  0.248992  0.500000  1
  In  In5  1  0.754823  0.003817  0.500000  1
  Ir  Ir6  1  0.000000  0.955643  0.000000  1
  Ir  Ir7  1  0.678500  0.358506  0.500000  1
  Ir  Ir8  1  0.321500  0.680007  0.500000  1
