# generated using pymatgen
data_Pr5ZrOsO12
_symmetry_space_group_name_H-M   'P 1'
_cell_length_a   7.20205129
_cell_length_b   7.20205098
_cell_length_c   7.71384008
_cell_angle_alpha   74.50553762
_cell_angle_beta   74.50553925
_cell_angle_gamma   50.71061936
_symmetry_Int_Tables_number   1
_chemical_formula_structural   Pr5ZrOsO12
_chemical_formula_sum   'Pr5 Zr1 Os1 O12'
_cell_volume   295.82995517
_cell_formula_units_Z   1
loop_
 _symmetry_equiv_pos_site_id
 _symmetry_equiv_pos_as_xyz
  1  'x, y, z'
loop_
 _atom_site_type_symbol
 _atom_site_label
 _atom_site_symmetry_multiplicity
 _atom_site_fract_x
 _atom_site_fract_y
 _atom_site_fract_z
 _atom_site_occupancy
  Pr  Pr0  1  0.298347  0.306493  0.359999  1
  Pr  Pr1  1  0.693507  0.701653  0.640001  1
  Pr  Pr2  1  0.687262  0.701940  0.166735  1
  Pr  Pr3  1  0.298060  0.312738  0.833265  1
  Pr  Pr4  1  0.006064  0.993936  0.500000  1
  Zr  Zr5  1  0.771135  0.228865  0.000000  1
  Os  Os6  1  0.254476  0.745524  0.000000  1
  O  O7  1  0.092560  0.598613  0.574562  1
  O  O8  1  0.022440  0.976963  0.182675  1
  O  O9  1  0.401387  0.907440  0.425438  1
  O  O10  1  0.492946  0.508615  0.178751  1
  O  O11  1  0.098754  0.584600  0.080892  1
  O  O12  1  0.901770  0.405560  0.422357  1
  O  O13  1  0.023037  0.977560  0.817325  1
  O  O14  1  0.594440  0.098229  0.577643  1
  O  O15  1  0.491385  0.507054  0.821249  1
  O  O16  1  0.562971  0.105944  0.081567  1
  O  O17  1  0.415400  0.901246  0.919108  1
  O  O18  1  0.894056  0.437029  0.918433  1
