# generated using pymatgen
data_KRb3(RuO3)2
_symmetry_space_group_name_H-M   'P 1'
_cell_length_a   6.59622000
_cell_length_b   6.59622079
_cell_length_c   7.81708500
_cell_angle_alpha   90.00000000
_cell_angle_beta   90.00000000
_cell_angle_gamma   119.99999604
_symmetry_Int_Tables_number   1
_chemical_formula_structural   KRb3(RuO3)2
_chemical_formula_sum   'K1 Rb3 Ru2 O6'
_cell_volume   294.55459313
_cell_formula_units_Z   1
loop_
 _symmetry_equiv_pos_site_id
 _symmetry_equiv_pos_as_xyz
  1  'x, y, z'
loop_
 _atom_site_type_symbol
 _atom_site_label
 _atom_site_symmetry_multiplicity
 _atom_site_fract_x
 _atom_site_fract_y
 _atom_site_fract_z
 _atom_site_occupancy
  K  K0  1  0.000000  0.000000  0.500000  1
  Rb  Rb1  1  0.000000  0.000000  0.000000  1
  Rb  Rb2  1  0.666667  0.333334  0.266486  1
  Rb  Rb3  1  0.333333  0.666667  0.733513  1
  Ru  Ru4  1  0.333333  0.666667  0.256531  1
  Ru  Ru5  1  0.666667  0.333334  0.743468  1
  O  O6  1  0.176749  0.353499  0.260473  1
  O  O7  1  0.176749  0.823251  0.260473  1
  O  O8  1  0.646501  0.823251  0.260473  1
  O  O9  1  0.353498  0.176748  0.739526  1
  O  O10  1  0.823250  0.176748  0.739526  1
  O  O11  1  0.823251  0.646502  0.739526  1
