# generated using pymatgen
data_NaCrSnS4
_symmetry_space_group_name_H-M   'P 1'
_cell_length_a   3.64372500
_cell_length_b   7.23730184
_cell_length_c   6.26081653
_cell_angle_alpha   73.24196814
_cell_angle_beta   90.00000000
_cell_angle_gamma   90.00000000
_symmetry_Int_Tables_number   1
_chemical_formula_structural   NaCrSnS4
_chemical_formula_sum   'Na1 Cr1 Sn1 S4'
_cell_volume   158.09061022
_cell_formula_units_Z   1
loop_
 _symmetry_equiv_pos_site_id
 _symmetry_equiv_pos_as_xyz
  1  'x, y, z'
loop_
 _atom_site_type_symbol
 _atom_site_label
 _atom_site_symmetry_multiplicity
 _atom_site_fract_x
 _atom_site_fract_y
 _atom_site_fract_z
 _atom_site_occupancy
  Na  Na0  1  0.500000  0.495101  0.653481  1
  Cr  Cr1  1  0.500000  0.005939  0.502501  1
  Sn  Sn2  1  0.000000  0.994401  0.003200  1
  S  S3  1  0.000000  0.809818  0.421332  1
  S  S4  1  0.500000  0.794710  0.882360  1
  S  S5  1  0.000000  0.198104  0.590800  1
  S  S6  1  0.500000  0.201048  0.113285  1
