# generated using pymatgen
data_Y3GaSiAg3Ge
_symmetry_space_group_name_H-M   'P 1'
_cell_length_a   7.17603000
_cell_length_b   7.17603149
_cell_length_c   4.20036000
_cell_angle_alpha   90.00000000
_cell_angle_beta   90.00000000
_cell_angle_gamma   119.99999313
_symmetry_Int_Tables_number   1
_chemical_formula_structural   Y3GaSiAg3Ge
_chemical_formula_sum   'Y3 Ga1 Si1 Ag3 Ge1'
_cell_volume   187.32069367
_cell_formula_units_Z   1
loop_
 _symmetry_equiv_pos_site_id
 _symmetry_equiv_pos_as_xyz
  1  'x, y, z'
loop_
 _atom_site_type_symbol
 _atom_site_label
 _atom_site_symmetry_multiplicity
 _atom_site_fract_x
 _atom_site_fract_y
 _atom_site_fract_z
 _atom_site_occupancy
  Y  Y0  1  0.998223  0.420946  0.500000  1
  Y  Y1  1  0.579054  0.577276  0.500000  1
  Y  Y2  1  0.422724  0.001777  0.500000  1
  Ga  Ga3  1  0.000000  0.000000  0.500000  1
  Si  Si4  1  0.666667  0.333333  0.000000  1
  Ag  Ag5  1  0.991720  0.746832  0.000000  1
  Ag  Ag6  1  0.253168  0.244887  0.000000  1
  Ag  Ag7  1  0.755113  0.008280  0.000000  1
  Ge  Ge8  1  0.333333  0.666667  0.000000  1
