# generated using pymatgen
data_Ba4LiMoWN7
_symmetry_space_group_name_H-M   'P 1'
_cell_length_a   6.55814200
_cell_length_b   10.46527383
_cell_length_c   15.73601116
_cell_angle_alpha   98.95970011
_cell_angle_beta   90.00000000
_cell_angle_gamma   90.00000000
_symmetry_Int_Tables_number   1
_chemical_formula_structural   Ba4LiMoWN7
_chemical_formula_sum   'Ba16 Li4 Mo4 W4 N28'
_cell_volume   1066.82765599
_cell_formula_units_Z   4
loop_
 _symmetry_equiv_pos_site_id
 _symmetry_equiv_pos_as_xyz
  1  'x, y, z'
loop_
 _atom_site_type_symbol
 _atom_site_label
 _atom_site_symmetry_multiplicity
 _atom_site_fract_x
 _atom_site_fract_y
 _atom_site_fract_z
 _atom_site_occupancy
  Ba  Ba0  1  0.685551  0.250000  0.250000  1
  Ba  Ba1  1  0.143860  0.075505  0.379770  1
  Ba  Ba2  1  0.143860  0.424495  0.120230  1
  Ba  Ba3  1  0.856140  0.924495  0.620230  1
  Ba  Ba4  1  0.856140  0.575505  0.879770  1
  Ba  Ba5  1  0.719733  0.255818  0.515896  1
  Ba  Ba6  1  0.719733  0.244182  0.984104  1
  Ba  Ba7  1  0.280267  0.744182  0.484104  1
  Ba  Ba8  1  0.280267  0.755818  0.015896  1
  Ba  Ba9  1  0.229117  0.420472  0.572512  1
  Ba  Ba10  1  0.229117  0.079528  0.927488  1
  Ba  Ba11  1  0.770883  0.579528  0.427488  1
  Ba  Ba12  1  0.770883  0.920472  0.072512  1
  Ba  Ba13  1  0.023501  0.250000  0.750000  1
  Ba  Ba14  1  0.976499  0.750000  0.250000  1
  Ba  Ba15  1  0.314449  0.750000  0.750000  1
  Li  Li16  1  0.456459  0.872206  0.239335  1
  Li  Li17  1  0.543541  0.372206  0.739335  1
  Li  Li18  1  0.543541  0.127794  0.760665  1
  Li  Li19  1  0.456459  0.627794  0.260665  1
  Mo  Mo20  1  0.670569  0.578844  0.097136  1
  Mo  Mo21  1  0.670569  0.921156  0.402864  1
  Mo  Mo22  1  0.329432  0.421156  0.902864  1
  Mo  Mo23  1  0.329432  0.078844  0.597136  1
  W  W24  1  0.774804  0.894259  0.844818  1
  W  W25  1  0.774804  0.605741  0.655182  1
  W  W26  1  0.225196  0.105741  0.155182  1
  W  W27  1  0.225196  0.394259  0.344818  1
  N  N28  1  0.465415  0.107871  0.091833  1
  N  N29  1  0.817044  0.052433  0.804792  1
  N  N30  1  0.817044  0.447566  0.695208  1
  N  N31  1  0.182956  0.947566  0.195208  1
  N  N32  1  0.182956  0.552434  0.304792  1
  N  N33  1  0.469514  0.221012  0.653309  1
  N  N34  1  0.469514  0.278988  0.846691  1
  N  N35  1  0.530486  0.778988  0.346691  1
  N  N36  1  0.530486  0.721012  0.153309  1
  N  N37  1  0.534585  0.892129  0.908167  1
  N  N38  1  0.534585  0.607871  0.591833  1
  N  N39  1  0.921508  0.859124  0.435438  1
  N  N40  1  0.724862  0.037102  0.328760  1
  N  N41  1  0.724862  0.462898  0.171240  1
  N  N42  1  0.275138  0.962898  0.671240  1
  N  N43  1  0.275138  0.537102  0.828760  1
  N  N44  1  0.500000  0.500000  0.000000  1
  N  N45  1  0.500000  0.000000  0.500000  1
  N  N46  1  0.239933  0.250000  0.250000  1
  N  N47  1  0.760067  0.750000  0.750000  1
  N  N48  1  0.989030  0.861680  0.916538  1
  N  N49  1  0.989030  0.638320  0.583462  1
  N  N50  1  0.010970  0.138320  0.083462  1
  N  N51  1  0.010970  0.361680  0.416538  1
  N  N52  1  0.078492  0.359124  0.935438  1
  N  N53  1  0.921508  0.640876  0.064562  1
  N  N54  1  0.078492  0.140876  0.564562  1
  N  N55  1  0.465415  0.392129  0.408167  1
