# generated using pymatgen
data_Ti(NbC)5
_symmetry_space_group_name_H-M   'P 1'
_cell_length_a   5.46801879
_cell_length_b   5.46801895
_cell_length_c   5.49029027
_cell_angle_alpha   80.26862341
_cell_angle_beta   80.26861167
_cell_angle_gamma   119.67296629
_symmetry_Int_Tables_number   1
_chemical_formula_structural   Ti(NbC)5
_chemical_formula_sum   'Ti1 Nb5 C5'
_cell_volume   134.31657987
_cell_formula_units_Z   1
loop_
 _symmetry_equiv_pos_site_id
 _symmetry_equiv_pos_as_xyz
  1  'x, y, z'
loop_
 _atom_site_type_symbol
 _atom_site_label
 _atom_site_symmetry_multiplicity
 _atom_site_fract_x
 _atom_site_fract_y
 _atom_site_fract_z
 _atom_site_occupancy
  Ti  Ti0  1  0.733363  0.733363  0.732754  1
  Nb  Nb1  1  0.263111  0.263111  0.264987  1
  Nb  Nb2  1  0.083147  0.438170  0.747454  1
  Nb  Nb3  1  0.562703  0.916016  0.252300  1
  Nb  Nb4  1  0.916016  0.562703  0.252300  1
  Nb  Nb5  1  0.438170  0.083147  0.747454  1
  C  C6  1  0.502507  0.502507  0.502072  1
  C  C7  1  0.666592  0.339869  0.997167  1
  C  C8  1  0.339869  0.666592  0.997167  1
  C  C9  1  0.832272  0.162251  0.503171  1
  C  C10  1  0.162251  0.832272  0.503171  1
