# generated using pymatgen
data_ThZr8Zn(In7Co3)2
_symmetry_space_group_name_H-M   'P 1'
_cell_length_a   9.52578989
_cell_length_b   9.52578982
_cell_length_c   9.52579000
_cell_angle_alpha   59.99999939
_cell_angle_beta   59.99999961
_cell_angle_gamma   60.00000353
_symmetry_Int_Tables_number   1
_chemical_formula_structural   ThZr8Zn(In7Co3)2
_chemical_formula_sum   'Th1 Zr8 Zn1 In14 Co6'
_cell_volume   611.20655944
_cell_formula_units_Z   1
loop_
 _symmetry_equiv_pos_site_id
 _symmetry_equiv_pos_as_xyz
  1  'x, y, z'
loop_
 _atom_site_type_symbol
 _atom_site_label
 _atom_site_symmetry_multiplicity
 _atom_site_fract_x
 _atom_site_fract_y
 _atom_site_fract_z
 _atom_site_occupancy
  Th  Th0  1  0.500000  0.500000  0.500000  1
  Zr  Zr1  1  0.122131  0.633606  0.122131  1
  Zr  Zr2  1  0.366394  0.877869  0.877869  1
  Zr  Zr3  1  0.877869  0.877869  0.877869  1
  Zr  Zr4  1  0.633606  0.122131  0.122131  1
  Zr  Zr5  1  0.877869  0.877869  0.366394  1
  Zr  Zr6  1  0.122131  0.122131  0.122131  1
  Zr  Zr7  1  0.877869  0.366394  0.877869  1
  Zr  Zr8  1  0.122131  0.122131  0.633606  1
  Zn  Zn9  1  0.000000  0.000000  0.000000  1
  In  In10  1  0.500000  0.847399  0.152601  1
  In  In11  1  0.500000  0.847399  0.500000  1
  In  In12  1  0.500000  0.152601  0.500000  1
  In  In13  1  0.500000  0.500000  0.847399  1
  In  In14  1  0.152601  0.500000  0.500000  1
  In  In15  1  0.847399  0.152601  0.500000  1
  In  In16  1  0.152601  0.847399  0.500000  1
  In  In17  1  0.500000  0.152601  0.847399  1
  In  In18  1  0.152601  0.500000  0.847399  1
  In  In19  1  0.500000  0.500000  0.152601  1
  In  In20  1  0.847399  0.500000  0.500000  1
  In  In21  1  0.847399  0.500000  0.152601  1
  In  In22  1  0.250000  0.250000  0.250000  1
  In  In23  1  0.750000  0.750000  0.750000  1
  Co  Co24  1  0.779873  0.779873  0.220127  1
  Co  Co25  1  0.220127  0.779873  0.220127  1
  Co  Co26  1  0.220127  0.779873  0.779873  1
  Co  Co27  1  0.220127  0.220127  0.779873  1
  Co  Co28  1  0.779873  0.220127  0.779873  1
  Co  Co29  1  0.779873  0.220127  0.220127  1
