# generated using pymatgen
data_CsRb3I16
_symmetry_space_group_name_H-M   'P 1'
_cell_length_a   9.10830328
_cell_length_b   10.55485980
_cell_length_c   11.34891336
_cell_angle_alpha   67.25118805
_cell_angle_beta   90.62821135
_cell_angle_gamma   89.39161445
_symmetry_Int_Tables_number   1
_chemical_formula_structural   CsRb3I16
_chemical_formula_sum   'Cs1 Rb3 I16'
_cell_volume   1005.98406000
_cell_formula_units_Z   1
loop_
 _symmetry_equiv_pos_site_id
 _symmetry_equiv_pos_as_xyz
  1  'x, y, z'
loop_
 _atom_site_type_symbol
 _atom_site_label
 _atom_site_symmetry_multiplicity
 _atom_site_fract_x
 _atom_site_fract_y
 _atom_site_fract_z
 _atom_site_occupancy
  Cs  Cs0  1  0.875615  0.729543  0.195604  1
  Rb  Rb1  1  0.620331  0.735134  0.696745  1
  Rb  Rb2  1  0.121012  0.264702  0.803611  1
  Rb  Rb3  1  0.379585  0.264833  0.303682  1
  I  I4  1  0.354625  0.542036  0.516821  1
  I  I5  1  0.856710  0.455896  0.984826  1
  I  I6  1  0.642418  0.451821  0.490407  1
  I  I7  1  0.144828  0.542238  0.012073  1
  I  I8  1  0.027340  0.659265  0.559737  1
  I  I9  1  0.526692  0.338962  0.947334  1
  I  I10  1  0.975598  0.334479  0.449651  1
  I  I11  1  0.470239  0.659584  0.051528  1
  I  I12  1  0.206579  0.872298  0.610581  1
  I  I13  1  0.706920  0.128692  0.889341  1
  I  I14  1  0.793125  0.127811  0.393048  1
  I  I15  1  0.296774  0.875105  0.106908  1
  I  I16  1  0.392798  0.064597  0.663593  1
  I  I17  1  0.893843  0.943509  0.822951  1
  I  I18  1  0.601517  0.939522  0.338669  1
  I  I19  1  0.113450  0.069972  0.162891  1
