# generated using pymatgen
data_Er20CoBi8Ir3
_symmetry_space_group_name_H-M   'P 1'
_cell_length_a   7.92608019
_cell_length_b   8.94323500
_cell_length_c   12.39917664
_cell_angle_alpha   90.00000000
_cell_angle_beta   90.18574937
_cell_angle_gamma   90.00000000
_symmetry_Int_Tables_number   1
_chemical_formula_structural   Er20CoBi8Ir3
_chemical_formula_sum   'Er20 Co1 Bi8 Ir3'
_cell_volume   878.90851003
_cell_formula_units_Z   1
loop_
 _symmetry_equiv_pos_site_id
 _symmetry_equiv_pos_as_xyz
  1  'x, y, z'
loop_
 _atom_site_type_symbol
 _atom_site_label
 _atom_site_symmetry_multiplicity
 _atom_site_fract_x
 _atom_site_fract_y
 _atom_site_fract_z
 _atom_site_occupancy
  Er  Er0  1  0.657820  0.750000  0.699945  1
  Er  Er1  1  0.338380  0.250000  0.293032  1
  Er  Er2  1  0.161392  0.250000  0.793202  1
  Er  Er3  1  0.838898  0.750000  0.206708  1
  Er  Er4  1  0.123329  0.750000  0.808362  1
  Er  Er5  1  0.875121  0.250000  0.191233  1
  Er  Er6  1  0.624448  0.250000  0.691228  1
  Er  Er7  1  0.380487  0.750000  0.314566  1
  Er  Er8  1  0.556541  0.750000  0.997482  1
  Er  Er9  1  0.446457  0.250000  0.001157  1
  Er  Er10  1  0.055447  0.250000  0.501450  1
  Er  Er11  1  0.946737  0.750000  0.498529  1
  Er  Er12  1  0.825710  0.457098  0.932949  1
  Er  Er13  1  0.175332  0.542231  0.066894  1
  Er  Er14  1  0.325403  0.543796  0.565848  1
  Er  Er15  1  0.175332  0.957769  0.066894  1
  Er  Er16  1  0.672806  0.464341  0.435543  1
  Er  Er17  1  0.825710  0.042902  0.932949  1
  Er  Er18  1  0.672806  0.035659  0.435543  1
  Er  Er19  1  0.325403  0.956204  0.565848  1
  Co  Co20  1  0.567817  0.750000  0.492212  1
  Bi  Bi21  1  0.932715  0.008702  0.672126  1
  Bi  Bi22  1  0.066120  0.990884  0.327637  1
  Bi  Bi23  1  0.434117  0.990620  0.826506  1
  Bi  Bi24  1  0.066120  0.509116  0.327637  1
  Bi  Bi25  1  0.565571  0.007988  0.173579  1
  Bi  Bi26  1  0.932715  0.491298  0.672126  1
  Bi  Bi27  1  0.565571  0.492012  0.173579  1
  Bi  Bi28  1  0.434117  0.509380  0.826506  1
  Ir  Ir29  1  0.929479  0.750000  0.992042  1
  Ir  Ir30  1  0.072123  0.250000  0.008832  1
  Ir  Ir31  1  0.429975  0.250000  0.507854  1
