# generated using pymatgen
data_Ac3(Ag2Au)2
_symmetry_space_group_name_H-M   'P 1'
_cell_length_a   8.13231100
_cell_length_b   8.13231219
_cell_length_c   4.16721500
_cell_angle_alpha   90.00000000
_cell_angle_beta   90.00000000
_cell_angle_gamma   119.99999924
_symmetry_Int_Tables_number   1
_chemical_formula_structural   Ac3(Ag2Au)2
_chemical_formula_sum   'Ac3 Ag4 Au2'
_cell_volume   238.67369889
_cell_formula_units_Z   1
loop_
 _symmetry_equiv_pos_site_id
 _symmetry_equiv_pos_as_xyz
  1  'x, y, z'
loop_
 _atom_site_type_symbol
 _atom_site_label
 _atom_site_symmetry_multiplicity
 _atom_site_fract_x
 _atom_site_fract_y
 _atom_site_fract_z
 _atom_site_occupancy
  Ac  Ac0  1  0.599858  0.000000  0.000000  1
  Ac  Ac1  1  0.000000  0.599858  0.000000  1
  Ac  Ac2  1  0.400142  0.400142  0.000000  1
  Ag  Ag3  1  0.252771  0.000000  0.500000  1
  Ag  Ag4  1  0.000000  0.252771  0.500000  1
  Ag  Ag5  1  0.747229  0.747229  0.500000  1
  Ag  Ag6  1  0.000000  0.000000  0.000000  1
  Au  Au7  1  0.333333  0.666667  0.500000  1
  Au  Au8  1  0.666667  0.333333  0.500000  1
