# generated using pymatgen
data_SmHo3(Si4Tc3)2
_symmetry_space_group_name_H-M   'P 1'
_cell_length_a   6.79899201
_cell_length_b   6.80710485
_cell_length_c   6.78293851
_cell_angle_alpha   69.75778409
_cell_angle_beta   90.02500395
_cell_angle_gamma   89.23837533
_symmetry_Int_Tables_number   1
_chemical_formula_structural   SmHo3(Si4Tc3)2
_chemical_formula_sum   'Sm1 Ho3 Si8 Tc6'
_cell_volume   294.50549649
_cell_formula_units_Z   1
loop_
 _symmetry_equiv_pos_site_id
 _symmetry_equiv_pos_as_xyz
  1  'x, y, z'
loop_
 _atom_site_type_symbol
 _atom_site_label
 _atom_site_symmetry_multiplicity
 _atom_site_fract_x
 _atom_site_fract_y
 _atom_site_fract_z
 _atom_site_occupancy
  Sm  Sm0  1  0.665362  0.444183  0.189280  1
  Ho  Ho1  1  0.168250  0.057162  0.808673  1
  Ho  Ho2  1  0.331531  0.555849  0.809209  1
  Ho  Ho3  1  0.832427  0.941039  0.192610  1
  Si  Si4  1  0.449421  0.122418  0.099635  1
  Si  Si5  1  0.946823  0.379607  0.892497  1
  Si  Si6  1  0.550337  0.878131  0.896227  1
  Si  Si7  1  0.056244  0.619805  0.105451  1
  Si  Si8  1  0.859912  0.130919  0.511452  1
  Si  Si9  1  0.354282  0.369940  0.484995  1
  Si  Si10  1  0.141151  0.867691  0.490594  1
  Si  Si11  1  0.643621  0.632062  0.519999  1
  Tc  Tc12  1  0.499055  0.997387  0.501342  1
  Tc  Tc13  1  0.000870  0.499739  0.500988  1
  Tc  Tc14  1  0.150090  0.236528  0.238143  1
  Tc  Tc15  1  0.649594  0.253593  0.755613  1
  Tc  Tc16  1  0.853966  0.764247  0.761882  1
  Tc  Tc17  1  0.347064  0.749701  0.241409  1
