# generated using pymatgen
data_MoSO4F
_symmetry_space_group_name_H-M   'P 1'
_cell_length_a   5.41705456
_cell_length_b   5.39441168
_cell_length_c   7.74932828
_cell_angle_alpha   70.56954406
_cell_angle_beta   68.78465920
_cell_angle_gamma   86.59331263
_symmetry_Int_Tables_number   1
_chemical_formula_structural   MoSO4F
_chemical_formula_sum   'Mo2 S2 O8 F2'
_cell_volume   198.60002436
_cell_formula_units_Z   2
loop_
 _symmetry_equiv_pos_site_id
 _symmetry_equiv_pos_as_xyz
  1  'x, y, z'
loop_
 _atom_site_type_symbol
 _atom_site_label
 _atom_site_symmetry_multiplicity
 _atom_site_fract_x
 _atom_site_fract_y
 _atom_site_fract_z
 _atom_site_occupancy
  Mo  Mo0  1  0.000000  0.500000  0.500000  1
  Mo  Mo1  1  0.000000  0.000000  0.000000  1
  S  S2  1  0.634348  0.919277  0.739659  1
  S  S3  1  0.365652  0.080723  0.260341  1
  O  O4  1  0.742672  0.787654  0.590267  1
  O  O5  1  0.257328  0.212346  0.409733  1
  O  O6  1  0.668840  0.210370  0.641299  1
  O  O7  1  0.331160  0.789630  0.358701  1
  O  O8  1  0.346392  0.840583  0.839081  1
  O  O9  1  0.653608  0.159417  0.160919  1
  O  O10  1  0.767937  0.832879  0.885593  1
  O  O11  1  0.232063  0.167121  0.114407  1
  F  F12  1  0.928559  0.643188  0.235895  1
  F  F13  1  0.071441  0.356812  0.764105  1
