# generated using pymatgen
data_Ti13Ga9Fe7Pd
_symmetry_space_group_name_H-M   'P 1'
_cell_length_a   8.52718817
_cell_length_b   8.52718750
_cell_length_c   8.48905400
_cell_angle_alpha   59.93322014
_cell_angle_beta   59.93323053
_cell_angle_gamma   59.65043246
_symmetry_Int_Tables_number   1
_chemical_formula_structural   Ti13Ga9Fe7Pd
_chemical_formula_sum   'Ti13 Ga9 Fe7 Pd1'
_cell_volume   434.86925054
_cell_formula_units_Z   1
loop_
 _symmetry_equiv_pos_site_id
 _symmetry_equiv_pos_as_xyz
  1  'x, y, z'
loop_
 _atom_site_type_symbol
 _atom_site_label
 _atom_site_symmetry_multiplicity
 _atom_site_fract_x
 _atom_site_fract_y
 _atom_site_fract_z
 _atom_site_occupancy
  Ti  Ti0  1  0.211812  0.211812  0.796156  1
  Ti  Ti1  1  0.791045  0.214823  0.206655  1
  Ti  Ti2  1  0.214823  0.791045  0.206655  1
  Ti  Ti3  1  0.805683  0.805683  0.171042  1
  Ti  Ti4  1  0.181390  0.797202  0.805405  1
  Ti  Ti5  1  0.797202  0.181390  0.805405  1
  Ti  Ti6  1  0.379930  0.379930  0.377926  1
  Ti  Ti7  1  0.393321  0.859452  0.376810  1
  Ti  Ti8  1  0.859452  0.393321  0.376810  1
  Ti  Ti9  1  0.381965  0.381965  0.863985  1
  Ti  Ti10  1  0.840427  0.473969  0.838844  1
  Ti  Ti11  1  0.473969  0.840427  0.838844  1
  Ti  Ti12  1  0.836143  0.836143  0.470452  1
  Ga  Ga13  1  0.159821  0.159821  0.149417  1
  Ga  Ga14  1  0.159895  0.527275  0.159815  1
  Ga  Ga15  1  0.527275  0.159895  0.159815  1
  Ga  Ga16  1  0.160770  0.160770  0.539577  1
  Ga  Ga17  1  0.615261  0.615261  0.621952  1
  Ga  Ga18  1  0.608754  0.148962  0.619349  1
  Ga  Ga19  1  0.148962  0.608754  0.619349  1
  Ga  Ga20  1  0.615207  0.615207  0.147748  1
  Ga  Ga21  1  0.823859  0.823859  0.835471  1
  Fe  Fe22  1  0.497014  0.001393  0.005324  1
  Fe  Fe23  1  0.001393  0.497014  0.005324  1
  Fe  Fe24  1  0.501626  0.501626  0.000757  1
  Fe  Fe25  1  0.997789  0.504547  0.500096  1
  Fe  Fe26  1  0.504547  0.997789  0.500096  1
  Fe  Fe27  1  0.500135  0.500135  0.500513  1
  Fe  Fe28  1  0.006954  0.006954  0.002303  1
  Pd  Pd29  1  0.003575  0.003575  0.498106  1
