# generated using pymatgen
data_LiLu9Cd3Os
_symmetry_space_group_name_H-M   'P 1'
_cell_length_a   9.25555800
_cell_length_b   9.25555719
_cell_length_c   9.53395100
_cell_angle_alpha   90.00000000
_cell_angle_beta   90.00000000
_cell_angle_gamma   119.99999574
_symmetry_Int_Tables_number   1
_chemical_formula_structural   LiLu9Cd3Os
_chemical_formula_sum   'Li2 Lu18 Cd6 Os2'
_cell_volume   707.30827878
_cell_formula_units_Z   2
loop_
 _symmetry_equiv_pos_site_id
 _symmetry_equiv_pos_as_xyz
  1  'x, y, z'
loop_
 _atom_site_type_symbol
 _atom_site_label
 _atom_site_symmetry_multiplicity
 _atom_site_fract_x
 _atom_site_fract_y
 _atom_site_fract_z
 _atom_site_occupancy
  Li  Li0  1  0.000000  0.000000  0.500000  1
  Li  Li1  1  0.000000  0.000000  0.000000  1
  Lu  Lu2  1  0.540676  0.459324  0.250000  1
  Lu  Lu3  1  0.540676  0.081352  0.250000  1
  Lu  Lu4  1  0.918648  0.459324  0.250000  1
  Lu  Lu5  1  0.459324  0.540676  0.750000  1
  Lu  Lu6  1  0.459324  0.918648  0.750000  1
  Lu  Lu7  1  0.081352  0.540676  0.750000  1
  Lu  Lu8  1  0.207920  0.792080  0.442552  1
  Lu  Lu9  1  0.207920  0.415841  0.442552  1
  Lu  Lu10  1  0.584159  0.792080  0.442552  1
  Lu  Lu11  1  0.792080  0.207920  0.557448  1
  Lu  Lu12  1  0.792080  0.584159  0.557448  1
  Lu  Lu13  1  0.415841  0.207920  0.557448  1
  Lu  Lu14  1  0.792080  0.207920  0.942552  1
  Lu  Lu15  1  0.792080  0.584159  0.942552  1
  Lu  Lu16  1  0.415841  0.207920  0.942552  1
  Lu  Lu17  1  0.207920  0.792080  0.057448  1
  Lu  Lu18  1  0.207920  0.415841  0.057448  1
  Lu  Lu19  1  0.584159  0.792080  0.057448  1
  Cd  Cd20  1  0.891872  0.108128  0.250000  1
  Cd  Cd21  1  0.891872  0.783744  0.250000  1
  Cd  Cd22  1  0.216256  0.108128  0.250000  1
  Cd  Cd23  1  0.108128  0.891872  0.750000  1
  Cd  Cd24  1  0.108128  0.216256  0.750000  1
  Cd  Cd25  1  0.783744  0.891872  0.750000  1
  Os  Os26  1  0.333333  0.666667  0.250000  1
  Os  Os27  1  0.666667  0.333333  0.750000  1
