# generated using pymatgen
data_TbTm6Co6Sn23
_symmetry_space_group_name_H-M   'P 1'
_cell_length_a   9.69007900
_cell_length_b   9.69007875
_cell_length_c   9.97139700
_cell_angle_alpha   90.00000000
_cell_angle_beta   90.00000000
_cell_angle_gamma   120.00000427
_symmetry_Int_Tables_number   1
_chemical_formula_structural   TbTm6Co6Sn23
_chemical_formula_sum   'Tb1 Tm6 Co6 Sn23'
_cell_volume   810.85135118
_cell_formula_units_Z   1
loop_
 _symmetry_equiv_pos_site_id
 _symmetry_equiv_pos_as_xyz
  1  'x, y, z'
loop_
 _atom_site_type_symbol
 _atom_site_label
 _atom_site_symmetry_multiplicity
 _atom_site_fract_x
 _atom_site_fract_y
 _atom_site_fract_z
 _atom_site_occupancy
  Tb  Tb0  1  0.000000  0.000000  0.000000  1
  Tm  Tm1  1  0.479297  0.520703  0.305824  1
  Tm  Tm2  1  0.520703  0.479297  0.694176  1
  Tm  Tm3  1  0.479297  0.958595  0.305824  1
  Tm  Tm4  1  0.520703  0.041405  0.694176  1
  Tm  Tm5  1  0.041405  0.520703  0.305824  1
  Tm  Tm6  1  0.958595  0.479297  0.694176  1
  Co  Co7  1  0.831959  0.168041  0.197656  1
  Co  Co8  1  0.168041  0.831959  0.802344  1
  Co  Co9  1  0.831959  0.663918  0.197656  1
  Co  Co10  1  0.168041  0.336082  0.802344  1
  Co  Co11  1  0.336082  0.168041  0.197656  1
  Co  Co12  1  0.663918  0.831959  0.802344  1
  Sn  Sn13  1  0.346203  0.000000  0.000000  1
  Sn  Sn14  1  0.653797  0.000000  0.000000  1
  Sn  Sn15  1  0.000000  0.346203  0.000000  1
  Sn  Sn16  1  0.000000  0.653797  0.000000  1
  Sn  Sn17  1  0.653797  0.653797  0.000000  1
  Sn  Sn18  1  0.346203  0.346203  0.000000  1
  Sn  Sn19  1  0.333333  0.666667  0.817379  1
  Sn  Sn20  1  0.666667  0.333333  0.182621  1
  Sn  Sn21  1  0.000000  0.000000  0.500000  1
  Sn  Sn22  1  0.780733  0.219267  0.452132  1
  Sn  Sn23  1  0.219267  0.780733  0.547868  1
  Sn  Sn24  1  0.780733  0.561466  0.452132  1
  Sn  Sn25  1  0.219267  0.438534  0.547868  1
  Sn  Sn26  1  0.438534  0.219267  0.452132  1
  Sn  Sn27  1  0.561466  0.780733  0.547868  1
  Sn  Sn28  1  0.333333  0.666667  0.119932  1
  Sn  Sn29  1  0.666667  0.333333  0.880068  1
  Sn  Sn30  1  0.118736  0.881264  0.275173  1
  Sn  Sn31  1  0.881264  0.118736  0.724827  1
  Sn  Sn32  1  0.118736  0.237474  0.275173  1
  Sn  Sn33  1  0.881264  0.762526  0.724827  1
  Sn  Sn34  1  0.762526  0.881264  0.275173  1
  Sn  Sn35  1  0.237474  0.118736  0.724827  1
