# generated using pymatgen
data_Zr4CoTc
_symmetry_space_group_name_H-M   'P 1'
_cell_length_a   8.71647048
_cell_length_b   8.71647000
_cell_length_c   8.71647000
_cell_angle_alpha   59.99999998
_cell_angle_beta   60.00000180
_cell_angle_gamma   60.00000157
_symmetry_Int_Tables_number   1
_chemical_formula_structural   Zr4CoTc
_chemical_formula_sum   'Zr16 Co4 Tc4'
_cell_volume   468.28145156
_cell_formula_units_Z   4
loop_
 _symmetry_equiv_pos_site_id
 _symmetry_equiv_pos_as_xyz
  1  'x, y, z'
loop_
 _atom_site_type_symbol
 _atom_site_label
 _atom_site_symmetry_multiplicity
 _atom_site_fract_x
 _atom_site_fract_y
 _atom_site_fract_z
 _atom_site_occupancy
  Zr  Zr0  1  0.052230  0.649257  0.649257  1
  Zr  Zr1  1  0.649257  0.052230  0.649257  1
  Zr  Zr2  1  0.649257  0.649257  0.052230  1
  Zr  Zr3  1  0.649257  0.649257  0.649257  1
  Zr  Zr4  1  0.797664  0.797664  0.202336  1
  Zr  Zr5  1  0.202336  0.202336  0.797664  1
  Zr  Zr6  1  0.797664  0.202336  0.797664  1
  Zr  Zr7  1  0.202336  0.797664  0.202336  1
  Zr  Zr8  1  0.202336  0.797664  0.797664  1
  Zr  Zr9  1  0.797664  0.202336  0.202336  1
  Zr  Zr10  1  0.435529  0.435529  0.064471  1
  Zr  Zr11  1  0.064471  0.064471  0.435529  1
  Zr  Zr12  1  0.435529  0.064471  0.435529  1
  Zr  Zr13  1  0.064471  0.435529  0.064471  1
  Zr  Zr14  1  0.064471  0.435529  0.435529  1
  Zr  Zr15  1  0.435529  0.064471  0.064471  1
  Co  Co16  1  0.420911  0.859696  0.859696  1
  Co  Co17  1  0.859696  0.420911  0.859696  1
  Co  Co18  1  0.859696  0.859696  0.420911  1
  Co  Co19  1  0.859696  0.859696  0.859696  1
  Tc  Tc20  1  0.746510  0.417830  0.417830  1
  Tc  Tc21  1  0.417830  0.746510  0.417830  1
  Tc  Tc22  1  0.417830  0.417830  0.746510  1
  Tc  Tc23  1  0.417830  0.417830  0.417830  1
