# generated using pymatgen
data_Pr6NiBr10
_symmetry_space_group_name_H-M   'P 1'
_cell_length_a   7.64396633
_cell_length_b   9.54224406
_cell_length_c   9.54492682
_cell_angle_alpha   109.01360777
_cell_angle_beta   97.24348611
_cell_angle_gamma   106.43827021
_symmetry_Int_Tables_number   1
_chemical_formula_structural   Pr6NiBr10
_chemical_formula_sum   'Pr6 Ni1 Br10'
_cell_volume   612.75958976
_cell_formula_units_Z   1
loop_
 _symmetry_equiv_pos_site_id
 _symmetry_equiv_pos_as_xyz
  1  'x, y, z'
loop_
 _atom_site_type_symbol
 _atom_site_label
 _atom_site_symmetry_multiplicity
 _atom_site_fract_x
 _atom_site_fract_y
 _atom_site_fract_z
 _atom_site_occupancy
  Pr  Pr0  1  0.866131  0.140505  0.682995  1
  Pr  Pr1  1  0.525691  0.698100  0.403293  1
  Pr  Pr2  1  0.474309  0.301900  0.596707  1
  Pr  Pr3  1  0.133869  0.859495  0.317005  1
  Pr  Pr4  1  0.624300  0.043695  0.251711  1
  Pr  Pr5  1  0.375700  0.956305  0.748289  1
  Ni  Ni6  1  0.500000  0.000000  0.500000  1
  Br  Br7  1  0.412597  0.633651  0.674625  1
  Br  Br8  1  0.759951  0.085772  0.958392  1
  Br  Br9  1  0.240049  0.914228  0.041608  1
  Br  Br10  1  0.950899  0.822884  0.583870  1
  Br  Br11  1  0.297958  0.262978  0.853995  1
  Br  Br12  1  0.702042  0.737022  0.146005  1
  Br  Br13  1  0.049101  0.177116  0.416130  1
  Br  Br14  1  0.587403  0.366349  0.325375  1
  Br  Br15  1  0.863941  0.462895  0.775132  1
  Br  Br16  1  0.136059  0.537105  0.224868  1
