# generated using pymatgen
data_HfMn4CrP3
_symmetry_space_group_name_H-M   'P 1'
_cell_length_a   3.52707500
_cell_length_b   10.40851200
_cell_length_c   11.90767200
_cell_angle_alpha   90.00000000
_cell_angle_beta   90.00000000
_cell_angle_gamma   90.00000000
_symmetry_Int_Tables_number   1
_chemical_formula_structural   HfMn4CrP3
_chemical_formula_sum   'Hf4 Mn16 Cr4 P12'
_cell_volume   437.14972072
_cell_formula_units_Z   4
loop_
 _symmetry_equiv_pos_site_id
 _symmetry_equiv_pos_as_xyz
  1  'x, y, z'
loop_
 _atom_site_type_symbol
 _atom_site_label
 _atom_site_symmetry_multiplicity
 _atom_site_fract_x
 _atom_site_fract_y
 _atom_site_fract_z
 _atom_site_occupancy
  Hf  Hf0  1  0.250000  0.584627  0.704928  1
  Hf  Hf1  1  0.250000  0.915373  0.204928  1
  Hf  Hf2  1  0.750000  0.415373  0.295072  1
  Hf  Hf3  1  0.750000  0.084627  0.795072  1
  Mn  Mn4  1  0.250000  0.410685  0.492582  1
  Mn  Mn5  1  0.250000  0.089315  0.992582  1
  Mn  Mn6  1  0.750000  0.589315  0.507418  1
  Mn  Mn7  1  0.750000  0.910685  0.007418  1
  Mn  Mn8  1  0.250000  0.213864  0.182291  1
  Mn  Mn9  1  0.250000  0.286136  0.682291  1
  Mn  Mn10  1  0.750000  0.786136  0.817709  1
  Mn  Mn11  1  0.750000  0.713864  0.317709  1
  Mn  Mn12  1  0.250000  0.882457  0.694882  1
  Mn  Mn13  1  0.250000  0.617543  0.194882  1
  Mn  Mn14  1  0.750000  0.117543  0.305118  1
  Mn  Mn15  1  0.750000  0.382457  0.805118  1
  Mn  Mn16  1  0.250000  0.465292  0.933019  1
  Mn  Mn17  1  0.250000  0.034708  0.433019  1
  Mn  Mn18  1  0.750000  0.534708  0.066981  1
  Mn  Mn19  1  0.750000  0.965292  0.566981  1
  Cr  Cr20  1  0.250000  0.710503  0.985126  1
  Cr  Cr21  1  0.250000  0.789497  0.485126  1
  Cr  Cr22  1  0.750000  0.289497  0.014874  1
  Cr  Cr23  1  0.750000  0.210503  0.514874  1
  P  P24  1  0.250000  0.411430  0.118435  1
  P  P25  1  0.250000  0.088570  0.618435  1
  P  P26  1  0.750000  0.588570  0.881565  1
  P  P27  1  0.750000  0.911430  0.381565  1
  P  P28  1  0.250000  0.259243  0.875060  1
  P  P29  1  0.250000  0.240757  0.375060  1
  P  P30  1  0.750000  0.740757  0.124940  1
  P  P31  1  0.750000  0.759243  0.624940  1
  P  P32  1  0.250000  0.591408  0.384315  1
  P  P33  1  0.250000  0.908592  0.884315  1
  P  P34  1  0.750000  0.408592  0.615685  1
  P  P35  1  0.750000  0.091408  0.115685  1
