# generated using pymatgen
data_Zr6Zn18PIr5
_symmetry_space_group_name_H-M   'P 1'
_cell_length_a   8.72706070
_cell_length_b   8.72706003
_cell_length_c   8.72705980
_cell_angle_alpha   60.09910470
_cell_angle_beta   60.09910757
_cell_angle_gamma   60.09911084
_symmetry_Int_Tables_number   1
_chemical_formula_structural   Zr6Zn18PIr5
_chemical_formula_sum   'Zr6 Zn18 P1 Ir5'
_cell_volume   471.04573656
_cell_formula_units_Z   1
loop_
 _symmetry_equiv_pos_site_id
 _symmetry_equiv_pos_as_xyz
  1  'x, y, z'
loop_
 _atom_site_type_symbol
 _atom_site_label
 _atom_site_symmetry_multiplicity
 _atom_site_fract_x
 _atom_site_fract_y
 _atom_site_fract_z
 _atom_site_occupancy
  Zr  Zr0  1  0.708199  0.287815  0.287815  1
  Zr  Zr1  1  0.291801  0.712185  0.712185  1
  Zr  Zr2  1  0.287815  0.708199  0.287815  1
  Zr  Zr3  1  0.712185  0.291801  0.712185  1
  Zr  Zr4  1  0.287815  0.287815  0.708199  1
  Zr  Zr5  1  0.712185  0.712185  0.291801  1
  Zn  Zn6  1  0.121077  0.121077  0.632842  1
  Zn  Zn7  1  0.121077  0.632842  0.121077  1
  Zn  Zn8  1  0.878923  0.878923  0.367158  1
  Zn  Zn9  1  0.878923  0.367158  0.878923  1
  Zn  Zn10  1  0.632842  0.121077  0.121077  1
  Zn  Zn11  1  0.367158  0.878923  0.878923  1
  Zn  Zn12  1  0.500000  0.000000  0.000000  1
  Zn  Zn13  1  0.000000  0.500000  0.000000  1
  Zn  Zn14  1  0.000000  0.000000  0.500000  1
  Zn  Zn15  1  0.335387  0.335387  0.335387  1
  Zn  Zn16  1  0.664613  0.664613  0.664613  1
  Zn  Zn17  1  0.331100  0.331100  0.996831  1
  Zn  Zn18  1  0.331100  0.996831  0.331100  1
  Zn  Zn19  1  0.668900  0.668900  0.003169  1
  Zn  Zn20  1  0.668900  0.003169  0.668900  1
  Zn  Zn21  1  0.996831  0.331100  0.331100  1
  Zn  Zn22  1  0.003169  0.668900  0.668900  1
  Zn  Zn23  1  0.000000  0.000000  0.000000  1
  P  P24  1  0.500000  0.500000  0.500000  1
  Ir  Ir25  1  0.119011  0.119011  0.119011  1
  Ir  Ir26  1  0.880989  0.880989  0.880989  1
  Ir  Ir27  1  0.000000  0.500000  0.500000  1
  Ir  Ir28  1  0.500000  0.000000  0.500000  1
  Ir  Ir29  1  0.500000  0.500000  0.000000  1
