# generated using pymatgen
data_MgTa4(Re3Tc)6
_symmetry_space_group_name_H-M   'P 1'
_cell_length_a   8.40446516
_cell_length_b   8.41022679
_cell_length_c   8.41022800
_cell_angle_alpha   109.54395159
_cell_angle_beta   109.47189030
_cell_angle_gamma   109.42557551
_symmetry_Int_Tables_number   1
_chemical_formula_structural   MgTa4(Re3Tc)6
_chemical_formula_sum   'Mg1 Ta4 Re18 Tc6'
_cell_volume   457.46140722
_cell_formula_units_Z   1
loop_
 _symmetry_equiv_pos_site_id
 _symmetry_equiv_pos_as_xyz
  1  'x, y, z'
loop_
 _atom_site_type_symbol
 _atom_site_label
 _atom_site_symmetry_multiplicity
 _atom_site_fract_x
 _atom_site_fract_y
 _atom_site_fract_z
 _atom_site_occupancy
  Mg  Mg0  1  0.000000  0.999851  0.999851  1
  Ta  Ta1  1  0.366656  0.367216  0.366569  1
  Ta  Ta2  1  0.001056  0.633301  0.000066  1
  Ta  Ta3  1  0.633344  0.999914  0.000559  1
  Ta  Ta4  1  0.998944  0.999010  0.632244  1
  Re  Re5  1  0.602026  0.602458  0.281306  1
  Re  Re6  1  0.806580  0.806885  0.180529  1
  Re  Re7  1  0.374412  0.193162  0.000087  1
  Re  Re8  1  0.193420  0.373950  0.000306  1
  Re  Re9  1  0.623833  0.817709  0.624318  1
  Re  Re10  1  0.376167  0.000486  0.193876  1
  Re  Re11  1  0.000128  0.375840  0.194846  1
  Re  Re12  1  0.818777  0.624040  0.624013  1
  Re  Re13  1  0.181223  0.805238  0.805264  1
  Re  Re14  1  0.805083  0.179571  0.805936  1
  Re  Re15  1  0.194917  0.000853  0.374487  1
  Re  Re16  1  0.999872  0.194718  0.375711  1
  Re  Re17  1  0.625588  0.625676  0.818750  1
  Re  Re18  1  0.398106  0.999472  0.679168  1
  Re  Re19  1  0.601894  0.281063  0.601366  1
  Re  Re20  1  0.680477  0.399564  0.001435  1
  Re  Re21  1  0.397974  0.679279  0.000433  1
  Re  Re22  1  0.319523  0.320957  0.719086  1
  Tc  Tc23  1  0.999473  0.398363  0.681448  1
  Tc  Tc24  1  0.281688  0.601058  0.600739  1
  Tc  Tc25  1  0.718312  0.319051  0.319371  1
  Tc  Tc26  1  0.318870  0.718213  0.319998  1
  Tc  Tc27  1  0.681130  0.001125  0.399344  1
  Tc  Tc28  1  0.000527  0.681976  0.398891  1
