# generated using pymatgen
data_Dy8Y2Si16Ge
_symmetry_space_group_name_H-M   'P 1'
_cell_length_a   11.03931664
_cell_length_b   11.02680418
_cell_length_c   11.03960107
_cell_angle_alpha   144.75969762
_cell_angle_beta   135.77904447
_cell_angle_gamma   57.78607622
_symmetry_Int_Tables_number   1
_chemical_formula_structural   Dy8Y2Si16Ge
_chemical_formula_sum   'Dy8 Y2 Si16 Ge1'
_cell_volume   536.20994541
_cell_formula_units_Z   1
loop_
 _symmetry_equiv_pos_site_id
 _symmetry_equiv_pos_as_xyz
  1  'x, y, z'
loop_
 _atom_site_type_symbol
 _atom_site_label
 _atom_site_symmetry_multiplicity
 _atom_site_fract_x
 _atom_site_fract_y
 _atom_site_fract_z
 _atom_site_occupancy
  Dy  Dy0  1  0.848344  0.367496  0.016121  1
  Dy  Dy1  1  0.950526  0.963843  0.515178  1
  Dy  Dy2  1  0.151567  0.166892  0.519375  1
  Dy  Dy3  1  0.351345  0.367460  0.519145  1
  Dy  Dy4  1  0.244176  0.759771  0.004362  1
  Dy  Dy5  1  0.548621  0.561865  0.509036  1
  Dy  Dy6  1  0.052822  0.561865  0.013239  1
  Dy  Dy7  1  0.647514  0.166889  0.015318  1
  Y  Y8  1  0.755436  0.759798  0.515621  1
  Y  Y9  1  0.448636  0.963850  0.013326  1
  Si  Si10  1  0.199411  0.577548  0.378082  1
  Si  Si11  1  0.000227  0.081619  0.081497  1
  Si  Si12  1  0.699021  0.290111  0.591197  1
  Si  Si13  1  0.800778  0.180334  0.379639  1
  Si  Si14  1  0.895736  0.504806  0.609148  1
  Si  Si15  1  0.417642  0.872555  0.454810  1
  Si  Si16  1  0.104348  0.713156  0.608803  1
  Si  Si17  1  0.300743  0.896418  0.595589  1
  Si  Si18  1  0.581401  0.037902  0.456429  1
  Si  Si19  1  0.999909  0.430822  0.431013  1
  Si  Si20  1  0.880559  0.843115  0.962582  1
  Si  Si21  1  0.399773  0.500435  0.100580  1
  Si  Si22  1  0.120287  0.084835  0.964466  1
  Si  Si23  1  0.285545  0.241071  0.955435  1
  Si  Si24  1  0.499585  0.387645  0.888020  1
  Si  Si25  1  0.598658  0.701574  0.102905  1
  Ge  Ge26  1  0.717391  0.677824  0.960584  1
