# generated using pymatgen
data_PrY15(ScBi3)4
_symmetry_space_group_name_H-M   'P 1'
_cell_length_a   8.17122101
_cell_length_b   9.45481400
_cell_length_c   12.03669202
_cell_angle_alpha   90.00000000
_cell_angle_beta   89.99410850
_cell_angle_gamma   90.00000000
_symmetry_Int_Tables_number   1
_chemical_formula_structural   PrY15(ScBi3)4
_chemical_formula_sum   'Pr1 Y15 Sc4 Bi12'
_cell_volume   929.92322163
_cell_formula_units_Z   1
loop_
 _symmetry_equiv_pos_site_id
 _symmetry_equiv_pos_as_xyz
  1  'x, y, z'
loop_
 _atom_site_type_symbol
 _atom_site_label
 _atom_site_symmetry_multiplicity
 _atom_site_fract_x
 _atom_site_fract_y
 _atom_site_fract_z
 _atom_site_occupancy
  Pr  Pr0  1  0.183763  0.750000  0.721534  1
  Y  Y1  1  0.685083  0.750000  0.779327  1
  Y  Y2  1  0.814794  0.250000  0.279692  1
  Y  Y3  1  0.314723  0.250000  0.220537  1
  Y  Y4  1  0.303169  0.436646  0.941428  1
  Y  Y5  1  0.804081  0.063407  0.558937  1
  Y  Y6  1  0.697232  0.936753  0.059292  1
  Y  Y7  1  0.196713  0.563437  0.440610  1
  Y  Y8  1  0.697232  0.563247  0.059292  1
  Y  Y9  1  0.196713  0.936563  0.440610  1
  Y  Y10  1  0.303169  0.063354  0.941428  1
  Y  Y11  1  0.804081  0.436593  0.558937  1
  Y  Y12  1  0.355197  0.750000  0.215565  1
  Y  Y13  1  0.854344  0.750000  0.284306  1
  Y  Y14  1  0.645405  0.250000  0.785236  1
  Y  Y15  1  0.145366  0.250000  0.715026  1
  Sc  Sc16  1  0.025851  0.750000  0.988070  1
  Sc  Sc17  1  0.525864  0.750000  0.511361  1
  Sc  Sc18  1  0.973333  0.250000  0.012233  1
  Sc  Sc19  1  0.474256  0.250000  0.487709  1
  Bi  Bi20  1  0.437534  0.006833  0.667354  1
  Bi  Bi21  1  0.932128  0.494030  0.832734  1
  Bi  Bi22  1  0.565567  0.503578  0.331586  1
  Bi  Bi23  1  0.065778  0.996374  0.168112  1
  Bi  Bi24  1  0.565567  0.996422  0.331586  1
  Bi  Bi25  1  0.065778  0.503626  0.168112  1
  Bi  Bi26  1  0.437534  0.493167  0.667354  1
  Bi  Bi27  1  0.932128  0.005970  0.832734  1
  Bi  Bi28  1  0.407181  0.750000  0.959684  1
  Bi  Bi29  1  0.900523  0.750000  0.539469  1
  Bi  Bi30  1  0.594836  0.250000  0.042215  1
  Bi  Bi31  1  0.095079  0.250000  0.457929  1
