# generated using pymatgen
data_Cd5InAg18
_symmetry_space_group_name_H-M   'P 1'
_cell_length_a   5.94385500
_cell_length_b   14.61499033
_cell_length_c   5.19486875
_cell_angle_alpha   89.68914984
_cell_angle_beta   90.00000000
_cell_angle_gamma   90.00000000
_symmetry_Int_Tables_number   1
_chemical_formula_structural   Cd5InAg18
_chemical_formula_sum   'Cd5 In1 Ag18'
_cell_volume   451.26840378
_cell_formula_units_Z   1
loop_
 _symmetry_equiv_pos_site_id
 _symmetry_equiv_pos_as_xyz
  1  'x, y, z'
loop_
 _atom_site_type_symbol
 _atom_site_label
 _atom_site_symmetry_multiplicity
 _atom_site_fract_x
 _atom_site_fract_y
 _atom_site_fract_z
 _atom_site_occupancy
  Cd  Cd0  1  0.000000  0.999755  0.006335  1
  Cd  Cd1  1  0.500000  0.165683  0.335293  1
  Cd  Cd2  1  0.500000  0.834914  0.335316  1
  Cd  Cd3  1  0.000000  0.334639  0.663655  1
  Cd  Cd4  1  0.500000  0.499524  0.993606  1
  In  In5  1  0.000000  0.665488  0.664599  1
  Ag  Ag6  1  0.500000  0.000035  0.007156  1
  Ag  Ag7  1  0.251156  0.332235  0.163644  1
  Ag  Ag8  1  0.748844  0.332235  0.163644  1
  Ag  Ag9  1  0.251698  0.667949  0.164479  1
  Ag  Ag10  1  0.748302  0.667949  0.164479  1
  Ag  Ag11  1  0.000000  0.166124  0.337449  1
  Ag  Ag12  1  0.000000  0.834327  0.337747  1
  Ag  Ag13  1  0.250262  0.499756  0.488165  1
  Ag  Ag14  1  0.749737  0.499756  0.488165  1
  Ag  Ag15  1  0.250276  0.999921  0.511330  1
  Ag  Ag16  1  0.749724  0.999921  0.511330  1
  Ag  Ag17  1  0.500000  0.333762  0.662267  1
  Ag  Ag18  1  0.500000  0.665924  0.662984  1
  Ag  Ag19  1  0.249211  0.168053  0.836606  1
  Ag  Ag20  1  0.750788  0.168053  0.836606  1
  Ag  Ag21  1  0.249760  0.832271  0.836435  1
  Ag  Ag22  1  0.750239  0.832271  0.836435  1
  Ag  Ag23  1  0.000000  0.499450  0.992297  1
