# generated using pymatgen
data_Tb6Nd2Cd2CoNi
_symmetry_space_group_name_H-M   'P 1'
_cell_length_a   9.64963898
_cell_length_b   9.63804223
_cell_length_c   9.64725793
_cell_angle_alpha   60.03485231
_cell_angle_beta   59.91591035
_cell_angle_gamma   59.93272161
_symmetry_Int_Tables_number   1
_chemical_formula_structural   Tb6Nd2Cd2CoNi
_chemical_formula_sum   'Tb12 Nd4 Cd4 Co2 Ni2'
_cell_volume   633.87700459
_cell_formula_units_Z   2
loop_
 _symmetry_equiv_pos_site_id
 _symmetry_equiv_pos_as_xyz
  1  'x, y, z'
loop_
 _atom_site_type_symbol
 _atom_site_label
 _atom_site_symmetry_multiplicity
 _atom_site_fract_x
 _atom_site_fract_y
 _atom_site_fract_z
 _atom_site_occupancy
  Tb  Tb0  1  0.595357  0.595782  0.600775  1
  Tb  Tb1  1  0.596197  0.595668  0.207467  1
  Tb  Tb2  1  0.594021  0.211251  0.597217  1
  Tb  Tb3  1  0.211460  0.594063  0.597888  1
  Tb  Tb4  1  0.065734  0.437560  0.438068  1
  Tb  Tb5  1  0.437553  0.066443  0.058030  1
  Tb  Tb6  1  0.437558  0.065786  0.437921  1
  Tb  Tb7  1  0.066145  0.437530  0.058438  1
  Tb  Tb8  1  0.437514  0.437560  0.062151  1
  Tb  Tb9  1  0.061823  0.061801  0.438197  1
  Tb  Tb10  1  0.190313  0.807829  0.810316  1
  Tb  Tb11  1  0.807565  0.190484  0.191878  1
  Nd  Nd12  1  0.811119  0.187154  0.813651  1
  Nd  Nd13  1  0.187079  0.811095  0.188299  1
  Nd  Nd14  1  0.811426  0.811539  0.188511  1
  Nd  Nd15  1  0.187091  0.187315  0.812827  1
  Cd  Cd16  1  0.831556  0.828754  0.829072  1
  Cd  Cd17  1  0.828869  0.831489  0.510719  1
  Cd  Cd18  1  0.829200  0.509735  0.832006  1
  Cd  Cd19  1  0.509768  0.829241  0.829363  1
  Co  Co20  1  0.394324  0.391191  0.389518  1
  Co  Co21  1  0.391078  0.394413  0.824942  1
  Ni  Ni22  1  0.391963  0.825018  0.392800  1
  Ni  Ni23  1  0.825288  0.391301  0.389942  1
