# generated using pymatgen
data_NdTlGeS4
_symmetry_space_group_name_H-M   'P 1'
_cell_length_a   6.65298588
_cell_length_b   6.73060000
_cell_length_c   8.76775900
_cell_angle_alpha   90.00000000
_cell_angle_beta   107.21515087
_cell_angle_gamma   90.00000000
_symmetry_Int_Tables_number   1
_chemical_formula_structural   NdTlGeS4
_chemical_formula_sum   'Nd2 Tl2 Ge2 S8'
_cell_volume   375.01907748
_cell_formula_units_Z   2
loop_
 _symmetry_equiv_pos_site_id
 _symmetry_equiv_pos_as_xyz
  1  'x, y, z'
loop_
 _atom_site_type_symbol
 _atom_site_label
 _atom_site_symmetry_multiplicity
 _atom_site_fract_x
 _atom_site_fract_y
 _atom_site_fract_z
 _atom_site_occupancy
  Nd  Nd0  1  0.771704  0.495163  0.448024  1
  Nd  Nd1  1  0.228296  0.995163  0.551977  1
  Tl  Tl2  1  0.270483  0.010823  0.066929  1
  Tl  Tl3  1  0.729518  0.510823  0.933070  1
  Ge  Ge4  1  0.222825  0.526524  0.319961  1
  Ge  Ge5  1  0.777175  0.026524  0.680038  1
  S  S6  1  0.424585  0.528754  0.161225  1
  S  S7  1  0.978509  0.765558  0.274194  1
  S  S8  1  0.020607  0.255944  0.290556  1
  S  S9  1  0.579002  0.084234  0.428843  1
  S  S10  1  0.420999  0.584234  0.571158  1
  S  S11  1  0.979393  0.755944  0.709444  1
  S  S12  1  0.021490  0.265558  0.725805  1
  S  S13  1  0.575415  0.028754  0.838776  1
