# generated using pymatgen
data_TbEr2Mg3Ge2Pd
_symmetry_space_group_name_H-M   'P 1'
_cell_length_a   7.26335095
_cell_length_b   7.26335170
_cell_length_c   4.28046400
_cell_angle_alpha   90.00000000
_cell_angle_beta   90.00000000
_cell_angle_gamma   120.19896143
_symmetry_Int_Tables_number   1
_chemical_formula_structural   TbEr2Mg3Ge2Pd
_chemical_formula_sum   'Tb1 Er2 Mg3 Ge2 Pd1'
_cell_volume   195.17373985
_cell_formula_units_Z   1
loop_
 _symmetry_equiv_pos_site_id
 _symmetry_equiv_pos_as_xyz
  1  'x, y, z'
loop_
 _atom_site_type_symbol
 _atom_site_label
 _atom_site_symmetry_multiplicity
 _atom_site_fract_x
 _atom_site_fract_y
 _atom_site_fract_z
 _atom_site_occupancy
  Tb  Tb0  1  0.417405  0.417405  0.500000  1
  Er  Er1  1  0.583248  0.999720  0.500000  1
  Er  Er2  1  0.999720  0.583248  0.500000  1
  Mg  Mg3  1  0.758756  0.758756  0.000000  1
  Mg  Mg4  1  0.242224  0.999319  0.000000  1
  Mg  Mg5  1  0.999319  0.242224  0.000000  1
  Ge  Ge6  1  0.668041  0.333264  0.000000  1
  Ge  Ge7  1  0.333264  0.668041  0.000000  1
  Pd  Pd8  1  0.998024  0.998024  0.500000  1
