# generated using pymatgen
data_NdDy3Hf4F28
_symmetry_space_group_name_H-M   'P 1'
_cell_length_a   5.73529349
_cell_length_b   9.08498316
_cell_length_c   12.20245100
_cell_angle_alpha   62.29354752
_cell_angle_beta   89.97636358
_cell_angle_gamma   90.00762766
_symmetry_Int_Tables_number   1
_chemical_formula_structural   NdDy3Hf4F28
_chemical_formula_sum   'Nd1 Dy3 Hf4 F28'
_cell_volume   562.90808883
_cell_formula_units_Z   1
loop_
 _symmetry_equiv_pos_site_id
 _symmetry_equiv_pos_as_xyz
  1  'x, y, z'
loop_
 _atom_site_type_symbol
 _atom_site_label
 _atom_site_symmetry_multiplicity
 _atom_site_fract_x
 _atom_site_fract_y
 _atom_site_fract_z
 _atom_site_occupancy
  Nd  Nd0  1  0.757094  0.815081  0.766669  1
  Dy  Dy1  1  0.743335  0.815905  0.266391  1
  Dy  Dy2  1  0.243178  0.186379  0.233634  1
  Dy  Dy3  1  0.257638  0.190252  0.733101  1
  Hf  Hf4  1  0.743616  0.277374  0.452957  1
  Hf  Hf5  1  0.244395  0.725727  0.049220  1
  Hf  Hf6  1  0.254814  0.726231  0.540319  1
  Hf  Hf7  1  0.755275  0.269482  0.957312  1
  F  F8  1  0.458092  0.708245  0.926237  1
  F  F9  1  0.962995  0.289527  0.576345  1
  F  F10  1  0.535057  0.287109  0.078236  1
  F  F11  1  0.034911  0.710023  0.419218  1
  F  F12  1  0.457308  0.283061  0.547519  1
  F  F13  1  0.957316  0.714393  0.958727  1
  F  F14  1  0.544985  0.718048  0.449613  1
  F  F15  1  0.042038  0.279399  0.050213  1
  F  F16  1  0.769277  0.516812  0.860655  1
  F  F17  1  0.267325  0.477437  0.638549  1
  F  F18  1  0.235036  0.476384  0.143563  1
  F  F19  1  0.733005  0.525233  0.357012  1
  F  F20  1  0.759586  0.021794  0.058025  1
  F  F21  1  0.259220  0.974487  0.441322  1
  F  F22  1  0.239727  0.972990  0.944562  1
  F  F23  1  0.739541  0.029303  0.552076  1
  F  F24  1  0.984966  0.730244  0.642681  1
  F  F25  1  0.485638  0.266994  0.853294  1
  F  F26  1  0.011107  0.266900  0.350370  1
  F  F27  1  0.513745  0.733796  0.150923  1
  F  F28  1  0.035440  0.745829  0.174671  1
  F  F29  1  0.533040  0.255602  0.328026  1
  F  F30  1  0.964937  0.251839  0.830298  1
  F  F31  1  0.456633  0.742391  0.669190  1
  F  F32  1  0.428812  0.974406  0.234990  1
  F  F33  1  0.929636  0.026920  0.265183  1
  F  F34  1  0.573454  0.037868  0.766532  1
  F  F35  1  0.087827  0.976537  0.732365  1
