# generated using pymatgen
data_Pr4Ga18OsPd5
_symmetry_space_group_name_H-M   'P 1'
_cell_length_a   7.70170000
_cell_length_b   7.70170133
_cell_length_c   9.58905200
_cell_angle_alpha   89.92275703
_cell_angle_beta   89.92275702
_cell_angle_gamma   119.49603719
_symmetry_Int_Tables_number   1
_chemical_formula_structural   Pr4Ga18OsPd5
_chemical_formula_sum   'Pr4 Ga18 Os1 Pd5'
_cell_volume   495.06378536
_cell_formula_units_Z   1
loop_
 _symmetry_equiv_pos_site_id
 _symmetry_equiv_pos_as_xyz
  1  'x, y, z'
loop_
 _atom_site_type_symbol
 _atom_site_label
 _atom_site_symmetry_multiplicity
 _atom_site_fract_x
 _atom_site_fract_y
 _atom_site_fract_z
 _atom_site_occupancy
  Pr  Pr0  1  0.996787  0.669585  0.250490  1
  Pr  Pr1  1  0.003213  0.330415  0.749510  1
  Pr  Pr2  1  0.669585  0.996787  0.250490  1
  Pr  Pr3  1  0.330415  0.003213  0.749510  1
  Ga  Ga4  1  0.000802  0.331221  0.076177  1
  Ga  Ga5  1  0.999198  0.668779  0.923823  1
  Ga  Ga6  1  0.996136  0.664382  0.581038  1
  Ga  Ga7  1  0.335618  0.003864  0.418962  1
  Ga  Ga8  1  0.003864  0.335618  0.418962  1
  Ga  Ga9  1  0.664382  0.996136  0.581038  1
  Ga  Ga10  1  0.668779  0.999198  0.923823  1
  Ga  Ga11  1  0.331221  0.000802  0.076177  1
  Ga  Ga12  1  0.335868  0.335868  0.562323  1
  Ga  Ga13  1  0.664132  0.664132  0.437677  1
  Ga  Ga14  1  0.671040  0.671040  0.056535  1
  Ga  Ga15  1  0.328960  0.328960  0.943465  1
  Ga  Ga16  1  0.132470  0.132470  0.246895  1
  Ga  Ga17  1  0.867530  0.867530  0.753105  1
  Ga  Ga18  1  0.343188  0.544864  0.249158  1
  Ga  Ga19  1  0.656812  0.455136  0.750842  1
  Ga  Ga20  1  0.544864  0.343188  0.249158  1
  Ga  Ga21  1  0.455136  0.656812  0.750842  1
  Os  Os22  1  0.000000  0.000000  0.000000  1
  Pd  Pd23  1  0.670463  0.329537  0.000000  1
  Pd  Pd24  1  0.329537  0.670463  0.000000  1
  Pd  Pd25  1  0.328565  0.671435  0.500000  1
  Pd  Pd26  1  0.671435  0.328565  0.500000  1
  Pd  Pd27  1  0.000000  0.000000  0.500000  1
