# generated using pymatgen
data_Ho4GaRu6W
_symmetry_space_group_name_H-M   'P 1'
_cell_length_a   5.55642525
_cell_length_b   5.19001045
_cell_length_c   8.94940100
_cell_angle_alpha   90.00000000
_cell_angle_beta   90.00000000
_cell_angle_gamma   122.30426817
_symmetry_Int_Tables_number   1
_chemical_formula_structural   Ho4GaRu6W
_chemical_formula_sum   'Ho4 Ga1 Ru6 W1'
_cell_volume   218.13657108
_cell_formula_units_Z   1
loop_
 _symmetry_equiv_pos_site_id
 _symmetry_equiv_pos_as_xyz
  1  'x, y, z'
loop_
 _atom_site_type_symbol
 _atom_site_label
 _atom_site_symmetry_multiplicity
 _atom_site_fract_x
 _atom_site_fract_y
 _atom_site_fract_z
 _atom_site_occupancy
  Ho  Ho0  1  0.675078  0.350149  0.565021  1
  Ho  Ho1  1  0.332422  0.664786  0.432829  1
  Ho  Ho2  1  0.332422  0.664786  0.067171  1
  Ho  Ho3  1  0.675078  0.350149  0.934979  1
  Ga  Ga4  1  0.831615  0.663901  0.250000  1
  Ru  Ru5  1  0.012245  0.023978  0.498036  1
  Ru  Ru6  1  0.012245  0.023978  0.001964  1
  Ru  Ru7  1  0.174076  0.816353  0.750000  1
  Ru  Ru8  1  0.641535  0.816211  0.750000  1
  Ru  Ru9  1  0.817738  0.159950  0.250000  1
  Ru  Ru10  1  0.342558  0.159639  0.250000  1
  W  W11  1  0.152988  0.306120  0.750000  1
