# generated using pymatgen
data_Nd2Be3PRh6
_symmetry_space_group_name_H-M   'P 1'
_cell_length_a   6.52534869
_cell_length_b   6.52278743
_cell_length_c   6.52534883
_cell_angle_alpha   129.65957379
_cell_angle_beta   116.68534703
_cell_angle_gamma   85.00326423
_symmetry_Int_Tables_number   1
_chemical_formula_structural   Nd2Be3PRh6
_chemical_formula_sum   'Nd2 Be3 P1 Rh6'
_cell_volume   182.83095574
_cell_formula_units_Z   1
loop_
 _symmetry_equiv_pos_site_id
 _symmetry_equiv_pos_as_xyz
  1  'x, y, z'
loop_
 _atom_site_type_symbol
 _atom_site_label
 _atom_site_symmetry_multiplicity
 _atom_site_fract_x
 _atom_site_fract_y
 _atom_site_fract_z
 _atom_site_occupancy
  Nd  Nd0  1  0.741635  0.999130  0.257495  1
  Nd  Nd1  1  0.258396  0.000655  0.742258  1
  Be  Be2  1  0.580053  0.346252  0.766200  1
  Be  Be3  1  0.415474  0.649762  0.234288  1
  Be  Be4  1  0.086288  0.322681  0.236392  1
  P  P5  1  0.917759  0.681538  0.763781  1
  Rh  Rh6  1  0.238462  0.498549  0.735647  1
  Rh  Rh7  1  0.745062  0.002177  0.745608  1
  Rh  Rh8  1  0.762902  0.498549  0.260087  1
  Rh  Rh9  1  0.256569  0.002177  0.257115  1
  Rh  Rh10  1  0.503927  0.499264  0.505791  1
  Rh  Rh11  1  0.993474  0.499264  0.995337  1
