# generated using pymatgen
data_Tb15NdMgHg3Pt4
_symmetry_space_group_name_H-M   'P 1'
_cell_length_a   9.73087361
_cell_length_b   9.75018434
_cell_length_c   9.73226200
_cell_angle_alpha   60.06078702
_cell_angle_beta   59.99528012
_cell_angle_gamma   59.87722435
_symmetry_Int_Tables_number   1
_chemical_formula_structural   Tb15NdMgHg3Pt4
_chemical_formula_sum   'Tb15 Nd1 Mg1 Hg3 Pt4'
_cell_volume   652.59257360
_cell_formula_units_Z   1
loop_
 _symmetry_equiv_pos_site_id
 _symmetry_equiv_pos_as_xyz
  1  'x, y, z'
loop_
 _atom_site_type_symbol
 _atom_site_label
 _atom_site_symmetry_multiplicity
 _atom_site_fract_x
 _atom_site_fract_y
 _atom_site_fract_z
 _atom_site_occupancy
  Tb  Tb0  1  0.351974  0.350886  0.348797  1
  Tb  Tb1  1  0.351974  0.350886  0.948344  1
  Tb  Tb2  1  0.355039  0.943659  0.350651  1
  Tb  Tb3  1  0.936112  0.355564  0.354163  1
  Tb  Tb4  1  0.808065  0.192900  0.191065  1
  Tb  Tb5  1  0.188407  0.812003  0.810994  1
  Tb  Tb6  1  0.188407  0.812003  0.188596  1
  Tb  Tb7  1  0.808065  0.192900  0.807970  1
  Tb  Tb8  1  0.187305  0.191512  0.810592  1
  Tb  Tb9  1  0.808388  0.809853  0.190879  1
  Tb  Tb10  1  0.934304  0.562540  0.565227  1
  Tb  Tb11  1  0.560398  0.937646  0.936786  1
  Tb  Tb12  1  0.560398  0.937646  0.565169  1
  Tb  Tb13  1  0.934304  0.562540  0.937928  1
  Tb  Tb14  1  0.563747  0.565700  0.935276  1
  Nd  Nd15  1  0.935406  0.932328  0.566133  1
  Mg  Mg16  1  0.284663  0.569913  0.572713  1
  Hg  Hg17  1  0.582687  0.587620  0.588151  1
  Hg  Hg18  1  0.582687  0.587620  0.241543  1
  Hg  Hg19  1  0.579628  0.242517  0.588927  1
  Pt  Pt20  1  0.142886  0.144331  0.143826  1
  Pt  Pt21  1  0.142886  0.144331  0.568957  1
  Pt  Pt22  1  0.140515  0.571005  0.144240  1
  Pt  Pt23  1  0.571754  0.142098  0.143074  1
