# generated using pymatgen
data_Ta2Ti5Nb5Al8(IrC)4
_symmetry_space_group_name_H-M   'P 1'
_cell_length_a   8.21780190
_cell_length_b   8.24669147
_cell_length_c   8.21780100
_cell_angle_alpha   59.88363472
_cell_angle_beta   60.23272412
_cell_angle_gamma   59.88362839
_symmetry_Int_Tables_number   1
_chemical_formula_structural   Ta2Ti5Nb5Al8(IrC)4
_chemical_formula_sum   'Ta2 Ti5 Nb5 Al8 Ir4 C4'
_cell_volume   393.79048817
_cell_formula_units_Z   1
loop_
 _symmetry_equiv_pos_site_id
 _symmetry_equiv_pos_as_xyz
  1  'x, y, z'
loop_
 _atom_site_type_symbol
 _atom_site_label
 _atom_site_symmetry_multiplicity
 _atom_site_fract_x
 _atom_site_fract_y
 _atom_site_fract_z
 _atom_site_occupancy
  Ta  Ta0  1  0.690092  0.309731  0.689013  1
  Ta  Ta1  1  0.939474  0.560897  0.937741  1
  Ti  Ti2  1  0.310438  0.309929  0.690072  1
  Ti  Ti3  1  0.560882  0.560380  0.939712  1
  Ti  Ti4  1  0.940161  0.560224  0.561415  1
  Ti  Ti5  1  0.560709  0.939606  0.938888  1
  Ti  Ti6  1  0.939699  0.938811  0.561108  1
  Nb  Nb7  1  0.560369  0.939813  0.561240  1
  Nb  Nb8  1  0.309996  0.690124  0.689531  1
  Nb  Nb9  1  0.690672  0.309026  0.311171  1
  Nb  Nb10  1  0.309683  0.690106  0.311142  1
  Nb  Nb11  1  0.690379  0.689929  0.310217  1
  Al  Al12  1  0.914536  0.917692  0.914105  1
  Al  Al13  1  0.999376  0.333501  0.333590  1
  Al  Al14  1  0.333335  0.999225  0.333376  1
  Al  Al15  1  0.333226  0.333648  0.996642  1
  Al  Al16  1  0.915468  0.252960  0.913859  1
  Al  Al17  1  0.917411  0.914707  0.253591  1
  Al  Al18  1  0.252964  0.915687  0.917376  1
  Al  Al19  1  0.333476  0.333709  0.336279  1
  Ir  Ir20  1  0.124511  0.127262  0.123504  1
  Ir  Ir21  1  0.624216  0.127012  0.122402  1
  Ir  Ir22  1  0.125194  0.624139  0.124558  1
  Ir  Ir23  1  0.123419  0.126382  0.624840  1
  C  C24  1  0.629588  0.620960  0.630213  1
  C  C25  1  0.121707  0.622921  0.625691  1
  C  C26  1  0.624064  0.123346  0.630863  1
  C  C27  1  0.624953  0.628274  0.117863  1
