# generated using pymatgen
data_LaTm2PtO7
_symmetry_space_group_name_H-M   'P 1'
_cell_length_a   6.41790741
_cell_length_b   6.41790843
_cell_length_c   7.51227400
_cell_angle_alpha   90.00000000
_cell_angle_beta   90.00000000
_cell_angle_gamma   108.89759737
_symmetry_Int_Tables_number   1
_chemical_formula_structural   LaTm2PtO7
_chemical_formula_sum   'La2 Tm4 Pt2 O14'
_cell_volume   292.74867625
_cell_formula_units_Z   2
loop_
 _symmetry_equiv_pos_site_id
 _symmetry_equiv_pos_as_xyz
  1  'x, y, z'
loop_
 _atom_site_type_symbol
 _atom_site_label
 _atom_site_symmetry_multiplicity
 _atom_site_fract_x
 _atom_site_fract_y
 _atom_site_fract_z
 _atom_site_occupancy
  La  La0  1  0.000000  0.000000  0.000000  1
  La  La1  1  0.000000  0.000000  0.500000  1
  Tm  Tm2  1  0.509851  0.059828  0.250000  1
  Tm  Tm3  1  0.940172  0.490149  0.750000  1
  Tm  Tm4  1  0.490149  0.940172  0.750000  1
  Tm  Tm5  1  0.059828  0.509851  0.250000  1
  Pt  Pt6  1  0.500000  0.500000  0.000000  1
  Pt  Pt7  1  0.500000  0.500000  0.500000  1
  O  O8  1  0.870297  0.161148  0.250000  1
  O  O9  1  0.838852  0.129703  0.750000  1
  O  O10  1  0.824062  0.558559  0.032217  1
  O  O11  1  0.824062  0.558559  0.467783  1
  O  O12  1  0.441441  0.175938  0.967783  1
  O  O13  1  0.441441  0.175938  0.532217  1
  O  O14  1  0.606737  0.606737  0.750000  1
  O  O15  1  0.393263  0.393263  0.250000  1
  O  O16  1  0.558559  0.824062  0.032217  1
  O  O17  1  0.175938  0.441441  0.532217  1
  O  O18  1  0.175938  0.441441  0.967783  1
  O  O19  1  0.558559  0.824062  0.467783  1
  O  O20  1  0.129703  0.838852  0.750000  1
  O  O21  1  0.161148  0.870297  0.250000  1
