# generated using pymatgen
data_Dy5Mg3(P3Ir4)4
_symmetry_space_group_name_H-M   'P 1'
_cell_length_a   12.79858000
_cell_length_b   12.79857964
_cell_length_c   3.98233200
_cell_angle_alpha   90.00000000
_cell_angle_beta   90.00000000
_cell_angle_gamma   120.00000092
_symmetry_Int_Tables_number   1
_chemical_formula_structural   Dy5Mg3(P3Ir4)4
_chemical_formula_sum   'Dy5 Mg3 P12 Ir16'
_cell_volume   564.92611827
_cell_formula_units_Z   1
loop_
 _symmetry_equiv_pos_site_id
 _symmetry_equiv_pos_as_xyz
  1  'x, y, z'
loop_
 _atom_site_type_symbol
 _atom_site_label
 _atom_site_symmetry_multiplicity
 _atom_site_fract_x
 _atom_site_fract_y
 _atom_site_fract_z
 _atom_site_occupancy
  Dy  Dy0  1  0.333333  0.666667  0.500000  1
  Dy  Dy1  1  0.666667  0.333333  0.500000  1
  Dy  Dy2  1  0.000000  0.809818  0.000000  1
  Dy  Dy3  1  0.190182  0.190182  0.000000  1
  Dy  Dy4  1  0.809818  0.000000  0.000000  1
  Mg  Mg5  1  0.000000  0.445378  0.500000  1
  Mg  Mg6  1  0.554622  0.554622  0.500000  1
  Mg  Mg7  1  0.445378  0.000000  0.500000  1
  P  P8  1  0.000000  0.641835  0.500000  1
  P  P9  1  0.358165  0.358165  0.500000  1
  P  P10  1  0.641835  0.000000  0.500000  1
  P  P11  1  0.516090  0.688160  0.000000  1
  P  P12  1  0.311840  0.827930  0.000000  1
  P  P13  1  0.172070  0.483910  0.000000  1
  P  P14  1  0.483910  0.172070  0.000000  1
  P  P15  1  0.688160  0.516090  0.000000  1
  P  P16  1  0.827930  0.311840  0.000000  1
  P  P17  1  0.000000  0.177384  0.500000  1
  P  P18  1  0.822616  0.822616  0.500000  1
  P  P19  1  0.177384  0.000000  0.500000  1
  Ir  Ir20  1  0.508887  0.867961  0.000000  1
  Ir  Ir21  1  0.132039  0.640927  0.000000  1
  Ir  Ir22  1  0.359073  0.491113  0.000000  1
  Ir  Ir23  1  0.491113  0.359073  0.000000  1
  Ir  Ir24  1  0.867961  0.508887  0.000000  1
  Ir  Ir25  1  0.640927  0.132039  0.000000  1
  Ir  Ir26  1  0.000000  0.279613  0.000000  1
  Ir  Ir27  1  0.720387  0.720387  0.000000  1
  Ir  Ir28  1  0.279613  0.000000  0.000000  1
  Ir  Ir29  1  0.627929  0.806277  0.500000  1
  Ir  Ir30  1  0.193723  0.821652  0.500000  1
  Ir  Ir31  1  0.178348  0.372071  0.500000  1
  Ir  Ir32  1  0.372071  0.178348  0.500000  1
  Ir  Ir33  1  0.806277  0.627929  0.500000  1
  Ir  Ir34  1  0.821652  0.193723  0.500000  1
  Ir  Ir35  1  0.000000  0.000000  0.500000  1
