# generated using pymatgen
data_Hf6Ta3NbGa6
_symmetry_space_group_name_H-M   'P 1'
_cell_length_a   7.93274900
_cell_length_b   7.93274998
_cell_length_c   5.46564200
_cell_angle_alpha   90.00000000
_cell_angle_beta   90.00000000
_cell_angle_gamma   120.00000008
_symmetry_Int_Tables_number   1
_chemical_formula_structural   Hf6Ta3NbGa6
_chemical_formula_sum   'Hf6 Ta3 Nb1 Ga6'
_cell_volume   297.86487494
_cell_formula_units_Z   1
loop_
 _symmetry_equiv_pos_site_id
 _symmetry_equiv_pos_as_xyz
  1  'x, y, z'
loop_
 _atom_site_type_symbol
 _atom_site_label
 _atom_site_symmetry_multiplicity
 _atom_site_fract_x
 _atom_site_fract_y
 _atom_site_fract_z
 _atom_site_occupancy
  Hf  Hf0  1  0.753272  0.753208  0.249962  1
  Hf  Hf1  1  0.753272  0.000064  0.750038  1
  Hf  Hf2  1  0.999936  0.246728  0.249962  1
  Hf  Hf3  1  0.246792  0.246728  0.750038  1
  Hf  Hf4  1  0.246792  0.000064  0.249962  1
  Hf  Hf5  1  0.999936  0.753208  0.750038  1
  Ta  Ta6  1  0.666667  0.333333  0.000000  1
  Ta  Ta7  1  0.666667  0.333333  0.500000  1
  Ta  Ta8  1  0.333333  0.666667  0.500000  1
  Nb  Nb9  1  0.333333  0.666667  0.000000  1
  Ga  Ga10  1  0.603609  0.000092  0.250093  1
  Ga  Ga11  1  0.603609  0.603517  0.749907  1
  Ga  Ga12  1  0.999908  0.396391  0.749907  1
  Ga  Ga13  1  0.999908  0.603517  0.250093  1
  Ga  Ga14  1  0.396483  0.396391  0.250093  1
  Ga  Ga15  1  0.396483  0.000092  0.749907  1
