# generated using pymatgen
data_OF17
_symmetry_space_group_name_H-M   'P 1'
_cell_length_a   6.29786520
_cell_length_b   6.85181029
_cell_length_c   8.27240559
_cell_angle_alpha   76.72707741
_cell_angle_beta   72.12195397
_cell_angle_gamma   65.52923065
_symmetry_Int_Tables_number   1
_chemical_formula_structural   OF17
_chemical_formula_sum   'O1 F17'
_cell_volume   307.04530573
_cell_formula_units_Z   1
loop_
 _symmetry_equiv_pos_site_id
 _symmetry_equiv_pos_as_xyz
  1  'x, y, z'
loop_
 _atom_site_type_symbol
 _atom_site_label
 _atom_site_symmetry_multiplicity
 _atom_site_fract_x
 _atom_site_fract_y
 _atom_site_fract_z
 _atom_site_occupancy
  O  O0  1  0.551234  0.917895  0.585007  1
  F  F1  1  0.943326  0.988861  0.958756  1
  F  F2  1  0.088748  0.873470  0.437756  1
  F  F3  1  0.655414  0.726300  0.504100  1
  F  F4  1  0.810928  0.527521  0.898436  1
  F  F5  1  0.261020  0.433282  0.243808  1
  F  F6  1  0.475630  0.309418  0.690381  1
  F  F7  1  0.899773  0.944579  0.814261  1
  F  F8  1  0.582323  0.743826  0.168679  1
  F  F9  1  0.413423  0.865156  0.746145  1
  F  F10  1  0.183198  0.670440  0.536396  1
  F  F11  1  0.960512  0.394968  0.764789  1
  F  F12  1  0.162273  0.622357  0.129817  1
  F  F13  1  0.758511  0.305988  0.288053  1
  F  F14  1  0.503320  0.964659  0.194050  1
  F  F15  1  0.447884  0.339702  0.862155  1
  F  F16  1  0.310710  0.181263  0.486149  1
  F  F17  1  0.991775  0.190313  0.191261  1
