# generated using pymatgen
data_Yb16Mg4(IrPd3)3
_symmetry_space_group_name_H-M   'P 1'
_cell_length_a   6.01678300
_cell_length_b   10.89163600
_cell_length_c   10.89163600
_cell_angle_alpha   90.00000000
_cell_angle_beta   90.00000000
_cell_angle_gamma   90.00000000
_symmetry_Int_Tables_number   1
_chemical_formula_structural   Yb16Mg4(IrPd3)3
_chemical_formula_sum   'Yb16 Mg4 Ir3 Pd9'
_cell_volume   713.75733781
_cell_formula_units_Z   1
loop_
 _symmetry_equiv_pos_site_id
 _symmetry_equiv_pos_as_xyz
  1  'x, y, z'
loop_
 _atom_site_type_symbol
 _atom_site_label
 _atom_site_symmetry_multiplicity
 _atom_site_fract_x
 _atom_site_fract_y
 _atom_site_fract_z
 _atom_site_occupancy
  Yb  Yb0  1  0.343999  0.833721  0.536838  1
  Yb  Yb1  1  0.832333  0.666455  0.534848  1
  Yb  Yb2  1  0.832333  0.833545  0.965152  1
  Yb  Yb3  1  0.343999  0.666279  0.963162  1
  Yb  Yb4  1  0.832333  0.534848  0.833545  1
  Yb  Yb5  1  0.343999  0.963162  0.833721  1
  Yb  Yb6  1  0.343999  0.536838  0.666279  1
  Yb  Yb7  1  0.832333  0.965152  0.666455  1
  Yb  Yb8  1  0.658354  0.169408  0.459580  1
  Yb  Yb9  1  0.159436  0.332052  0.460600  1
  Yb  Yb10  1  0.159436  0.167948  0.039401  1
  Yb  Yb11  1  0.658354  0.330592  0.040421  1
  Yb  Yb12  1  0.159436  0.460600  0.167948  1
  Yb  Yb13  1  0.658354  0.040421  0.169408  1
  Yb  Yb14  1  0.658354  0.459580  0.330592  1
  Yb  Yb15  1  0.159436  0.039401  0.332052  1
  Mg  Mg16  1  0.502177  0.750000  0.250000  1
  Mg  Mg17  1  0.003233  0.750000  0.250000  1
  Mg  Mg18  1  0.003233  0.250000  0.750000  1
  Mg  Mg19  1  0.502177  0.250000  0.750000  1
  Ir  Ir20  1  0.589394  0.750000  0.750000  1
  Ir  Ir21  1  0.912837  0.250000  0.250000  1
  Ir  Ir22  1  0.409358  0.250000  0.250000  1
  Pd  Pd23  1  0.251674  0.900011  0.095823  1
  Pd  Pd24  1  0.752291  0.598333  0.097758  1
  Pd  Pd25  1  0.752291  0.901667  0.402242  1
  Pd  Pd26  1  0.251674  0.599989  0.404177  1
  Pd  Pd27  1  0.752291  0.097758  0.901667  1
  Pd  Pd28  1  0.251674  0.404177  0.900011  1
  Pd  Pd29  1  0.251674  0.095823  0.599989  1
  Pd  Pd30  1  0.752291  0.402242  0.598333  1
  Pd  Pd31  1  0.085236  0.750000  0.750000  1
