# generated using pymatgen
data_Er3Lu2In4AgPt
_symmetry_space_group_name_H-M   'P 1'
_cell_length_a   3.61075100
_cell_length_b   8.13682005
_cell_length_c   18.20172346
_cell_angle_alpha   89.99359029
_cell_angle_beta   90.00000000
_cell_angle_gamma   90.00000000
_symmetry_Int_Tables_number   1
_chemical_formula_structural   Er3Lu2In4AgPt
_chemical_formula_sum   'Er6 Lu4 In8 Ag2 Pt2'
_cell_volume   534.76719869
_cell_formula_units_Z   2
loop_
 _symmetry_equiv_pos_site_id
 _symmetry_equiv_pos_as_xyz
  1  'x, y, z'
loop_
 _atom_site_type_symbol
 _atom_site_label
 _atom_site_symmetry_multiplicity
 _atom_site_fract_x
 _atom_site_fract_y
 _atom_site_fract_z
 _atom_site_occupancy
  Er  Er0  1  0.000000  0.255564  0.216161  1
  Er  Er1  1  0.000000  0.744436  0.783839  1
  Er  Er2  1  0.000000  0.272780  0.721054  1
  Er  Er3  1  0.000000  0.727220  0.278946  1
  Er  Er4  1  0.000000  0.000000  0.000000  1
  Er  Er5  1  0.000000  0.500000  0.500000  1
  Lu  Lu6  1  0.000000  0.122370  0.420775  1
  Lu  Lu7  1  0.000000  0.877630  0.579225  1
  Lu  Lu8  1  0.000000  0.383922  0.915947  1
  Lu  Lu9  1  0.000000  0.616078  0.084053  1
  In  In10  1  0.500000  0.418954  0.352657  1
  In  In11  1  0.500000  0.581046  0.647343  1
  In  In12  1  0.500000  0.077405  0.851987  1
  In  In13  1  0.500000  0.922595  0.148013  1
  In  In14  1  0.500000  0.293008  0.064718  1
  In  In15  1  0.500000  0.706992  0.935282  1
  In  In16  1  0.500000  0.207501  0.567647  1
  In  In17  1  0.500000  0.792499  0.432353  1
  Ag  Ag18  1  0.500000  0.026814  0.302719  1
  Ag  Ag19  1  0.500000  0.973186  0.697281  1
  Pt  Pt20  1  0.500000  0.472487  0.804786  1
  Pt  Pt21  1  0.500000  0.527513  0.195214  1
