# generated using pymatgen
data_PrY3Cr6O24
_symmetry_space_group_name_H-M   'P 1'
_cell_length_a   9.35843223
_cell_length_b   9.35843228
_cell_length_c   10.02436300
_cell_angle_alpha   117.82575834
_cell_angle_beta   62.17422767
_cell_angle_gamma   120.00000422
_symmetry_Int_Tables_number   1
_chemical_formula_structural   PrY3Cr6O24
_chemical_formula_sum   'Pr1 Y3 Cr6 O24'
_cell_volume   640.41963389
_cell_formula_units_Z   1
loop_
 _symmetry_equiv_pos_site_id
 _symmetry_equiv_pos_as_xyz
  1  'x, y, z'
loop_
 _atom_site_type_symbol
 _atom_site_label
 _atom_site_symmetry_multiplicity
 _atom_site_fract_x
 _atom_site_fract_y
 _atom_site_fract_z
 _atom_site_occupancy
  Pr  Pr0  1  0.354981  0.645020  0.935058  1
  Y  Y1  1  0.646182  0.353819  0.061457  1
  Y  Y2  1  0.859838  0.140163  0.420490  1
  Y  Y3  1  0.140466  0.859535  0.578603  1
  Cr  Cr4  1  0.248893  0.037501  0.251988  1
  Cr  Cr5  1  0.962498  0.463380  0.251988  1
  Cr  Cr6  1  0.536620  0.751106  0.251988  1
  Cr  Cr7  1  0.466711  0.244719  0.749060  1
  Cr  Cr8  1  0.028947  0.533289  0.749060  1
  Cr  Cr9  1  0.755281  0.971053  0.749060  1
  O  O10  1  0.151724  0.477671  0.111916  1
  O  O11  1  0.522328  0.785969  0.111916  1
  O  O12  1  0.214031  0.848275  0.111916  1
  O  O13  1  0.455115  0.166573  0.200555  1
  O  O14  1  0.833427  0.489097  0.200555  1
  O  O15  1  0.510903  0.544885  0.200555  1
  O  O16  1  0.123301  0.128735  0.273838  1
  O  O17  1  0.871264  0.268402  0.273838  1
  O  O18  1  0.731598  0.876699  0.273838  1
  O  O19  1  0.200228  0.005208  0.419973  1
  O  O20  1  0.994793  0.614993  0.419973  1
  O  O21  1  0.385007  0.799772  0.419973  1
  O  O22  1  0.611082  0.186356  0.579657  1
  O  O23  1  0.995617  0.388918  0.579657  1
  O  O24  1  0.813643  0.004382  0.579657  1
  O  O25  1  0.268957  0.120139  0.732549  1
  O  O26  1  0.118631  0.731043  0.732549  1
  O  O27  1  0.879863  0.881369  0.732549  1
  O  O28  1  0.501425  0.450459  0.788117  1
  O  O29  1  0.160917  0.498575  0.788117  1
  O  O30  1  0.549540  0.839081  0.788117  1
  O  O31  1  0.777906  0.157646  0.893811  1
  O  O32  1  0.485929  0.222094  0.893811  1
  O  O33  1  0.842354  0.514072  0.893811  1
