# generated using pymatgen
data_Tm11ScPb10
_symmetry_space_group_name_H-M   'P 1'
_cell_length_a   11.62186017
_cell_length_b   11.62186016
_cell_length_c   11.63050100
_cell_angle_alpha   147.57990824
_cell_angle_beta   132.51207121
_cell_angle_gamma   58.59960004
_symmetry_Int_Tables_number   1
_chemical_formula_structural   Tm11ScPb10
_chemical_formula_sum   'Tm11 Sc1 Pb10'
_cell_volume   615.94239778
_cell_formula_units_Z   1
loop_
 _symmetry_equiv_pos_site_id
 _symmetry_equiv_pos_as_xyz
  1  'x, y, z'
loop_
 _atom_site_type_symbol
 _atom_site_label
 _atom_site_symmetry_multiplicity
 _atom_site_fract_x
 _atom_site_fract_y
 _atom_site_fract_z
 _atom_site_occupancy
  Tm  Tm0  1  0.696158  0.946158  0.250000  1
  Tm  Tm1  1  0.252208  0.640222  0.610827  1
  Tm  Tm2  1  0.674454  0.940724  0.733254  1
  Tm  Tm3  1  0.029395  0.141378  0.889173  1
  Tm  Tm4  1  0.970004  0.857807  0.110750  1
  Tm  Tm5  1  0.792805  0.559886  0.233424  1
  Tm  Tm6  1  0.207470  0.441200  0.766746  1
  Tm  Tm7  1  0.303745  0.053745  0.750000  1
  Tm  Tm8  1  0.326461  0.059380  0.266576  1
  Tm  Tm9  1  0.304101  0.554101  0.250000  1
  Tm  Tm10  1  0.747056  0.359253  0.389250  1
  Sc  Sc11  1  0.694745  0.444745  0.750000  1
  Pb  Pb12  1  0.478853  0.570088  0.895725  1
  Pb  Pb13  1  0.598117  0.787246  0.799710  1
  Pb  Pb14  1  0.674364  0.083130  0.604275  1
  Pb  Pb15  1  0.000226  0.750226  0.750000  1
  Pb  Pb16  1  0.987536  0.298407  0.700290  1
  Pb  Pb17  1  0.524011  0.424475  0.098587  1
  Pb  Pb18  1  0.006809  0.703038  0.297408  1
  Pb  Pb19  1  0.405630  0.209403  0.202592  1
  Pb  Pb20  1  0.325888  0.925424  0.401413  1
  Pb  Pb21  1  0.999962  0.249962  0.250000  1
