# generated using pymatgen
data_Rb2Ta3WBr22
_symmetry_space_group_name_H-M   'P 1'
_cell_length_a   7.56936922
_cell_length_b   7.63184667
_cell_length_c   18.70581600
_cell_angle_alpha   79.05518260
_cell_angle_beta   78.86955115
_cell_angle_gamma   88.65281023
_symmetry_Int_Tables_number   1
_chemical_formula_structural   Rb2Ta3WBr22
_chemical_formula_sum   'Rb2 Ta3 W1 Br22'
_cell_volume   1040.89387590
_cell_formula_units_Z   1
loop_
 _symmetry_equiv_pos_site_id
 _symmetry_equiv_pos_as_xyz
  1  'x, y, z'
loop_
 _atom_site_type_symbol
 _atom_site_label
 _atom_site_symmetry_multiplicity
 _atom_site_fract_x
 _atom_site_fract_y
 _atom_site_fract_z
 _atom_site_occupancy
  Rb  Rb0  1  0.748065  0.748615  0.503329  1
  Rb  Rb1  1  0.251386  0.250724  0.497969  1
  Ta  Ta2  1  0.324434  0.821063  0.340340  1
  Ta  Ta3  1  0.674970  0.178334  0.660307  1
  Ta  Ta4  1  0.832626  0.329557  0.086793  1
  W  W5  1  0.161777  0.665081  0.915404  1
  Br  Br6  1  0.254412  0.766655  0.488384  1
  Br  Br7  1  0.746184  0.233659  0.511460  1
  Br  Br8  1  0.570687  0.034077  0.345530  1
  Br  Br9  1  0.429395  0.966059  0.654650  1
  Br  Br10  1  0.543540  0.564861  0.351452  1
  Br  Br11  1  0.456754  0.435534  0.648333  1
  Br  Br12  1  0.386558  0.866539  0.204426  1
  Br  Br13  1  0.612968  0.132903  0.795621  1
  Br  Br14  1  0.070578  0.598629  0.352918  1
  Br  Br15  1  0.929680  0.401468  0.646938  1
  Br  Br16  1  0.100115  0.071063  0.342666  1
  Br  Br17  1  0.900351  0.929003  0.657211  1
  Br  Br18  1  0.898388  0.031518  0.148376  1
  Br  Br19  1  0.115174  0.964814  0.849635  1
  Br  Br20  1  0.529157  0.381745  0.150227  1
  Br  Br21  1  0.465413  0.629877  0.847617  1
  Br  Br22  1  0.724559  0.219847  0.985821  1
  Br  Br23  1  0.271693  0.776538  0.013777  1
  Br  Br24  1  0.975193  0.480030  0.168574  1
  Br  Br25  1  0.023539  0.519785  0.833702  1
  Br  Br26  1  0.169507  0.339687  0.999064  1
  Br  Br27  1  0.832897  0.662332  0.999476  1
