# generated using pymatgen
data_Sc8Re3B24Ir
_symmetry_space_group_name_H-M   'P 1'
_cell_length_a   3.51656500
_cell_length_b   8.90112977
_cell_length_c   11.20985348
_cell_angle_alpha   90.09032298
_cell_angle_beta   90.00000000
_cell_angle_gamma   90.00000000
_symmetry_Int_Tables_number   1
_chemical_formula_structural   Sc8Re3B24Ir
_chemical_formula_sum   'Sc8 Re3 B24 Ir1'
_cell_volume   350.88368740
_cell_formula_units_Z   1
loop_
 _symmetry_equiv_pos_site_id
 _symmetry_equiv_pos_as_xyz
  1  'x, y, z'
loop_
 _atom_site_type_symbol
 _atom_site_label
 _atom_site_symmetry_multiplicity
 _atom_site_fract_x
 _atom_site_fract_y
 _atom_site_fract_z
 _atom_site_occupancy
  Sc  Sc0  1  0.500000  0.313367  0.415282  1
  Sc  Sc1  1  0.500000  0.682041  0.592537  1
  Sc  Sc2  1  0.500000  0.178623  0.911348  1
  Sc  Sc3  1  0.500000  0.825807  0.080127  1
  Sc  Sc4  1  0.500000  0.442275  0.126927  1
  Sc  Sc5  1  0.500000  0.555723  0.871989  1
  Sc  Sc6  1  0.500000  0.054904  0.627716  1
  Sc  Sc7  1  0.500000  0.945922  0.372265  1
  Re  Re8  1  0.500000  0.139233  0.180467  1
  Re  Re9  1  0.500000  0.860994  0.820410  1
  Re  Re10  1  0.500000  0.361287  0.678461  1
  B  B11  1  0.000000  0.098791  0.472451  1
  B  B12  1  0.000000  0.898875  0.527406  1
  B  B13  1  0.000000  0.401180  0.973020  1
  B  B14  1  0.000000  0.599914  0.027910  1
  B  B15  1  0.000000  0.130294  0.318114  1
  B  B16  1  0.000000  0.869623  0.682580  1
  B  B17  1  0.000000  0.370270  0.817360  1
  B  B18  1  0.000000  0.630904  0.181575  1
  B  B19  1  0.000000  0.052850  0.064913  1
  B  B20  1  0.000000  0.946852  0.934781  1
  B  B21  1  0.000000  0.446834  0.564573  1
  B  B22  1  0.000000  0.554239  0.435549  1
  B  B23  1  0.000000  0.480258  0.287464  1
  B  B24  1  0.000000  0.520798  0.712676  1
  B  B25  1  0.000000  0.020572  0.786955  1
  B  B26  1  0.000000  0.979354  0.212555  1
  B  B27  1  0.000000  0.253043  0.078368  1
  B  B28  1  0.000000  0.747087  0.921500  1
  B  B29  1  0.000000  0.246624  0.578710  1
  B  B30  1  0.000000  0.752906  0.422412  1
  B  B31  1  0.000000  0.295562  0.236727  1
  B  B32  1  0.000000  0.704747  0.764577  1
  B  B33  1  0.000000  0.204941  0.735614  1
  B  B34  1  0.000000  0.794367  0.264102  1
  Ir  Ir35  1  0.500000  0.638939  0.320577  1
