# generated using pymatgen
data_La4Cd2Cu2PtAu
_symmetry_space_group_name_H-M   'P 1'
_cell_length_a   8.00270906
_cell_length_b   8.00849887
_cell_length_c   3.93721200
_cell_angle_alpha   90.00000000
_cell_angle_beta   90.00000000
_cell_angle_gamma   90.47895420
_symmetry_Int_Tables_number   1
_chemical_formula_structural   La4Cd2Cu2PtAu
_chemical_formula_sum   'La4 Cd2 Cu2 Pt1 Au1'
_cell_volume   252.32586621
_cell_formula_units_Z   1
loop_
 _symmetry_equiv_pos_site_id
 _symmetry_equiv_pos_as_xyz
  1  'x, y, z'
loop_
 _atom_site_type_symbol
 _atom_site_label
 _atom_site_symmetry_multiplicity
 _atom_site_fract_x
 _atom_site_fract_y
 _atom_site_fract_z
 _atom_site_occupancy
  La  La0  1  0.679741  0.173927  0.500000  1
  La  La1  1  0.319681  0.814240  0.500000  1
  La  La2  1  0.172606  0.335710  0.500000  1
  La  La3  1  0.831134  0.678266  0.500000  1
  Cd  Cd4  1  0.994783  0.003983  0.000000  1
  Cd  Cd5  1  0.508550  0.502763  0.000000  1
  Cu  Cu6  1  0.875481  0.378128  0.000000  1
  Cu  Cu7  1  0.622822  0.875676  0.000000  1
  Pt  Pt8  1  0.115325  0.618647  0.000000  1
  Au  Au9  1  0.379879  0.118661  0.000000  1
