# generated using pymatgen
data_VFe11Si4
_symmetry_space_group_name_H-M   'P 1'
_cell_length_a   13.15668833
_cell_length_b   13.15668843
_cell_length_c   13.15668745
_cell_angle_alpha   17.34365784
_cell_angle_beta   17.34365507
_cell_angle_gamma   17.34366037
_symmetry_Int_Tables_number   1
_chemical_formula_structural   VFe11Si4
_chemical_formula_sum   'V1 Fe11 Si4'
_cell_volume   176.60543555
_cell_formula_units_Z   1
loop_
 _symmetry_equiv_pos_site_id
 _symmetry_equiv_pos_as_xyz
  1  'x, y, z'
loop_
 _atom_site_type_symbol
 _atom_site_label
 _atom_site_symmetry_multiplicity
 _atom_site_fract_x
 _atom_site_fract_y
 _atom_site_fract_z
 _atom_site_occupancy
  V  V0  1  0.000000  0.000000  0.000000  1
  Fe  Fe1  1  0.562816  0.562816  0.562816  1
  Fe  Fe2  1  0.812410  0.812410  0.812410  1
  Fe  Fe3  1  0.061501  0.061501  0.061501  1
  Fe  Fe4  1  0.313088  0.313088  0.313088  1
  Fe  Fe5  1  0.187590  0.187590  0.187590  1
  Fe  Fe6  1  0.437184  0.437184  0.437184  1
  Fe  Fe7  1  0.686912  0.686912  0.686912  1
  Fe  Fe8  1  0.938499  0.938499  0.938499  1
  Fe  Fe9  1  0.249449  0.249449  0.249449  1
  Fe  Fe10  1  0.500000  0.500000  0.500000  1
  Fe  Fe11  1  0.750551  0.750551  0.750551  1
  Si  Si12  1  0.874942  0.874942  0.874942  1
  Si  Si13  1  0.125058  0.125058  0.125058  1
  Si  Si14  1  0.375421  0.375421  0.375421  1
  Si  Si15  1  0.624579  0.624579  0.624579  1
