# generated using pymatgen
data_K6GaCoF12
_symmetry_space_group_name_H-M   'P 1'
_cell_length_a   6.25511355
_cell_length_b   6.03184471
_cell_length_c   10.50210600
_cell_angle_alpha   55.13396323
_cell_angle_beta   90.15723785
_cell_angle_gamma   89.88157664
_symmetry_Int_Tables_number   1
_chemical_formula_structural   K6GaCoF12
_chemical_formula_sum   'K6 Ga1 Co1 F12'
_cell_volume   325.10946086
_cell_formula_units_Z   1
loop_
 _symmetry_equiv_pos_site_id
 _symmetry_equiv_pos_as_xyz
  1  'x, y, z'
loop_
 _atom_site_type_symbol
 _atom_site_label
 _atom_site_symmetry_multiplicity
 _atom_site_fract_x
 _atom_site_fract_y
 _atom_site_fract_z
 _atom_site_occupancy
  K  K0  1  0.500000  0.500000  0.000000  1
  K  K1  1  0.000000  0.500000  0.500000  1
  K  K2  1  0.049344  0.737601  0.749389  1
  K  K3  1  0.950656  0.262399  0.250611  1
  K  K4  1  0.547010  0.267592  0.746557  1
  K  K5  1  0.452990  0.732408  0.253443  1
  Ga  Ga6  1  0.000000  0.000000  0.000000  1
  Co  Co7  1  0.500000  0.000000  0.500000  1
  F  F8  1  0.747871  0.782341  0.554607  1
  F  F9  1  0.252129  0.217659  0.445393  1
  F  F10  1  0.253612  0.220060  0.943754  1
  F  F11  1  0.746388  0.779940  0.056246  1
  F  F12  1  0.462525  0.879973  0.707837  1
  F  F13  1  0.537475  0.120027  0.292163  1
  F  F14  1  0.961892  0.123635  0.787064  1
  F  F15  1  0.038108  0.876365  0.212936  1
  F  F16  1  0.329915  0.711084  0.536731  1
  F  F17  1  0.670085  0.288916  0.463269  1
  F  F18  1  0.828757  0.298793  0.960317  1
  F  F19  1  0.171243  0.701207  0.039683  1
