# generated using pymatgen
data_Li3La2Ni9P7
_symmetry_space_group_name_H-M   'P 1'
_cell_length_a   3.81083500
_cell_length_b   9.24862234
_cell_length_c   9.24862100
_cell_angle_alpha   119.99999257
_cell_angle_beta   90.00000000
_cell_angle_gamma   90.00000000
_symmetry_Int_Tables_number   1
_chemical_formula_structural   Li3La2Ni9P7
_chemical_formula_sum   'Li3 La2 Ni9 P7'
_cell_volume   282.29607398
_cell_formula_units_Z   1
loop_
 _symmetry_equiv_pos_site_id
 _symmetry_equiv_pos_as_xyz
  1  'x, y, z'
loop_
 _atom_site_type_symbol
 _atom_site_label
 _atom_site_symmetry_multiplicity
 _atom_site_fract_x
 _atom_site_fract_y
 _atom_site_fract_z
 _atom_site_occupancy
  Li  Li0  1  0.500000  0.790701  0.891497  1
  Li  Li1  1  0.500000  0.100797  0.209299  1
  Li  Li2  1  0.500000  0.108503  0.899203  1
  La  La3  1  0.000000  0.666667  0.333333  1
  La  La4  1  0.500000  0.333333  0.666667  1
  Ni  Ni5  1  0.000000  0.572030  0.941825  1
  Ni  Ni6  1  0.000000  0.369794  0.427970  1
  Ni  Ni7  1  0.000000  0.058175  0.630206  1
  Ni  Ni8  1  0.000000  0.875837  0.154211  1
  Ni  Ni9  1  0.000000  0.278374  0.124163  1
  Ni  Ni10  1  0.000000  0.845789  0.721626  1
  Ni  Ni11  1  0.500000  0.952962  0.389013  1
  Ni  Ni12  1  0.500000  0.436051  0.047038  1
  Ni  Ni13  1  0.500000  0.610987  0.563949  1
  P  P14  1  0.500000  0.710695  0.110230  1
  P  P15  1  0.500000  0.399536  0.289305  1
  P  P16  1  0.500000  0.889770  0.600464  1
  P  P17  1  0.000000  0.000000  0.000000  1
  P  P18  1  0.000000  0.594194  0.694336  1
  P  P19  1  0.000000  0.100141  0.405806  1
  P  P20  1  0.000000  0.305664  0.899859  1
