# generated using pymatgen
data_Sc3Nb(Tc2W)4
_symmetry_space_group_name_H-M   'P 1'
_cell_length_a   6.34048200
_cell_length_b   4.48498400
_cell_length_c   8.93894800
_cell_angle_alpha   89.99998081
_cell_angle_beta   89.99920384
_cell_angle_gamma   89.99985106
_symmetry_Int_Tables_number   1
_chemical_formula_structural   Sc3Nb(Tc2W)4
_chemical_formula_sum   'Sc3 Nb1 Tc8 W4'
_cell_volume   254.19650959
_cell_formula_units_Z   1
loop_
 _symmetry_equiv_pos_site_id
 _symmetry_equiv_pos_as_xyz
  1  'x, y, z'
loop_
 _atom_site_type_symbol
 _atom_site_label
 _atom_site_symmetry_multiplicity
 _atom_site_fract_x
 _atom_site_fract_y
 _atom_site_fract_z
 _atom_site_occupancy
  Sc  Sc0  1  0.750128  0.750000  0.375719  1
  Sc  Sc1  1  0.249886  0.250001  0.624952  1
  Sc  Sc2  1  0.749867  0.749998  0.874303  1
  Nb  Nb3  1  0.250112  0.250000  0.125003  1
  Tc  Tc4  1  0.003462  0.749999  0.124994  1
  Tc  Tc5  1  0.496713  0.750000  0.125026  1
  Tc  Tc6  1  0.001771  0.250000  0.371854  1
  Tc  Tc7  1  0.498410  0.250001  0.371922  1
  Tc  Tc8  1  0.498952  0.749999  0.624958  1
  Tc  Tc9  1  0.000876  0.750000  0.625022  1
  Tc  Tc10  1  0.498220  0.250001  0.878100  1
  Tc  Tc11  1  0.001593  0.250001  0.878125  1
  W  W12  1  0.750118  0.250001  0.125029  1
  W  W13  1  0.250104  0.749999  0.378032  1
  W  W14  1  0.749899  0.250001  0.625031  1
  W  W15  1  0.249890  0.749999  0.871930  1
