# generated using pymatgen
data_Ho2ZnNi5(BIr)2
_symmetry_space_group_name_H-M   'P 1'
_cell_length_a   5.24817450
_cell_length_b   5.12167356
_cell_length_c   7.01803613
_cell_angle_alpha   90.24340887
_cell_angle_beta   89.52491232
_cell_angle_gamma   120.82044754
_symmetry_Int_Tables_number   1
_chemical_formula_structural   Ho2ZnNi5(BIr)2
_chemical_formula_sum   'Ho2 Zn1 Ni5 B2 Ir2'
_cell_volume   161.99488023
_cell_formula_units_Z   1
loop_
 _symmetry_equiv_pos_site_id
 _symmetry_equiv_pos_as_xyz
  1  'x, y, z'
loop_
 _atom_site_type_symbol
 _atom_site_label
 _atom_site_symmetry_multiplicity
 _atom_site_fract_x
 _atom_site_fract_y
 _atom_site_fract_z
 _atom_site_occupancy
  Ho  Ho0  1  0.007267  0.014534  0.500000  1
  Ho  Ho1  1  0.999760  0.999521  0.000000  1
  Zn  Zn2  1  0.349387  0.698775  0.500000  1
  Ni  Ni3  1  0.503003  0.998786  0.802516  1
  Ni  Ni4  1  0.999338  0.496687  0.789816  1
  Ni  Ni5  1  0.654561  0.309121  0.500000  1
  Ni  Ni6  1  0.495783  0.998786  0.197484  1
  Ni  Ni7  1  0.497350  0.496687  0.210184  1
  B  B8  1  0.328124  0.656248  0.000000  1
  B  B9  1  0.667644  0.335287  0.000000  1
  Ir  Ir10  1  0.994595  0.497784  0.212773  1
  Ir  Ir11  1  0.503188  0.497784  0.787227  1
