# generated using pymatgen
data_Hf3AlZnGa2FeNi
_symmetry_space_group_name_H-M   'P 1'
_cell_length_a   7.03689425
_cell_length_b   7.00895145
_cell_length_c   3.38108700
_cell_angle_alpha   90.00000000
_cell_angle_beta   90.00000000
_cell_angle_gamma   119.93594020
_symmetry_Int_Tables_number   1
_chemical_formula_structural   Hf3AlZnGa2FeNi
_chemical_formula_sum   'Hf3 Al1 Zn1 Ga2 Fe1 Ni1'
_cell_volume   144.51104227
_cell_formula_units_Z   1
loop_
 _symmetry_equiv_pos_site_id
 _symmetry_equiv_pos_as_xyz
  1  'x, y, z'
loop_
 _atom_site_type_symbol
 _atom_site_label
 _atom_site_symmetry_multiplicity
 _atom_site_fract_x
 _atom_site_fract_y
 _atom_site_fract_z
 _atom_site_occupancy
  Hf  Hf0  1  0.385223  0.410215  0.500000  1
  Hf  Hf1  1  0.588576  0.972977  0.500000  1
  Hf  Hf2  1  0.026013  0.619338  0.500000  1
  Al  Al3  1  0.995397  0.252296  0.000000  1
  Zn  Zn4  1  0.669608  0.333286  0.000000  1
  Ga  Ga5  1  0.741095  0.738738  0.000000  1
  Ga  Ga6  1  0.264165  0.008443  0.000000  1
  Fe  Fe7  1  0.329574  0.663775  0.000000  1
  Ni  Ni8  1  0.000348  0.000931  0.500000  1
