# generated using pymatgen
data_PuPaBe26
_symmetry_space_group_name_H-M   'P 1'
_cell_length_a   7.23883971
_cell_length_b   7.23883988
_cell_length_c   7.23884000
_cell_angle_alpha   59.99999944
_cell_angle_beta   59.99999868
_cell_angle_gamma   59.99999988
_symmetry_Int_Tables_number   1
_chemical_formula_structural   PuPaBe26
_chemical_formula_sum   'Pu1 Pa1 Be26'
_cell_volume   268.22046034
_cell_formula_units_Z   1
loop_
 _symmetry_equiv_pos_site_id
 _symmetry_equiv_pos_as_xyz
  1  'x, y, z'
loop_
 _atom_site_type_symbol
 _atom_site_label
 _atom_site_symmetry_multiplicity
 _atom_site_fract_x
 _atom_site_fract_y
 _atom_site_fract_z
 _atom_site_occupancy
  Pu  Pu0  1  0.250000  0.250000  0.250000  1
  Pa  Pa1  1  0.750000  0.750000  0.750000  1
  Be  Be2  1  0.500000  0.500000  0.500000  1
  Be  Be3  1  0.000000  0.000000  0.000000  1
  Be  Be4  1  0.790578  0.560946  0.208550  1
  Be  Be5  1  0.208550  0.439925  0.790578  1
  Be  Be6  1  0.560946  0.790578  0.439925  1
  Be  Be7  1  0.439925  0.208550  0.560946  1
  Be  Be8  1  0.291450  0.939054  0.709422  1
  Be  Be9  1  0.709422  0.060075  0.291450  1
  Be  Be10  1  0.939054  0.291450  0.060075  1
  Be  Be11  1  0.060075  0.709422  0.939054  1
  Be  Be12  1  0.208550  0.790578  0.560946  1
  Be  Be13  1  0.790578  0.208550  0.439925  1
  Be  Be14  1  0.439925  0.560946  0.790578  1
  Be  Be15  1  0.560946  0.439925  0.208550  1
  Be  Be16  1  0.709422  0.291450  0.939054  1
  Be  Be17  1  0.291450  0.709422  0.060075  1
  Be  Be18  1  0.060075  0.939054  0.291450  1
  Be  Be19  1  0.939054  0.060075  0.709422  1
  Be  Be20  1  0.560946  0.208550  0.790578  1
  Be  Be21  1  0.439925  0.790578  0.208550  1
  Be  Be22  1  0.790578  0.439925  0.560946  1
  Be  Be23  1  0.208550  0.560946  0.439925  1
  Be  Be24  1  0.939054  0.709422  0.291450  1
  Be  Be25  1  0.060075  0.291450  0.709422  1
  Be  Be26  1  0.291450  0.060075  0.939054  1
  Be  Be27  1  0.709422  0.939054  0.060075  1
