# generated using pymatgen
data_Ag3Hg4CO11
_symmetry_space_group_name_H-M   'P 1'
_cell_length_a   7.57517616
_cell_length_b   7.10693245
_cell_length_c   7.10693231
_cell_angle_alpha   59.75511585
_cell_angle_beta   63.50443385
_cell_angle_gamma   63.50443353
_symmetry_Int_Tables_number   1
_chemical_formula_structural   Ag3Hg4CO11
_chemical_formula_sum   'Ag3 Hg4 C1 O11'
_cell_volume   283.42398550
_cell_formula_units_Z   1
loop_
 _symmetry_equiv_pos_site_id
 _symmetry_equiv_pos_as_xyz
  1  'x, y, z'
loop_
 _atom_site_type_symbol
 _atom_site_label
 _atom_site_symmetry_multiplicity
 _atom_site_fract_x
 _atom_site_fract_y
 _atom_site_fract_z
 _atom_site_occupancy
  Ag  Ag0  1  0.997592  0.001588  0.501810  1
  Ag  Ag1  1  0.997510  0.501711  0.501711  1
  Ag  Ag2  1  0.997592  0.501810  0.001588  1
  Hg  Hg3  1  0.999316  0.000773  0.000773  1
  Hg  Hg4  1  0.496442  0.000652  0.000652  1
  Hg  Hg5  1  0.495204  0.500783  0.999141  1
  Hg  Hg6  1  0.495204  0.999141  0.500783  1
  C  C7  1  0.508189  0.497459  0.497459  1
  O  O8  1  0.583965  0.139260  0.139260  1
  O  O9  1  0.104927  0.584704  0.160039  1
  O  O10  1  0.107503  0.156726  0.156726  1
  O  O11  1  0.104927  0.160039  0.584704  1
  O  O12  1  0.566822  0.589371  0.277218  1
  O  O13  1  0.566822  0.277218  0.589371  1
  O  O14  1  0.398606  0.618781  0.618781  1
  O  O15  1  0.890702  0.843750  0.417674  1
  O  O16  1  0.890702  0.417674  0.843750  1
  O  O17  1  0.890005  0.846091  0.846091  1
  O  O18  1  0.407969  0.862466  0.862466  1
