# generated using pymatgen
data_RbTm2LuSe5
_symmetry_space_group_name_H-M   'P 1'
_cell_length_a   4.08789300
_cell_length_b   12.22929900
_cell_length_c   21.83299200
_cell_angle_alpha   90.00000000
_cell_angle_beta   90.00000000
_cell_angle_gamma   90.00000000
_symmetry_Int_Tables_number   1
_chemical_formula_structural   RbTm2LuSe5
_chemical_formula_sum   'Rb4 Tm8 Lu4 Se20'
_cell_volume   1091.47637217
_cell_formula_units_Z   4
loop_
 _symmetry_equiv_pos_site_id
 _symmetry_equiv_pos_as_xyz
  1  'x, y, z'
loop_
 _atom_site_type_symbol
 _atom_site_label
 _atom_site_symmetry_multiplicity
 _atom_site_fract_x
 _atom_site_fract_y
 _atom_site_fract_z
 _atom_site_occupancy
  Rb  Rb0  1  0.250000  0.852201  0.093076  1
  Rb  Rb1  1  0.750000  0.147799  0.906924  1
  Rb  Rb2  1  0.750000  0.352201  0.406924  1
  Rb  Rb3  1  0.250000  0.647799  0.593076  1
  Tm  Tm4  1  0.750000  0.798180  0.825961  1
  Tm  Tm5  1  0.250000  0.201820  0.174039  1
  Tm  Tm6  1  0.250000  0.298180  0.674039  1
  Tm  Tm7  1  0.750000  0.701820  0.325961  1
  Tm  Tm8  1  0.250000  0.956262  0.697943  1
  Tm  Tm9  1  0.750000  0.043738  0.302057  1
  Tm  Tm10  1  0.750000  0.456262  0.802057  1
  Tm  Tm11  1  0.250000  0.543738  0.197943  1
  Lu  Lu12  1  0.750000  0.391453  0.053875  1
  Lu  Lu13  1  0.250000  0.608547  0.946125  1
  Lu  Lu14  1  0.250000  0.891453  0.446125  1
  Lu  Lu15  1  0.750000  0.108547  0.553875  1
  Se  Se16  1  0.250000  0.948091  0.568651  1
  Se  Se17  1  0.750000  0.051909  0.431349  1
  Se  Se18  1  0.750000  0.448091  0.931349  1
  Se  Se19  1  0.250000  0.551909  0.068651  1
  Se  Se20  1  0.750000  0.764914  0.953947  1
  Se  Se21  1  0.250000  0.235086  0.046053  1
  Se  Se22  1  0.250000  0.264914  0.546053  1
  Se  Se23  1  0.750000  0.735086  0.453947  1
  Se  Se24  1  0.250000  0.952840  0.826814  1
  Se  Se25  1  0.750000  0.047160  0.173186  1
  Se  Se26  1  0.750000  0.452840  0.673186  1
  Se  Se27  1  0.250000  0.547160  0.326814  1
  Se  Se28  1  0.750000  0.126288  0.684400  1
  Se  Se29  1  0.250000  0.873712  0.315600  1
  Se  Se30  1  0.250000  0.626288  0.815600  1
  Se  Se31  1  0.750000  0.373712  0.184400  1
  Se  Se32  1  0.750000  0.696675  0.197094  1
  Se  Se33  1  0.250000  0.303325  0.802906  1
  Se  Se34  1  0.250000  0.196675  0.302906  1
  Se  Se35  1  0.750000  0.803325  0.697094  1
