# generated using pymatgen
data_Ho4Al18RePt5
_symmetry_space_group_name_H-M   'P 1'
_cell_length_a   7.59629693
_cell_length_b   7.59629715
_cell_length_c   9.47470501
_cell_angle_alpha   89.73139690
_cell_angle_beta   89.73140167
_cell_angle_gamma   119.31494117
_symmetry_Int_Tables_number   1
_chemical_formula_structural   Ho4Al18RePt5
_chemical_formula_sum   'Ho4 Al18 Re1 Pt5'
_cell_volume   476.69246180
_cell_formula_units_Z   1
loop_
 _symmetry_equiv_pos_site_id
 _symmetry_equiv_pos_as_xyz
  1  'x, y, z'
loop_
 _atom_site_type_symbol
 _atom_site_label
 _atom_site_symmetry_multiplicity
 _atom_site_fract_x
 _atom_site_fract_y
 _atom_site_fract_z
 _atom_site_occupancy
  Ho  Ho0  1  0.995499  0.674043  0.247885  1
  Ho  Ho1  1  0.004501  0.325957  0.752115  1
  Ho  Ho2  1  0.674043  0.995499  0.247885  1
  Ho  Ho3  1  0.325957  0.004501  0.752115  1
  Al  Al4  1  0.130433  0.130433  0.247326  1
  Al  Al5  1  0.869567  0.869567  0.752674  1
  Al  Al6  1  0.999523  0.330601  0.074829  1
  Al  Al7  1  0.000477  0.669399  0.925171  1
  Al  Al8  1  0.998914  0.662888  0.578797  1
  Al  Al9  1  0.337112  0.001086  0.421203  1
  Al  Al10  1  0.001086  0.337112  0.421203  1
  Al  Al11  1  0.662888  0.998914  0.578797  1
  Al  Al12  1  0.669399  0.000477  0.925171  1
  Al  Al13  1  0.330601  0.999523  0.074829  1
  Al  Al14  1  0.333029  0.333029  0.557827  1
  Al  Al15  1  0.666971  0.666972  0.442173  1
  Al  Al16  1  0.670662  0.670663  0.053611  1
  Al  Al17  1  0.329338  0.329338  0.946389  1
  Al  Al18  1  0.341430  0.548019  0.249316  1
  Al  Al19  1  0.658570  0.451981  0.750684  1
  Al  Al20  1  0.548019  0.341430  0.249316  1
  Al  Al21  1  0.451981  0.658570  0.750684  1
  Re  Re22  1  0.000000  0.000000  0.000000  1
  Pt  Pt23  1  0.672163  0.327837  0.000000  1
  Pt  Pt24  1  0.327837  0.672163  0.000000  1
  Pt  Pt25  1  0.327731  0.672269  0.500000  1
  Pt  Pt26  1  0.672269  0.327731  0.500000  1
  Pt  Pt27  1  0.000000  0.000000  0.500000  1
