# generated using pymatgen
data_Tm16In4RuPt3
_symmetry_space_group_name_H-M   'P 1'
_cell_length_a   9.58565417
_cell_length_b   9.58565345
_cell_length_c   9.58565375
_cell_angle_alpha   59.91728703
_cell_angle_beta   59.91728688
_cell_angle_gamma   59.91728219
_symmetry_Int_Tables_number   1
_chemical_formula_structural   Tm16In4RuPt3
_chemical_formula_sum   'Tm16 In4 Ru1 Pt3'
_cell_volume   621.63374029
_cell_formula_units_Z   1
loop_
 _symmetry_equiv_pos_site_id
 _symmetry_equiv_pos_as_xyz
  1  'x, y, z'
loop_
 _atom_site_type_symbol
 _atom_site_label
 _atom_site_symmetry_multiplicity
 _atom_site_fract_x
 _atom_site_fract_y
 _atom_site_fract_z
 _atom_site_occupancy
  Tm  Tm0  1  0.351742  0.351742  0.351742  1
  Tm  Tm1  1  0.348778  0.348778  0.948418  1
  Tm  Tm2  1  0.348778  0.948418  0.348778  1
  Tm  Tm3  1  0.948418  0.348778  0.348778  1
  Tm  Tm4  1  0.815148  0.188836  0.188836  1
  Tm  Tm5  1  0.190771  0.809772  0.809772  1
  Tm  Tm6  1  0.188836  0.815148  0.188836  1
  Tm  Tm7  1  0.809772  0.190771  0.809772  1
  Tm  Tm8  1  0.188836  0.188836  0.815148  1
  Tm  Tm9  1  0.809772  0.809772  0.190771  1
  Tm  Tm10  1  0.936484  0.562366  0.562366  1
  Tm  Tm11  1  0.558941  0.939087  0.939087  1
  Tm  Tm12  1  0.562366  0.936484  0.562366  1
  Tm  Tm13  1  0.939087  0.558941  0.939087  1
  Tm  Tm14  1  0.562366  0.562366  0.936484  1
  Tm  Tm15  1  0.939087  0.939087  0.558941  1
  In  In16  1  0.584156  0.584156  0.584156  1
  In  In17  1  0.583679  0.583679  0.249103  1
  In  In18  1  0.583679  0.249103  0.583679  1
  In  In19  1  0.249103  0.583679  0.583679  1
  Ru  Ru20  1  0.142358  0.142358  0.142358  1
  Pt  Pt21  1  0.142863  0.142863  0.572122  1
  Pt  Pt22  1  0.142863  0.572122  0.142863  1
  Pt  Pt23  1  0.572122  0.142863  0.142863  1
