# generated using pymatgen
data_Ce3Y(B2Os)4
_symmetry_space_group_name_H-M   'P 1'
_cell_length_a   5.90406728
_cell_length_b   5.37636300
_cell_length_c   6.49996235
_cell_angle_alpha   90.00000000
_cell_angle_beta   89.88141124
_cell_angle_gamma   90.00000000
_symmetry_Int_Tables_number   1
_chemical_formula_structural   Ce3Y(B2Os)4
_chemical_formula_sum   'Ce3 Y1 B8 Os4'
_cell_volume   206.32402073
_cell_formula_units_Z   1
loop_
 _symmetry_equiv_pos_site_id
 _symmetry_equiv_pos_as_xyz
  1  'x, y, z'
loop_
 _atom_site_type_symbol
 _atom_site_label
 _atom_site_symmetry_multiplicity
 _atom_site_fract_x
 _atom_site_fract_y
 _atom_site_fract_z
 _atom_site_occupancy
  Ce  Ce0  1  0.002922  0.250000  0.339209  1
  Ce  Ce1  1  0.504110  0.250000  0.164209  1
  Ce  Ce2  1  0.994359  0.750000  0.658145  1
  Y  Y3  1  0.494590  0.750000  0.837999  1
  B  B4  1  0.370784  0.086714  0.539743  1
  B  B5  1  0.869248  0.415334  0.961036  1
  B  B6  1  0.627726  0.586548  0.463902  1
  B  B7  1  0.132383  0.914495  0.035892  1
  B  B8  1  0.627726  0.913452  0.463902  1
  B  B9  1  0.132383  0.585505  0.035892  1
  B  B10  1  0.370784  0.413286  0.539743  1
  B  B11  1  0.869248  0.084666  0.961036  1
  Os  Os12  1  0.184272  0.250000  0.814158  1
  Os  Os13  1  0.686838  0.250000  0.685295  1
  Os  Os14  1  0.819319  0.750000  0.188889  1
  Os  Os15  1  0.313308  0.750000  0.310950  1
