# generated using pymatgen
data_Tb5Ta3(Co4As3)4
_symmetry_space_group_name_H-M   'P 1'
_cell_length_a   12.61491800
_cell_length_b   12.61491811
_cell_length_c   3.83332500
_cell_angle_alpha   90.00000000
_cell_angle_beta   90.00000000
_cell_angle_gamma   120.00000497
_symmetry_Int_Tables_number   1
_chemical_formula_structural   Tb5Ta3(Co4As3)4
_chemical_formula_sum   'Tb5 Ta3 Co16 As12'
_cell_volume   528.29331944
_cell_formula_units_Z   1
loop_
 _symmetry_equiv_pos_site_id
 _symmetry_equiv_pos_as_xyz
  1  'x, y, z'
loop_
 _atom_site_type_symbol
 _atom_site_label
 _atom_site_symmetry_multiplicity
 _atom_site_fract_x
 _atom_site_fract_y
 _atom_site_fract_z
 _atom_site_occupancy
  Tb  Tb0  1  0.184535  0.184535  0.500000  1
  Tb  Tb1  1  0.815465  0.000000  0.500000  1
  Tb  Tb2  1  0.000000  0.815465  0.500000  1
  Tb  Tb3  1  0.333333  0.666667  0.000000  1
  Tb  Tb4  1  0.666667  0.333333  0.000000  1
  Ta  Ta5  1  0.562459  0.562459  0.000000  1
  Ta  Ta6  1  0.437541  0.000000  0.000000  1
  Ta  Ta7  1  0.000000  0.437541  0.000000  1
  Co  Co8  1  0.716893  0.716893  0.500000  1
  Co  Co9  1  0.283107  0.000000  0.500000  1
  Co  Co10  1  0.000000  0.283107  0.500000  1
  Co  Co11  1  0.176706  0.375532  0.000000  1
  Co  Co12  1  0.624468  0.801174  0.000000  1
  Co  Co13  1  0.198826  0.823294  0.000000  1
  Co  Co14  1  0.801174  0.624468  0.000000  1
  Co  Co15  1  0.823294  0.198826  0.000000  1
  Co  Co16  1  0.375532  0.176706  0.000000  1
  Co  Co17  1  0.358690  0.481720  0.500000  1
  Co  Co18  1  0.518280  0.876972  0.500000  1
  Co  Co19  1  0.123028  0.641310  0.500000  1
  Co  Co20  1  0.876972  0.518280  0.500000  1
  Co  Co21  1  0.641310  0.123028  0.500000  1
  Co  Co22  1  0.481720  0.358690  0.500000  1
  Co  Co23  1  0.000000  0.000000  0.000000  1
  As  As24  1  0.822842  0.822842  0.000000  1
  As  As25  1  0.177158  0.000000  0.000000  1
  As  As26  1  0.000000  0.177158  0.000000  1
  As  As27  1  0.170951  0.482101  0.500000  1
  As  As28  1  0.517899  0.688850  0.500000  1
  As  As29  1  0.311150  0.829049  0.500000  1
  As  As30  1  0.688850  0.517899  0.500000  1
  As  As31  1  0.829049  0.311150  0.500000  1
  As  As32  1  0.482101  0.170951  0.500000  1
  As  As33  1  0.357158  0.357158  0.000000  1
  As  As34  1  0.642842  0.000000  0.000000  1
  As  As35  1  0.000000  0.642842  0.000000  1
