# generated using pymatgen
data_Tb20Ir7Au5
_symmetry_space_group_name_H-M   'P 1'
_cell_length_a   11.23799432
_cell_length_b   11.23799432
_cell_length_c   6.35320109
_cell_angle_alpha   90.01637227
_cell_angle_beta   90.01637227
_cell_angle_gamma   89.59508267
_symmetry_Int_Tables_number   1
_chemical_formula_structural   Tb20Ir7Au5
_chemical_formula_sum   'Tb20 Ir7 Au5'
_cell_volume   802.34165013
_cell_formula_units_Z   1
loop_
 _symmetry_equiv_pos_site_id
 _symmetry_equiv_pos_as_xyz
  1  'x, y, z'
loop_
 _atom_site_type_symbol
 _atom_site_label
 _atom_site_symmetry_multiplicity
 _atom_site_fract_x
 _atom_site_fract_y
 _atom_site_fract_z
 _atom_site_occupancy
  Tb  Tb0  1  0.300660  0.091823  0.365957  1
  Tb  Tb1  1  0.302523  0.906708  0.865630  1
  Tb  Tb2  1  0.698024  0.081464  0.860567  1
  Tb  Tb3  1  0.697940  0.905174  0.363126  1
  Tb  Tb4  1  0.582407  0.785165  0.879086  1
  Tb  Tb5  1  0.577345  0.206443  0.364970  1
  Tb  Tb6  1  0.416785  0.789430  0.378988  1
  Tb  Tb7  1  0.410398  0.208437  0.879178  1
  Tb  Tb8  1  0.214835  0.417593  0.620914  1
  Tb  Tb9  1  0.210570  0.583215  0.121012  1
  Tb  Tb10  1  0.793557  0.422655  0.135030  1
  Tb  Tb11  1  0.791563  0.589602  0.620822  1
  Tb  Tb12  1  0.908177  0.699340  0.134043  1
  Tb  Tb13  1  0.918536  0.301976  0.639433  1
  Tb  Tb14  1  0.093292  0.697477  0.634370  1
  Tb  Tb15  1  0.094826  0.302060  0.136874  1
  Tb  Tb16  1  0.999225  0.000179  0.499547  1
  Tb  Tb17  1  0.999821  0.000775  0.000453  1
  Tb  Tb18  1  0.495399  0.502850  0.001249  1
  Tb  Tb19  1  0.497150  0.504601  0.498751  1
  Ir  Ir20  1  0.653321  0.651871  0.251068  1
  Ir  Ir21  1  0.348129  0.346679  0.248932  1
  Ir  Ir22  1  0.344927  0.655073  0.750000  1
  Ir  Ir23  1  0.500141  0.999761  0.113974  1
  Ir  Ir24  1  0.499682  0.001176  0.615064  1
  Ir  Ir25  1  0.998824  0.500318  0.884936  1
  Ir  Ir26  1  0.000239  0.499859  0.386026  1
  Au  Au27  1  0.842038  0.157962  0.250000  1
  Au  Au28  1  0.843616  0.845451  0.750686  1
  Au  Au29  1  0.154549  0.156384  0.749314  1
  Au  Au30  1  0.155950  0.844050  0.250000  1
  Au  Au31  1  0.655550  0.344450  0.750000  1
