# generated using pymatgen
data_Ho6TiAl23Ru8
_symmetry_space_group_name_H-M   'P 1'
_cell_length_a   8.82046600
_cell_length_b   8.82046632
_cell_length_c   9.55280100
_cell_angle_alpha   90.00000000
_cell_angle_beta   90.00000000
_cell_angle_gamma   119.99999880
_symmetry_Int_Tables_number   1
_chemical_formula_structural   Ho6TiAl23Ru8
_chemical_formula_sum   'Ho6 Ti1 Al23 Ru8'
_cell_volume   643.64210137
_cell_formula_units_Z   1
loop_
 _symmetry_equiv_pos_site_id
 _symmetry_equiv_pos_as_xyz
  1  'x, y, z'
loop_
 _atom_site_type_symbol
 _atom_site_label
 _atom_site_symmetry_multiplicity
 _atom_site_fract_x
 _atom_site_fract_y
 _atom_site_fract_z
 _atom_site_occupancy
  Ho  Ho0  1  0.194085  0.388172  0.249563  1
  Ho  Ho1  1  0.806517  0.613033  0.748904  1
  Ho  Ho2  1  0.611828  0.805915  0.249563  1
  Ho  Ho3  1  0.386967  0.193483  0.748904  1
  Ho  Ho4  1  0.194085  0.805915  0.249563  1
  Ho  Ho5  1  0.806517  0.193483  0.748904  1
  Ti  Ti6  1  0.333333  0.666667  0.995407  1
  Al  Al7  1  0.666667  0.333333  0.982930  1
  Al  Al8  1  0.666667  0.333333  0.514580  1
  Al  Al9  1  0.333333  0.666667  0.483118  1
  Al  Al10  1  0.161528  0.323058  0.577407  1
  Al  Al11  1  0.838200  0.676400  0.422301  1
  Al  Al12  1  0.676942  0.838472  0.577407  1
  Al  Al13  1  0.837523  0.675045  0.078333  1
  Al  Al14  1  0.323600  0.161800  0.422301  1
  Al  Al15  1  0.158737  0.317474  0.923274  1
  Al  Al16  1  0.161528  0.838472  0.577407  1
  Al  Al17  1  0.324955  0.162477  0.078333  1
  Al  Al18  1  0.838200  0.161800  0.422301  1
  Al  Al19  1  0.682526  0.841263  0.923274  1
  Al  Al20  1  0.837523  0.162477  0.078333  1
  Al  Al21  1  0.158737  0.841263  0.923274  1
  Al  Al22  1  0.561673  0.123346  0.252563  1
  Al  Al23  1  0.440189  0.880377  0.750490  1
  Al  Al24  1  0.876654  0.438327  0.252563  1
  Al  Al25  1  0.119623  0.559811  0.750490  1
  Al  Al26  1  0.561673  0.438327  0.252563  1
  Al  Al27  1  0.440189  0.559811  0.750490  1
  Al  Al28  1  0.000000  0.000000  0.249137  1
  Al  Al29  1  0.000000  0.000000  0.748797  1
  Ru  Ru30  1  0.498428  0.996857  0.002839  1
  Ru  Ru31  1  0.003143  0.501572  0.002839  1
  Ru  Ru32  1  0.499851  0.999701  0.503603  1
  Ru  Ru33  1  0.498428  0.501572  0.002839  1
  Ru  Ru34  1  0.000299  0.500149  0.503603  1
  Ru  Ru35  1  0.499851  0.500149  0.503603  1
  Ru  Ru36  1  0.000000  0.000000  0.999652  1
  Ru  Ru37  1  0.000000  0.000000  0.498546  1
