# generated using pymatgen
data_Lu8TiSi16Tc11
_symmetry_space_group_name_H-M   'P 1'
_cell_length_a   6.75261483
_cell_length_b   6.77158767
_cell_length_c   12.54906905
_cell_angle_alpha   90.07697891
_cell_angle_beta   90.29648047
_cell_angle_gamma   90.16271132
_symmetry_Int_Tables_number   1
_chemical_formula_structural   Lu8TiSi16Tc11
_chemical_formula_sum   'Lu8 Ti1 Si16 Tc11'
_cell_volume   573.80724384
_cell_formula_units_Z   1
loop_
 _symmetry_equiv_pos_site_id
 _symmetry_equiv_pos_as_xyz
  1  'x, y, z'
loop_
 _atom_site_type_symbol
 _atom_site_label
 _atom_site_symmetry_multiplicity
 _atom_site_fract_x
 _atom_site_fract_y
 _atom_site_fract_z
 _atom_site_occupancy
  Lu  Lu0  1  0.335482  0.994809  0.468525  1
  Lu  Lu1  1  0.501358  0.836039  0.720541  1
  Lu  Lu2  1  0.494578  0.159441  0.219173  1
  Lu  Lu3  1  0.837569  0.501083  0.278731  1
  Lu  Lu4  1  0.160151  0.492736  0.781760  1
  Lu  Lu5  1  0.660408  0.001929  0.970932  1
  Lu  Lu6  1  0.998187  0.339466  0.529760  1
  Lu  Lu7  1  0.002713  0.659010  0.030232  1
  Ti  Ti8  1  0.997878  0.831109  0.621753  1
  Si  Si9  1  0.200773  0.121601  0.684073  1
  Si  Si10  1  0.382093  0.691153  0.936895  1
  Si  Si11  1  0.618963  0.309041  0.436993  1
  Si  Si12  1  0.690998  0.381907  0.064241  1
  Si  Si13  1  0.306694  0.621252  0.563486  1
  Si  Si14  1  0.808403  0.881955  0.187461  1
  Si  Si15  1  0.119940  0.195138  0.314407  1
  Si  Si16  1  0.882193  0.801649  0.815706  1
  Si  Si17  1  0.271024  0.978429  0.062677  1
  Si  Si18  1  0.528671  0.780279  0.314622  1
  Si  Si19  1  0.473915  0.216502  0.814867  1
  Si  Si20  1  0.783747  0.526114  0.687663  1
  Si  Si21  1  0.223666  0.475729  0.185601  1
  Si  Si22  1  0.706897  0.040663  0.564359  1
  Si  Si23  1  0.977818  0.269202  0.937374  1
  Si  Si24  1  0.032226  0.720236  0.429763  1
  Tc  Tc25  1  0.329982  0.332877  0.001543  1
  Tc  Tc26  1  0.168900  0.831971  0.248097  1
  Tc  Tc27  1  0.835183  0.162260  0.749820  1
  Tc  Tc28  1  0.672423  0.667165  0.500516  1
  Tc  Tc29  1  0.186716  0.972439  0.869087  1
  Tc  Tc30  1  0.523268  0.681496  0.121785  1
  Tc  Tc31  1  0.490645  0.326732  0.624603  1
  Tc  Tc32  1  0.674813  0.511977  0.878911  1
  Tc  Tc33  1  0.323336  0.477915  0.376791  1
  Tc  Tc34  1  0.825487  0.025397  0.375268  1
  Tc  Tc35  1  0.972900  0.183300  0.131983  1
