# generated using pymatgen
data_Ce2Y2ScAl3Ir4
_symmetry_space_group_name_H-M   'P 1'
_cell_length_a   6.93727423
_cell_length_b   4.32216100
_cell_length_c   8.07691463
_cell_angle_alpha   90.00000000
_cell_angle_beta   90.09215548
_cell_angle_gamma   90.00000000
_symmetry_Int_Tables_number   1
_chemical_formula_structural   Ce2Y2ScAl3Ir4
_chemical_formula_sum   'Ce2 Y2 Sc1 Al3 Ir4'
_cell_volume   242.17802516
_cell_formula_units_Z   1
loop_
 _symmetry_equiv_pos_site_id
 _symmetry_equiv_pos_as_xyz
  1  'x, y, z'
loop_
 _atom_site_type_symbol
 _atom_site_label
 _atom_site_symmetry_multiplicity
 _atom_site_fract_x
 _atom_site_fract_y
 _atom_site_fract_z
 _atom_site_occupancy
  Ce  Ce0  1  0.030275  0.750000  0.826511  1
  Ce  Ce1  1  0.538241  0.750000  0.685441  1
  Y  Y2  1  0.959059  0.250000  0.177030  1
  Y  Y3  1  0.475316  0.250000  0.310449  1
  Sc  Sc4  1  0.132610  0.750000  0.433593  1
  Al  Al5  1  0.860362  0.250000  0.558703  1
  Al  Al6  1  0.363994  0.250000  0.944700  1
  Al  Al7  1  0.639549  0.750000  0.066889  1
  Ir  Ir8  1  0.736000  0.250000  0.876894  1
  Ir  Ir9  1  0.243277  0.250000  0.626993  1
  Ir  Ir10  1  0.264570  0.750000  0.106411  1
  Ir  Ir11  1  0.756749  0.750000  0.386385  1
