# generated using pymatgen
data_Rb6TbRhF12
_symmetry_space_group_name_H-M   'P 1'
_cell_length_a   6.69074173
_cell_length_b   6.45692813
_cell_length_c   11.22282600
_cell_angle_alpha   55.27443748
_cell_angle_beta   90.05177458
_cell_angle_gamma   89.95580738
_symmetry_Int_Tables_number   1
_chemical_formula_structural   Rb6TbRhF12
_chemical_formula_sum   'Rb6 Tb1 Rh1 F12'
_cell_volume   398.48816006
_cell_formula_units_Z   1
loop_
 _symmetry_equiv_pos_site_id
 _symmetry_equiv_pos_as_xyz
  1  'x, y, z'
loop_
 _atom_site_type_symbol
 _atom_site_label
 _atom_site_symmetry_multiplicity
 _atom_site_fract_x
 _atom_site_fract_y
 _atom_site_fract_z
 _atom_site_occupancy
  Rb  Rb0  1  0.500000  0.500000  0.000000  1
  Rb  Rb1  1  0.000000  0.500000  0.500000  1
  Rb  Rb2  1  0.046584  0.715910  0.768456  1
  Rb  Rb3  1  0.953416  0.284090  0.231544  1
  Rb  Rb4  1  0.552849  0.250193  0.763808  1
  Rb  Rb5  1  0.447151  0.749807  0.236192  1
  Tb  Tb6  1  0.500000  0.000000  0.500000  1
  Rh  Rh7  1  0.000000  0.000000  0.000000  1
  F  F8  1  0.772284  0.767253  0.573594  1
  F  F9  1  0.227716  0.232747  0.426406  1
  F  F10  1  0.245308  0.218276  0.952350  1
  F  F11  1  0.754692  0.781724  0.047650  1
  F  F12  1  0.449468  0.884347  0.723203  1
  F  F13  1  0.550532  0.115653  0.276797  1
  F  F14  1  0.965579  0.120375  0.790873  1
  F  F15  1  0.034421  0.879625  0.209127  1
  F  F16  1  0.332248  0.666027  0.553531  1
  F  F17  1  0.667752  0.333973  0.446469  1
  F  F18  1  0.822374  0.281781  0.967449  1
  F  F19  1  0.177626  0.718219  0.032551  1
