# generated using pymatgen
data_Hf3Al2CuN
_symmetry_space_group_name_H-M   'P 1'
_cell_length_a   8.50336106
_cell_length_b   8.50336011
_cell_length_c   8.50336000
_cell_angle_alpha   60.00000042
_cell_angle_beta   60.00000412
_cell_angle_gamma   59.99999231
_symmetry_Int_Tables_number   1
_chemical_formula_structural   Hf3Al2CuN
_chemical_formula_sum   'Hf12 Al8 Cu4 N4'
_cell_volume   434.76717654
_cell_formula_units_Z   4
loop_
 _symmetry_equiv_pos_site_id
 _symmetry_equiv_pos_as_xyz
  1  'x, y, z'
loop_
 _atom_site_type_symbol
 _atom_site_label
 _atom_site_symmetry_multiplicity
 _atom_site_fract_x
 _atom_site_fract_y
 _atom_site_fract_z
 _atom_site_occupancy
  Hf  Hf0  1  0.815516  0.184484  0.184484  1
  Hf  Hf1  1  0.184484  0.815516  0.184484  1
  Hf  Hf2  1  0.815516  0.815516  0.184484  1
  Hf  Hf3  1  0.184484  0.815516  0.815516  1
  Hf  Hf4  1  0.815516  0.184484  0.815516  1
  Hf  Hf5  1  0.184484  0.184484  0.815516  1
  Hf  Hf6  1  0.434484  0.065516  0.065516  1
  Hf  Hf7  1  0.065516  0.434484  0.065516  1
  Hf  Hf8  1  0.434484  0.434484  0.065516  1
  Hf  Hf9  1  0.065516  0.434484  0.434484  1
  Hf  Hf10  1  0.434484  0.065516  0.434484  1
  Hf  Hf11  1  0.065516  0.065516  0.434484  1
  Al  Al12  1  0.418094  0.418094  0.745716  1
  Al  Al13  1  0.418094  0.418094  0.418094  1
  Al  Al14  1  0.745716  0.418094  0.418094  1
  Al  Al15  1  0.418094  0.745716  0.418094  1
  Al  Al16  1  0.831906  0.831906  0.504284  1
  Al  Al17  1  0.831906  0.831906  0.831906  1
  Al  Al18  1  0.504284  0.831906  0.831906  1
  Al  Al19  1  0.831906  0.504284  0.831906  1
  Cu  Cu20  1  0.625000  0.625000  0.125000  1
  Cu  Cu21  1  0.625000  0.625000  0.625000  1
  Cu  Cu22  1  0.125000  0.625000  0.625000  1
  Cu  Cu23  1  0.625000  0.125000  0.625000  1
  N  N24  1  0.125000  0.125000  0.625000  1
  N  N25  1  0.125000  0.125000  0.125000  1
  N  N26  1  0.625000  0.125000  0.125000  1
  N  N27  1  0.125000  0.625000  0.125000  1
