# generated using pymatgen
data_CeDyY(InRh)3
_symmetry_space_group_name_H-M   'P 1'
_cell_length_a   7.52942152
_cell_length_b   7.54648035
_cell_length_c   3.88647700
_cell_angle_alpha   90.00000000
_cell_angle_beta   90.00000000
_cell_angle_gamma   117.70164270
_symmetry_Int_Tables_number   1
_chemical_formula_structural   CeDyY(InRh)3
_chemical_formula_sum   'Ce1 Dy1 Y1 In3 Rh3'
_cell_volume   195.52037061
_cell_formula_units_Z   1
loop_
 _symmetry_equiv_pos_site_id
 _symmetry_equiv_pos_as_xyz
  1  'x, y, z'
loop_
 _atom_site_type_symbol
 _atom_site_label
 _atom_site_symmetry_multiplicity
 _atom_site_fract_x
 _atom_site_fract_y
 _atom_site_fract_z
 _atom_site_occupancy
  Ce  Ce0  1  0.416403  0.416561  0.500000  1
  Dy  Dy1  1  0.999966  0.593946  0.500000  1
  Y  Y2  1  0.594061  0.000076  0.500000  1
  In  In3  1  0.990778  0.256430  0.000000  1
  In  In4  1  0.258840  0.991634  0.000000  1
  In  In5  1  0.753481  0.754527  0.000000  1
  Rh  Rh6  1  0.331842  0.644081  0.000000  1
  Rh  Rh7  1  0.006503  0.004148  0.500000  1
  Rh  Rh8  1  0.648124  0.338596  0.000000  1
