# generated using pymatgen
data_DyY9In8(PtRh)2
_symmetry_space_group_name_H-M   'P 1'
_cell_length_a   3.63802100
_cell_length_b   8.13523380
_cell_length_c   18.28896700
_cell_angle_alpha   90.13986258
_cell_angle_beta   90.00000000
_cell_angle_gamma   90.00000000
_symmetry_Int_Tables_number   1
_chemical_formula_structural   DyY9In8(PtRh)2
_chemical_formula_sum   'Dy1 Y9 In8 Pt2 Rh2'
_cell_volume   541.28142375
_cell_formula_units_Z   1
loop_
 _symmetry_equiv_pos_site_id
 _symmetry_equiv_pos_as_xyz
  1  'x, y, z'
loop_
 _atom_site_type_symbol
 _atom_site_label
 _atom_site_symmetry_multiplicity
 _atom_site_fract_x
 _atom_site_fract_y
 _atom_site_fract_z
 _atom_site_occupancy
  Dy  Dy0  1  0.000000  0.750352  0.279099  1
  Y  Y1  1  0.000000  0.115543  0.412992  1
  Y  Y2  1  0.000000  0.884195  0.586989  1
  Y  Y3  1  0.000000  0.382490  0.914418  1
  Y  Y4  1  0.000000  0.617534  0.085671  1
  Y  Y5  1  0.000000  0.238288  0.221101  1
  Y  Y6  1  0.000000  0.761703  0.778948  1
  Y  Y7  1  0.000000  0.250661  0.720445  1
  Y  Y8  1  0.000000  0.999985  0.000035  1
  Y  Y9  1  0.000000  0.500050  0.499908  1
  In  In10  1  0.500000  0.423421  0.351008  1
  In  In11  1  0.500000  0.577054  0.649006  1
  In  In12  1  0.500000  0.071610  0.850131  1
  In  In13  1  0.500000  0.928518  0.149680  1
  In  In14  1  0.500000  0.292575  0.066749  1
  In  In15  1  0.500000  0.707518  0.933332  1
  In  In16  1  0.500000  0.205850  0.568376  1
  In  In17  1  0.500000  0.793865  0.431474  1
  Pt  Pt18  1  0.500000  0.477842  0.803091  1
  Pt  Pt19  1  0.500000  0.524190  0.197749  1
  Rh  Rh20  1  0.500000  0.018048  0.304413  1
  Rh  Rh21  1  0.500000  0.978711  0.695385  1
