# generated using pymatgen
data_YHo3Re5Os3
_symmetry_space_group_name_H-M   'P 1'
_cell_length_a   5.35427695
_cell_length_b   5.27671452
_cell_length_c   9.00352400
_cell_angle_alpha   89.99999827
_cell_angle_beta   90.00332097
_cell_angle_gamma   119.52194870
_symmetry_Int_Tables_number   1
_chemical_formula_structural   YHo3Re5Os3
_chemical_formula_sum   'Y1 Ho3 Re5 Os3'
_cell_volume   221.35001887
_cell_formula_units_Z   1
loop_
 _symmetry_equiv_pos_site_id
 _symmetry_equiv_pos_as_xyz
  1  'x, y, z'
loop_
 _atom_site_type_symbol
 _atom_site_label
 _atom_site_symmetry_multiplicity
 _atom_site_fract_x
 _atom_site_fract_y
 _atom_site_fract_z
 _atom_site_occupancy
  Y  Y0  1  0.333948  0.666974  0.063174  1
  Ho  Ho1  1  0.333867  0.666934  0.436956  1
  Ho  Ho2  1  0.668962  0.334481  0.564476  1
  Ho  Ho3  1  0.669008  0.334504  0.935334  1
  Re  Re4  1  0.829732  0.170090  0.250353  1
  Re  Re5  1  0.829732  0.659643  0.250353  1
  Re  Re6  1  0.344258  0.172129  0.250393  1
  Re  Re7  1  0.162938  0.829148  0.749735  1
  Re  Re8  1  0.162938  0.333790  0.749735  1
  Os  Os9  1  0.010429  0.005214  0.500264  1
  Os  Os10  1  0.010287  0.005143  0.999509  1
  Os  Os11  1  0.643900  0.821950  0.749718  1
