# generated using pymatgen
data_U(TcO5)2
_symmetry_space_group_name_H-M   'P 1'
_cell_length_a   5.80861635
_cell_length_b   5.83954656
_cell_length_c   8.35877037
_cell_angle_alpha   76.52365889
_cell_angle_beta   67.01080400
_cell_angle_gamma   83.76525557
_symmetry_Int_Tables_number   1
_chemical_formula_structural   U(TcO5)2
_chemical_formula_sum   'U1 Tc2 O10'
_cell_volume   253.77321147
_cell_formula_units_Z   1
loop_
 _symmetry_equiv_pos_site_id
 _symmetry_equiv_pos_as_xyz
  1  'x, y, z'
loop_
 _atom_site_type_symbol
 _atom_site_label
 _atom_site_symmetry_multiplicity
 _atom_site_fract_x
 _atom_site_fract_y
 _atom_site_fract_z
 _atom_site_occupancy
  U  U0  1  0.000000  0.000000  0.000000  1
  Tc  Tc1  1  0.662864  0.299931  0.690252  1
  Tc  Tc2  1  0.337136  0.700069  0.309748  1
  O  O3  1  0.877537  0.096798  0.756554  1
  O  O4  1  0.122463  0.903202  0.243446  1
  O  O5  1  0.690965  0.282835  0.482219  1
  O  O6  1  0.309035  0.717165  0.517781  1
  O  O7  1  0.189215  0.754046  0.924177  1
  O  O8  1  0.810785  0.245954  0.075823  1
  O  O9  1  0.648134  0.767057  0.157246  1
  O  O10  1  0.351866  0.232943  0.842754  1
  O  O11  1  0.734018  0.579277  0.683544  1
  O  O12  1  0.265982  0.420723  0.316456  1
