# generated using pymatgen
data_Sc4Al18RePd5
_symmetry_space_group_name_H-M   'P 1'
_cell_length_a   7.48299851
_cell_length_b   7.48299710
_cell_length_c   9.36734100
_cell_angle_alpha   90.16089246
_cell_angle_beta   90.16090008
_cell_angle_gamma   120.03740286
_symmetry_Int_Tables_number   1
_chemical_formula_structural   Sc4Al18RePd5
_chemical_formula_sum   'Sc4 Al18 Re1 Pd5'
_cell_volume   454.07493831
_cell_formula_units_Z   1
loop_
 _symmetry_equiv_pos_site_id
 _symmetry_equiv_pos_as_xyz
  1  'x, y, z'
loop_
 _atom_site_type_symbol
 _atom_site_label
 _atom_site_symmetry_multiplicity
 _atom_site_fract_x
 _atom_site_fract_y
 _atom_site_fract_z
 _atom_site_occupancy
  Sc  Sc0  1  0.993990  0.665144  0.247407  1
  Sc  Sc1  1  0.001254  0.329877  0.752504  1
  Sc  Sc2  1  0.670123  0.998746  0.247496  1
  Sc  Sc3  1  0.334856  0.006010  0.752593  1
  Al  Al4  1  0.122047  0.123581  0.250026  1
  Al  Al5  1  0.876419  0.877953  0.749974  1
  Al  Al6  1  0.997569  0.333389  0.077635  1
  Al  Al7  1  0.999875  0.661640  0.922490  1
  Al  Al8  1  0.003826  0.668533  0.580700  1
  Al  Al9  1  0.331467  0.996174  0.419300  1
  Al  Al10  1  0.996912  0.334353  0.421254  1
  Al  Al11  1  0.665647  0.003088  0.578746  1
  Al  Al12  1  0.666611  0.002431  0.922365  1
  Al  Al13  1  0.338360  0.000125  0.077510  1
  Al  Al14  1  0.330126  0.332232  0.567489  1
  Al  Al15  1  0.667768  0.669874  0.432511  1
  Al  Al16  1  0.670262  0.663817  0.061547  1
  Al  Al17  1  0.336183  0.329738  0.938453  1
  Al  Al18  1  0.336616  0.551334  0.249748  1
  Al  Al19  1  0.662184  0.451662  0.751903  1
  Al  Al20  1  0.548338  0.337816  0.248097  1
  Al  Al21  1  0.448666  0.663384  0.750252  1
  Re  Re22  1  0.673214  0.326786  0.000000  1
  Pd  Pd23  1  0.328667  0.671333  0.000000  1
  Pd  Pd24  1  0.327340  0.672660  0.500000  1
  Pd  Pd25  1  0.671172  0.328828  0.500000  1
  Pd  Pd26  1  0.001183  0.998817  0.000000  1
  Pd  Pd27  1  0.999321  0.000679  0.500000  1
