# generated using pymatgen
data_Zr2AlRh4Au
_symmetry_space_group_name_H-M   'P 1'
_cell_length_a   5.59042826
_cell_length_b   5.59042787
_cell_length_c   8.42650400
_cell_angle_alpha   90.00012471
_cell_angle_beta   90.00012763
_cell_angle_gamma   100.42337933
_symmetry_Int_Tables_number   1
_chemical_formula_structural   Zr2AlRh4Au
_chemical_formula_sum   'Zr4 Al2 Rh8 Au2'
_cell_volume   259.00665303
_cell_formula_units_Z   2
loop_
 _symmetry_equiv_pos_site_id
 _symmetry_equiv_pos_as_xyz
  1  'x, y, z'
loop_
 _atom_site_type_symbol
 _atom_site_label
 _atom_site_symmetry_multiplicity
 _atom_site_fract_x
 _atom_site_fract_y
 _atom_site_fract_z
 _atom_site_occupancy
  Zr  Zr0  1  0.767731  0.232269  0.500000  1
  Zr  Zr1  1  0.232272  0.767728  0.000000  1
  Zr  Zr2  1  0.232269  0.767731  0.500000  1
  Zr  Zr3  1  0.767728  0.232272  0.000000  1
  Al  Al4  1  0.500187  0.500187  0.749993  1
  Al  Al5  1  0.499813  0.499813  0.250007  1
  Rh  Rh6  1  0.720046  0.720046  0.000096  1
  Rh  Rh7  1  0.720042  0.720042  0.499904  1
  Rh  Rh8  1  0.279954  0.279954  0.999904  1
  Rh  Rh9  1  0.279958  0.279958  0.500096  1
  Rh  Rh10  1  0.499993  0.000052  0.750000  1
  Rh  Rh11  1  0.500007  0.999948  0.250000  1
  Rh  Rh12  1  0.000052  0.499993  0.750000  1
  Rh  Rh13  1  0.999948  0.500007  0.250000  1
  Au  Au14  1  0.000063  0.000063  0.249997  1
  Au  Au15  1  0.999937  0.999937  0.750003  1
