# generated using pymatgen
data_Tm2Co9Si7Ir3
_symmetry_space_group_name_H-M   'P 1'
_cell_length_a   3.71017700
_cell_length_b   9.13328800
_cell_length_c   9.13328800
_cell_angle_alpha   119.99999277
_cell_angle_beta   90.00000000
_cell_angle_gamma   90.00000000
_symmetry_Int_Tables_number   1
_chemical_formula_structural   Tm2Co9Si7Ir3
_chemical_formula_sum   'Tm2 Co9 Si7 Ir3'
_cell_volume   268.02764894
_cell_formula_units_Z   1
loop_
 _symmetry_equiv_pos_site_id
 _symmetry_equiv_pos_as_xyz
  1  'x, y, z'
loop_
 _atom_site_type_symbol
 _atom_site_label
 _atom_site_symmetry_multiplicity
 _atom_site_fract_x
 _atom_site_fract_y
 _atom_site_fract_z
 _atom_site_occupancy
  Tm  Tm0  1  0.000000  0.666667  0.333333  1
  Tm  Tm1  1  0.500000  0.333333  0.666667  1
  Co  Co2  1  0.000000  0.567073  0.943471  1
  Co  Co3  1  0.000000  0.376397  0.432927  1
  Co  Co4  1  0.000000  0.056529  0.623603  1
  Co  Co5  1  0.000000  0.873218  0.155867  1
  Co  Co6  1  0.000000  0.282648  0.126782  1
  Co  Co7  1  0.000000  0.844133  0.717352  1
  Co  Co8  1  0.500000  0.947611  0.383921  1
  Co  Co9  1  0.500000  0.436308  0.052389  1
  Co  Co10  1  0.500000  0.616079  0.563692  1
  Si  Si11  1  0.000000  0.000000  0.000000  1
  Si  Si12  1  0.500000  0.707397  0.117262  1
  Si  Si13  1  0.500000  0.409866  0.292603  1
  Si  Si14  1  0.500000  0.882738  0.590134  1
  Si  Si15  1  0.000000  0.591567  0.703602  1
  Si  Si16  1  0.000000  0.112037  0.408433  1
  Si  Si17  1  0.000000  0.296398  0.887963  1
  Ir  Ir18  1  0.500000  0.773137  0.896097  1
  Ir  Ir19  1  0.500000  0.122962  0.226863  1
  Ir  Ir20  1  0.500000  0.103903  0.877038  1
