# generated using pymatgen
data_Dy3Y4(TmBi2)3
_symmetry_space_group_name_H-M   'P 1'
_cell_length_a   8.22624400
_cell_length_b   9.49772300
_cell_length_c   12.04635000
_cell_angle_alpha   89.99688481
_cell_angle_beta   90.00000000
_cell_angle_gamma   90.00000000
_symmetry_Int_Tables_number   1
_chemical_formula_structural   Dy3Y4(TmBi2)3
_chemical_formula_sum   'Dy6 Y8 Tm6 Bi12'
_cell_volume   941.18839411
_cell_formula_units_Z   2
loop_
 _symmetry_equiv_pos_site_id
 _symmetry_equiv_pos_as_xyz
  1  'x, y, z'
loop_
 _atom_site_type_symbol
 _atom_site_label
 _atom_site_symmetry_multiplicity
 _atom_site_fract_x
 _atom_site_fract_y
 _atom_site_fract_z
 _atom_site_occupancy
  Dy  Dy0  1  0.307077  0.435393  0.940545  1
  Dy  Dy1  1  0.807077  0.064607  0.559455  1
  Dy  Dy2  1  0.692899  0.935992  0.059571  1
  Dy  Dy3  1  0.192899  0.564008  0.440429  1
  Dy  Dy4  1  0.692656  0.564071  0.059399  1
  Dy  Dy5  1  0.192656  0.935929  0.440601  1
  Y  Y6  1  0.186385  0.749952  0.718679  1
  Y  Y7  1  0.686385  0.750048  0.781321  1
  Y  Y8  1  0.813737  0.250219  0.281437  1
  Y  Y9  1  0.313737  0.249781  0.218563  1
  Y  Y10  1  0.354251  0.749863  0.215707  1
  Y  Y11  1  0.854251  0.750137  0.284293  1
  Y  Y12  1  0.646186  0.250091  0.784313  1
  Y  Y13  1  0.146186  0.249909  0.715687  1
  Tm  Tm14  1  0.025763  0.750205  0.988771  1
  Tm  Tm15  1  0.525763  0.749795  0.511229  1
  Tm  Tm16  1  0.975147  0.249699  0.010981  1
  Tm  Tm17  1  0.475147  0.250301  0.489019  1
  Tm  Tm18  1  0.307042  0.065363  0.940520  1
  Tm  Tm19  1  0.807042  0.434637  0.559480  1
  Bi  Bi20  1  0.433730  0.003898  0.672602  1
  Bi  Bi21  1  0.933730  0.496102  0.827398  1
  Bi  Bi22  1  0.566017  0.503849  0.327659  1
  Bi  Bi23  1  0.066017  0.996151  0.172341  1
  Bi  Bi24  1  0.566049  0.996259  0.327414  1
  Bi  Bi25  1  0.066049  0.503741  0.172586  1
  Bi  Bi26  1  0.434117  0.496136  0.672380  1
  Bi  Bi27  1  0.934117  0.003864  0.827620  1
  Bi  Bi28  1  0.405990  0.751640  0.957379  1
  Bi  Bi29  1  0.905990  0.748360  0.542621  1
  Bi  Bi30  1  0.592955  0.249424  0.042121  1
  Bi  Bi31  1  0.092955  0.250576  0.457879  1
