# generated using pymatgen
data_NaPu2(AsO4)3
_symmetry_space_group_name_H-M   'P 1'
_cell_length_a   9.81077301
_cell_length_b   9.81077312
_cell_length_c   9.81077243
_cell_angle_alpha   58.53760291
_cell_angle_beta   58.53760108
_cell_angle_gamma   58.53760715
_symmetry_Int_Tables_number   1
_chemical_formula_structural   NaPu2(AsO4)3
_chemical_formula_sum   'Na2 Pu4 As6 O24'
_cell_volume   645.38751803
_cell_formula_units_Z   2
loop_
 _symmetry_equiv_pos_site_id
 _symmetry_equiv_pos_as_xyz
  1  'x, y, z'
loop_
 _atom_site_type_symbol
 _atom_site_label
 _atom_site_symmetry_multiplicity
 _atom_site_fract_x
 _atom_site_fract_y
 _atom_site_fract_z
 _atom_site_occupancy
  Na  Na0  1  0.000000  0.000000  0.000000  1
  Na  Na1  1  0.500000  0.500000  0.500000  1
  Pu  Pu2  1  0.856209  0.856209  0.856209  1
  Pu  Pu3  1  0.643791  0.643791  0.643791  1
  Pu  Pu4  1  0.356209  0.356209  0.356209  1
  Pu  Pu5  1  0.143791  0.143791  0.143791  1
  As  As6  1  0.750000  0.042907  0.457093  1
  As  As7  1  0.957093  0.542907  0.250000  1
  As  As8  1  0.042907  0.457093  0.750000  1
  As  As9  1  0.250000  0.957093  0.542907  1
  As  As10  1  0.457093  0.750000  0.042907  1
  As  As11  1  0.542907  0.250000  0.957093  1
  O  O12  1  0.878572  0.492065  0.704281  1
  O  O13  1  0.268953  0.918804  0.061038  1
  O  O14  1  0.795719  0.007935  0.621428  1
  O  O15  1  0.581196  0.231047  0.438962  1
  O  O16  1  0.121428  0.507935  0.295719  1
  O  O17  1  0.918804  0.061038  0.268953  1
  O  O18  1  0.731047  0.081196  0.938962  1
  O  O19  1  0.768953  0.561038  0.418804  1
  O  O20  1  0.418804  0.768953  0.561038  1
  O  O21  1  0.492065  0.704281  0.878572  1
  O  O22  1  0.081196  0.938962  0.731047  1
  O  O23  1  0.204281  0.992065  0.378572  1
  O  O24  1  0.992065  0.378572  0.204281  1
  O  O25  1  0.378572  0.204281  0.992065  1
  O  O26  1  0.938962  0.731047  0.081196  1
  O  O27  1  0.507935  0.295719  0.121428  1
  O  O28  1  0.231047  0.438962  0.581196  1
  O  O29  1  0.621428  0.795719  0.007935  1
  O  O30  1  0.007935  0.621428  0.795719  1
  O  O31  1  0.438962  0.581196  0.231047  1
  O  O32  1  0.561038  0.418804  0.768953  1
  O  O33  1  0.704281  0.878572  0.492065  1
  O  O34  1  0.295719  0.121428  0.507935  1
  O  O35  1  0.061038  0.268953  0.918804  1
