# generated using pymatgen
data_GdCoSnPt
_symmetry_space_group_name_H-M   'P 1'
_cell_length_a   9.29967600
_cell_length_b   9.29967383
_cell_length_c   16.19993100
_cell_angle_alpha   90.00000000
_cell_angle_beta   90.00000000
_cell_angle_gamma   120.00002812
_symmetry_Int_Tables_number   1
_chemical_formula_structural   GdCoSnPt
_chemical_formula_sum   'Gd2 Co2 Sn2 Pt2'
_cell_volume   1213.33076055
_cell_formula_units_Z   2
loop_
 _symmetry_equiv_pos_site_id
 _symmetry_equiv_pos_as_xyz
  1  'x, y, z'
loop_
 _atom_site_type_symbol
 _atom_site_label
 _atom_site_symmetry_multiplicity
 _atom_site_fract_x
 _atom_site_fract_y
 _atom_site_fract_z
 _atom_site_occupancy
  Gd  Gd0  1  0.333333  0.666667  0.222133  1
  Gd  Gd1  1  0.666667  0.333333  0.777005  1
  Co  Co2  1  0.333333  0.666667  0.915329  1
  Co  Co3  1  0.666667  0.333333  0.080313  1
  Sn  Sn4  1  0.000000  0.000000  0.501513  1
  Sn  Sn5  1  0.000000  0.000000  0.998347  1
  Pt  Pt6  1  0.666667  0.333333  0.401462  1
  Pt  Pt7  1  0.333333  0.666667  0.603898  1
