# generated using pymatgen
data_Tm2CoNi3B4
_symmetry_space_group_name_H-M   'P 1'
_cell_length_a   4.88851393
_cell_length_b   4.91088589
_cell_length_c   6.89617562
_cell_angle_alpha   59.15724119
_cell_angle_beta   59.34073404
_cell_angle_gamma   63.33349236
_symmetry_Int_Tables_number   1
_chemical_formula_structural   Tm2CoNi3B4
_chemical_formula_sum   'Tm2 Co1 Ni3 B4'
_cell_volume   118.27328600
_cell_formula_units_Z   1
loop_
 _symmetry_equiv_pos_site_id
 _symmetry_equiv_pos_as_xyz
  1  'x, y, z'
loop_
 _atom_site_type_symbol
 _atom_site_label
 _atom_site_symmetry_multiplicity
 _atom_site_fract_x
 _atom_site_fract_y
 _atom_site_fract_z
 _atom_site_occupancy
  Tm  Tm0  1  0.119766  0.876974  0.254665  1
  Tm  Tm1  1  0.874643  0.117052  0.758253  1
  Co  Co2  1  0.466411  0.279392  0.200778  1
  Ni  Ni3  1  0.729011  0.533391  0.297841  1
  Ni  Ni4  1  0.535693  0.728200  0.793565  1
  Ni  Ni5  1  0.275924  0.468434  0.700052  1
  B  B6  1  0.165273  0.497234  0.021956  1
  B  B7  1  0.492989  0.848878  0.473625  1
  B  B8  1  0.842020  0.485938  0.980513  1
  B  B9  1  0.498268  0.164504  0.518751  1
