# generated using pymatgen
data_Zr6Zn5GaNi6
_symmetry_space_group_name_H-M   'P 1'
_cell_length_a   6.92055193
_cell_length_b   6.92522673
_cell_length_c   6.85730245
_cell_angle_alpha   89.99999833
_cell_angle_beta   89.99197673
_cell_angle_gamma   120.02234268
_symmetry_Int_Tables_number   1
_chemical_formula_structural   Zr6Zn5GaNi6
_chemical_formula_sum   'Zr6 Zn5 Ga1 Ni6'
_cell_volume   284.55147328
_cell_formula_units_Z   1
loop_
 _symmetry_equiv_pos_site_id
 _symmetry_equiv_pos_as_xyz
  1  'x, y, z'
loop_
 _atom_site_type_symbol
 _atom_site_label
 _atom_site_symmetry_multiplicity
 _atom_site_fract_x
 _atom_site_fract_y
 _atom_site_fract_z
 _atom_site_occupancy
  Zr  Zr0  1  0.405617  0.409370  0.751633  1
  Zr  Zr1  1  0.005330  0.597195  0.751386  1
  Zr  Zr2  1  0.588965  0.992730  0.751399  1
  Zr  Zr3  1  0.594383  0.003754  0.248367  1
  Zr  Zr4  1  0.994670  0.591865  0.248614  1
  Zr  Zr5  1  0.411035  0.403766  0.248601  1
  Zn  Zn6  1  0.254764  0.999997  0.999909  1
  Zn  Zn7  1  0.745236  0.745233  0.000091  1
  Zn  Zn8  1  0.000000  0.256213  0.000000  1
  Zn  Zn9  1  0.738325  0.737790  0.499920  1
  Zn  Zn10  1  0.261675  0.999464  0.500080  1
  Ga  Ga11  1  0.000000  0.259627  0.500000  1
  Ni  Ni12  1  0.667306  0.333777  0.989895  1
  Ni  Ni13  1  0.999977  0.002740  0.743281  1
  Ni  Ni14  1  0.668465  0.332855  0.510448  1
  Ni  Ni15  1  0.331535  0.664391  0.489552  1
  Ni  Ni16  1  0.332694  0.666473  0.010105  1
  Ni  Ni17  1  0.000023  0.002763  0.256719  1
