# generated using pymatgen
data_Hf9Ta3AsW
_symmetry_space_group_name_H-M   'P 1'
_cell_length_a   8.74895000
_cell_length_b   8.74895004
_cell_length_c   8.88172400
_cell_angle_alpha   90.00000000
_cell_angle_beta   90.00000000
_cell_angle_gamma   119.99999986
_symmetry_Int_Tables_number   1
_chemical_formula_structural   Hf9Ta3AsW
_chemical_formula_sum   'Hf18 Ta6 As2 W2'
_cell_volume   588.76200640
_cell_formula_units_Z   2
loop_
 _symmetry_equiv_pos_site_id
 _symmetry_equiv_pos_as_xyz
  1  'x, y, z'
loop_
 _atom_site_type_symbol
 _atom_site_label
 _atom_site_symmetry_multiplicity
 _atom_site_fract_x
 _atom_site_fract_y
 _atom_site_fract_z
 _atom_site_occupancy
  Hf  Hf0  1  0.196806  0.803194  0.453474  1
  Hf  Hf1  1  0.196806  0.393612  0.453474  1
  Hf  Hf2  1  0.606388  0.803194  0.453474  1
  Hf  Hf3  1  0.803194  0.196806  0.546526  1
  Hf  Hf4  1  0.803194  0.606388  0.546526  1
  Hf  Hf5  1  0.393612  0.196806  0.546526  1
  Hf  Hf6  1  0.803194  0.196806  0.953474  1
  Hf  Hf7  1  0.803194  0.606388  0.953474  1
  Hf  Hf8  1  0.393612  0.196806  0.953474  1
  Hf  Hf9  1  0.196806  0.803194  0.046526  1
  Hf  Hf10  1  0.196806  0.393612  0.046526  1
  Hf  Hf11  1  0.606388  0.803194  0.046526  1
  Hf  Hf12  1  0.539337  0.460663  0.250000  1
  Hf  Hf13  1  0.539337  0.078673  0.250000  1
  Hf  Hf14  1  0.921327  0.460663  0.250000  1
  Hf  Hf15  1  0.460663  0.539337  0.750000  1
  Hf  Hf16  1  0.460663  0.921327  0.750000  1
  Hf  Hf17  1  0.078673  0.539337  0.750000  1
  Ta  Ta18  1  0.888800  0.111200  0.250000  1
  Ta  Ta19  1  0.888800  0.777602  0.250000  1
  Ta  Ta20  1  0.222398  0.111200  0.250000  1
  Ta  Ta21  1  0.111200  0.888800  0.750000  1
  Ta  Ta22  1  0.111200  0.222398  0.750000  1
  Ta  Ta23  1  0.777602  0.888800  0.750000  1
  As  As24  1  0.333333  0.666667  0.250000  1
  As  As25  1  0.666667  0.333333  0.750000  1
  W  W26  1  0.000000  0.000000  0.500000  1
  W  W27  1  0.000000  0.000000  0.000000  1
