# generated using pymatgen
data_TiICl2
_symmetry_space_group_name_H-M   'P 1'
_cell_length_a   7.70690238
_cell_length_b   7.70690132
_cell_length_c   5.95605800
_cell_angle_alpha   90.00000000
_cell_angle_beta   90.00000000
_cell_angle_gamma   124.09287601
_symmetry_Int_Tables_number   1
_chemical_formula_structural   TiICl2
_chemical_formula_sum   'Ti2 I2 Cl4'
_cell_volume   292.96592583
_cell_formula_units_Z   2
loop_
 _symmetry_equiv_pos_site_id
 _symmetry_equiv_pos_as_xyz
  1  'x, y, z'
loop_
 _atom_site_type_symbol
 _atom_site_label
 _atom_site_symmetry_multiplicity
 _atom_site_fract_x
 _atom_site_fract_y
 _atom_site_fract_z
 _atom_site_occupancy
  Ti  Ti0  1  0.994989  0.994989  0.977128  1
  Ti  Ti1  1  0.994989  0.994989  0.522872  1
  I  I2  1  0.300125  0.006421  0.250000  1
  I  I3  1  0.006421  0.300125  0.250000  1
  Cl  Cl4  1  0.739779  0.739779  0.250000  1
  Cl  Cl5  1  0.726149  0.972406  0.750000  1
  Cl  Cl6  1  0.265143  0.265143  0.750000  1
  Cl  Cl7  1  0.972406  0.726149  0.750000  1
