# generated using pymatgen
data_Zn22MoPt2
_symmetry_space_group_name_H-M   'P 1'
_cell_length_a   7.86617501
_cell_length_b   7.86617498
_cell_length_c   7.87591197
_cell_angle_alpha   72.41473319
_cell_angle_beta   72.41473388
_cell_angle_gamma   58.20938068
_symmetry_Int_Tables_number   1
_chemical_formula_structural   Zn22MoPt2
_chemical_formula_sum   'Zn22 Mo1 Pt2'
_cell_volume   388.67274650
_cell_formula_units_Z   1
loop_
 _symmetry_equiv_pos_site_id
 _symmetry_equiv_pos_as_xyz
  1  'x, y, z'
loop_
 _atom_site_type_symbol
 _atom_site_label
 _atom_site_symmetry_multiplicity
 _atom_site_fract_x
 _atom_site_fract_y
 _atom_site_fract_z
 _atom_site_occupancy
  Zn  Zn0  1  0.338368  0.745391  0.314010  1
  Zn  Zn1  1  0.661632  0.254609  0.685990  1
  Zn  Zn2  1  0.254609  0.661632  0.685990  1
  Zn  Zn3  1  0.745391  0.338368  0.314010  1
  Zn  Zn4  1  0.681805  0.318195  0.000000  1
  Zn  Zn5  1  0.318195  0.681805  0.000000  1
  Zn  Zn6  1  0.830540  0.830540  0.783716  1
  Zn  Zn7  1  0.169460  0.169460  0.216284  1
  Zn  Zn8  1  0.975467  0.975467  0.171787  1
  Zn  Zn9  1  0.024533  0.024533  0.828213  1
  Zn  Zn10  1  0.350527  0.350527  0.279123  1
  Zn  Zn11  1  0.649473  0.649473  0.720877  1
  Zn  Zn12  1  0.688325  0.688325  0.378386  1
  Zn  Zn13  1  0.311675  0.311675  0.621614  1
  Zn  Zn14  1  0.658271  0.023287  0.459954  1
  Zn  Zn15  1  0.341729  0.976713  0.540046  1
  Zn  Zn16  1  0.976713  0.341729  0.540046  1
  Zn  Zn17  1  0.023287  0.658271  0.459954  1
  Zn  Zn18  1  0.619274  0.999620  0.107057  1
  Zn  Zn19  1  0.380726  0.000380  0.892943  1
  Zn  Zn20  1  0.000380  0.380726  0.892943  1
  Zn  Zn21  1  0.999620  0.619274  0.107057  1
  Mo  Mo22  1  0.000000  0.000000  0.500000  1
  Pt  Pt23  1  0.656242  0.656242  0.058668  1
  Pt  Pt24  1  0.343758  0.343758  0.941332  1
