# generated using pymatgen
data_Nd3Er4Th(ReB6)4
_symmetry_space_group_name_H-M   'P 1'
_cell_length_a   3.72958400
_cell_length_b   9.22754944
_cell_length_c   11.67958427
_cell_angle_alpha   90.05406555
_cell_angle_beta   90.00000000
_cell_angle_gamma   90.00000000
_symmetry_Int_Tables_number   1
_chemical_formula_structural   Nd3Er4Th(ReB6)4
_chemical_formula_sum   'Nd3 Er4 Th1 Re4 B24'
_cell_volume   401.95178830
_cell_formula_units_Z   1
loop_
 _symmetry_equiv_pos_site_id
 _symmetry_equiv_pos_as_xyz
  1  'x, y, z'
loop_
 _atom_site_type_symbol
 _atom_site_label
 _atom_site_symmetry_multiplicity
 _atom_site_fract_x
 _atom_site_fract_y
 _atom_site_fract_z
 _atom_site_occupancy
  Nd  Nd0  1  0.000000  0.678307  0.586081  1
  Nd  Nd1  1  0.000000  0.822765  0.085184  1
  Nd  Nd2  1  0.000000  0.176853  0.914470  1
  Er  Er3  1  0.000000  0.941942  0.369246  1
  Er  Er4  1  0.000000  0.056777  0.631221  1
  Er  Er5  1  0.000000  0.442927  0.129494  1
  Er  Er6  1  0.000000  0.557570  0.869221  1
  Th  Th7  1  0.000000  0.322315  0.414647  1
  Re  Re8  1  0.000000  0.637825  0.319560  1
  Re  Re9  1  0.000000  0.361093  0.679866  1
  Re  Re10  1  0.000000  0.139962  0.181765  1
  Re  Re11  1  0.000000  0.860910  0.819187  1
  B  B12  1  0.500000  0.555176  0.430094  1
  B  B13  1  0.500000  0.444525  0.569764  1
  B  B14  1  0.500000  0.055179  0.069714  1
  B  B15  1  0.500000  0.945208  0.930647  1
  B  B16  1  0.500000  0.750296  0.415438  1
  B  B17  1  0.500000  0.249859  0.584797  1
  B  B18  1  0.500000  0.250009  0.084212  1
  B  B19  1  0.500000  0.749837  0.915602  1
  B  B20  1  0.500000  0.791017  0.265740  1
  B  B21  1  0.500000  0.208910  0.734463  1
  B  B22  1  0.500000  0.291134  0.234253  1
  B  B23  1  0.500000  0.708709  0.765633  1
  B  B24  1  0.500000  0.629519  0.185449  1
  B  B25  1  0.500000  0.370931  0.814110  1
  B  B26  1  0.500000  0.129449  0.314152  1
  B  B27  1  0.500000  0.870693  0.686002  1
  B  B28  1  0.500000  0.984026  0.213324  1
  B  B29  1  0.500000  0.016150  0.786905  1
  B  B30  1  0.500000  0.484322  0.286303  1
  B  B31  1  0.500000  0.516340  0.713738  1
  B  B32  1  0.500000  0.596317  0.026234  1
  B  B33  1  0.500000  0.403874  0.973053  1
  B  B34  1  0.500000  0.096320  0.473515  1
  B  B35  1  0.500000  0.902951  0.526918  1
