# generated using pymatgen
data_Dy4HoLu3(P3Ir4)4
_symmetry_space_group_name_H-M   'P 1'
_cell_length_a   12.94099100
_cell_length_b   12.94154102
_cell_length_c   3.99292400
_cell_angle_alpha   90.00000000
_cell_angle_beta   90.00000000
_cell_angle_gamma   120.00141045
_symmetry_Int_Tables_number   1
_chemical_formula_structural   Dy4HoLu3(P3Ir4)4
_chemical_formula_sum   'Dy4 Ho1 Lu3 P12 Ir16'
_cell_volume   579.12062392
_cell_formula_units_Z   1
loop_
 _symmetry_equiv_pos_site_id
 _symmetry_equiv_pos_as_xyz
  1  'x, y, z'
loop_
 _atom_site_type_symbol
 _atom_site_label
 _atom_site_symmetry_multiplicity
 _atom_site_fract_x
 _atom_site_fract_y
 _atom_site_fract_z
 _atom_site_occupancy
  Dy  Dy0  1  0.333335  0.666668  0.500000  1
  Dy  Dy1  1  0.666665  0.333332  0.500000  1
  Dy  Dy2  1  0.185740  0.185741  0.000000  1
  Dy  Dy3  1  0.814260  0.000000  0.000000  1
  Ho  Ho4  1  0.000000  0.814224  0.000000  1
  Lu  Lu5  1  0.000000  0.446561  0.500000  1
  Lu  Lu6  1  0.553516  0.553518  0.500000  1
  Lu  Lu7  1  0.446484  0.000002  0.500000  1
  P  P8  1  0.000000  0.651869  0.500000  1
  P  P9  1  0.348292  0.348291  0.500000  1
  P  P10  1  0.651708  0.999999  0.500000  1
  P  P11  1  0.516673  0.687752  0.000000  1
  P  P12  1  0.312268  0.828909  0.000000  1
  P  P13  1  0.171065  0.483339  0.000000  1
  P  P14  1  0.483327  0.171079  0.000000  1
  P  P15  1  0.687732  0.516639  0.000000  1
  P  P16  1  0.828935  0.312272  0.000000  1
  P  P17  1  0.000000  0.176699  0.500000  1
  P  P18  1  0.823355  0.823281  0.500000  1
  P  P19  1  0.176645  0.999926  0.500000  1
  Ir  Ir20  1  0.509541  0.866283  0.000000  1
  Ir  Ir21  1  0.133749  0.643270  0.000000  1
  Ir  Ir22  1  0.356756  0.490469  0.000000  1
  Ir  Ir23  1  0.490459  0.356741  0.000000  1
  Ir  Ir24  1  0.866251  0.509520  0.000000  1
  Ir  Ir25  1  0.643244  0.133713  0.000000  1
  Ir  Ir26  1  0.000000  0.276161  0.000000  1
  Ir  Ir27  1  0.723992  0.723884  0.000000  1
  Ir  Ir28  1  0.276008  0.999891  0.000000  1
  Ir  Ir29  1  0.629612  0.808186  0.500000  1
  Ir  Ir30  1  0.191562  0.821400  0.500000  1
  Ir  Ir31  1  0.178605  0.370394  0.500000  1
  Ir  Ir32  1  0.370388  0.178574  0.500000  1
  Ir  Ir33  1  0.808438  0.629838  0.500000  1
  Ir  Ir34  1  0.821395  0.191789  0.500000  1
  Ir  Ir35  1  0.000000  0.999786  0.500000  1
