# generated using pymatgen
data_DyHo2In4CuRu
_symmetry_space_group_name_H-M   'P 1'
_cell_length_a   7.91038000
_cell_length_b   7.91002313
_cell_length_c   3.66599800
_cell_angle_alpha   90.00000000
_cell_angle_beta   90.00000000
_cell_angle_gamma   120.01491778
_symmetry_Int_Tables_number   1
_chemical_formula_structural   DyHo2In4CuRu
_chemical_formula_sum   'Dy1 Ho2 In4 Cu1 Ru1'
_cell_volume   198.62442465
_cell_formula_units_Z   1
loop_
 _symmetry_equiv_pos_site_id
 _symmetry_equiv_pos_as_xyz
  1  'x, y, z'
loop_
 _atom_site_type_symbol
 _atom_site_label
 _atom_site_symmetry_multiplicity
 _atom_site_fract_x
 _atom_site_fract_y
 _atom_site_fract_z
 _atom_site_occupancy
  Dy  Dy0  1  0.247879  0.950087  0.500000  1
  Ho  Ho1  1  0.049484  0.297068  0.500000  1
  Ho  Ho2  1  0.702863  0.752471  0.500000  1
  In  In3  1  0.668693  0.076622  0.000000  1
  In  In4  1  0.923208  0.591806  0.000000  1
  In  In5  1  0.408227  0.331809  0.000000  1
  In  In6  1  0.333462  0.666420  0.000000  1
  Cu  Cu7  1  0.666911  0.333620  0.500000  1
  Ru  Ru8  1  0.999271  0.000097  0.000000  1
