# generated using pymatgen
data_Ti8CoBi4P
_symmetry_space_group_name_H-M   'P 1'
_cell_length_a   7.84951879
_cell_length_b   7.84951950
_cell_length_c   7.84951957
_cell_angle_alpha   95.54910269
_cell_angle_beta   95.54910048
_cell_angle_gamma   143.76529169
_symmetry_Int_Tables_number   1
_chemical_formula_structural   Ti8CoBi4P
_chemical_formula_sum   'Ti8 Co1 Bi4 P1'
_cell_volume   271.70794634
_cell_formula_units_Z   1
loop_
 _symmetry_equiv_pos_site_id
 _symmetry_equiv_pos_as_xyz
  1  'x, y, z'
loop_
 _atom_site_type_symbol
 _atom_site_label
 _atom_site_symmetry_multiplicity
 _atom_site_fract_x
 _atom_site_fract_y
 _atom_site_fract_z
 _atom_site_occupancy
  Ti  Ti0  1  0.690476  0.576149  0.274377  1
  Ti  Ti1  1  0.576149  0.301772  0.885674  1
  Ti  Ti2  1  0.083901  0.198228  0.274377  1
  Ti  Ti3  1  0.923851  0.809524  0.725623  1
  Ti  Ti4  1  0.198228  0.923851  0.114326  1
  Ti  Ti5  1  0.809524  0.083901  0.885674  1
  Ti  Ti6  1  0.301772  0.416099  0.725623  1
  Ti  Ti7  1  0.416099  0.690476  0.114326  1
  Co  Co8  1  0.750000  0.750000  0.000000  1
  Bi  Bi9  1  0.140423  0.640423  0.780848  1
  Bi  Bi10  1  0.359577  0.140423  0.500000  1
  Bi  Bi11  1  0.640423  0.859577  0.500000  1
  Bi  Bi12  1  0.859577  0.359577  0.219152  1
  P  P13  1  0.250000  0.250000  0.000000  1
