# generated using pymatgen
data_DyEr5Rh18
_symmetry_space_group_name_H-M   'P 1'
_cell_length_a   5.24716300
_cell_length_b   5.24716236
_cell_length_c   17.54818600
_cell_angle_alpha   90.00000000
_cell_angle_beta   90.00000000
_cell_angle_gamma   119.99999776
_symmetry_Int_Tables_number   1
_chemical_formula_structural   DyEr5Rh18
_chemical_formula_sum   'Dy1 Er5 Rh18'
_cell_volume   418.41951156
_cell_formula_units_Z   1
loop_
 _symmetry_equiv_pos_site_id
 _symmetry_equiv_pos_as_xyz
  1  'x, y, z'
loop_
 _atom_site_type_symbol
 _atom_site_label
 _atom_site_symmetry_multiplicity
 _atom_site_fract_x
 _atom_site_fract_y
 _atom_site_fract_z
 _atom_site_occupancy
  Dy  Dy0  1  0.333333  0.666666  0.250000  1
  Er  Er1  1  0.333333  0.666666  0.041979  1
  Er  Er2  1  0.333333  0.666666  0.458021  1
  Er  Er3  1  0.666667  0.333334  0.541616  1
  Er  Er4  1  0.666667  0.333334  0.750000  1
  Er  Er5  1  0.666667  0.333334  0.958384  1
  Rh  Rh6  1  0.000000  0.000000  0.000394  1
  Rh  Rh7  1  0.334788  0.167394  0.125558  1
  Rh  Rh8  1  0.832605  0.167394  0.125558  1
  Rh  Rh9  1  0.832606  0.665212  0.125558  1
  Rh  Rh10  1  0.000000  0.000000  0.250000  1
  Rh  Rh11  1  0.666667  0.333334  0.250000  1
  Rh  Rh12  1  0.334788  0.167394  0.374443  1
  Rh  Rh13  1  0.832605  0.167394  0.374443  1
  Rh  Rh14  1  0.832606  0.665212  0.374443  1
  Rh  Rh15  1  0.000000  0.000000  0.499606  1
  Rh  Rh16  1  0.167479  0.334958  0.625120  1
  Rh  Rh17  1  0.167480  0.832521  0.625120  1
  Rh  Rh18  1  0.665042  0.832521  0.625120  1
  Rh  Rh19  1  0.000000  0.000000  0.750000  1
  Rh  Rh20  1  0.333333  0.666666  0.750000  1
  Rh  Rh21  1  0.167479  0.334958  0.874880  1
  Rh  Rh22  1  0.167480  0.832521  0.874880  1
  Rh  Rh23  1  0.665042  0.832521  0.874880  1
