# generated using pymatgen
data_Pr2IrCl
_symmetry_space_group_name_H-M   'P 1'
_cell_length_a   7.94732503
_cell_length_b   7.94732470
_cell_length_c   7.94732418
_cell_angle_alpha   30.50974857
_cell_angle_beta   30.50975250
_cell_angle_gamma   30.50974970
_symmetry_Int_Tables_number   1
_chemical_formula_structural   Pr2IrCl
_chemical_formula_sum   'Pr2 Ir1 Cl1'
_cell_volume   114.68565988
_cell_formula_units_Z   1
loop_
 _symmetry_equiv_pos_site_id
 _symmetry_equiv_pos_as_xyz
  1  'x, y, z'
loop_
 _atom_site_type_symbol
 _atom_site_label
 _atom_site_symmetry_multiplicity
 _atom_site_fract_x
 _atom_site_fract_y
 _atom_site_fract_z
 _atom_site_occupancy
  Pr  Pr0  1  0.233939  0.233939  0.233939  1
  Pr  Pr1  1  0.766061  0.766061  0.766061  1
  Ir  Ir2  1  0.500000  0.500000  0.500000  1
  Cl  Cl3  1  0.000000  0.000000  0.000000  1
