# generated using pymatgen
data_LuAl2Ni2Pt7
_symmetry_space_group_name_H-M   'P 1'
_cell_length_a   3.98000400
_cell_length_b   3.98000400
_cell_length_c   11.24520800
_cell_angle_alpha   90.00000000
_cell_angle_beta   90.00000000
_cell_angle_gamma   90.00000000
_symmetry_Int_Tables_number   1
_chemical_formula_structural   LuAl2Ni2Pt7
_chemical_formula_sum   'Lu1 Al2 Ni2 Pt7'
_cell_volume   178.12895085
_cell_formula_units_Z   1
loop_
 _symmetry_equiv_pos_site_id
 _symmetry_equiv_pos_as_xyz
  1  'x, y, z'
loop_
 _atom_site_type_symbol
 _atom_site_label
 _atom_site_symmetry_multiplicity
 _atom_site_fract_x
 _atom_site_fract_y
 _atom_site_fract_z
 _atom_site_occupancy
  Lu  Lu0  1  0.000000  0.000000  0.000000  1
  Al  Al1  1  0.000000  0.000000  0.343136  1
  Al  Al2  1  0.000000  0.000000  0.656864  1
  Ni  Ni3  1  0.500000  0.500000  0.343711  1
  Ni  Ni4  1  0.500000  0.500000  0.656289  1
  Pt  Pt5  1  0.500000  0.500000  0.000000  1
  Pt  Pt6  1  0.500000  0.000000  0.189391  1
  Pt  Pt7  1  0.500000  0.000000  0.500000  1
  Pt  Pt8  1  0.500000  0.000000  0.810609  1
  Pt  Pt9  1  0.000000  0.500000  0.189391  1
  Pt  Pt10  1  0.000000  0.500000  0.500000  1
  Pt  Pt11  1  0.000000  0.500000  0.810609  1
