# generated using pymatgen
data_TbYGa6(NiHg)2
_symmetry_space_group_name_H-M   'P 1'
_cell_length_a   4.20360629
_cell_length_b   6.60248900
_cell_length_c   8.10537833
_cell_angle_alpha   90.00000000
_cell_angle_beta   105.02912243
_cell_angle_gamma   90.00000000
_symmetry_Int_Tables_number   1
_chemical_formula_structural   TbYGa6(NiHg)2
_chemical_formula_sum   'Tb1 Y1 Ga6 Ni2 Hg2'
_cell_volume   217.26390435
_cell_formula_units_Z   1
loop_
 _symmetry_equiv_pos_site_id
 _symmetry_equiv_pos_as_xyz
  1  'x, y, z'
loop_
 _atom_site_type_symbol
 _atom_site_label
 _atom_site_symmetry_multiplicity
 _atom_site_fract_x
 _atom_site_fract_y
 _atom_site_fract_z
 _atom_site_occupancy
  Tb  Tb0  1  0.125878  0.250000  0.251758  1
  Y  Y1  1  0.874307  0.750000  0.748613  1
  Ga  Ga2  1  0.072703  0.750000  0.145407  1
  Ga  Ga3  1  0.927331  0.250000  0.854662  1
  Ga  Ga4  1  0.688233  0.551145  0.376467  1
  Ga  Ga5  1  0.311728  0.448981  0.623457  1
  Ga  Ga6  1  0.688233  0.948855  0.376467  1
  Ga  Ga7  1  0.311728  0.051019  0.623457  1
  Ni  Ni8  1  0.222588  0.750000  0.445175  1
  Ni  Ni9  1  0.777371  0.250000  0.554742  1
  Hg  Hg10  1  0.499950  0.499921  0.999899  1
  Hg  Hg11  1  0.499950  0.000079  0.999899  1
