# generated using pymatgen
data_Rb3NbTe3S
_symmetry_space_group_name_H-M   'P 1'
_cell_length_a   10.65256800
_cell_length_b   10.62056300
_cell_length_c   12.53297900
_cell_angle_alpha   90.00000000
_cell_angle_beta   90.00000000
_cell_angle_gamma   90.00000000
_symmetry_Int_Tables_number   1
_chemical_formula_structural   Rb3NbTe3S
_chemical_formula_sum   'Rb12 Nb4 Te12 S4'
_cell_volume   1417.93449048
_cell_formula_units_Z   4
loop_
 _symmetry_equiv_pos_site_id
 _symmetry_equiv_pos_as_xyz
  1  'x, y, z'
loop_
 _atom_site_type_symbol
 _atom_site_label
 _atom_site_symmetry_multiplicity
 _atom_site_fract_x
 _atom_site_fract_y
 _atom_site_fract_z
 _atom_site_occupancy
  Rb  Rb0  1  0.551373  0.206702  0.058298  1
  Rb  Rb1  1  0.051373  0.293298  0.441702  1
  Rb  Rb2  1  0.448627  0.793298  0.558298  1
  Rb  Rb3  1  0.948627  0.706702  0.941702  1
  Rb  Rb4  1  0.448627  0.793298  0.941702  1
  Rb  Rb5  1  0.948627  0.706702  0.558298  1
  Rb  Rb6  1  0.551373  0.206702  0.441702  1
  Rb  Rb7  1  0.051373  0.293298  0.058298  1
  Rb  Rb8  1  0.637343  0.422405  0.750000  1
  Rb  Rb9  1  0.137343  0.077595  0.750000  1
  Rb  Rb10  1  0.362657  0.577595  0.250000  1
  Rb  Rb11  1  0.862657  0.922405  0.250000  1
  Nb  Nb12  1  0.717280  0.972830  0.750000  1
  Nb  Nb13  1  0.217280  0.527170  0.750000  1
  Nb  Nb14  1  0.282720  0.027170  0.250000  1
  Nb  Nb15  1  0.782720  0.472830  0.250000  1
  Te  Te16  1  0.835399  0.047076  0.575587  1
  Te  Te17  1  0.335399  0.452924  0.924413  1
  Te  Te18  1  0.164601  0.952924  0.075587  1
  Te  Te19  1  0.664601  0.547076  0.424413  1
  Te  Te20  1  0.164601  0.952924  0.424413  1
  Te  Te21  1  0.664601  0.547076  0.075587  1
  Te  Te22  1  0.835399  0.047076  0.924413  1
  Te  Te23  1  0.335399  0.452924  0.575587  1
  Te  Te24  1  0.491466  0.077355  0.750000  1
  Te  Te25  1  0.991466  0.422645  0.750000  1
  Te  Te26  1  0.508534  0.922645  0.250000  1
  Te  Te27  1  0.008534  0.577355  0.250000  1
  S  S28  1  0.702379  0.759277  0.750000  1
  S  S29  1  0.202379  0.740723  0.750000  1
  S  S30  1  0.297621  0.240723  0.250000  1
  S  S31  1  0.797621  0.259277  0.250000  1
