# generated using pymatgen
data_ThIn2Pd3
_symmetry_space_group_name_H-M   'P 1'
_cell_length_a   4.72266500
_cell_length_b   9.99682800
_cell_length_c   10.30967800
_cell_angle_alpha   90.00000000
_cell_angle_beta   90.00000000
_cell_angle_gamma   90.00000000
_symmetry_Int_Tables_number   1
_chemical_formula_structural   ThIn2Pd3
_chemical_formula_sum   'Th4 In8 Pd12'
_cell_volume   486.73711252
_cell_formula_units_Z   4
loop_
 _symmetry_equiv_pos_site_id
 _symmetry_equiv_pos_as_xyz
  1  'x, y, z'
loop_
 _atom_site_type_symbol
 _atom_site_label
 _atom_site_symmetry_multiplicity
 _atom_site_fract_x
 _atom_site_fract_y
 _atom_site_fract_z
 _atom_site_occupancy
  Th  Th0  1  0.250000  0.439893  0.728161  1
  Th  Th1  1  0.250000  0.060107  0.228161  1
  Th  Th2  1  0.750000  0.560107  0.271839  1
  Th  Th3  1  0.750000  0.939893  0.771839  1
  In  In4  1  0.250000  0.883204  0.516234  1
  In  In5  1  0.250000  0.616796  0.016234  1
  In  In6  1  0.750000  0.116796  0.483766  1
  In  In7  1  0.750000  0.383204  0.983766  1
  In  In8  1  0.250000  0.160782  0.896076  1
  In  In9  1  0.250000  0.339218  0.396076  1
  In  In10  1  0.750000  0.839218  0.103924  1
  In  In11  1  0.750000  0.660782  0.603924  1
  Pd  Pd12  1  0.250000  0.145765  0.619549  1
  Pd  Pd13  1  0.250000  0.354235  0.119549  1
  Pd  Pd14  1  0.750000  0.854235  0.380451  1
  Pd  Pd15  1  0.750000  0.645765  0.880451  1
  Pd  Pd16  1  0.250000  0.737666  0.744435  1
  Pd  Pd17  1  0.250000  0.762334  0.244435  1
  Pd  Pd18  1  0.750000  0.262334  0.255565  1
  Pd  Pd19  1  0.750000  0.237666  0.755565  1
  Pd  Pd20  1  0.250000  0.898127  0.973710  1
  Pd  Pd21  1  0.250000  0.601873  0.473710  1
  Pd  Pd22  1  0.750000  0.101873  0.026290  1
  Pd  Pd23  1  0.750000  0.398127  0.526290  1
