# generated using pymatgen
data_Dy9ErOs3Ru
_symmetry_space_group_name_H-M   'P 1'
_cell_length_a   6.35689722
_cell_length_b   7.34416503
_cell_length_c   8.44857663
_cell_angle_alpha   96.77862556
_cell_angle_beta   112.24028326
_cell_angle_gamma   90.01651491
_symmetry_Int_Tables_number   1
_chemical_formula_structural   Dy9ErOs3Ru
_chemical_formula_sum   'Dy9 Er1 Os3 Ru1'
_cell_volume   362.10114920
_cell_formula_units_Z   1
loop_
 _symmetry_equiv_pos_site_id
 _symmetry_equiv_pos_as_xyz
  1  'x, y, z'
loop_
 _atom_site_type_symbol
 _atom_site_label
 _atom_site_symmetry_multiplicity
 _atom_site_fract_x
 _atom_site_fract_y
 _atom_site_fract_z
 _atom_site_occupancy
  Dy  Dy0  1  0.794243  0.583431  0.816401  1
  Dy  Dy1  1  0.975412  0.916591  0.182844  1
  Dy  Dy2  1  0.207602  0.416660  0.186441  1
  Dy  Dy3  1  0.024548  0.085198  0.817821  1
  Dy  Dy4  1  0.204331  0.683413  0.565243  1
  Dy  Dy5  1  0.640515  0.817078  0.435778  1
  Dy  Dy6  1  0.793911  0.315666  0.433648  1
  Dy  Dy7  1  0.360699  0.182138  0.564083  1
  Dy  Dy8  1  0.421330  0.749640  0.999916  1
  Er  Er9  1  0.579113  0.250545  0.000783  1
  Os  Os10  1  0.603798  0.922998  0.781094  1
  Os  Os11  1  0.821631  0.577049  0.219152  1
  Os  Os12  1  0.396424  0.078085  0.218035  1
  Ru  Ru13  1  0.176443  0.421506  0.778760  1
