# generated using pymatgen
data_Pa3VGe5
_symmetry_space_group_name_H-M   'P 1'
_cell_length_a   8.43727700
_cell_length_b   8.43727706
_cell_length_c   5.71441300
_cell_angle_alpha   90.00000000
_cell_angle_beta   90.00000000
_cell_angle_gamma   120.00000369
_symmetry_Int_Tables_number   1
_chemical_formula_structural   Pa3VGe5
_chemical_formula_sum   'Pa6 V2 Ge10'
_cell_volume   352.29530756
_cell_formula_units_Z   2
loop_
 _symmetry_equiv_pos_site_id
 _symmetry_equiv_pos_as_xyz
  1  'x, y, z'
loop_
 _atom_site_type_symbol
 _atom_site_label
 _atom_site_symmetry_multiplicity
 _atom_site_fract_x
 _atom_site_fract_y
 _atom_site_fract_z
 _atom_site_occupancy
  Pa  Pa0  1  0.000000  0.614317  0.250000  1
  Pa  Pa1  1  0.385683  0.385683  0.250000  1
  Pa  Pa2  1  0.385683  0.000000  0.750000  1
  Pa  Pa3  1  0.614317  0.614317  0.750000  1
  Pa  Pa4  1  0.614317  0.000000  0.250000  1
  Pa  Pa5  1  0.000000  0.385683  0.750000  1
  V  V6  1  0.000000  0.000000  0.000000  1
  V  V7  1  0.000000  0.000000  0.500000  1
  Ge  Ge8  1  0.000000  0.256941  0.250000  1
  Ge  Ge9  1  0.333333  0.666667  0.500000  1
  Ge  Ge10  1  0.666667  0.333333  0.000000  1
  Ge  Ge11  1  0.333333  0.666667  0.000000  1
  Ge  Ge12  1  0.256941  0.256941  0.750000  1
  Ge  Ge13  1  0.743059  0.000000  0.750000  1
  Ge  Ge14  1  0.000000  0.743059  0.750000  1
  Ge  Ge15  1  0.743059  0.743059  0.250000  1
  Ge  Ge16  1  0.256941  0.000000  0.250000  1
  Ge  Ge17  1  0.666667  0.333333  0.500000  1
