# generated using pymatgen
data_AcCu9Pd4
_symmetry_space_group_name_H-M   'P 1'
_cell_length_a   8.44451646
_cell_length_b   8.44451662
_cell_length_c   8.44451770
_cell_angle_alpha   119.76152584
_cell_angle_beta   119.76152458
_cell_angle_gamma   90.41355409
_symmetry_Int_Tables_number   1
_chemical_formula_structural   AcCu9Pd4
_chemical_formula_sum   'Ac2 Cu18 Pd8'
_cell_volume   427.32645841
_cell_formula_units_Z   2
loop_
 _symmetry_equiv_pos_site_id
 _symmetry_equiv_pos_as_xyz
  1  'x, y, z'
loop_
 _atom_site_type_symbol
 _atom_site_label
 _atom_site_symmetry_multiplicity
 _atom_site_fract_x
 _atom_site_fract_y
 _atom_site_fract_z
 _atom_site_occupancy
  Ac  Ac0  1  0.250000  0.250000  0.000000  1
  Ac  Ac1  1  0.750000  0.750000  0.000000  1
  Cu  Cu2  1  0.557065  0.706181  0.263245  1
  Cu  Cu3  1  0.793819  0.942935  0.736755  1
  Cu  Cu4  1  0.942935  0.206181  0.149115  1
  Cu  Cu5  1  0.206181  0.057065  0.263245  1
  Cu  Cu6  1  0.567072  0.284751  0.500000  1
  Cu  Cu7  1  0.715249  0.215249  0.282322  1
  Cu  Cu8  1  0.215249  0.932928  0.500000  1
  Cu  Cu9  1  0.784751  0.067072  0.500000  1
  Cu  Cu10  1  0.932928  0.432928  0.717678  1
  Cu  Cu11  1  0.067072  0.567072  0.282322  1
  Cu  Cu12  1  0.442935  0.293819  0.736755  1
  Cu  Cu13  1  0.057065  0.793819  0.850885  1
  Cu  Cu14  1  0.432928  0.715249  0.500000  1
  Cu  Cu15  1  0.706181  0.442935  0.149115  1
  Cu  Cu16  1  0.500000  0.000000  0.500000  1
  Cu  Cu17  1  0.284751  0.784751  0.717678  1
  Cu  Cu18  1  0.293819  0.557065  0.850885  1
  Cu  Cu19  1  0.000000  0.500000  0.500000  1
  Pd  Pd20  1  0.562943  0.062943  0.871383  1
  Pd  Pd21  1  0.808440  0.308440  0.871383  1
  Pd  Pd22  1  0.937057  0.808440  0.500000  1
  Pd  Pd23  1  0.691560  0.562943  0.500000  1
  Pd  Pd24  1  0.191560  0.691560  0.128617  1
  Pd  Pd25  1  0.308440  0.437057  0.500000  1
  Pd  Pd26  1  0.062943  0.191560  0.500000  1
  Pd  Pd27  1  0.437057  0.937057  0.128617  1
