# generated using pymatgen
data_Dy2Y5Tm(CdIr)2
_symmetry_space_group_name_H-M   'P 1'
_cell_length_a   9.63364722
_cell_length_b   9.65089834
_cell_length_c   9.65089939
_cell_angle_alpha   59.88176906
_cell_angle_beta   60.05910991
_cell_angle_gamma   60.05911778
_symmetry_Int_Tables_number   1
_chemical_formula_structural   Dy2Y5Tm(CdIr)2
_chemical_formula_sum   'Dy4 Y10 Tm2 Cd4 Ir4'
_cell_volume   634.46619676
_cell_formula_units_Z   2
loop_
 _symmetry_equiv_pos_site_id
 _symmetry_equiv_pos_as_xyz
  1  'x, y, z'
loop_
 _atom_site_type_symbol
 _atom_site_label
 _atom_site_symmetry_multiplicity
 _atom_site_fract_x
 _atom_site_fract_y
 _atom_site_fract_z
 _atom_site_occupancy
  Dy  Dy0  1  0.349195  0.348526  0.348526  1
  Dy  Dy1  1  0.348526  0.349195  0.953753  1
  Dy  Dy2  1  0.348526  0.953753  0.349195  1
  Dy  Dy3  1  0.953753  0.348526  0.348526  1
  Y  Y4  1  0.189488  0.810512  0.189488  1
  Y  Y5  1  0.810512  0.189488  0.810512  1
  Y  Y6  1  0.189488  0.189488  0.810512  1
  Y  Y7  1  0.810512  0.810512  0.189488  1
  Y  Y8  1  0.938238  0.561762  0.561762  1
  Y  Y9  1  0.561762  0.938238  0.938238  1
  Y  Y10  1  0.561485  0.938515  0.561485  1
  Y  Y11  1  0.938515  0.561485  0.938515  1
  Y  Y12  1  0.561485  0.561485  0.938515  1
  Y  Y13  1  0.938515  0.938515  0.561485  1
  Tm  Tm14  1  0.810311  0.189689  0.189689  1
  Tm  Tm15  1  0.189689  0.810311  0.810311  1
  Cd  Cd16  1  0.580680  0.580825  0.580825  1
  Cd  Cd17  1  0.580825  0.580680  0.257672  1
  Cd  Cd18  1  0.580825  0.257672  0.580680  1
  Cd  Cd19  1  0.257672  0.580825  0.580825  1
  Ir  Ir20  1  0.139573  0.142740  0.142740  1
  Ir  Ir21  1  0.142740  0.139573  0.574948  1
  Ir  Ir22  1  0.142740  0.574948  0.139573  1
  Ir  Ir23  1  0.574948  0.142740  0.142740  1
