# generated using pymatgen
data_Y4Ho8Co5Sb
_symmetry_space_group_name_H-M   'P 1'
_cell_length_a   8.28485175
_cell_length_b   8.28483162
_cell_length_c   8.28485227
_cell_angle_alpha   110.57767311
_cell_angle_beta   110.80656786
_cell_angle_gamma   107.05625815
_symmetry_Int_Tables_number   1
_chemical_formula_structural   Y4Ho8Co5Sb
_chemical_formula_sum   'Y4 Ho8 Co5 Sb1'
_cell_volume   437.17266178
_cell_formula_units_Z   1
loop_
 _symmetry_equiv_pos_site_id
 _symmetry_equiv_pos_as_xyz
  1  'x, y, z'
loop_
 _atom_site_type_symbol
 _atom_site_label
 _atom_site_symmetry_multiplicity
 _atom_site_fract_x
 _atom_site_fract_y
 _atom_site_fract_z
 _atom_site_occupancy
  Y  Y0  1  0.813922  0.710276  0.524197  1
  Y  Y1  1  0.186078  0.289724  0.475803  1
  Y  Y2  1  0.186081  0.710276  0.896354  1
  Y  Y3  1  0.813919  0.289724  0.103646  1
  Ho  Ho4  1  0.687617  0.378601  0.690985  1
  Ho  Ho5  1  0.312383  0.621399  0.309015  1
  Ho  Ho6  1  0.687616  0.996629  0.309013  1
  Ho  Ho7  1  0.312384  0.003371  0.690987  1
  Ho  Ho8  1  0.598467  0.791972  0.806494  1
  Ho  Ho9  1  0.401533  0.208028  0.193506  1
  Ho  Ho10  1  0.985478  0.791972  0.193505  1
  Ho  Ho11  1  0.014522  0.208028  0.806495  1
  Co  Co12  1  0.624340  0.000000  0.624340  1
  Co  Co13  1  0.375660  0.000000  0.375660  1
  Co  Co14  1  0.112087  0.612089  0.500001  1
  Co  Co15  1  0.887913  0.387911  0.499999  1
  Co  Co16  1  0.000000  0.000000  0.000000  1
  Sb  Sb17  1  0.500000  0.500000  0.000000  1
