# generated using pymatgen
data_Rb16Si15Sn
_symmetry_space_group_name_H-M   'P 1'
_cell_length_a   11.93682322
_cell_length_b   12.05294358
_cell_length_c   11.97247734
_cell_angle_alpha   124.95822295
_cell_angle_beta   124.37207856
_cell_angle_gamma   82.27145982
_symmetry_Int_Tables_number   1
_chemical_formula_structural   Rb16Si15Sn
_chemical_formula_sum   'Rb16 Si15 Sn1'
_cell_volume   1118.82154420
_cell_formula_units_Z   1
loop_
 _symmetry_equiv_pos_site_id
 _symmetry_equiv_pos_as_xyz
  1  'x, y, z'
loop_
 _atom_site_type_symbol
 _atom_site_label
 _atom_site_symmetry_multiplicity
 _atom_site_fract_x
 _atom_site_fract_y
 _atom_site_fract_z
 _atom_site_occupancy
  Rb  Rb0  1  0.270254  0.876826  0.892318  1
  Rb  Rb1  1  0.767559  0.875958  0.391747  1
  Rb  Rb2  1  0.127756  0.019051  0.398407  1
  Rb  Rb3  1  0.623614  0.233436  0.108483  1
  Rb  Rb4  1  0.482868  0.374482  0.607030  1
  Rb  Rb5  1  0.984279  0.378570  0.110970  1
  Rb  Rb6  1  0.127675  0.510076  0.892600  1
  Rb  Rb7  1  0.619056  0.733741  0.602386  1
  Rb  Rb8  1  0.373378  0.372763  0.245883  1
  Rb  Rb9  1  0.868224  0.619824  0.003011  1
  Rb  Rb10  1  0.621014  0.124510  0.745210  1
  Rb  Rb11  1  0.122932  0.379809  0.503090  1
  Rb  Rb12  1  0.386208  0.876715  0.260667  1
  Rb  Rb13  1  0.875332  0.619077  0.490645  1
  Rb  Rb14  1  0.127313  0.127403  0.755781  1
  Rb  Rb15  1  0.631336  0.872990  0.000000  1
  Si  Si16  1  0.511027  0.545531  0.151841  1
  Si  Si17  1  0.109484  0.762444  0.466499  1
  Si  Si18  1  0.609071  0.142130  0.346389  1
  Si  Si19  1  0.738973  0.389196  0.533876  1
  Si  Si20  1  0.238540  0.704009  0.347643  1
  Si  Si21  1  0.640645  0.486712  0.033902  1
  Si  Si22  1  0.139967  0.115044  0.153792  1
  Si  Si23  1  0.393685  0.358892  0.847256  1
  Si  Si24  1  0.892500  0.058793  0.036999  1
  Si  Si25  1  0.794384  0.261405  0.651175  1
  Si  Si26  1  0.294728  0.644923  0.534113  1
  Si  Si27  1  0.356450  0.890956  0.652291  1
  Si  Si28  1  0.856398  0.203390  0.465025  1
  Si  Si29  1  0.952850  0.997789  0.848414  1
  Si  Si30  1  0.456387  0.605209  0.966494  1
  Sn  Sn31  1  0.006113  0.838345  0.956062  1
