# generated using pymatgen
data_Zr10TlZnGePb5
_symmetry_space_group_name_H-M   'P 1'
_cell_length_a   8.82307526
_cell_length_b   8.81281718
_cell_length_c   6.00279715
_cell_angle_alpha   90.04894460
_cell_angle_beta   89.90222458
_cell_angle_gamma   120.03851215
_symmetry_Int_Tables_number   1
_chemical_formula_structural   Zr10TlZnGePb5
_chemical_formula_sum   'Zr10 Tl1 Zn1 Ge1 Pb5'
_cell_volume   404.06361251
_cell_formula_units_Z   1
loop_
 _symmetry_equiv_pos_site_id
 _symmetry_equiv_pos_as_xyz
  1  'x, y, z'
loop_
 _atom_site_type_symbol
 _atom_site_label
 _atom_site_symmetry_multiplicity
 _atom_site_fract_x
 _atom_site_fract_y
 _atom_site_fract_z
 _atom_site_occupancy
  Zr  Zr0  1  0.334068  0.667461  0.000605  1
  Zr  Zr1  1  0.666563  0.332366  0.499389  1
  Zr  Zr2  1  0.666609  0.332539  0.000605  1
  Zr  Zr3  1  0.334196  0.667634  0.499389  1
  Zr  Zr4  1  0.262089  0.000000  0.246591  1
  Zr  Zr5  1  0.261845  0.261444  0.753200  1
  Zr  Zr6  1  0.000401  0.738556  0.753200  1
  Zr  Zr7  1  0.998483  0.261268  0.246663  1
  Zr  Zr8  1  0.737215  0.738732  0.246663  1
  Zr  Zr9  1  0.738365  0.000000  0.753679  1
  Tl  Tl10  1  0.612270  0.000000  0.251574  1
  Zn  Zn11  1  0.999237  0.000000  0.499199  1
  Ge  Ge12  1  0.999639  0.000000  0.000577  1
  Pb  Pb13  1  0.612140  0.611554  0.748470  1
  Pb  Pb14  1  0.000587  0.388446  0.748470  1
  Pb  Pb15  1  0.999469  0.611540  0.251804  1
  Pb  Pb16  1  0.387929  0.388460  0.251804  1
  Pb  Pb17  1  0.388896  0.000000  0.748118  1
