# generated using pymatgen
data_Ho7CoI12
_symmetry_space_group_name_H-M   'P 1'
_cell_length_a   9.70419805
_cell_length_b   9.70419900
_cell_length_c   9.70419924
_cell_angle_alpha   106.97553991
_cell_angle_beta   106.97553333
_cell_angle_gamma   106.97553835
_symmetry_Int_Tables_number   1
_chemical_formula_structural   Ho7CoI12
_chemical_formula_sum   'Ho7 Co1 I12'
_cell_volume   761.57757562
_cell_formula_units_Z   1
loop_
 _symmetry_equiv_pos_site_id
 _symmetry_equiv_pos_as_xyz
  1  'x, y, z'
loop_
 _atom_site_type_symbol
 _atom_site_label
 _atom_site_symmetry_multiplicity
 _atom_site_fract_x
 _atom_site_fract_y
 _atom_site_fract_z
 _atom_site_occupancy
  Ho  Ho0  1  0.907631  0.976768  0.712092  1
  Ho  Ho1  1  0.712092  0.907631  0.976768  1
  Ho  Ho2  1  0.976768  0.712092  0.907631  1
  Ho  Ho3  1  0.092369  0.023232  0.287908  1
  Ho  Ho4  1  0.287908  0.092369  0.023232  1
  Ho  Ho5  1  0.023232  0.287908  0.092369  1
  Ho  Ho6  1  0.500000  0.500000  0.500000  1
  Co  Co7  1  0.000000  0.000000  0.000000  1
  I  I8  1  0.926928  0.321015  0.774919  1
  I  I9  1  0.774919  0.926928  0.321015  1
  I  I10  1  0.321015  0.774919  0.926928  1
  I  I11  1  0.073072  0.678985  0.225081  1
  I  I12  1  0.225081  0.073072  0.678985  1
  I  I13  1  0.678985  0.225081  0.073072  1
  I  I14  1  0.534753  0.838618  0.611590  1
  I  I15  1  0.611590  0.534753  0.838618  1
  I  I16  1  0.838618  0.611590  0.534753  1
  I  I17  1  0.465247  0.161382  0.388410  1
  I  I18  1  0.388410  0.465247  0.161382  1
  I  I19  1  0.161382  0.388410  0.465247  1
