# generated using pymatgen
data_Ba4TmUReO12
_symmetry_space_group_name_H-M   'P 1'
_cell_length_a   10.23467566
_cell_length_b   10.23467571
_cell_length_c   10.23467719
_cell_angle_alpha   34.13928365
_cell_angle_beta   34.13928510
_cell_angle_gamma   34.13928069
_symmetry_Int_Tables_number   1
_chemical_formula_structural   Ba4TmUReO12
_chemical_formula_sum   'Ba4 Tm1 U1 Re1 O12'
_cell_volume   301.04381937
_cell_formula_units_Z   1
loop_
 _symmetry_equiv_pos_site_id
 _symmetry_equiv_pos_as_xyz
  1  'x, y, z'
loop_
 _atom_site_type_symbol
 _atom_site_label
 _atom_site_symmetry_multiplicity
 _atom_site_fract_x
 _atom_site_fract_y
 _atom_site_fract_z
 _atom_site_occupancy
  Ba  Ba0  1  0.711418  0.711418  0.711418  1
  Ba  Ba1  1  0.287789  0.287789  0.287789  1
  Ba  Ba2  1  0.866893  0.866893  0.866893  1
  Ba  Ba3  1  0.138022  0.138022  0.138022  1
  Tm  Tm4  1  0.002776  0.002776  0.002776  1
  U  U5  1  0.579741  0.579741  0.579741  1
  Re  Re6  1  0.420369  0.420369  0.420369  1
  O  O7  1  0.226248  0.681057  0.226248  1
  O  O8  1  0.226248  0.226248  0.681057  1
  O  O9  1  0.681057  0.226248  0.226248  1
  O  O10  1  0.788144  0.297306  0.788144  1
  O  O11  1  0.788144  0.788144  0.297306  1
  O  O12  1  0.297306  0.788144  0.788144  1
  O  O13  1  0.375473  0.877292  0.375473  1
  O  O14  1  0.375473  0.375473  0.877292  1
  O  O15  1  0.877292  0.375473  0.375473  1
  O  O16  1  0.605112  0.147382  0.605112  1
  O  O17  1  0.605112  0.605112  0.147382  1
  O  O18  1  0.147382  0.605112  0.605112  1
