# generated using pymatgen
data_La4Dy3Tm3Ru4
_symmetry_space_group_name_H-M   'P 1'
_cell_length_a   6.47576983
_cell_length_b   7.24186064
_cell_length_c   8.76368438
_cell_angle_alpha   96.34381896
_cell_angle_beta   111.54443093
_cell_angle_gamma   90.01275316
_symmetry_Int_Tables_number   1
_chemical_formula_structural   La4Dy3Tm3Ru4
_chemical_formula_sum   'La4 Dy3 Tm3 Ru4'
_cell_volume   379.56184478
_cell_formula_units_Z   1
loop_
 _symmetry_equiv_pos_site_id
 _symmetry_equiv_pos_as_xyz
  1  'x, y, z'
loop_
 _atom_site_type_symbol
 _atom_site_label
 _atom_site_symmetry_multiplicity
 _atom_site_fract_x
 _atom_site_fract_y
 _atom_site_fract_z
 _atom_site_occupancy
  La  La0  1  0.782496  0.088959  0.804549  1
  La  La1  1  0.979811  0.412382  0.193687  1
  La  La2  1  0.215932  0.910494  0.195875  1
  La  La3  1  0.020757  0.588785  0.805728  1
  Dy  Dy4  1  0.205222  0.185398  0.570171  1
  Dy  Dy5  1  0.633046  0.314379  0.429982  1
  Dy  Dy6  1  0.795963  0.814457  0.430034  1
  Tm  Tm7  1  0.367945  0.685436  0.571317  1
  Tm  Tm8  1  0.426206  0.249783  0.999316  1
  Tm  Tm9  1  0.573055  0.750013  0.999715  1
  Ru  Ru10  1  0.598302  0.419559  0.776871  1
  Ru  Ru11  1  0.823174  0.081643  0.223919  1
  Ru  Ru12  1  0.400625  0.581203  0.223851  1
  Ru  Ru13  1  0.177466  0.917508  0.774985  1
