# generated using pymatgen
data_La3Pr2Cd2Ru3
_symmetry_space_group_name_H-M   'P 1'
_cell_length_a   8.79980080
_cell_length_b   8.74765610
_cell_length_c   8.74683864
_cell_angle_alpha   109.64215705
_cell_angle_beta   109.56734752
_cell_angle_gamma   109.67697733
_symmetry_Int_Tables_number   1
_chemical_formula_structural   La3Pr2Cd2Ru3
_chemical_formula_sum   'La6 Pr4 Cd4 Ru6'
_cell_volume   515.26794128
_cell_formula_units_Z   2
loop_
 _symmetry_equiv_pos_site_id
 _symmetry_equiv_pos_as_xyz
  1  'x, y, z'
loop_
 _atom_site_type_symbol
 _atom_site_label
 _atom_site_symmetry_multiplicity
 _atom_site_fract_x
 _atom_site_fract_y
 _atom_site_fract_z
 _atom_site_occupancy
  La  La0  1  0.064003  0.749289  0.814016  1
  La  La1  1  0.813922  0.064351  0.749856  1
  La  La2  1  0.210754  0.209675  0.210194  1
  La  La3  1  0.500357  0.001060  0.289378  1
  La  La4  1  0.288088  0.499478  0.999835  1
  La  La5  1  0.000524  0.289332  0.500292  1
  Pr  Pr6  1  0.249546  0.681819  0.431267  1
  Pr  Pr7  1  0.749017  0.817471  0.067836  1
  Pr  Pr8  1  0.431738  0.249920  0.682537  1
  Pr  Pr9  1  0.681733  0.431925  0.249451  1
  Cd  Cd10  1  0.500443  0.999838  0.907232  1
  Cd  Cd11  1  0.589121  0.590016  0.591103  1
  Cd  Cd12  1  0.905859  0.501634  0.002310  1
  Cd  Cd13  1  0.000647  0.906696  0.497366  1
  Ru  Ru14  1  0.249372  0.136552  0.895251  1
  Ru  Ru15  1  0.757309  0.365902  0.609361  1
  Ru  Ru16  1  0.893682  0.246402  0.135729  1
  Ru  Ru17  1  0.146161  0.896970  0.253048  1
  Ru  Ru18  1  0.611196  0.758087  0.364700  1
  Ru  Ru19  1  0.356530  0.603586  0.749239  1
