# generated using pymatgen
data_Nd2Os2Br
_symmetry_space_group_name_H-M   'P 1'
_cell_length_a   4.26952800
_cell_length_b   4.26952738
_cell_length_c   17.05493100
_cell_angle_alpha   90.00000000
_cell_angle_beta   90.00000000
_cell_angle_gamma   120.00000477
_symmetry_Int_Tables_number   1
_chemical_formula_structural   Nd2Os2Br
_chemical_formula_sum   'Nd4 Os4 Br2'
_cell_volume   269.24041239
_cell_formula_units_Z   2
loop_
 _symmetry_equiv_pos_site_id
 _symmetry_equiv_pos_as_xyz
  1  'x, y, z'
loop_
 _atom_site_type_symbol
 _atom_site_label
 _atom_site_symmetry_multiplicity
 _atom_site_fract_x
 _atom_site_fract_y
 _atom_site_fract_z
 _atom_site_occupancy
  Nd  Nd0  1  0.000000  0.000000  0.113471  1
  Nd  Nd1  1  0.000000  0.000000  0.886529  1
  Nd  Nd2  1  0.000000  0.000000  0.613471  1
  Nd  Nd3  1  0.000000  0.000000  0.386529  1
  Os  Os4  1  0.333333  0.666667  0.510259  1
  Os  Os5  1  0.666667  0.333333  0.489741  1
  Os  Os6  1  0.666667  0.333333  0.010259  1
  Os  Os7  1  0.333333  0.666667  0.989741  1
  Br  Br8  1  0.333333  0.666667  0.250000  1
  Br  Br9  1  0.666667  0.333333  0.750000  1
