# generated using pymatgen
data_BaYCr4N7
_symmetry_space_group_name_H-M   'P 1'
_cell_length_a   6.26980300
_cell_length_b   6.26980267
_cell_length_c   10.30447100
_cell_angle_alpha   90.00000000
_cell_angle_beta   90.00000000
_cell_angle_gamma   120.00000704
_symmetry_Int_Tables_number   1
_chemical_formula_structural   BaYCr4N7
_chemical_formula_sum   'Ba2 Y2 Cr8 N14'
_cell_volume   350.80362277
_cell_formula_units_Z   2
loop_
 _symmetry_equiv_pos_site_id
 _symmetry_equiv_pos_as_xyz
  1  'x, y, z'
loop_
 _atom_site_type_symbol
 _atom_site_label
 _atom_site_symmetry_multiplicity
 _atom_site_fract_x
 _atom_site_fract_y
 _atom_site_fract_z
 _atom_site_occupancy
  Ba  Ba0  1  0.333333  0.666667  0.363950  1
  Ba  Ba1  1  0.666667  0.333333  0.863950  1
  Y  Y2  1  0.333333  0.666667  0.735998  1
  Y  Y3  1  0.666667  0.333333  0.235998  1
  Cr  Cr4  1  0.830689  0.661377  0.548996  1
  Cr  Cr5  1  0.169311  0.830689  0.048996  1
  Cr  Cr6  1  0.661377  0.830689  0.048996  1
  Cr  Cr7  1  0.338623  0.169311  0.548996  1
  Cr  Cr8  1  0.830689  0.169311  0.548996  1
  Cr  Cr9  1  0.169311  0.338623  0.048996  1
  Cr  Cr10  1  0.000000  0.000000  0.808482  1
  Cr  Cr11  1  0.000000  0.000000  0.308482  1
  N  N12  1  0.000000  0.000000  0.619449  1
  N  N13  1  0.000000  0.000000  0.119449  1
  N  N14  1  0.156600  0.313199  0.870561  1
  N  N15  1  0.843400  0.156600  0.370561  1
  N  N16  1  0.313199  0.156600  0.370561  1
  N  N17  1  0.686801  0.843400  0.870561  1
  N  N18  1  0.156600  0.843400  0.870561  1
  N  N19  1  0.843400  0.686801  0.370561  1
  N  N20  1  0.981191  0.490596  0.602451  1
  N  N21  1  0.490596  0.981191  0.102451  1
  N  N22  1  0.490596  0.509404  0.102451  1
  N  N23  1  0.509404  0.490596  0.602451  1
  N  N24  1  0.018809  0.509404  0.102451  1
  N  N25  1  0.509404  0.018809  0.602451  1
