# generated using pymatgen
data_Sr3(OsO5)2
_symmetry_space_group_name_H-M   'P 1'
_cell_length_a   5.73626512
_cell_length_b   5.73626597
_cell_length_c   7.24756276
_cell_angle_alpha   72.76476896
_cell_angle_beta   72.76476205
_cell_angle_gamma   88.96315770
_symmetry_Int_Tables_number   1
_chemical_formula_structural   Sr3(OsO5)2
_chemical_formula_sum   'Sr3 Os2 O10'
_cell_volume   216.90698411
_cell_formula_units_Z   1
loop_
 _symmetry_equiv_pos_site_id
 _symmetry_equiv_pos_as_xyz
  1  'x, y, z'
loop_
 _atom_site_type_symbol
 _atom_site_label
 _atom_site_symmetry_multiplicity
 _atom_site_fract_x
 _atom_site_fract_y
 _atom_site_fract_z
 _atom_site_occupancy
  Sr  Sr0  1  0.499623  0.500377  0.000000  1
  Sr  Sr1  1  0.757377  0.242623  0.500000  1
  Sr  Sr2  1  0.242024  0.757976  0.500000  1
  Os  Os3  1  0.143271  0.143261  0.812988  1
  Os  Os4  1  0.856739  0.856729  0.187012  1
  O  O5  1  0.820538  0.820319  0.468405  1
  O  O6  1  0.179681  0.179462  0.531595  1
  O  O7  1  0.606976  0.607801  0.278050  1
  O  O8  1  0.392199  0.393024  0.721950  1
  O  O9  1  0.342568  0.892904  0.805583  1
  O  O10  1  0.861924  0.860390  0.912362  1
  O  O11  1  0.139610  0.138076  0.087638  1
  O  O12  1  0.891996  0.341622  0.806591  1
  O  O13  1  0.658378  0.108004  0.193409  1
  O  O14  1  0.107096  0.657432  0.194417  1
