# generated using pymatgen
data_Er2GeSe
_symmetry_space_group_name_H-M   'P 1'
_cell_length_a   7.10947781
_cell_length_b   7.10947691
_cell_length_c   7.10947726
_cell_angle_alpha   132.13258009
_cell_angle_beta   132.13258817
_cell_angle_gamma   70.01971375
_symmetry_Int_Tables_number   1
_chemical_formula_structural   Er2GeSe
_chemical_formula_sum   'Er4 Ge2 Se2'
_cell_volume   193.75418231
_cell_formula_units_Z   2
loop_
 _symmetry_equiv_pos_site_id
 _symmetry_equiv_pos_as_xyz
  1  'x, y, z'
loop_
 _atom_site_type_symbol
 _atom_site_label
 _atom_site_symmetry_multiplicity
 _atom_site_fract_x
 _atom_site_fract_y
 _atom_site_fract_z
 _atom_site_occupancy
  Er  Er0  1  0.745576  0.745576  0.000000  1
  Er  Er1  1  0.254424  0.254424  0.000000  1
  Er  Er2  1  0.004424  0.504424  0.500000  1
  Er  Er3  1  0.495576  0.995576  0.500000  1
  Ge  Ge4  1  0.500000  0.500000  0.000000  1
  Ge  Ge5  1  0.250000  0.750000  0.500000  1
  Se  Se6  1  0.000000  0.000000  0.000000  1
  Se  Se7  1  0.750000  0.250000  0.500000  1
