# generated using pymatgen
data_Tb3Pr4Lu3Sn8
_symmetry_space_group_name_H-M   'P 1'
_cell_length_a   8.05565400
_cell_length_b   8.27859136
_cell_length_c   15.59101300
_cell_angle_alpha   89.95672325
_cell_angle_beta   90.00000000
_cell_angle_gamma   90.00000000
_symmetry_Int_Tables_number   1
_chemical_formula_structural   Tb3Pr4Lu3Sn8
_chemical_formula_sum   'Tb6 Pr8 Lu6 Sn16'
_cell_volume   1039.75605996
_cell_formula_units_Z   2
loop_
 _symmetry_equiv_pos_site_id
 _symmetry_equiv_pos_as_xyz
  1  'x, y, z'
loop_
 _atom_site_type_symbol
 _atom_site_label
 _atom_site_symmetry_multiplicity
 _atom_site_fract_x
 _atom_site_fract_y
 _atom_site_fract_z
 _atom_site_occupancy
  Tb  Tb0  1  0.349278  0.835474  0.875407  1
  Tb  Tb1  1  0.849278  0.664526  0.624593  1
  Tb  Tb2  1  0.651210  0.164712  0.375690  1
  Tb  Tb3  1  0.151210  0.335288  0.124310  1
  Tb  Tb4  1  0.651027  0.164726  0.123813  1
  Tb  Tb5  1  0.151027  0.335274  0.376187  1
  Pr  Pr6  1  0.509002  0.324476  0.903472  1
  Pr  Pr7  1  0.009002  0.175524  0.596528  1
  Pr  Pr8  1  0.491043  0.675860  0.404391  1
  Pr  Pr9  1  0.991043  0.824140  0.095609  1
  Pr  Pr10  1  0.491165  0.675874  0.095974  1
  Pr  Pr11  1  0.991165  0.824126  0.404026  1
  Pr  Pr12  1  0.509049  0.324547  0.596399  1
  Pr  Pr13  1  0.009049  0.175453  0.903601  1
  Lu  Lu14  1  0.348571  0.835556  0.625500  1
  Lu  Lu15  1  0.848571  0.664444  0.874500  1
  Lu  Lu16  1  0.181653  0.502243  0.749835  1
  Lu  Lu17  1  0.681653  0.997757  0.750165  1
  Lu  Lu18  1  0.818315  0.498704  0.249903  1
  Lu  Lu19  1  0.318315  0.001296  0.250097  1
  Sn  Sn20  1  0.313369  0.040622  0.042279  1
  Sn  Sn21  1  0.813369  0.459378  0.457721  1
  Sn  Sn22  1  0.683158  0.958626  0.542900  1
  Sn  Sn23  1  0.183158  0.541374  0.957100  1
  Sn  Sn24  1  0.688439  0.957051  0.956780  1
  Sn  Sn25  1  0.188439  0.542949  0.543220  1
  Sn  Sn26  1  0.314068  0.039248  0.459463  1
  Sn  Sn27  1  0.814068  0.460752  0.040537  1
  Sn  Sn28  1  0.545064  0.623839  0.749940  1
  Sn  Sn29  1  0.045064  0.876161  0.750060  1
  Sn  Sn30  1  0.454634  0.377976  0.250006  1
  Sn  Sn31  1  0.954634  0.122024  0.249994  1
  Sn  Sn32  1  0.316632  0.144641  0.749461  1
  Sn  Sn33  1  0.816632  0.355359  0.750539  1
  Sn  Sn34  1  0.684323  0.854401  0.249962  1
  Sn  Sn35  1  0.184323  0.645599  0.250038  1
