# generated using pymatgen
data_Er8BePd7Pt17
_symmetry_space_group_name_H-M   'P 1'
_cell_length_a   8.31731423
_cell_length_b   8.32215302
_cell_length_c   8.33677900
_cell_angle_alpha   90.00384168
_cell_angle_beta   89.98647052
_cell_angle_gamma   89.99929866
_symmetry_Int_Tables_number   1
_chemical_formula_structural   Er8BePd7Pt17
_chemical_formula_sum   'Er8 Be1 Pd7 Pt17'
_cell_volume   577.05483249
_cell_formula_units_Z   1
loop_
 _symmetry_equiv_pos_site_id
 _symmetry_equiv_pos_as_xyz
  1  'x, y, z'
loop_
 _atom_site_type_symbol
 _atom_site_label
 _atom_site_symmetry_multiplicity
 _atom_site_fract_x
 _atom_site_fract_y
 _atom_site_fract_z
 _atom_site_occupancy
  Er  Er0  1  0.250713  0.250624  0.251019  1
  Er  Er1  1  0.748501  0.748126  0.748825  1
  Er  Er2  1  0.748520  0.748502  0.251278  1
  Er  Er3  1  0.749275  0.251506  0.749168  1
  Er  Er4  1  0.250788  0.250747  0.748960  1
  Er  Er5  1  0.251412  0.748955  0.251367  1
  Er  Er6  1  0.251513  0.748876  0.748649  1
  Er  Er7  1  0.749259  0.251114  0.250891  1
  Be  Be8  1  0.000143  0.002295  0.000236  1
  Pd  Pd9  1  0.500040  0.000039  0.745482  1
  Pd  Pd10  1  0.746586  0.999954  0.499814  1
  Pd  Pd11  1  0.000038  0.500367  0.254111  1
  Pd  Pd12  1  0.000037  0.500451  0.745998  1
  Pd  Pd13  1  0.000042  0.733185  0.999938  1
  Pd  Pd14  1  0.999724  0.999474  0.269397  1
  Pd  Pd15  1  0.999887  0.999532  0.730684  1
  Pt  Pt16  1  0.253561  0.499805  0.999943  1
  Pt  Pt17  1  0.746491  0.499908  0.999920  1
  Pt  Pt18  1  0.000631  0.254260  0.500131  1
  Pt  Pt19  1  0.500001  0.253066  0.000500  1
  Pt  Pt20  1  0.000633  0.745213  0.500142  1
  Pt  Pt21  1  0.500023  0.745958  0.000585  1
  Pt  Pt22  1  0.499826  0.000029  0.254896  1
  Pt  Pt23  1  0.253506  0.999957  0.499625  1
  Pt  Pt24  1  0.250433  0.499863  0.500129  1
  Pt  Pt25  1  0.749493  0.499859  0.500033  1
  Pt  Pt26  1  0.499497  0.251307  0.499256  1
  Pt  Pt27  1  0.499547  0.748692  0.499385  1
  Pt  Pt28  1  0.499990  0.499689  0.251207  1
  Pt  Pt29  1  0.499899  0.499656  0.748512  1
  Pt  Pt30  1  0.267187  0.999506  0.999940  1
  Pt  Pt31  1  0.732729  0.999551  0.000076  1
  Pt  Pt32  1  0.000077  0.269933  0.999906  1
