# generated using pymatgen
data_Sm4TmLuSi4
_symmetry_space_group_name_H-M   'P 1'
_cell_length_a   7.49769000
_cell_length_b   7.49769000
_cell_length_c   4.33683100
_cell_angle_alpha   90.00000000
_cell_angle_beta   90.00000000
_cell_angle_gamma   90.00000000
_symmetry_Int_Tables_number   1
_chemical_formula_structural   Sm4TmLuSi4
_chemical_formula_sum   'Sm4 Tm1 Lu1 Si4'
_cell_volume   243.79649570
_cell_formula_units_Z   1
loop_
 _symmetry_equiv_pos_site_id
 _symmetry_equiv_pos_as_xyz
  1  'x, y, z'
loop_
 _atom_site_type_symbol
 _atom_site_label
 _atom_site_symmetry_multiplicity
 _atom_site_fract_x
 _atom_site_fract_y
 _atom_site_fract_z
 _atom_site_occupancy
  Sm  Sm0  1  0.676864  0.176327  0.500000  1
  Sm  Sm1  1  0.323136  0.823673  0.500000  1
  Sm  Sm2  1  0.176327  0.323136  0.500000  1
  Sm  Sm3  1  0.823673  0.676864  0.500000  1
  Tm  Tm4  1  0.500000  0.500000  0.000000  1
  Lu  Lu5  1  0.000000  0.000000  0.000000  1
  Si  Si6  1  0.115494  0.615567  0.000000  1
  Si  Si7  1  0.884506  0.384433  0.000000  1
  Si  Si8  1  0.615567  0.884506  0.000000  1
  Si  Si9  1  0.384433  0.115494  0.000000  1
