# generated using pymatgen
data_K2In5SnAu6
_symmetry_space_group_name_H-M   'P 1'
_cell_length_a   4.68156500
_cell_length_b   8.06128829
_cell_length_c   9.27282792
_cell_angle_alpha   89.94204896
_cell_angle_beta   90.00000000
_cell_angle_gamma   90.00000000
_symmetry_Int_Tables_number   1
_chemical_formula_structural   K2In5SnAu6
_chemical_formula_sum   'K2 In5 Sn1 Au6'
_cell_volume   349.95120135
_cell_formula_units_Z   1
loop_
 _symmetry_equiv_pos_site_id
 _symmetry_equiv_pos_as_xyz
  1  'x, y, z'
loop_
 _atom_site_type_symbol
 _atom_site_label
 _atom_site_symmetry_multiplicity
 _atom_site_fract_x
 _atom_site_fract_y
 _atom_site_fract_z
 _atom_site_occupancy
  K  K0  1  0.000000  0.500516  0.265672  1
  K  K1  1  0.500000  0.999948  0.734633  1
  In  In2  1  0.500000  0.192359  0.118662  1
  In  In3  1  0.500000  0.800932  0.113952  1
  In  In4  1  0.000000  0.698398  0.882753  1
  In  In5  1  0.000000  0.001087  0.379454  1
  In  In6  1  0.500000  0.501867  0.620395  1
  Sn  Sn7  1  0.000000  0.305382  0.883262  1
  Au  Au8  1  0.500000  0.789006  0.414205  1
  Au  Au9  1  0.000000  0.000731  0.049774  1
  Au  Au10  1  0.500000  0.497274  0.951148  1
  Au  Au11  1  0.000000  0.712139  0.583845  1
  Au  Au12  1  0.000000  0.287755  0.585035  1
  Au  Au13  1  0.500000  0.212606  0.417210  1
