# generated using pymatgen
data_ErTmLu2Pt4F28
_symmetry_space_group_name_H-M   'P 1'
_cell_length_a   5.49014717
_cell_length_b   8.76005587
_cell_length_c   11.86506615
_cell_angle_alpha   62.68529813
_cell_angle_beta   89.91136501
_cell_angle_gamma   90.01897415
_symmetry_Int_Tables_number   1
_chemical_formula_structural   ErTmLu2Pt4F28
_chemical_formula_sum   'Er1 Tm1 Lu2 Pt4 F28'
_cell_volume   507.01102598
_cell_formula_units_Z   1
loop_
 _symmetry_equiv_pos_site_id
 _symmetry_equiv_pos_as_xyz
  1  'x, y, z'
loop_
 _atom_site_type_symbol
 _atom_site_label
 _atom_site_symmetry_multiplicity
 _atom_site_fract_x
 _atom_site_fract_y
 _atom_site_fract_z
 _atom_site_occupancy
  Er  Er0  1  0.739342  0.184342  0.735618  1
  Tm  Tm1  1  0.260788  0.815855  0.264160  1
  Lu  Lu2  1  0.761734  0.185347  0.235840  1
  Lu  Lu3  1  0.238264  0.814011  0.764250  1
  Pt  Pt4  1  0.759583  0.726469  0.043001  1
  Pt  Pt5  1  0.240578  0.273282  0.957659  1
  Pt  Pt6  1  0.259706  0.271401  0.455809  1
  Pt  Pt7  1  0.740157  0.729174  0.543550  1
  F  F8  1  0.939352  0.702684  0.415807  1
  F  F9  1  0.061445  0.297776  0.583804  1
  F  F10  1  0.438884  0.299437  0.085418  1
  F  F11  1  0.561511  0.700460  0.915066  1
  F  F12  1  0.464352  0.724374  0.137785  1
  F  F13  1  0.535479  0.276048  0.862826  1
  F  F14  1  0.964910  0.274925  0.360503  1
  F  F15  1  0.034649  0.725022  0.639257  1
  F  F16  1  0.951325  0.745687  0.176675  1
  F  F17  1  0.050139  0.254680  0.823645  1
  F  F18  1  0.452838  0.252265  0.322550  1
  F  F19  1  0.547227  0.747761  0.677153  1
  F  F20  1  0.775830  0.474538  0.143224  1
  F  F21  1  0.224153  0.525113  0.856976  1
  F  F22  1  0.275825  0.523704  0.356653  1
  F  F23  1  0.723952  0.477353  0.642946  1
  F  F24  1  0.935778  0.277804  0.044924  1
  F  F25  1  0.063878  0.721937  0.955416  1
  F  F26  1  0.437106  0.723616  0.456125  1
  F  F27  1  0.562576  0.277041  0.542836  1
  F  F28  1  0.745574  0.981102  0.448841  1
  F  F29  1  0.254530  0.019488  0.550727  1
  F  F30  1  0.245849  0.021313  0.051670  1
  F  F31  1  0.754203  0.978256  0.949083  1
  F  F32  1  0.582440  0.973414  0.232863  1
  F  F33  1  0.415582  0.025845  0.767434  1
  F  F34  1  0.080009  0.030331  0.267010  1
  F  F35  1  0.920454  0.968146  0.732897  1
