# generated using pymatgen
data_Sm10Si2I15
_symmetry_space_group_name_H-M   'P 1'
_cell_length_a   9.86276654
_cell_length_b   10.55960918
_cell_length_c   11.62271700
_cell_angle_alpha   91.29308355
_cell_angle_beta   114.63106649
_cell_angle_gamma   110.53809902
_symmetry_Int_Tables_number   1
_chemical_formula_structural   Sm10Si2I15
_chemical_formula_sum   'Sm10 Si2 I15'
_cell_volume   1009.93401466
_cell_formula_units_Z   1
loop_
 _symmetry_equiv_pos_site_id
 _symmetry_equiv_pos_as_xyz
  1  'x, y, z'
loop_
 _atom_site_type_symbol
 _atom_site_label
 _atom_site_symmetry_multiplicity
 _atom_site_fract_x
 _atom_site_fract_y
 _atom_site_fract_z
 _atom_site_occupancy
  Sm  Sm0  1  0.800792  0.411590  0.278146  1
  Sm  Sm1  1  0.199240  0.588669  0.721603  1
  Sm  Sm2  1  0.674262  0.743138  0.822046  1
  Sm  Sm3  1  0.325884  0.257042  0.177764  1
  Sm  Sm4  1  0.524988  0.695286  0.096088  1
  Sm  Sm5  1  0.475014  0.304397  0.903845  1
  Sm  Sm6  1  0.585161  0.041847  0.328383  1
  Sm  Sm7  1  0.414805  0.958409  0.671644  1
  Sm  Sm8  1  0.731868  0.078027  0.051563  1
  Sm  Sm9  1  0.268497  0.922351  0.948895  1
  Si  Si10  1  0.469188  0.826792  0.883409  1
  Si  Si11  1  0.530969  0.173043  0.116881  1
  I  I12  1  0.000024  0.999925  0.000249  1
  I  I13  1  0.640458  0.880801  0.582179  1
  I  I14  1  0.358760  0.118761  0.417291  1
  I  I15  1  0.886808  0.298382  0.533195  1
  I  I16  1  0.113064  0.701833  0.466562  1
  I  I17  1  0.287838  0.759303  0.179521  1
  I  I18  1  0.712306  0.240603  0.820563  1
  I  I19  1  0.062149  0.346948  0.230606  1
  I  I20  1  0.163066  0.058308  0.701359  1
  I  I21  1  0.836739  0.941616  0.298785  1
  I  I22  1  0.224242  0.407752  0.940932  1
  I  I23  1  0.775662  0.591940  0.058808  1
  I  I24  1  0.405604  0.458608  0.651388  1
  I  I25  1  0.594534  0.541423  0.348763  1
  I  I26  1  0.938078  0.653203  0.769532  1
