# generated using pymatgen
data_CaCd(CN2)2
_symmetry_space_group_name_H-M   'P 1'
_cell_length_a   3.65827600
_cell_length_b   3.65827518
_cell_length_c   9.83033500
_cell_angle_alpha   90.00000000
_cell_angle_beta   90.00000000
_cell_angle_gamma   120.00000744
_symmetry_Int_Tables_number   1
_chemical_formula_structural   CaCd(CN2)2
_chemical_formula_sum   'Ca1 Cd1 C2 N4'
_cell_volume   113.93358298
_cell_formula_units_Z   1
loop_
 _symmetry_equiv_pos_site_id
 _symmetry_equiv_pos_as_xyz
  1  'x, y, z'
loop_
 _atom_site_type_symbol
 _atom_site_label
 _atom_site_symmetry_multiplicity
 _atom_site_fract_x
 _atom_site_fract_y
 _atom_site_fract_z
 _atom_site_occupancy
  Ca  Ca0  1  0.000000  0.000000  0.000000  1
  Cd  Cd1  1  0.000000  0.000000  0.500000  1
  C  C2  1  0.666666  0.333334  0.252549  1
  C  C3  1  0.333334  0.666668  0.747451  1
  N  N4  1  0.666666  0.333334  0.126933  1
  N  N5  1  0.666666  0.333334  0.378647  1
  N  N6  1  0.333334  0.666668  0.621353  1
  N  N7  1  0.333334  0.666668  0.873067  1
