# generated using pymatgen
data_Ca(PrPt)2
_symmetry_space_group_name_H-M   'P 1'
_cell_length_a   7.68714764
_cell_length_b   7.68714708
_cell_length_c   7.68714647
_cell_angle_alpha   72.11836510
_cell_angle_beta   72.11836090
_cell_angle_gamma   72.11837169
_symmetry_Int_Tables_number   1
_chemical_formula_structural   Ca(PrPt)2
_chemical_formula_sum   'Ca3 Pr6 Pt6'
_cell_volume   399.90987130
_cell_formula_units_Z   3
loop_
 _symmetry_equiv_pos_site_id
 _symmetry_equiv_pos_as_xyz
  1  'x, y, z'
loop_
 _atom_site_type_symbol
 _atom_site_label
 _atom_site_symmetry_multiplicity
 _atom_site_fract_x
 _atom_site_fract_y
 _atom_site_fract_z
 _atom_site_occupancy
  Ca  Ca0  1  0.000000  0.000000  0.000000  1
  Ca  Ca1  1  0.799490  0.799490  0.799490  1
  Ca  Ca2  1  0.200510  0.200510  0.200510  1
  Pr  Pr3  1  0.332291  0.606949  0.839749  1
  Pr  Pr4  1  0.839749  0.332291  0.606949  1
  Pr  Pr5  1  0.606949  0.839749  0.332291  1
  Pr  Pr6  1  0.667709  0.393051  0.160251  1
  Pr  Pr7  1  0.160251  0.667709  0.393051  1
  Pr  Pr8  1  0.393051  0.160251  0.667709  1
  Pt  Pt9  1  0.164377  0.956073  0.585101  1
  Pt  Pt10  1  0.585101  0.164377  0.956073  1
  Pt  Pt11  1  0.956073  0.585101  0.164377  1
  Pt  Pt12  1  0.835623  0.043927  0.414899  1
  Pt  Pt13  1  0.414899  0.835623  0.043927  1
  Pt  Pt14  1  0.043927  0.414899  0.835623  1
