# generated using pymatgen
data_Y3Sn2Hg3
_symmetry_space_group_name_H-M   'P 1'
_cell_length_a   6.33644059
_cell_length_b   6.33644191
_cell_length_c   10.39995700
_cell_angle_alpha   90.00000000
_cell_angle_beta   90.00000000
_cell_angle_gamma   100.91855701
_symmetry_Int_Tables_number   1
_chemical_formula_structural   Y3Sn2Hg3
_chemical_formula_sum   'Y6 Sn4 Hg6'
_cell_volume   410.00437076
_cell_formula_units_Z   2
loop_
 _symmetry_equiv_pos_site_id
 _symmetry_equiv_pos_as_xyz
  1  'x, y, z'
loop_
 _atom_site_type_symbol
 _atom_site_label
 _atom_site_symmetry_multiplicity
 _atom_site_fract_x
 _atom_site_fract_y
 _atom_site_fract_z
 _atom_site_occupancy
  Y  Y0  1  0.623915  0.623915  0.250000  1
  Y  Y1  1  0.376085  0.376085  0.750000  1
  Y  Y2  1  0.201888  0.798112  0.500000  1
  Y  Y3  1  0.201888  0.798112  0.000000  1
  Y  Y4  1  0.798112  0.201888  0.500000  1
  Y  Y5  1  0.798112  0.201888  0.000000  1
  Sn  Sn6  1  0.311377  0.311377  0.045445  1
  Sn  Sn7  1  0.688623  0.688623  0.954555  1
  Sn  Sn8  1  0.311377  0.311377  0.454555  1
  Sn  Sn9  1  0.688623  0.688623  0.545445  1
  Hg  Hg10  1  0.005983  0.005983  0.250000  1
  Hg  Hg11  1  0.994017  0.994017  0.750000  1
  Hg  Hg12  1  0.508741  0.068762  0.250000  1
  Hg  Hg13  1  0.931238  0.491259  0.750000  1
  Hg  Hg14  1  0.491259  0.931238  0.750000  1
  Hg  Hg15  1  0.068762  0.508741  0.250000  1
