# generated using pymatgen
data_Dy2Ni17H3
_symmetry_space_group_name_H-M   'P 1'
_cell_length_a   6.26522154
_cell_length_b   6.26522050
_cell_length_c   6.26522091
_cell_angle_alpha   83.41898198
_cell_angle_beta   83.41897869
_cell_angle_gamma   83.41897509
_symmetry_Int_Tables_number   1
_chemical_formula_structural   Dy2Ni17H3
_chemical_formula_sum   'Dy2 Ni17 H3'
_cell_volume   241.41200497
_cell_formula_units_Z   1
loop_
 _symmetry_equiv_pos_site_id
 _symmetry_equiv_pos_as_xyz
  1  'x, y, z'
loop_
 _atom_site_type_symbol
 _atom_site_label
 _atom_site_symmetry_multiplicity
 _atom_site_fract_x
 _atom_site_fract_y
 _atom_site_fract_z
 _atom_site_occupancy
  Dy  Dy0  1  0.660590  0.660590  0.660590  1
  Dy  Dy1  1  0.339410  0.339410  0.339410  1
  Ni  Ni2  1  0.000000  0.000000  0.500000  1
  Ni  Ni3  1  0.500000  0.000000  0.000000  1
  Ni  Ni4  1  0.000000  0.500000  0.000000  1
  Ni  Ni5  1  0.709838  0.290162  0.000000  1
  Ni  Ni6  1  0.000000  0.709838  0.290162  1
  Ni  Ni7  1  0.290162  0.000000  0.709838  1
  Ni  Ni8  1  0.000000  0.290162  0.709838  1
  Ni  Ni9  1  0.709838  0.000000  0.290162  1
  Ni  Ni10  1  0.290162  0.709838  0.000000  1
  Ni  Ni11  1  0.346750  0.346750  0.848537  1
  Ni  Ni12  1  0.848537  0.346750  0.346750  1
  Ni  Ni13  1  0.346750  0.848537  0.346750  1
  Ni  Ni14  1  0.653250  0.653250  0.151463  1
  Ni  Ni15  1  0.151463  0.653250  0.653250  1
  Ni  Ni16  1  0.653250  0.151463  0.653250  1
  Ni  Ni17  1  0.900432  0.900432  0.900432  1
  Ni  Ni18  1  0.099568  0.099568  0.099568  1
  H  H19  1  0.500000  0.500000  0.000000  1
  H  H20  1  0.000000  0.500000  0.500000  1
  H  H21  1  0.500000  0.000000  0.500000  1
