# generated using pymatgen
data_GaFePtBr8
_symmetry_space_group_name_H-M   'P 1'
_cell_length_a   7.90166953
_cell_length_b   7.90213169
_cell_length_c   7.63361630
_cell_angle_alpha   83.16480481
_cell_angle_beta   83.15453158
_cell_angle_gamma   67.78099550
_symmetry_Int_Tables_number   1
_chemical_formula_structural   GaFePtBr8
_chemical_formula_sum   'Ga1 Fe1 Pt1 Br8'
_cell_volume   436.68472351
_cell_formula_units_Z   1
loop_
 _symmetry_equiv_pos_site_id
 _symmetry_equiv_pos_as_xyz
  1  'x, y, z'
loop_
 _atom_site_type_symbol
 _atom_site_label
 _atom_site_symmetry_multiplicity
 _atom_site_fract_x
 _atom_site_fract_y
 _atom_site_fract_z
 _atom_site_occupancy
  Ga  Ga0  1  0.786708  0.786874  0.331671  1
  Fe  Fe1  1  0.206929  0.206584  0.676343  1
  Pt  Pt2  1  0.002893  0.002935  0.995779  1
  Br  Br3  1  0.694840  0.084490  0.151223  1
  Br  Br4  1  0.084425  0.695005  0.151161  1
  Br  Br5  1  0.315336  0.909778  0.846892  1
  Br  Br6  1  0.617713  0.617836  0.285469  1
  Br  Br7  1  0.909896  0.315201  0.846860  1
  Br  Br8  1  0.182227  0.182159  0.383212  1
  Br  Br9  1  0.821555  0.821698  0.618853  1
  Br  Br10  1  0.377477  0.377441  0.712539  1
