# generated using pymatgen
data_Dy3YGa2(SiNi2)2
_symmetry_space_group_name_H-M   'P 1'
_cell_length_a   4.21287800
_cell_length_b   6.88824372
_cell_length_c   7.25859842
_cell_angle_alpha   91.35881276
_cell_angle_beta   90.00000000
_cell_angle_gamma   90.00000000
_symmetry_Int_Tables_number   1
_chemical_formula_structural   Dy3YGa2(SiNi2)2
_chemical_formula_sum   'Dy3 Y1 Ga2 Si2 Ni4'
_cell_volume   210.58043276
_cell_formula_units_Z   1
loop_
 _symmetry_equiv_pos_site_id
 _symmetry_equiv_pos_as_xyz
  1  'x, y, z'
loop_
 _atom_site_type_symbol
 _atom_site_label
 _atom_site_symmetry_multiplicity
 _atom_site_fract_x
 _atom_site_fract_y
 _atom_site_fract_z
 _atom_site_occupancy
  Dy  Dy0  1  0.250000  0.484144  0.202088  1
  Dy  Dy1  1  0.750000  0.515672  0.798389  1
  Dy  Dy2  1  0.250000  0.986661  0.304957  1
  Y  Y3  1  0.750000  0.012365  0.694405  1
  Ga  Ga4  1  0.250000  0.818523  0.918600  1
  Ga  Ga5  1  0.750000  0.181302  0.081448  1
  Si  Si6  1  0.250000  0.315270  0.584245  1
  Si  Si7  1  0.750000  0.684574  0.415626  1
  Ni  Ni8  1  0.750000  0.792381  0.101485  1
  Ni  Ni9  1  0.250000  0.208901  0.899069  1
  Ni  Ni10  1  0.750000  0.314080  0.421762  1
  Ni  Ni11  1  0.250000  0.686126  0.577926  1
