# generated using pymatgen
data_Li2Pr3ZnIr2Pd
_symmetry_space_group_name_H-M   'P 1'
_cell_length_a   7.37126500
_cell_length_b   7.36276397
_cell_length_c   4.07633500
_cell_angle_alpha   90.00000000
_cell_angle_beta   90.00000000
_cell_angle_gamma   120.03819666
_symmetry_Int_Tables_number   1
_chemical_formula_structural   Li2Pr3ZnIr2Pd
_chemical_formula_sum   'Li2 Pr3 Zn1 Ir2 Pd1'
_cell_volume   191.52087441
_cell_formula_units_Z   1
loop_
 _symmetry_equiv_pos_site_id
 _symmetry_equiv_pos_as_xyz
  1  'x, y, z'
loop_
 _atom_site_type_symbol
 _atom_site_label
 _atom_site_symmetry_multiplicity
 _atom_site_fract_x
 _atom_site_fract_y
 _atom_site_fract_z
 _atom_site_occupancy
  Li  Li0  1  0.999378  0.765934  0.500000  1
  Li  Li1  1  0.233443  0.234066  0.500000  1
  Pr  Pr2  1  0.998375  0.415748  0.000000  1
  Pr  Pr3  1  0.582626  0.584252  0.000000  1
  Pr  Pr4  1  0.422859  0.000000  0.000000  1
  Zn  Zn5  1  0.759417  0.000000  0.500000  1
  Ir  Ir6  1  0.670602  0.329433  0.500000  1
  Ir  Ir7  1  0.341169  0.670567  0.500000  1
  Pd  Pd8  1  0.992130  0.000000  0.000000  1
