# generated using pymatgen
data_Sc6TcRu
_symmetry_space_group_name_H-M   'P 1'
_cell_length_a   5.80184956
_cell_length_b   5.80184937
_cell_length_c   8.51072400
_cell_angle_alpha   90.00000000
_cell_angle_beta   90.00000000
_cell_angle_gamma   143.54797191
_symmetry_Int_Tables_number   1
_chemical_formula_structural   Sc6TcRu
_chemical_formula_sum   'Sc6 Tc1 Ru1'
_cell_volume   170.21396207
_cell_formula_units_Z   1
loop_
 _symmetry_equiv_pos_site_id
 _symmetry_equiv_pos_as_xyz
  1  'x, y, z'
loop_
 _atom_site_type_symbol
 _atom_site_label
 _atom_site_symmetry_multiplicity
 _atom_site_fract_x
 _atom_site_fract_y
 _atom_site_fract_z
 _atom_site_occupancy
  Sc  Sc0  1  0.360762  0.639239  0.064095  1
  Sc  Sc1  1  0.064435  0.935566  0.250000  1
  Sc  Sc2  1  0.360762  0.639239  0.435904  1
  Sc  Sc3  1  0.641832  0.358169  0.562122  1
  Sc  Sc4  1  0.931873  0.068128  0.750000  1
  Sc  Sc5  1  0.641832  0.358169  0.937878  1
  Tc  Tc6  1  0.740154  0.259847  0.250000  1
  Ru  Ru7  1  0.258353  0.741648  0.750000  1
