# generated using pymatgen
data_Ho8Zr9Si16W3
_symmetry_space_group_name_H-M   'P 1'
_cell_length_a   6.97755665
_cell_length_b   7.18803358
_cell_length_c   13.77685500
_cell_angle_alpha   90.00000000
_cell_angle_beta   90.00000000
_cell_angle_gamma   90.06341871
_symmetry_Int_Tables_number   1
_chemical_formula_structural   Ho8Zr9Si16W3
_chemical_formula_sum   'Ho8 Zr9 Si16 W3'
_cell_volume   690.97652017
_cell_formula_units_Z   1
loop_
 _symmetry_equiv_pos_site_id
 _symmetry_equiv_pos_as_xyz
  1  'x, y, z'
loop_
 _atom_site_type_symbol
 _atom_site_label
 _atom_site_symmetry_multiplicity
 _atom_site_fract_x
 _atom_site_fract_y
 _atom_site_fract_z
 _atom_site_occupancy
  Ho  Ho0  1  0.011386  0.177171  0.099249  1
  Ho  Ho1  1  0.988316  0.822336  0.903702  1
  Ho  Ho2  1  0.486027  0.674890  0.904530  1
  Ho  Ho3  1  0.988316  0.822336  0.596298  1
  Ho  Ho4  1  0.511967  0.323862  0.100070  1
  Ho  Ho5  1  0.011386  0.177171  0.400751  1
  Ho  Ho6  1  0.511967  0.323862  0.399930  1
  Ho  Ho7  1  0.486027  0.674890  0.595470  1
  Zr  Zr8  1  0.654287  0.002483  0.750000  1
  Zr  Zr9  1  0.325477  0.176941  0.624085  1
  Zr  Zr10  1  0.674031  0.824691  0.372529  1
  Zr  Zr11  1  0.175121  0.674583  0.373537  1
  Zr  Zr12  1  0.674031  0.824691  0.127471  1
  Zr  Zr13  1  0.827976  0.327411  0.624666  1
  Zr  Zr14  1  0.325477  0.176941  0.875915  1
  Zr  Zr15  1  0.827976  0.327411  0.875334  1
  Zr  Zr16  1  0.175121  0.674583  0.126463  1
  Si  Si17  1  0.031727  0.119382  0.750000  1
  Si  Si18  1  0.975884  0.886675  0.250000  1
  Si  Si19  1  0.475248  0.610998  0.250000  1
  Si  Si20  1  0.522242  0.390181  0.750000  1
  Si  Si21  1  0.277798  0.862084  0.750000  1
  Si  Si22  1  0.713051  0.134108  0.250000  1
  Si  Si23  1  0.211698  0.364633  0.250000  1
  Si  Si24  1  0.789375  0.629200  0.750000  1
  Si  Si25  1  0.155514  0.468154  0.542622  1
  Si  Si26  1  0.842854  0.531572  0.455520  1
  Si  Si27  1  0.345022  0.970673  0.454072  1
  Si  Si28  1  0.842854  0.531572  0.044480  1
  Si  Si29  1  0.657736  0.032885  0.538183  1
  Si  Si30  1  0.155514  0.468154  0.957378  1
  Si  Si31  1  0.657736  0.032885  0.961817  1
  Si  Si32  1  0.345022  0.970673  0.045928  1
  W  W33  1  0.152204  0.492128  0.750000  1
  W  W34  1  0.847350  0.506646  0.250000  1
  W  W35  1  0.346290  0.991145  0.250000  1
