# generated using pymatgen
data_Hf5AlSiSb2
_symmetry_space_group_name_H-M   'P 1'
_cell_length_a   8.50688110
_cell_length_b   8.54402166
_cell_length_c   5.76440900
_cell_angle_alpha   90.00000000
_cell_angle_beta   90.00000000
_cell_angle_gamma   120.14453803
_symmetry_Int_Tables_number   1
_chemical_formula_structural   Hf5AlSiSb2
_chemical_formula_sum   'Hf10 Al2 Si2 Sb4'
_cell_volume   362.31285677
_cell_formula_units_Z   2
loop_
 _symmetry_equiv_pos_site_id
 _symmetry_equiv_pos_as_xyz
  1  'x, y, z'
loop_
 _atom_site_type_symbol
 _atom_site_label
 _atom_site_symmetry_multiplicity
 _atom_site_fract_x
 _atom_site_fract_y
 _atom_site_fract_z
 _atom_site_occupancy
  Hf  Hf0  1  0.663201  0.330112  0.994340  1
  Hf  Hf1  1  0.336799  0.666912  0.994340  1
  Hf  Hf2  1  0.336799  0.666912  0.505660  1
  Hf  Hf3  1  0.663201  0.330112  0.505660  1
  Hf  Hf4  1  0.721531  0.732391  0.750000  1
  Hf  Hf5  1  0.278469  0.010860  0.750000  1
  Hf  Hf6  1  0.000000  0.269672  0.750000  1
  Hf  Hf7  1  0.253748  0.251219  0.250000  1
  Hf  Hf8  1  0.746252  0.997470  0.250000  1
  Hf  Hf9  1  0.000000  0.746431  0.250000  1
  Al  Al10  1  0.389087  0.390679  0.750000  1
  Al  Al11  1  0.610913  0.001592  0.750000  1
  Si  Si12  1  0.000000  0.999910  0.979652  1
  Si  Si13  1  0.000000  0.999910  0.520348  1
  Sb  Sb14  1  0.000000  0.614886  0.750000  1
  Sb  Sb15  1  0.597288  0.595708  0.250000  1
  Sb  Sb16  1  0.402712  0.998421  0.250000  1
  Sb  Sb17  1  0.000000  0.396802  0.250000  1
