# generated using pymatgen
data_La3Nd(In2I5)4
_symmetry_space_group_name_H-M   'P 1'
_cell_length_a   9.16325367
_cell_length_b   9.84681500
_cell_length_c   14.38083518
_cell_angle_alpha   90.00000000
_cell_angle_beta   90.08742578
_cell_angle_gamma   90.00000000
_symmetry_Int_Tables_number   1
_chemical_formula_structural   La3Nd(In2I5)4
_chemical_formula_sum   'La3 Nd1 In8 I20'
_cell_volume   1297.56490664
_cell_formula_units_Z   1
loop_
 _symmetry_equiv_pos_site_id
 _symmetry_equiv_pos_as_xyz
  1  'x, y, z'
loop_
 _atom_site_type_symbol
 _atom_site_label
 _atom_site_symmetry_multiplicity
 _atom_site_fract_x
 _atom_site_fract_y
 _atom_site_fract_z
 _atom_site_occupancy
  La  La0  1  0.079462  0.250000  0.494036  1
  La  La1  1  0.420566  0.250000  0.994114  1
  La  La2  1  0.579175  0.750000  0.005840  1
  Nd  Nd3  1  0.920256  0.750000  0.505805  1
  In  In4  1  0.949844  0.003804  0.826704  1
  In  In5  1  0.049877  0.996279  0.173243  1
  In  In6  1  0.450157  0.996285  0.673147  1
  In  In7  1  0.049877  0.503721  0.173243  1
  In  In8  1  0.550419  0.003586  0.326807  1
  In  In9  1  0.949844  0.496196  0.826704  1
  In  In10  1  0.550419  0.496414  0.326807  1
  In  In11  1  0.450157  0.503715  0.673147  1
  I  I12  1  0.128199  0.750000  0.684015  1
  I  I13  1  0.869456  0.250000  0.313909  1
  I  I14  1  0.630648  0.250000  0.813844  1
  I  I15  1  0.369527  0.750000  0.186049  1
  I  I16  1  0.830421  0.042791  0.580944  1
  I  I17  1  0.168656  0.952405  0.418992  1
  I  I18  1  0.329367  0.954070  0.918031  1
  I  I19  1  0.168656  0.547595  0.418992  1
  I  I20  1  0.670560  0.045952  0.081952  1
  I  I21  1  0.830421  0.457209  0.580944  1
  I  I22  1  0.670560  0.454048  0.081952  1
  I  I23  1  0.329367  0.545930  0.918031  1
  I  I24  1  0.566574  0.750000  0.504737  1
  I  I25  1  0.436760  0.250000  0.495258  1
  I  I26  1  0.063054  0.250000  0.995323  1
  I  I27  1  0.936869  0.750000  0.004826  1
  I  I28  1  0.667048  0.750000  0.789112  1
  I  I29  1  0.332792  0.250000  0.211131  1
  I  I30  1  0.167087  0.250000  0.711060  1
  I  I31  1  0.833924  0.750000  0.291298  1
