# generated using pymatgen
data_Th3In2IrAu3
_symmetry_space_group_name_H-M   'P 1'
_cell_length_a   3.95565300
_cell_length_b   8.13070454
_cell_length_c   7.86975400
_cell_angle_alpha   120.79079364
_cell_angle_beta   90.00000000
_cell_angle_gamma   90.00000000
_symmetry_Int_Tables_number   1
_chemical_formula_structural   Th3In2IrAu3
_chemical_formula_sum   'Th3 In2 Ir1 Au3'
_cell_volume   217.43127023
_cell_formula_units_Z   1
loop_
 _symmetry_equiv_pos_site_id
 _symmetry_equiv_pos_as_xyz
  1  'x, y, z'
loop_
 _atom_site_type_symbol
 _atom_site_label
 _atom_site_symmetry_multiplicity
 _atom_site_fract_x
 _atom_site_fract_y
 _atom_site_fract_z
 _atom_site_occupancy
  Th  Th0  1  0.000000  0.431068  0.016242  1
  Th  Th1  1  0.000000  0.607784  0.600035  1
  Th  Th2  1  0.000000  0.967129  0.380283  1
  In  In3  1  0.500000  0.262804  0.257848  1
  In  In4  1  0.500000  0.010662  0.745744  1
  Ir  Ir5  1  0.500000  0.668882  0.349289  1
  Au  Au6  1  0.500000  0.321641  0.654910  1
  Au  Au7  1  0.000000  0.005780  0.000409  1
  Au  Au8  1  0.500000  0.724350  0.995241  1
