# generated using pymatgen
data_DyErTl2(SiSe4)2
_symmetry_space_group_name_H-M   'P 1'
_cell_length_a   6.86578349
_cell_length_b   6.57020400
_cell_length_c   18.41312000
_cell_angle_alpha   71.99720968
_cell_angle_beta   90.10930443
_cell_angle_gamma   89.96880528
_symmetry_Int_Tables_number   1
_chemical_formula_structural   DyErTl2(SiSe4)2
_chemical_formula_sum   'Dy2 Er2 Tl4 Si4 Se16'
_cell_volume   789.94107327
_cell_formula_units_Z   2
loop_
 _symmetry_equiv_pos_site_id
 _symmetry_equiv_pos_as_xyz
  1  'x, y, z'
loop_
 _atom_site_type_symbol
 _atom_site_label
 _atom_site_symmetry_multiplicity
 _atom_site_fract_x
 _atom_site_fract_y
 _atom_site_fract_z
 _atom_site_occupancy
  Dy  Dy0  1  0.775229  0.228885  0.225938  1
  Dy  Dy1  1  0.224771  0.771115  0.774062  1
  Er  Er2  1  0.724814  0.229007  0.725905  1
  Er  Er3  1  0.275186  0.770993  0.274095  1
  Tl  Tl4  1  0.252474  0.728929  0.034207  1
  Tl  Tl5  1  0.247657  0.729252  0.533954  1
  Tl  Tl6  1  0.752343  0.270748  0.466046  1
  Tl  Tl7  1  0.747526  0.271071  0.965793  1
  Si  Si8  1  0.260617  0.215936  0.836763  1
  Si  Si9  1  0.239407  0.216304  0.336649  1
  Si  Si10  1  0.760593  0.783696  0.663351  1
  Si  Si11  1  0.739383  0.784064  0.163237  1
  Se  Se12  1  0.487537  0.992096  0.648127  1
  Se  Se13  1  0.178440  0.427985  0.214125  1
  Se  Se14  1  0.512463  0.007904  0.351873  1
  Se  Se15  1  0.985513  0.010942  0.851919  1
  Se  Se16  1  0.323228  0.424141  0.713931  1
  Se  Se17  1  0.260217  0.417750  0.916521  1
  Se  Se18  1  0.739783  0.582250  0.083479  1
  Se  Se19  1  0.821560  0.572015  0.785875  1
  Se  Se20  1  0.759598  0.578829  0.584595  1
  Se  Se21  1  0.240402  0.421171  0.415405  1
  Se  Se22  1  0.501971  0.963866  0.860650  1
  Se  Se23  1  0.999442  0.038320  0.638973  1
  Se  Se24  1  0.498029  0.036134  0.139350  1
  Se  Se25  1  0.014487  0.989058  0.148081  1
  Se  Se26  1  0.000558  0.961680  0.361027  1
  Se  Se27  1  0.676772  0.575859  0.286069  1
