# generated using pymatgen
data_Zr8Ta3Si16W9
_symmetry_space_group_name_H-M   'P 1'
_cell_length_a   6.77583461
_cell_length_b   6.77583461
_cell_length_c   12.58888228
_cell_angle_alpha   90.01663670
_cell_angle_beta   89.98336330
_cell_angle_gamma   89.90072885
_symmetry_Int_Tables_number   1
_chemical_formula_structural   Zr8Ta3Si16W9
_chemical_formula_sum   'Zr8 Ta3 Si16 W9'
_cell_volume   577.97902443
_cell_formula_units_Z   1
loop_
 _symmetry_equiv_pos_site_id
 _symmetry_equiv_pos_as_xyz
  1  'x, y, z'
loop_
 _atom_site_type_symbol
 _atom_site_label
 _atom_site_symmetry_multiplicity
 _atom_site_fract_x
 _atom_site_fract_y
 _atom_site_fract_z
 _atom_site_occupancy
  Zr  Zr0  1  0.006054  0.664649  0.031011  1
  Zr  Zr1  1  0.992521  0.335935  0.530735  1
  Zr  Zr2  1  0.664649  0.006054  0.968989  1
  Zr  Zr3  1  0.164874  0.495335  0.779754  1
  Zr  Zr4  1  0.835379  0.507034  0.281336  1
  Zr  Zr5  1  0.495335  0.164874  0.220246  1
  Zr  Zr6  1  0.507034  0.835379  0.718664  1
  Zr  Zr7  1  0.335935  0.992521  0.469265  1
  Ta  Ta8  1  0.834019  0.165972  0.748505  1
  Ta  Ta9  1  0.165972  0.834019  0.251495  1
  Ta  Ta10  1  0.334125  0.334125  0.000000  1
  Si  Si11  1  0.032580  0.712105  0.440127  1
  Si  Si12  1  0.962155  0.293171  0.936913  1
  Si  Si13  1  0.712105  0.032580  0.559873  1
  Si  Si14  1  0.206861  0.462301  0.187852  1
  Si  Si15  1  0.790142  0.538973  0.684884  1
  Si  Si16  1  0.462301  0.206861  0.812148  1
  Si  Si17  1  0.538973  0.790142  0.315116  1
  Si  Si18  1  0.293171  0.962155  0.063087  1
  Si  Si19  1  0.874434  0.791322  0.823492  1
  Si  Si20  1  0.125979  0.207764  0.323201  1
  Si  Si21  1  0.791322  0.874434  0.176508  1
  Si  Si22  1  0.296517  0.623373  0.572629  1
  Si  Si23  1  0.707810  0.373998  0.073077  1
  Si  Si24  1  0.623373  0.296517  0.427371  1
  Si  Si25  1  0.373998  0.707810  0.926923  1
  Si  Si26  1  0.207764  0.125979  0.676799  1
  W  W27  1  0.328496  0.500136  0.379175  1
  W  W28  1  0.832530  0.005568  0.367934  1
  W  W29  1  0.000513  0.165695  0.128083  1
  W  W30  1  0.005568  0.832530  0.632066  1
  W  W31  1  0.665260  0.499356  0.877785  1
  W  W32  1  0.500136  0.328496  0.620825  1
  W  W33  1  0.499356  0.665260  0.122215  1
  W  W34  1  0.165695  0.000513  0.871917  1
  W  W35  1  0.667064  0.667064  0.500000  1
