# generated using pymatgen
data_TbDy3ReOs7
_symmetry_space_group_name_H-M   'P 1'
_cell_length_a   5.28747691
_cell_length_b   5.28747797
_cell_length_c   8.90762175
_cell_angle_alpha   89.93828752
_cell_angle_beta   90.06171415
_cell_angle_gamma   118.11483818
_symmetry_Int_Tables_number   1
_chemical_formula_structural   TbDy3ReOs7
_chemical_formula_sum   'Tb1 Dy3 Re1 Os7'
_cell_volume   219.64911385
_cell_formula_units_Z   1
loop_
 _symmetry_equiv_pos_site_id
 _symmetry_equiv_pos_as_xyz
  1  'x, y, z'
loop_
 _atom_site_type_symbol
 _atom_site_label
 _atom_site_symmetry_multiplicity
 _atom_site_fract_x
 _atom_site_fract_y
 _atom_site_fract_z
 _atom_site_occupancy
  Tb  Tb0  1  0.330838  0.669162  0.435896  1
  Dy  Dy1  1  0.666101  0.333899  0.566286  1
  Dy  Dy2  1  0.666065  0.333935  0.933776  1
  Dy  Dy3  1  0.330689  0.669311  0.064160  1
  Re  Re4  1  0.834702  0.165298  0.249811  1
  Os  Os5  1  0.992674  0.007326  0.499860  1
  Os  Os6  1  0.992794  0.007206  0.000166  1
  Os  Os7  1  0.828290  0.649517  0.249584  1
  Os  Os8  1  0.350483  0.171710  0.249584  1
  Os  Os9  1  0.175300  0.824700  0.750267  1
  Os  Os10  1  0.171880  0.339816  0.750305  1
  Os  Os11  1  0.660184  0.828120  0.750305  1
