# generated using pymatgen
data_Zr2Mn7FeSi4
_symmetry_space_group_name_H-M   'P 1'
_cell_length_a   7.16884495
_cell_length_b   6.67924969
_cell_length_c   3.82019700
_cell_angle_alpha   90.00000000
_cell_angle_beta   90.00000000
_cell_angle_gamma   90.25532960
_symmetry_Int_Tables_number   1
_chemical_formula_structural   Zr2Mn7FeSi4
_chemical_formula_sum   'Zr2 Mn7 Fe1 Si4'
_cell_volume   182.91878715
_cell_formula_units_Z   1
loop_
 _symmetry_equiv_pos_site_id
 _symmetry_equiv_pos_as_xyz
  1  'x, y, z'
loop_
 _atom_site_type_symbol
 _atom_site_label
 _atom_site_symmetry_multiplicity
 _atom_site_fract_x
 _atom_site_fract_y
 _atom_site_fract_z
 _atom_site_occupancy
  Zr  Zr0  1  0.499337  0.499561  0.000000  1
  Zr  Zr1  1  0.998291  0.000479  0.500000  1
  Mn  Mn2  1  0.393951  0.861229  0.500000  1
  Mn  Mn3  1  0.153803  0.575665  0.500000  1
  Mn  Mn4  1  0.849897  0.426112  0.500000  1
  Mn  Mn5  1  0.107680  0.355891  0.000000  1
  Mn  Mn6  1  0.891938  0.641417  0.000000  1
  Mn  Mn7  1  0.650411  0.921037  0.000000  1
  Mn  Mn8  1  0.351424  0.073367  0.000000  1
  Fe  Fe9  1  0.606602  0.149327  0.500000  1
  Si  Si10  1  0.196515  0.769609  0.000000  1
  Si  Si11  1  0.304247  0.268570  0.500000  1
  Si  Si12  1  0.695701  0.729388  0.500000  1
  Si  Si13  1  0.800204  0.228348  0.000000  1
