# generated using pymatgen
data_Sm4Dy(SiHg)2
_symmetry_space_group_name_H-M   'P 1'
_cell_length_a   8.99427916
_cell_length_b   8.99427899
_cell_length_c   7.67313800
_cell_angle_alpha   90.00000000
_cell_angle_beta   90.00000000
_cell_angle_gamma   129.69375078
_symmetry_Int_Tables_number   1
_chemical_formula_structural   Sm4Dy(SiHg)2
_chemical_formula_sum   'Sm8 Dy2 Si4 Hg4'
_cell_volume   477.63591874
_cell_formula_units_Z   2
loop_
 _symmetry_equiv_pos_site_id
 _symmetry_equiv_pos_as_xyz
  1  'x, y, z'
loop_
 _atom_site_type_symbol
 _atom_site_label
 _atom_site_symmetry_multiplicity
 _atom_site_fract_x
 _atom_site_fract_y
 _atom_site_fract_z
 _atom_site_occupancy
  Sm  Sm0  1  0.056275  0.311367  0.323226  1
  Sm  Sm1  1  0.943725  0.688633  0.676774  1
  Sm  Sm2  1  0.443725  0.188633  0.823226  1
  Sm  Sm3  1  0.811367  0.556275  0.176774  1
  Sm  Sm4  1  0.556275  0.811367  0.176774  1
  Sm  Sm5  1  0.188633  0.443725  0.823226  1
  Sm  Sm6  1  0.688633  0.943725  0.676774  1
  Sm  Sm7  1  0.311367  0.056275  0.323226  1
  Dy  Dy8  1  0.000000  0.000000  0.000000  1
  Dy  Dy9  1  0.500000  0.500000  0.500000  1
  Si  Si10  1  0.382966  0.382966  0.120105  1
  Si  Si11  1  0.617034  0.617034  0.879895  1
  Si  Si12  1  0.117034  0.117034  0.620105  1
  Si  Si13  1  0.882966  0.882966  0.379895  1
  Hg  Hg14  1  0.781737  0.218263  0.000000  1
  Hg  Hg15  1  0.218263  0.781737  0.000000  1
  Hg  Hg16  1  0.718263  0.281737  0.500000  1
  Hg  Hg17  1  0.281737  0.718263  0.500000  1
