# generated using pymatgen
data_Ca5Tb2Lu(Si4Mo3)4
_symmetry_space_group_name_H-M   'P 1'
_cell_length_a   6.73742965
_cell_length_b   6.96289027
_cell_length_c   13.02553090
_cell_angle_alpha   89.88822592
_cell_angle_beta   89.96017225
_cell_angle_gamma   89.92870995
_symmetry_Int_Tables_number   1
_chemical_formula_structural   Ca5Tb2Lu(Si4Mo3)4
_chemical_formula_sum   'Ca5 Tb2 Lu1 Si16 Mo12'
_cell_volume   611.05170636
_cell_formula_units_Z   1
loop_
 _symmetry_equiv_pos_site_id
 _symmetry_equiv_pos_as_xyz
  1  'x, y, z'
loop_
 _atom_site_type_symbol
 _atom_site_label
 _atom_site_symmetry_multiplicity
 _atom_site_fract_x
 _atom_site_fract_y
 _atom_site_fract_z
 _atom_site_occupancy
  Ca  Ca0  1  0.498046  0.334327  0.091322  1
  Ca  Ca1  1  0.997658  0.166787  0.407644  1
  Ca  Ca2  1  0.501986  0.667058  0.592687  1
  Ca  Ca3  1  0.001628  0.832220  0.907898  1
  Ca  Ca4  1  0.501552  0.666798  0.909036  1
  Tb  Tb5  1  0.000353  0.831472  0.594398  1
  Tb  Tb6  1  0.499482  0.332211  0.405529  1
  Lu  Lu7  1  0.998231  0.168947  0.093987  1
  Si  Si8  1  0.658043  0.043059  0.545305  1
  Si  Si9  1  0.158003  0.456168  0.955467  1
  Si  Si10  1  0.339250  0.958802  0.046315  1
  Si  Si11  1  0.841898  0.543190  0.454042  1
  Si  Si12  1  0.340535  0.955893  0.453748  1
  Si  Si13  1  0.842241  0.541582  0.046184  1
  Si  Si14  1  0.659712  0.042526  0.955173  1
  Si  Si15  1  0.159476  0.456193  0.545468  1
  Si  Si16  1  0.534404  0.369981  0.750439  1
  Si  Si17  1  0.034468  0.129260  0.749987  1
  Si  Si18  1  0.465290  0.633727  0.248754  1
  Si  Si19  1  0.966339  0.869862  0.249329  1
  Si  Si20  1  0.800959  0.627077  0.751290  1
  Si  Si21  1  0.304055  0.871342  0.751498  1
  Si  Si22  1  0.196208  0.370234  0.248494  1
  Si  Si23  1  0.698179  0.128762  0.248967  1
  Mo  Mo24  1  0.833403  0.333347  0.626544  1
  Mo  Mo25  1  0.332709  0.168196  0.873423  1
  Mo  Mo26  1  0.166014  0.666399  0.126360  1
  Mo  Mo27  1  0.667624  0.833941  0.373391  1
  Mo  Mo28  1  0.167383  0.665822  0.372590  1
  Mo  Mo29  1  0.669429  0.835565  0.126749  1
  Mo  Mo30  1  0.835733  0.330108  0.873438  1
  Mo  Mo31  1  0.332798  0.166791  0.626531  1
  Mo  Mo32  1  0.662378  0.008871  0.749825  1
  Mo  Mo33  1  0.161971  0.491243  0.749222  1
  Mo  Mo34  1  0.335474  0.995973  0.249851  1
  Mo  Mo35  1  0.837088  0.506262  0.249115  1
