# generated using pymatgen
data_Ta12Mn3Al8CuC4
_symmetry_space_group_name_H-M   'P 1'
_cell_length_a   8.21104835
_cell_length_b   8.21104837
_cell_length_c   8.21104815
_cell_angle_alpha   60.28511218
_cell_angle_beta   60.28511301
_cell_angle_gamma   60.28511181
_symmetry_Int_Tables_number   1
_chemical_formula_structural   Ta12Mn3Al8CuC4
_chemical_formula_sum   'Ta12 Mn3 Al8 Cu1 C4'
_cell_volume   393.97993014
_cell_formula_units_Z   1
loop_
 _symmetry_equiv_pos_site_id
 _symmetry_equiv_pos_as_xyz
  1  'x, y, z'
loop_
 _atom_site_type_symbol
 _atom_site_label
 _atom_site_symmetry_multiplicity
 _atom_site_fract_x
 _atom_site_fract_y
 _atom_site_fract_z
 _atom_site_occupancy
  Ta  Ta0  1  0.555329  0.944665  0.555329  1
  Ta  Ta1  1  0.305335  0.694671  0.694671  1
  Ta  Ta2  1  0.683877  0.310102  0.310102  1
  Ta  Ta3  1  0.310102  0.683877  0.310102  1
  Ta  Ta4  1  0.694671  0.694671  0.305335  1
  Ta  Ta5  1  0.310102  0.310102  0.683877  1
  Ta  Ta6  1  0.555329  0.555329  0.944665  1
  Ta  Ta7  1  0.944665  0.555329  0.555329  1
  Ta  Ta8  1  0.566123  0.939898  0.939898  1
  Ta  Ta9  1  0.939898  0.939898  0.566123  1
  Ta  Ta10  1  0.694671  0.305335  0.694671  1
  Ta  Ta11  1  0.939898  0.566123  0.939898  1
  Mn  Mn12  1  0.625000  0.125000  0.125000  1
  Mn  Mn13  1  0.125000  0.625000  0.125000  1
  Mn  Mn14  1  0.125000  0.125000  0.625000  1
  Al  Al15  1  0.919210  0.919210  0.919210  1
  Al  Al16  1  0.000781  0.334139  0.334139  1
  Al  Al17  1  0.334139  0.000781  0.334139  1
  Al  Al18  1  0.334139  0.334139  0.000781  1
  Al  Al19  1  0.915861  0.249219  0.915861  1
  Al  Al20  1  0.915861  0.915861  0.249219  1
  Al  Al21  1  0.249219  0.915861  0.915861  1
  Al  Al22  1  0.330790  0.330790  0.330790  1
  Cu  Cu23  1  0.125000  0.125000  0.125000  1
  C  C24  1  0.625000  0.625000  0.625000  1
  C  C25  1  0.125000  0.625000  0.625000  1
  C  C26  1  0.625000  0.125000  0.625000  1
  C  C27  1  0.625000  0.625000  0.125000  1
