# generated using pymatgen
data_Cs(PdO2)6
_symmetry_space_group_name_H-M   'P 1'
_cell_length_a   8.75058061
_cell_length_b   8.75058086
_cell_length_c   8.75058103
_cell_angle_alpha   106.89353877
_cell_angle_beta   106.89353609
_cell_angle_gamma   114.75956477
_symmetry_Int_Tables_number   1
_chemical_formula_structural   Cs(PdO2)6
_chemical_formula_sum   'Cs2 Pd12 O24'
_cell_volume   512.48233659
_cell_formula_units_Z   2
loop_
 _symmetry_equiv_pos_site_id
 _symmetry_equiv_pos_as_xyz
  1  'x, y, z'
loop_
 _atom_site_type_symbol
 _atom_site_label
 _atom_site_symmetry_multiplicity
 _atom_site_fract_x
 _atom_site_fract_y
 _atom_site_fract_z
 _atom_site_occupancy
  Cs  Cs0  1  0.793409  0.793409  0.000000  1
  Cs  Cs1  1  0.206591  0.206591  0.000000  1
  Pd  Pd2  1  0.315333  0.832569  0.814707  1
  Pd  Pd3  1  0.650114  0.165152  0.815266  1
  Pd  Pd4  1  0.982137  0.499373  0.814707  1
  Pd  Pd5  1  0.017863  0.500627  0.185293  1
  Pd  Pd6  1  0.349886  0.834848  0.184734  1
  Pd  Pd7  1  0.684667  0.167431  0.185293  1
  Pd  Pd8  1  0.834848  0.650114  0.484963  1
  Pd  Pd9  1  0.167431  0.982137  0.482764  1
  Pd  Pd10  1  0.500627  0.315333  0.482764  1
  Pd  Pd11  1  0.499373  0.684667  0.517236  1
  Pd  Pd12  1  0.832569  0.017863  0.517236  1
  Pd  Pd13  1  0.165152  0.349886  0.515037  1
  O  O14  1  0.787710  0.507051  0.629235  1
  O  O15  1  0.122184  0.841526  0.629235  1
  O  O16  1  0.455406  0.170200  0.625606  1
  O  O17  1  0.877816  0.158474  0.370765  1
  O  O18  1  0.212290  0.492949  0.370765  1
  O  O19  1  0.544594  0.829800  0.374394  1
  O  O20  1  0.492949  0.122184  0.280660  1
  O  O21  1  0.829800  0.455406  0.285205  1
  O  O22  1  0.158474  0.787710  0.280660  1
  O  O23  1  0.170200  0.544594  0.714795  1
  O  O24  1  0.507051  0.877816  0.719340  1
  O  O25  1  0.841526  0.212290  0.719340  1
  O  O26  1  0.508298  0.869832  0.048964  1
  O  O27  1  0.847467  0.203940  0.051406  1
  O  O28  1  0.179133  0.540667  0.048964  1
  O  O29  1  0.152533  0.796060  0.948594  1
  O  O30  1  0.491702  0.130168  0.951036  1
  O  O31  1  0.820867  0.459333  0.951036  1
  O  O32  1  0.130168  0.179133  0.638466  1
  O  O33  1  0.459333  0.508298  0.638466  1
  O  O34  1  0.796060  0.847467  0.643526  1
  O  O35  1  0.540667  0.491702  0.361534  1
  O  O36  1  0.869832  0.820867  0.361534  1
  O  O37  1  0.203940  0.152533  0.356474  1
