# generated using pymatgen
data_Tb3Y5Re3B24Os
_symmetry_space_group_name_H-M   'P 1'
_cell_length_a   3.68279700
_cell_length_b   9.18775344
_cell_length_c   11.57622501
_cell_angle_alpha   89.92417179
_cell_angle_beta   90.00000000
_cell_angle_gamma   90.00000000
_symmetry_Int_Tables_number   1
_chemical_formula_structural   Tb3Y5Re3B24Os
_chemical_formula_sum   'Tb3 Y5 Re3 B24 Os1'
_cell_volume   391.70010864
_cell_formula_units_Z   1
loop_
 _symmetry_equiv_pos_site_id
 _symmetry_equiv_pos_as_xyz
  1  'x, y, z'
loop_
 _atom_site_type_symbol
 _atom_site_label
 _atom_site_symmetry_multiplicity
 _atom_site_fract_x
 _atom_site_fract_y
 _atom_site_fract_z
 _atom_site_occupancy
  Tb  Tb0  1  0.000000  0.822062  0.085756  1
  Tb  Tb1  1  0.000000  0.177312  0.912519  1
  Tb  Tb2  1  0.000000  0.324546  0.415555  1
  Y  Y3  1  0.000000  0.676657  0.586306  1
  Y  Y4  1  0.000000  0.442353  0.130035  1
  Y  Y5  1  0.000000  0.556924  0.870568  1
  Y  Y6  1  0.000000  0.942293  0.370235  1
  Y  Y7  1  0.000000  0.057280  0.629122  1
  Re  Re8  1  0.000000  0.862255  0.821828  1
  Re  Re9  1  0.000000  0.638238  0.320422  1
  Re  Re10  1  0.000000  0.361859  0.679162  1
  B  B11  1  0.500000  0.053706  0.067461  1
  B  B12  1  0.500000  0.947041  0.932829  1
  B  B13  1  0.500000  0.553008  0.432962  1
  B  B14  1  0.500000  0.447025  0.567285  1
  B  B15  1  0.500000  0.247944  0.081942  1
  B  B16  1  0.500000  0.751362  0.918374  1
  B  B17  1  0.500000  0.748581  0.418388  1
  B  B18  1  0.500000  0.251905  0.581657  1
  B  B19  1  0.500000  0.290190  0.234337  1
  B  B20  1  0.500000  0.708748  0.765758  1
  B  B21  1  0.500000  0.790975  0.265275  1
  B  B22  1  0.500000  0.208691  0.734115  1
  B  B23  1  0.500000  0.131074  0.313804  1
  B  B24  1  0.500000  0.869570  0.686185  1
  B  B25  1  0.500000  0.630947  0.185491  1
  B  B26  1  0.500000  0.369055  0.814068  1
  B  B27  1  0.500000  0.482506  0.288160  1
  B  B28  1  0.500000  0.517744  0.712158  1
  B  B29  1  0.500000  0.983305  0.211773  1
  B  B30  1  0.500000  0.018122  0.788075  1
  B  B31  1  0.500000  0.101860  0.471117  1
  B  B32  1  0.500000  0.898242  0.528206  1
  B  B33  1  0.500000  0.601039  0.028582  1
  B  B34  1  0.500000  0.397622  0.971689  1
  Os  Os35  1  0.000000  0.137960  0.178803  1
