# generated using pymatgen
data_Th2Al9ReIr2
_symmetry_space_group_name_H-M   'P 1'
_cell_length_a   7.64528693
_cell_length_b   7.64528639
_cell_length_c   9.56965200
_cell_angle_alpha   90.00000000
_cell_angle_beta   90.00000000
_cell_angle_gamma   118.03236394
_symmetry_Int_Tables_number   1
_chemical_formula_structural   Th2Al9ReIr2
_chemical_formula_sum   'Th4 Al18 Re2 Ir4'
_cell_volume   493.72838352
_cell_formula_units_Z   2
loop_
 _symmetry_equiv_pos_site_id
 _symmetry_equiv_pos_as_xyz
  1  'x, y, z'
loop_
 _atom_site_type_symbol
 _atom_site_label
 _atom_site_symmetry_multiplicity
 _atom_site_fract_x
 _atom_site_fract_y
 _atom_site_fract_z
 _atom_site_occupancy
  Th  Th0  1  0.994828  0.687999  0.750000  1
  Th  Th1  1  0.005172  0.312001  0.250000  1
  Th  Th2  1  0.687999  0.994828  0.750000  1
  Th  Th3  1  0.312001  0.005172  0.250000  1
  Al  Al4  1  0.143872  0.143872  0.750000  1
  Al  Al5  1  0.856128  0.856128  0.250000  1
  Al  Al6  1  0.007913  0.343152  0.576249  1
  Al  Al7  1  0.992087  0.656848  0.423751  1
  Al  Al8  1  0.992087  0.656848  0.076249  1
  Al  Al9  1  0.343152  0.007913  0.923751  1
  Al  Al10  1  0.007913  0.343152  0.923751  1
  Al  Al11  1  0.656848  0.992087  0.076249  1
  Al  Al12  1  0.656848  0.992087  0.423751  1
  Al  Al13  1  0.343152  0.007913  0.576249  1
  Al  Al14  1  0.334424  0.334424  0.038187  1
  Al  Al15  1  0.665576  0.665576  0.961813  1
  Al  Al16  1  0.665576  0.665576  0.538187  1
  Al  Al17  1  0.334424  0.334424  0.461813  1
  Al  Al18  1  0.343681  0.553381  0.750000  1
  Al  Al19  1  0.656319  0.446619  0.250000  1
  Al  Al20  1  0.553381  0.343681  0.750000  1
  Al  Al21  1  0.446619  0.656319  0.250000  1
  Re  Re22  1  0.000000  0.000000  0.500000  1
  Re  Re23  1  0.000000  0.000000  0.000000  1
  Ir  Ir24  1  0.671838  0.328162  0.500000  1
  Ir  Ir25  1  0.328162  0.671838  0.500000  1
  Ir  Ir26  1  0.328162  0.671838  0.000000  1
  Ir  Ir27  1  0.671838  0.328162  0.000000  1
