# generated using pymatgen
data_DyFeCuSi
_symmetry_space_group_name_H-M   'P 1'
_cell_length_a   8.53213041
_cell_length_b   8.53212977
_cell_length_c   4.00146000
_cell_angle_alpha   90.00000000
_cell_angle_beta   90.00000000
_cell_angle_gamma   153.14991561
_symmetry_Int_Tables_number   1
_chemical_formula_structural   DyFeCuSi
_chemical_formula_sum   'Dy2 Fe2 Cu2 Si2'
_cell_volume   131.56572094
_cell_formula_units_Z   2
loop_
 _symmetry_equiv_pos_site_id
 _symmetry_equiv_pos_as_xyz
  1  'x, y, z'
loop_
 _atom_site_type_symbol
 _atom_site_label
 _atom_site_symmetry_multiplicity
 _atom_site_fract_x
 _atom_site_fract_y
 _atom_site_fract_z
 _atom_site_occupancy
  Dy  Dy0  1  0.612878  0.387122  0.250000  1
  Dy  Dy1  1  0.387122  0.612878  0.750000  1
  Fe  Fe2  1  0.250239  0.749761  0.250000  1
  Fe  Fe3  1  0.749761  0.250239  0.750000  1
  Cu  Cu4  1  0.960046  0.039954  0.250000  1
  Cu  Cu5  1  0.039954  0.960046  0.750000  1
  Si  Si6  1  0.815734  0.184266  0.250000  1
  Si  Si7  1  0.184266  0.815734  0.750000  1
