# generated using pymatgen
data_Tl2ZnBr4
_symmetry_space_group_name_H-M   'P 1'
_cell_length_a   6.98274300
_cell_length_b   6.98274467
_cell_length_c   11.22753200
_cell_angle_alpha   90.00000000
_cell_angle_beta   90.00000000
_cell_angle_gamma   109.01702481
_symmetry_Int_Tables_number   1
_chemical_formula_structural   Tl2ZnBr4
_chemical_formula_sum   'Tl4 Zn2 Br8'
_cell_volume   517.56170108
_cell_formula_units_Z   2
loop_
 _symmetry_equiv_pos_site_id
 _symmetry_equiv_pos_as_xyz
  1  'x, y, z'
loop_
 _atom_site_type_symbol
 _atom_site_label
 _atom_site_symmetry_multiplicity
 _atom_site_fract_x
 _atom_site_fract_y
 _atom_site_fract_z
 _atom_site_occupancy
  Tl  Tl0  1  0.621295  0.621295  0.500000  1
  Tl  Tl1  1  0.621295  0.621295  0.000000  1
  Tl  Tl2  1  0.241267  0.871037  0.250000  1
  Tl  Tl3  1  0.871037  0.241267  0.750000  1
  Zn  Zn4  1  0.857399  0.306127  0.250000  1
  Zn  Zn5  1  0.306127  0.857399  0.750000  1
  Br  Br6  1  0.036135  0.469653  0.428393  1
  Br  Br7  1  0.469653  0.036135  0.571607  1
  Br  Br8  1  0.036135  0.469653  0.071607  1
  Br  Br9  1  0.469653  0.036135  0.928393  1
  Br  Br10  1  0.521932  0.352000  0.250000  1
  Br  Br11  1  0.352000  0.521932  0.750000  1
  Br  Br12  1  0.794178  0.939890  0.250000  1
  Br  Br13  1  0.939890  0.794178  0.750000  1
