# generated using pymatgen
data_U4Mn7(SiP2)2
_symmetry_space_group_name_H-M   'P 1'
_cell_length_a   6.73725238
_cell_length_b   6.74118526
_cell_length_c   6.74118500
_cell_angle_alpha   109.49570927
_cell_angle_beta   109.47079856
_cell_angle_gamma   109.47078977
_symmetry_Int_Tables_number   1
_chemical_formula_structural   U4Mn7(SiP2)2
_chemical_formula_sum   'U4 Mn7 Si2 P4'
_cell_volume   235.61702422
_cell_formula_units_Z   1
loop_
 _symmetry_equiv_pos_site_id
 _symmetry_equiv_pos_as_xyz
  1  'x, y, z'
loop_
 _atom_site_type_symbol
 _atom_site_label
 _atom_site_symmetry_multiplicity
 _atom_site_fract_x
 _atom_site_fract_y
 _atom_site_fract_z
 _atom_site_occupancy
  U  U0  1  0.500000  0.501021  0.498979  1
  U  U1  1  0.000000  0.001635  0.509068  1
  U  U2  1  0.500000  0.001021  0.998979  1
  U  U3  1  0.000000  0.490932  0.998365  1
  Mn  Mn4  1  0.751038  0.250653  0.500385  1
  Mn  Mn5  1  0.500000  0.249396  0.750604  1
  Mn  Mn6  1  0.500000  0.749396  0.250604  1
  Mn  Mn7  1  0.248962  0.499615  0.749347  1
  Mn  Mn8  1  0.753027  0.499390  0.253638  1
  Mn  Mn9  1  0.246973  0.746362  0.500610  1
  Mn  Mn10  1  0.000000  0.007702  0.992298  1
  Si  Si11  1  0.311245  0.997212  0.314033  1
  Si  Si12  1  0.688755  0.685967  0.002788  1
  P  P13  1  0.327927  0.325755  0.002172  1
  P  P14  1  0.000000  0.313395  0.317278  1
  P  P15  1  0.000000  0.682722  0.686605  1
  P  P16  1  0.672073  0.997828  0.674245  1
