# generated using pymatgen
data_SmSb3(SeO3)8
_symmetry_space_group_name_H-M   'P 1'
_cell_length_a   8.52701466
_cell_length_b   8.84987400
_cell_length_c   8.53675689
_cell_angle_alpha   90.75779618
_cell_angle_beta   89.75694685
_cell_angle_gamma   90.09761825
_symmetry_Int_Tables_number   1
_chemical_formula_structural   SmSb3(SeO3)8
_chemical_formula_sum   'Sm1 Sb3 Se8 O24'
_cell_volume   644.14631650
_cell_formula_units_Z   1
loop_
 _symmetry_equiv_pos_site_id
 _symmetry_equiv_pos_as_xyz
  1  'x, y, z'
loop_
 _atom_site_type_symbol
 _atom_site_label
 _atom_site_symmetry_multiplicity
 _atom_site_fract_x
 _atom_site_fract_y
 _atom_site_fract_z
 _atom_site_occupancy
  Sm  Sm0  1  0.000000  0.500000  0.000000  1
  Sb  Sb1  1  0.500000  0.500000  0.500000  1
  Sb  Sb2  1  0.000000  0.000000  0.500000  1
  Sb  Sb3  1  0.500000  0.000000  0.000000  1
  Se  Se4  1  0.357321  0.688735  0.170801  1
  Se  Se5  1  0.837792  0.308888  0.353342  1
  Se  Se6  1  0.687413  0.843737  0.683203  1
  Se  Se7  1  0.196279  0.145041  0.810668  1
  Se  Se8  1  0.642679  0.311265  0.829199  1
  Se  Se9  1  0.162208  0.691112  0.646658  1
  Se  Se10  1  0.312587  0.156263  0.316797  1
  Se  Se11  1  0.803721  0.854959  0.189332  1
  O  O12  1  0.252472  0.577063  0.049085  1
  O  O13  1  0.755317  0.432904  0.485017  1
  O  O14  1  0.767303  0.978755  0.552036  1
  O  O15  1  0.267143  0.009978  0.947339  1
  O  O16  1  0.551277  0.973389  0.768161  1
  O  O17  1  0.494086  0.568681  0.245616  1
  O  O18  1  0.965582  0.416244  0.252544  1
  O  O19  1  0.052912  0.017529  0.731947  1
  O  O20  1  0.978259  0.223547  0.487772  1
  O  O21  1  0.567329  0.748612  0.560625  1
  O  O22  1  0.489204  0.776716  0.027235  1
  O  O23  1  0.085463  0.255123  0.926130  1
  O  O24  1  0.747528  0.422937  0.950915  1
  O  O25  1  0.244683  0.567096  0.514983  1
  O  O26  1  0.232697  0.021245  0.447964  1
  O  O27  1  0.732857  0.990022  0.052661  1
  O  O28  1  0.448723  0.026611  0.231839  1
  O  O29  1  0.505914  0.431319  0.754384  1
  O  O30  1  0.034418  0.583756  0.747456  1
  O  O31  1  0.947088  0.982471  0.268053  1
  O  O32  1  0.021741  0.776453  0.512228  1
  O  O33  1  0.432671  0.251388  0.439375  1
  O  O34  1  0.510796  0.223284  0.972765  1
  O  O35  1  0.914537  0.744877  0.073870  1
