# generated using pymatgen
data_Ho16Mg2Cd2OsPt3
_symmetry_space_group_name_H-M   'P 1'
_cell_length_a   9.70132937
_cell_length_b   9.70133043
_cell_length_c   9.72549023
_cell_angle_alpha   59.34527665
_cell_angle_beta   59.34527445
_cell_angle_gamma   59.23944727
_symmetry_Int_Tables_number   1
_chemical_formula_structural   Ho16Mg2Cd2OsPt3
_chemical_formula_sum   'Ho16 Mg2 Cd2 Os1 Pt3'
_cell_volume   637.06086164
_cell_formula_units_Z   1
loop_
 _symmetry_equiv_pos_site_id
 _symmetry_equiv_pos_as_xyz
  1  'x, y, z'
loop_
 _atom_site_type_symbol
 _atom_site_label
 _atom_site_symmetry_multiplicity
 _atom_site_fract_x
 _atom_site_fract_y
 _atom_site_fract_z
 _atom_site_occupancy
  Ho  Ho0  1  0.600666  0.600666  0.601765  1
  Ho  Ho1  1  0.599774  0.599774  0.198817  1
  Ho  Ho2  1  0.597756  0.203063  0.598936  1
  Ho  Ho3  1  0.203063  0.597756  0.598936  1
  Ho  Ho4  1  0.065005  0.438706  0.437893  1
  Ho  Ho5  1  0.438026  0.060066  0.060423  1
  Ho  Ho6  1  0.438706  0.065005  0.437893  1
  Ho  Ho7  1  0.060066  0.438026  0.060423  1
  Ho  Ho8  1  0.439774  0.439774  0.063593  1
  Ho  Ho9  1  0.061730  0.061730  0.436621  1
  Ho  Ho10  1  0.186300  0.816587  0.816217  1
  Ho  Ho11  1  0.808528  0.189361  0.186131  1
  Ho  Ho12  1  0.816587  0.186300  0.816217  1
  Ho  Ho13  1  0.189361  0.808528  0.186131  1
  Ho  Ho14  1  0.817498  0.817498  0.182914  1
  Ho  Ho15  1  0.187809  0.187809  0.808396  1
  Mg  Mg16  1  0.825643  0.825643  0.828998  1
  Mg  Mg17  1  0.825113  0.825113  0.515997  1
  Cd  Cd18  1  0.831475  0.503174  0.830809  1
  Cd  Cd19  1  0.503174  0.831475  0.830809  1
  Os  Os20  1  0.394164  0.394164  0.391214  1
  Pt  Pt21  1  0.393192  0.393192  0.824047  1
  Pt  Pt22  1  0.394148  0.822441  0.393409  1
  Pt  Pt23  1  0.822441  0.394148  0.393409  1
