# generated using pymatgen
data_AcFe(BO3)2
_symmetry_space_group_name_H-M   'P 1'
_cell_length_a   4.99754258
_cell_length_b   4.99948730
_cell_length_c   6.24176677
_cell_angle_alpha   90.07537756
_cell_angle_beta   113.57302921
_cell_angle_gamma   119.99849885
_symmetry_Int_Tables_number   1
_chemical_formula_structural   AcFe(BO3)2
_chemical_formula_sum   'Ac1 Fe1 B2 O6'
_cell_volume   119.74400764
_cell_formula_units_Z   1
loop_
 _symmetry_equiv_pos_site_id
 _symmetry_equiv_pos_as_xyz
  1  'x, y, z'
loop_
 _atom_site_type_symbol
 _atom_site_label
 _atom_site_symmetry_multiplicity
 _atom_site_fract_x
 _atom_site_fract_y
 _atom_site_fract_z
 _atom_site_occupancy
  Ac  Ac0  1  0.000002  0.499993  0.499995  1
  Fe  Fe1  1  0.999979  0.000023  0.999988  1
  B  B2  1  0.473120  0.736835  0.209335  1
  B  B3  1  0.526876  0.263162  0.790673  1
  O  O4  1  0.783120  0.981820  0.220552  1
  O  O5  1  0.239463  0.801951  0.220616  1
  O  O6  1  0.419585  0.438309  0.220753  1
  O  O7  1  0.580428  0.561686  0.779255  1
  O  O8  1  0.760535  0.198044  0.779381  1
  O  O9  1  0.216892  0.018173  0.779451  1
