# generated using pymatgen
data_TbHo6Tm9(InIr)4
_symmetry_space_group_name_H-M   'P 1'
_cell_length_a   9.58664315
_cell_length_b   9.58531566
_cell_length_c   9.59844200
_cell_angle_alpha   59.95468953
_cell_angle_beta   59.95927847
_cell_angle_gamma   59.89934598
_symmetry_Int_Tables_number   1
_chemical_formula_structural   TbHo6Tm9(InIr)4
_chemical_formula_sum   'Tb1 Ho6 Tm9 In4 Ir4'
_cell_volume   622.79486605
_cell_formula_units_Z   1
loop_
 _symmetry_equiv_pos_site_id
 _symmetry_equiv_pos_as_xyz
  1  'x, y, z'
loop_
 _atom_site_type_symbol
 _atom_site_label
 _atom_site_symmetry_multiplicity
 _atom_site_fract_x
 _atom_site_fract_y
 _atom_site_fract_z
 _atom_site_occupancy
  Tb  Tb0  1  0.437434  0.438504  0.062031  1
  Ho  Ho1  1  0.048114  0.649555  0.651166  1
  Ho  Ho2  1  0.438680  0.059606  0.060013  1
  Ho  Ho3  1  0.059707  0.060728  0.439783  1
  Ho  Ho4  1  0.649765  0.048182  0.651027  1
  Ho  Ho5  1  0.810214  0.808672  0.190557  1
  Ho  Ho6  1  0.438680  0.059606  0.441701  1
  Tm  Tm7  1  0.650989  0.650643  0.044668  1
  Tm  Tm8  1  0.191467  0.810618  0.189755  1
  Tm  Tm9  1  0.058735  0.439403  0.060283  1
  Tm  Tm10  1  0.191467  0.810618  0.808161  1
  Tm  Tm11  1  0.058735  0.439403  0.441580  1
  Tm  Tm12  1  0.811481  0.191576  0.189489  1
  Tm  Tm13  1  0.650989  0.650643  0.653700  1
  Tm  Tm14  1  0.811481  0.191576  0.807455  1
  Tm  Tm15  1  0.190439  0.190993  0.809284  1
  In  In16  1  0.416795  0.417193  0.416814  1
  In  In17  1  0.416795  0.417193  0.749200  1
  In  In18  1  0.417577  0.748916  0.416754  1
  In  In19  1  0.750194  0.417013  0.416397  1
  Ir  Ir20  1  0.422459  0.859217  0.859162  1
  Ir  Ir21  1  0.859154  0.858649  0.859229  1
  Ir  Ir22  1  0.859495  0.422846  0.858829  1
  Ir  Ir23  1  0.859154  0.858649  0.422968  1
