# generated using pymatgen
data_NaHfSN
_symmetry_space_group_name_H-M   'P 1'
_cell_length_a   5.69897300
_cell_length_b   5.69921500
_cell_length_c   9.65328000
_cell_angle_alpha   90.00000000
_cell_angle_beta   90.00000000
_cell_angle_gamma   90.00000000
_symmetry_Int_Tables_number   1
_chemical_formula_structural   NaHfSN
_chemical_formula_sum   'Na4 Hf4 S4 N4'
_cell_volume   313.53537205
_cell_formula_units_Z   4
loop_
 _symmetry_equiv_pos_site_id
 _symmetry_equiv_pos_as_xyz
  1  'x, y, z'
loop_
 _atom_site_type_symbol
 _atom_site_label
 _atom_site_symmetry_multiplicity
 _atom_site_fract_x
 _atom_site_fract_y
 _atom_site_fract_z
 _atom_site_occupancy
  Na  Na0  1  0.488168  0.996727  0.368912  1
  Na  Na1  1  0.988168  0.503273  0.368912  1
  Na  Na2  1  0.488168  0.496727  0.631088  1
  Na  Na3  1  0.988168  0.003273  0.631088  1
  Hf  Hf4  1  0.988061  0.000129  0.078232  1
  Hf  Hf5  1  0.488061  0.499871  0.078232  1
  Hf  Hf6  1  0.988061  0.500129  0.921769  1
  Hf  Hf7  1  0.488061  0.999871  0.921769  1
  S  S8  1  0.988112  0.000690  0.327265  1
  S  S9  1  0.488113  0.499309  0.327265  1
  S  S10  1  0.988112  0.500691  0.672736  1
  S  S11  1  0.488113  0.999310  0.672736  1
  N  N12  1  0.238060  0.750001  0.000150  1
  N  N13  1  0.738059  0.749999  0.000150  1
  N  N14  1  0.238060  0.250001  0.999850  1
  N  N15  1  0.738059  0.249999  0.999850  1
