# generated using pymatgen
data_Tm3HfZr2(SnIr)6
_symmetry_space_group_name_H-M   'P 1'
_cell_length_a   7.47469500
_cell_length_b   7.45552984
_cell_length_c   7.55360900
_cell_angle_alpha   90.00000000
_cell_angle_beta   90.00000000
_cell_angle_gamma   120.08272158
_symmetry_Int_Tables_number   1
_chemical_formula_structural   Tm3HfZr2(SnIr)6
_chemical_formula_sum   'Tm3 Hf1 Zr2 Sn6 Ir6'
_cell_volume   364.24576229
_cell_formula_units_Z   1
loop_
 _symmetry_equiv_pos_site_id
 _symmetry_equiv_pos_as_xyz
  1  'x, y, z'
loop_
 _atom_site_type_symbol
 _atom_site_label
 _atom_site_symmetry_multiplicity
 _atom_site_fract_x
 _atom_site_fract_y
 _atom_site_fract_z
 _atom_site_occupancy
  Tm  Tm0  1  0.999974  0.405319  0.750000  1
  Tm  Tm1  1  0.594642  0.594647  0.750000  1
  Tm  Tm2  1  0.405565  0.000003  0.750000  1
  Hf  Hf3  1  0.392284  0.000915  0.250000  1
  Zr  Zr4  1  0.999213  0.391223  0.250000  1
  Zr  Zr5  1  0.608860  0.607812  0.250000  1
  Sn  Sn6  1  0.266635  0.267452  0.496039  1
  Sn  Sn7  1  0.000442  0.733189  0.496013  1
  Sn  Sn8  1  0.000442  0.733189  0.003987  1
  Sn  Sn9  1  0.733700  0.999403  0.495566  1
  Sn  Sn10  1  0.733700  0.999403  0.004434  1
  Sn  Sn11  1  0.266635  0.267452  0.003961  1
  Ir  Ir12  1  0.333625  0.669352  0.468231  1
  Ir  Ir13  1  0.664266  0.330664  0.470312  1
  Ir  Ir14  1  0.333625  0.669352  0.031769  1
  Ir  Ir15  1  0.000133  0.999983  0.750000  1
  Ir  Ir16  1  0.001988  0.999982  0.250000  1
  Ir  Ir17  1  0.664266  0.330664  0.029688  1
