# generated using pymatgen
data_Tb9Y10ScPb16
_symmetry_space_group_name_H-M   'P 1'
_cell_length_a   8.22131300
_cell_length_b   8.30828898
_cell_length_c   15.69658900
_cell_angle_alpha   90.00730310
_cell_angle_beta   90.00193743
_cell_angle_gamma   89.96109818
_symmetry_Int_Tables_number   1
_chemical_formula_structural   Tb9Y10ScPb16
_chemical_formula_sum   'Tb9 Y10 Sc1 Pb16'
_cell_volume   1072.15594991
_cell_formula_units_Z   1
loop_
 _symmetry_equiv_pos_site_id
 _symmetry_equiv_pos_as_xyz
  1  'x, y, z'
loop_
 _atom_site_type_symbol
 _atom_site_label
 _atom_site_symmetry_multiplicity
 _atom_site_fract_x
 _atom_site_fract_y
 _atom_site_fract_z
 _atom_site_occupancy
  Tb  Tb0  1  0.878330  0.657889  0.878862  1
  Tb  Tb1  1  0.533762  0.324337  0.899743  1
  Tb  Tb2  1  0.035314  0.177656  0.600242  1
  Tb  Tb3  1  0.465517  0.676468  0.400356  1
  Tb  Tb4  1  0.965345  0.823694  0.100118  1
  Tb  Tb5  1  0.465550  0.676343  0.099630  1
  Tb  Tb6  1  0.965300  0.823700  0.399938  1
  Tb  Tb7  1  0.533839  0.324399  0.600269  1
  Tb  Tb8  1  0.035330  0.177432  0.899665  1
  Y  Y9  1  0.375583  0.840659  0.878996  1
  Y  Y10  1  0.878091  0.657758  0.621184  1
  Y  Y11  1  0.623508  0.158655  0.379310  1
  Y  Y12  1  0.123303  0.341278  0.120298  1
  Y  Y13  1  0.623432  0.158677  0.120775  1
  Y  Y14  1  0.123346  0.341144  0.379652  1
  Y  Y15  1  0.375791  0.840653  0.620958  1
  Y  Y16  1  0.708390  0.996363  0.749943  1
  Y  Y17  1  0.791256  0.496113  0.250043  1
  Y  Y18  1  0.291306  0.003964  0.249975  1
  Sc  Sc19  1  0.209767  0.504041  0.749974  1
  Pb  Pb20  1  0.281457  0.033247  0.042607  1
  Pb  Pb21  1  0.781465  0.466485  0.457467  1
  Pb  Pb22  1  0.718724  0.966533  0.542934  1
  Pb  Pb23  1  0.218907  0.532411  0.955089  1
  Pb  Pb24  1  0.718434  0.966825  0.957022  1
  Pb  Pb25  1  0.218545  0.532508  0.544964  1
  Pb  Pb26  1  0.281506  0.033215  0.457361  1
  Pb  Pb27  1  0.781407  0.466288  0.042686  1
  Pb  Pb28  1  0.567499  0.623395  0.749992  1
  Pb  Pb29  1  0.073538  0.871475  0.750024  1
  Pb  Pb30  1  0.427595  0.374265  0.249997  1
  Pb  Pb31  1  0.927902  0.126164  0.249991  1
  Pb  Pb32  1  0.343825  0.157543  0.749957  1
  Pb  Pb33  1  0.849051  0.349014  0.749998  1
  Pb  Pb34  1  0.653859  0.847454  0.249983  1
  Pb  Pb35  1  0.154236  0.651959  0.250000  1
