# generated using pymatgen
data_Zr4P4PdRu3
_symmetry_space_group_name_H-M   'P 1'
_cell_length_a   3.85837800
_cell_length_b   6.54386571
_cell_length_c   7.43566032
_cell_angle_alpha   89.49099187
_cell_angle_beta   90.00000000
_cell_angle_gamma   90.00000000
_symmetry_Int_Tables_number   1
_chemical_formula_structural   Zr4P4PdRu3
_chemical_formula_sum   'Zr4 P4 Pd1 Ru3'
_cell_volume   187.73340405
_cell_formula_units_Z   1
loop_
 _symmetry_equiv_pos_site_id
 _symmetry_equiv_pos_as_xyz
  1  'x, y, z'
loop_
 _atom_site_type_symbol
 _atom_site_label
 _atom_site_symmetry_multiplicity
 _atom_site_fract_x
 _atom_site_fract_y
 _atom_site_fract_z
 _atom_site_occupancy
  Zr  Zr0  1  0.750000  0.528329  0.322957  1
  Zr  Zr1  1  0.250000  0.974610  0.818363  1
  Zr  Zr2  1  0.750000  0.022566  0.180535  1
  Zr  Zr3  1  0.250000  0.479778  0.676539  1
  P  P4  1  0.250000  0.739364  0.120598  1
  P  P5  1  0.250000  0.228378  0.389474  1
  P  P6  1  0.750000  0.269034  0.864810  1
  P  P7  1  0.750000  0.772584  0.621167  1
  Pd  Pd8  1  0.250000  0.347544  0.066041  1
  Ru  Ru9  1  0.250000  0.849965  0.439860  1
  Ru  Ru10  1  0.750000  0.144355  0.556607  1
  Ru  Ru11  1  0.750000  0.643493  0.943050  1
