# generated using pymatgen
data_Tb16In3Ir4Au
_symmetry_space_group_name_H-M   'P 1'
_cell_length_a   9.66444949
_cell_length_b   9.66444894
_cell_length_c   9.66444942
_cell_angle_alpha   59.97226430
_cell_angle_beta   59.97226660
_cell_angle_gamma   59.97226195
_symmetry_Int_Tables_number   1
_chemical_formula_structural   Tb16In3Ir4Au
_chemical_formula_sum   'Tb16 In3 Ir4 Au1'
_cell_volume   637.88604642
_cell_formula_units_Z   1
loop_
 _symmetry_equiv_pos_site_id
 _symmetry_equiv_pos_as_xyz
  1  'x, y, z'
loop_
 _atom_site_type_symbol
 _atom_site_label
 _atom_site_symmetry_multiplicity
 _atom_site_fract_x
 _atom_site_fract_y
 _atom_site_fract_z
 _atom_site_occupancy
  Tb  Tb0  1  0.100891  0.699855  0.100891  1
  Tb  Tb1  1  0.941614  0.941614  0.557773  1
  Tb  Tb2  1  0.941614  0.557773  0.941614  1
  Tb  Tb3  1  0.310994  0.683240  0.310994  1
  Tb  Tb4  1  0.938600  0.558450  0.558450  1
  Tb  Tb5  1  0.310994  0.310994  0.683240  1
  Tb  Tb6  1  0.098959  0.098959  0.098959  1
  Tb  Tb7  1  0.558450  0.558450  0.938600  1
  Tb  Tb8  1  0.100891  0.100891  0.699855  1
  Tb  Tb9  1  0.689376  0.309832  0.689376  1
  Tb  Tb10  1  0.689376  0.689376  0.309832  1
  Tb  Tb11  1  0.683240  0.310994  0.310994  1
  Tb  Tb12  1  0.309832  0.689376  0.689376  1
  Tb  Tb13  1  0.558450  0.938600  0.558450  1
  Tb  Tb14  1  0.699855  0.100891  0.100891  1
  Tb  Tb15  1  0.557773  0.941614  0.941614  1
  In  In16  1  0.005370  0.331977  0.331977  1
  In  In17  1  0.331977  0.005370  0.331977  1
  In  In18  1  0.331977  0.331977  0.005370  1
  Ir  Ir19  1  0.892350  0.892350  0.892350  1
  Ir  Ir20  1  0.891613  0.891613  0.325730  1
  Ir  Ir21  1  0.325730  0.891613  0.891613  1
  Ir  Ir22  1  0.891613  0.325730  0.891613  1
  Au  Au23  1  0.338458  0.338458  0.338458  1
