# generated using pymatgen
data_Pa2Ti3P7Rh9
_symmetry_space_group_name_H-M   'P 1'
_cell_length_a   3.89690600
_cell_length_b   9.63092033
_cell_length_c   9.63836799
_cell_angle_alpha   119.91017925
_cell_angle_beta   89.99664238
_cell_angle_gamma   90.00278309
_symmetry_Int_Tables_number   1
_chemical_formula_structural   Pa2Ti3P7Rh9
_chemical_formula_sum   'Pa2 Ti3 P7 Rh9'
_cell_volume   313.55535397
_cell_formula_units_Z   1
loop_
 _symmetry_equiv_pos_site_id
 _symmetry_equiv_pos_as_xyz
  1  'x, y, z'
loop_
 _atom_site_type_symbol
 _atom_site_label
 _atom_site_symmetry_multiplicity
 _atom_site_fract_x
 _atom_site_fract_y
 _atom_site_fract_z
 _atom_site_occupancy
  Pa  Pa0  1  0.262167  0.666439  0.333369  1
  Pa  Pa1  1  0.762061  0.333195  0.666695  1
  Ti  Ti2  1  0.761889  0.097371  0.876337  1
  Ti  Ti3  1  0.761888  0.123597  0.220993  1
  Ti  Ti4  1  0.761889  0.779017  0.902590  1
  P  P5  1  0.262013  0.000020  0.000018  1
  P  P6  1  0.761872  0.882653  0.595769  1
  P  P7  1  0.761870  0.404207  0.286784  1
  P  P8  1  0.761854  0.713184  0.117403  1
  P  P9  1  0.261852  0.112962  0.409719  1
  P  P10  1  0.261864  0.590349  0.703209  1
  P  P11  1  0.261858  0.296837  0.887172  1
  Rh  Rh12  1  0.261849  0.879980  0.159849  1
  Rh  Rh13  1  0.261880  0.840171  0.720088  1
  Rh  Rh14  1  0.261875  0.279822  0.119998  1
  Rh  Rh15  1  0.761927  0.610865  0.555712  1
  Rh  Rh16  1  0.761913  0.444296  0.055126  1
  Rh  Rh17  1  0.761888  0.944906  0.389166  1
  Rh  Rh18  1  0.261886  0.368170  0.442620  1
  Rh  Rh19  1  0.261863  0.557410  0.925506  1
  Rh  Rh20  1  0.261842  0.074548  0.631878  1
