# generated using pymatgen
data_Er4Al24Ni7Au2
_symmetry_space_group_name_H-M   'P 1'
_cell_length_a   7.39164151
_cell_length_b   7.41042004
_cell_length_c   12.86157308
_cell_angle_alpha   84.44667742
_cell_angle_beta   79.00116413
_cell_angle_gamma   59.87977508
_symmetry_Int_Tables_number   1
_chemical_formula_structural   Er4Al24Ni7Au2
_chemical_formula_sum   'Er4 Al24 Ni7 Au2'
_cell_volume   598.17602878
_cell_formula_units_Z   1
loop_
 _symmetry_equiv_pos_site_id
 _symmetry_equiv_pos_as_xyz
  1  'x, y, z'
loop_
 _atom_site_type_symbol
 _atom_site_label
 _atom_site_symmetry_multiplicity
 _atom_site_fract_x
 _atom_site_fract_y
 _atom_site_fract_z
 _atom_site_occupancy
  Er  Er0  1  0.391665  0.170279  0.808240  1
  Er  Er1  1  0.608335  0.829721  0.191760  1
  Er  Er2  1  0.735234  0.498365  0.809323  1
  Er  Er3  1  0.264766  0.501635  0.190677  1
  Al  Al4  1  0.678566  0.835038  0.948512  1
  Al  Al5  1  0.321434  0.164962  0.051488  1
  Al  Al6  1  0.145866  0.841266  0.558926  1
  Al  Al7  1  0.854134  0.158734  0.441074  1
  Al  Al8  1  0.492825  0.155799  0.556808  1
  Al  Al9  1  0.507175  0.844201  0.443192  1
  Al  Al10  1  0.230463  0.152882  0.328630  1
  Al  Al11  1  0.769537  0.847118  0.671370  1
  Al  Al12  1  0.447093  0.506666  0.672591  1
  Al  Al13  1  0.552907  0.493334  0.327409  1
  Al  Al14  1  0.109589  0.146062  0.670024  1
  Al  Al15  1  0.890411  0.853938  0.329976  1
  Al  Al16  1  0.355693  0.496444  0.948429  1
  Al  Al17  1  0.644307  0.503556  0.051571  1
  Al  Al18  1  0.013568  0.168642  0.959550  1
  Al  Al19  1  0.986432  0.831358  0.040450  1
  Al  Al20  1  0.202060  0.499735  0.434543  1
  Al  Al21  1  0.797940  0.500265  0.565457  1
  Al  Al22  1  0.725431  0.164237  0.182848  1
  Al  Al23  1  0.274569  0.835763  0.817152  1
  Al  Al24  1  0.058709  0.633704  0.823368  1
  Al  Al25  1  0.941291  0.366296  0.176632  1
  Al  Al26  1  0.846838  0.049391  0.816712  1
  Al  Al27  1  0.153162  0.950609  0.183288  1
  Ni  Ni28  1  0.658346  0.170775  0.999745  1
  Ni  Ni29  1  0.341654  0.829225  0.000255  1
  Ni  Ni30  1  0.539450  0.166950  0.361615  1
  Ni  Ni31  1  0.460550  0.833050  0.638385  1
  Ni  Ni32  1  0.779739  0.173419  0.637874  1
  Ni  Ni33  1  0.220261  0.826581  0.362126  1
  Ni  Ni34  1  0.000000  0.500000  0.000000  1
  Au  Au35  1  0.119920  0.491139  0.638129  1
  Au  Au36  1  0.880080  0.508861  0.361871  1
