# generated using pymatgen
data_Nd(Cd10Rh)2
_symmetry_space_group_name_H-M   'P 1'
_cell_length_a   11.17715957
_cell_length_b   11.17715920
_cell_length_c   11.17715900
_cell_angle_alpha   59.99999762
_cell_angle_beta   59.99999871
_cell_angle_gamma   59.99999805
_symmetry_Int_Tables_number   1
_chemical_formula_structural   Nd(Cd10Rh)2
_chemical_formula_sum   'Nd2 Cd40 Rh4'
_cell_volume   987.36857401
_cell_formula_units_Z   2
loop_
 _symmetry_equiv_pos_site_id
 _symmetry_equiv_pos_as_xyz
  1  'x, y, z'
loop_
 _atom_site_type_symbol
 _atom_site_label
 _atom_site_symmetry_multiplicity
 _atom_site_fract_x
 _atom_site_fract_y
 _atom_site_fract_z
 _atom_site_occupancy
  Nd  Nd0  1  0.500000  0.500000  0.500000  1
  Nd  Nd1  1  0.750000  0.750000  0.750000  1
  Cd  Cd2  1  0.568629  0.300728  0.300728  1
  Cd  Cd3  1  0.300728  0.568629  0.829916  1
  Cd  Cd4  1  0.300728  0.829916  0.568629  1
  Cd  Cd5  1  0.829916  0.300728  0.300728  1
  Cd  Cd6  1  0.300728  0.300728  0.568629  1
  Cd  Cd7  1  0.568629  0.829916  0.300728  1
  Cd  Cd8  1  0.829916  0.568629  0.300728  1
  Cd  Cd9  1  0.300728  0.300728  0.829916  1
  Cd  Cd10  1  0.300728  0.568629  0.300728  1
  Cd  Cd11  1  0.829916  0.300728  0.568629  1
  Cd  Cd12  1  0.568629  0.300728  0.829916  1
  Cd  Cd13  1  0.300728  0.829916  0.300728  1
  Cd  Cd14  1  0.681371  0.949272  0.949272  1
  Cd  Cd15  1  0.949272  0.681371  0.420084  1
  Cd  Cd16  1  0.949272  0.420084  0.681371  1
  Cd  Cd17  1  0.420084  0.949272  0.949272  1
  Cd  Cd18  1  0.949272  0.949272  0.681371  1
  Cd  Cd19  1  0.681371  0.420084  0.949272  1
  Cd  Cd20  1  0.420084  0.681371  0.949272  1
  Cd  Cd21  1  0.949272  0.949272  0.420084  1
  Cd  Cd22  1  0.949272  0.681371  0.949272  1
  Cd  Cd23  1  0.420084  0.949272  0.681371  1
  Cd  Cd24  1  0.681371  0.949272  0.420084  1
  Cd  Cd25  1  0.949272  0.420084  0.949272  1
  Cd  Cd26  1  0.863138  0.863138  0.136862  1
  Cd  Cd27  1  0.136862  0.136862  0.863138  1
  Cd  Cd28  1  0.863138  0.136862  0.863138  1
  Cd  Cd29  1  0.136862  0.863138  0.136862  1
  Cd  Cd30  1  0.136862  0.863138  0.863138  1
  Cd  Cd31  1  0.863138  0.136862  0.136862  1
  Cd  Cd32  1  0.386862  0.386862  0.113138  1
  Cd  Cd33  1  0.113138  0.113138  0.386862  1
  Cd  Cd34  1  0.386862  0.113138  0.386862  1
  Cd  Cd35  1  0.113138  0.386862  0.113138  1
  Cd  Cd36  1  0.113138  0.386862  0.386862  1
  Cd  Cd37  1  0.386862  0.113138  0.113138  1
  Cd  Cd38  1  0.125000  0.625000  0.625000  1
  Cd  Cd39  1  0.625000  0.125000  0.625000  1
  Cd  Cd40  1  0.625000  0.625000  0.125000  1
  Cd  Cd41  1  0.625000  0.625000  0.625000  1
  Rh  Rh42  1  0.625000  0.125000  0.125000  1
  Rh  Rh43  1  0.125000  0.625000  0.125000  1
  Rh  Rh44  1  0.125000  0.125000  0.625000  1
  Rh  Rh45  1  0.125000  0.125000  0.125000  1
