# generated using pymatgen
data_Dy2Y2P7Ir8
_symmetry_space_group_name_H-M   'P 1'
_cell_length_a   3.94922900
_cell_length_b   12.68593397
_cell_length_c   13.12388331
_cell_angle_alpha   80.82987542
_cell_angle_beta   90.00000000
_cell_angle_gamma   90.00000000
_symmetry_Int_Tables_number   1
_chemical_formula_structural   Dy2Y2P7Ir8
_chemical_formula_sum   'Dy4 Y4 P14 Ir16'
_cell_volume   649.09886241
_cell_formula_units_Z   2
loop_
 _symmetry_equiv_pos_site_id
 _symmetry_equiv_pos_as_xyz
  1  'x, y, z'
loop_
 _atom_site_type_symbol
 _atom_site_label
 _atom_site_symmetry_multiplicity
 _atom_site_fract_x
 _atom_site_fract_y
 _atom_site_fract_z
 _atom_site_occupancy
  Dy  Dy0  1  0.250000  0.520525  0.293953  1
  Dy  Dy1  1  0.750000  0.479475  0.706047  1
  Dy  Dy2  1  0.250000  0.209126  0.437995  1
  Dy  Dy3  1  0.750000  0.790874  0.562005  1
  Y  Y4  1  0.250000  0.102805  0.789587  1
  Y  Y5  1  0.750000  0.897195  0.210413  1
  Y  Y6  1  0.250000  0.279091  0.101913  1
  Y  Y7  1  0.750000  0.720909  0.898087  1
  P  P8  1  0.250000  0.051575  0.100447  1
  P  P9  1  0.750000  0.948425  0.899553  1
  P  P10  1  0.250000  0.312404  0.688874  1
  P  P11  1  0.750000  0.687596  0.311126  1
  P  P12  1  0.250000  0.607701  0.567026  1
  P  P13  1  0.750000  0.392299  0.432974  1
  P  P14  1  0.250000  0.843379  0.717573  1
  P  P15  1  0.750000  0.156621  0.282427  1
  P  P16  1  0.750000  0.258062  0.919917  1
  P  P17  1  0.250000  0.741938  0.080083  1
  P  P18  1  0.750000  0.093349  0.587852  1
  P  P19  1  0.250000  0.906651  0.412148  1
  P  P20  1  0.750000  0.472510  0.129392  1
  P  P21  1  0.250000  0.527490  0.870608  1
  Ir  Ir22  1  0.250000  0.990886  0.576119  1
  Ir  Ir23  1  0.750000  0.009114  0.423881  1
  Ir  Ir24  1  0.250000  0.662598  0.731006  1
  Ir  Ir25  1  0.750000  0.337402  0.268994  1
  Ir  Ir26  1  0.250000  0.555000  0.044822  1
  Ir  Ir27  1  0.750000  0.445000  0.955178  1
  Ir  Ir28  1  0.250000  0.060063  0.272846  1
  Ir  Ir29  1  0.750000  0.939937  0.727154  1
  Ir  Ir30  1  0.250000  0.421792  0.523341  1
  Ir  Ir31  1  0.750000  0.578208  0.476659  1
  Ir  Ir32  1  0.250000  0.914974  0.997559  1
  Ir  Ir33  1  0.750000  0.085026  0.002441  1
  Ir  Ir34  1  0.250000  0.729093  0.395303  1
  Ir  Ir35  1  0.750000  0.270907  0.604697  1
  Ir  Ir36  1  0.250000  0.341761  0.857855  1
  Ir  Ir37  1  0.750000  0.658239  0.142145  1
