# generated using pymatgen
data_Ba6Na(TcO6)2
_symmetry_space_group_name_H-M   'P 1'
_cell_length_a   9.20342031
_cell_length_b   9.20342058
_cell_length_c   7.36883700
_cell_angle_alpha   68.04712751
_cell_angle_beta   68.04713354
_cell_angle_gamma   36.84668008
_symmetry_Int_Tables_number   1
_chemical_formula_structural   Ba6Na(TcO6)2
_chemical_formula_sum   'Ba6 Na1 Tc2 O12'
_cell_volume   344.01209173
_cell_formula_units_Z   1
loop_
 _symmetry_equiv_pos_site_id
 _symmetry_equiv_pos_as_xyz
  1  'x, y, z'
loop_
 _atom_site_type_symbol
 _atom_site_label
 _atom_site_symmetry_multiplicity
 _atom_site_fract_x
 _atom_site_fract_y
 _atom_site_fract_z
 _atom_site_occupancy
  Ba  Ba0  1  0.206219  0.206219  0.707295  1
  Ba  Ba1  1  0.888170  0.888170  0.713934  1
  Ba  Ba2  1  0.548151  0.548151  0.714623  1
  Ba  Ba3  1  0.793781  0.793781  0.292705  1
  Ba  Ba4  1  0.451849  0.451849  0.285377  1
  Ba  Ba5  1  0.111830  0.111830  0.286066  1
  Na  Na6  1  0.000000  0.000000  0.000000  1
  Tc  Tc7  1  0.669686  0.669686  0.000518  1
  Tc  Tc8  1  0.330314  0.330314  0.999482  1
  O  O9  1  0.280211  0.280211  0.297961  1
  O  O10  1  0.938868  0.938868  0.347393  1
  O  O11  1  0.621491  0.621491  0.296045  1
  O  O12  1  0.719789  0.719789  0.702039  1
  O  O13  1  0.378509  0.378509  0.703955  1
  O  O14  1  0.061132  0.061132  0.652607  1
  O  O15  1  0.000000  0.500000  0.000000  1
  O  O16  1  0.634093  0.179773  0.002225  1
  O  O17  1  0.365907  0.820227  0.997775  1
  O  O18  1  0.500000  0.000000  0.000000  1
  O  O19  1  0.179773  0.634093  0.002225  1
  O  O20  1  0.820227  0.365907  0.997775  1
