# generated using pymatgen
data_Nd5DyAl24Os5Pt3
_symmetry_space_group_name_H-M   'P 1'
_cell_length_a   8.88366207
_cell_length_b   8.90121254
_cell_length_c   9.65600810
_cell_angle_alpha   90.06295276
_cell_angle_beta   89.85663771
_cell_angle_gamma   119.52731686
_symmetry_Int_Tables_number   1
_chemical_formula_structural   Nd5DyAl24Os5Pt3
_chemical_formula_sum   'Nd5 Dy1 Al24 Os5 Pt3'
_cell_volume   664.38071973
_cell_formula_units_Z   1
loop_
 _symmetry_equiv_pos_site_id
 _symmetry_equiv_pos_as_xyz
  1  'x, y, z'
loop_
 _atom_site_type_symbol
 _atom_site_label
 _atom_site_symmetry_multiplicity
 _atom_site_fract_x
 _atom_site_fract_y
 _atom_site_fract_z
 _atom_site_occupancy
  Nd  Nd0  1  0.187690  0.379883  0.249999  1
  Nd  Nd1  1  0.812451  0.619652  0.750206  1
  Nd  Nd2  1  0.617680  0.813715  0.251746  1
  Nd  Nd3  1  0.383141  0.186326  0.748321  1
  Nd  Nd4  1  0.192364  0.810555  0.250364  1
  Dy  Dy5  1  0.804665  0.190921  0.748833  1
  Al  Al6  1  0.335735  0.671364  0.024831  1
  Al  Al7  1  0.665595  0.328285  0.972202  1
  Al  Al8  1  0.670158  0.330668  0.526229  1
  Al  Al9  1  0.330491  0.668541  0.476424  1
  Al  Al10  1  0.156822  0.325144  0.574354  1
  Al  Al11  1  0.841204  0.673476  0.427372  1
  Al  Al12  1  0.673983  0.842180  0.575261  1
  Al  Al13  1  0.836226  0.675192  0.075849  1
  Al  Al14  1  0.327212  0.159504  0.426299  1
  Al  Al15  1  0.161984  0.323808  0.922647  1
  Al  Al16  1  0.164398  0.834661  0.575536  1
  Al  Al17  1  0.326672  0.159156  0.074191  1
  Al  Al18  1  0.835597  0.165106  0.426945  1
  Al  Al19  1  0.674705  0.842745  0.924183  1
  Al  Al20  1  0.831585  0.159601  0.074816  1
  Al  Al21  1  0.168689  0.840630  0.922643  1
  Al  Al22  1  0.562184  0.126543  0.249739  1
  Al  Al23  1  0.440323  0.875062  0.750219  1
  Al  Al24  1  0.872317  0.436254  0.253322  1
  Al  Al25  1  0.125995  0.561166  0.747219  1
  Al  Al26  1  0.563535  0.435704  0.249678  1
  Al  Al27  1  0.436444  0.564360  0.750401  1
  Al  Al28  1  0.998270  0.003350  0.250161  1
  Al  Al29  1  0.999902  0.998716  0.749788  1
  Os  Os30  1  0.501390  0.000761  0.998910  1
  Os  Os31  1  0.501148  0.000521  0.501012  1
  Os  Os32  1  0.999378  0.498733  0.501048  1
  Os  Os33  1  0.000009  0.000019  0.999690  1
  Os  Os34  1  0.999999  0.999860  0.500254  1
  Pt  Pt35  1  0.999525  0.498710  0.999192  1
  Pt  Pt36  1  0.500255  0.499552  0.999752  1
  Pt  Pt37  1  0.500280  0.499577  0.500365  1
