# generated using pymatgen
data_Pr8DyY11Si16
_symmetry_space_group_name_H-M   'P 1'
_cell_length_a   7.54322700
_cell_length_b   7.83336300
_cell_length_c   14.90105000
_cell_angle_alpha   89.99802822
_cell_angle_beta   89.99910581
_cell_angle_gamma   89.99865106
_symmetry_Int_Tables_number   1
_chemical_formula_structural   Pr8DyY11Si16
_chemical_formula_sum   'Pr8 Dy1 Y11 Si16'
_cell_volume   880.48568855
_cell_formula_units_Z   1
loop_
 _symmetry_equiv_pos_site_id
 _symmetry_equiv_pos_as_xyz
  1  'x, y, z'
loop_
 _atom_site_type_symbol
 _atom_site_label
 _atom_site_symmetry_multiplicity
 _atom_site_fract_x
 _atom_site_fract_y
 _atom_site_fract_z
 _atom_site_occupancy
  Pr  Pr0  1  0.023060  0.179220  0.402234  1
  Pr  Pr1  1  0.523029  0.320794  0.402245  1
  Pr  Pr2  1  0.476943  0.679202  0.902228  1
  Pr  Pr3  1  0.476982  0.679212  0.597776  1
  Pr  Pr4  1  0.976967  0.820847  0.597770  1
  Pr  Pr5  1  0.976942  0.820795  0.902228  1
  Pr  Pr6  1  0.523034  0.320785  0.097785  1
  Pr  Pr7  1  0.023061  0.179203  0.097775  1
  Dy  Dy8  1  0.321640  0.179442  0.622932  1
  Y  Y9  1  0.678369  0.820637  0.377114  1
  Y  Y10  1  0.652538  0.988321  0.749951  1
  Y  Y11  1  0.178392  0.679375  0.377135  1
  Y  Y12  1  0.821627  0.320630  0.877121  1
  Y  Y13  1  0.821605  0.320627  0.622854  1
  Y  Y14  1  0.847390  0.488246  0.250010  1
  Y  Y15  1  0.347379  0.011754  0.250002  1
  Y  Y16  1  0.321633  0.179356  0.877135  1
  Y  Y17  1  0.178369  0.679358  0.122883  1
  Y  Y18  1  0.678376  0.820631  0.122882  1
  Y  Y19  1  0.152665  0.511675  0.749959  1
  Si  Si20  1  0.270160  0.880749  0.749939  1
  Si  Si21  1  0.471961  0.610948  0.249992  1
  Si  Si22  1  0.028134  0.110985  0.749959  1
  Si  Si23  1  0.527967  0.388941  0.749917  1
  Si  Si24  1  0.144854  0.469410  0.539597  1
  Si  Si25  1  0.971948  0.889038  0.249998  1
  Si  Si26  1  0.729867  0.119352  0.250011  1
  Si  Si27  1  0.855228  0.530383  0.039559  1
  Si  Si28  1  0.355226  0.969608  0.039555  1
  Si  Si29  1  0.144788  0.469618  0.960448  1
  Si  Si30  1  0.644684  0.030422  0.539605  1
  Si  Si31  1  0.355190  0.969667  0.460514  1
  Si  Si32  1  0.855217  0.530393  0.460443  1
  Si  Si33  1  0.770129  0.619334  0.750000  1
  Si  Si34  1  0.229876  0.380658  0.249996  1
  Si  Si35  1  0.644768  0.030383  0.960447  1
