# generated using pymatgen
data_DyNb(SeO3)4
_symmetry_space_group_name_H-M   'P 1'
_cell_length_a   8.58471200
_cell_length_b   8.85033021
_cell_length_c   8.67395100
_cell_angle_alpha   90.57855908
_cell_angle_beta   90.00000000
_cell_angle_gamma   90.00000000
_symmetry_Int_Tables_number   1
_chemical_formula_structural   DyNb(SeO3)4
_chemical_formula_sum   'Dy2 Nb2 Se8 O24'
_cell_volume   658.99182538
_cell_formula_units_Z   2
loop_
 _symmetry_equiv_pos_site_id
 _symmetry_equiv_pos_as_xyz
  1  'x, y, z'
loop_
 _atom_site_type_symbol
 _atom_site_label
 _atom_site_symmetry_multiplicity
 _atom_site_fract_x
 _atom_site_fract_y
 _atom_site_fract_z
 _atom_site_occupancy
  Dy  Dy0  1  0.000000  0.500000  0.000000  1
  Dy  Dy1  1  0.500000  0.500000  0.500000  1
  Nb  Nb2  1  0.000000  0.000000  0.500000  1
  Nb  Nb3  1  0.500000  0.000000  0.000000  1
  Se  Se4  1  0.332998  0.685674  0.174557  1
  Se  Se5  1  0.832998  0.314326  0.325443  1
  Se  Se6  1  0.693849  0.830217  0.687858  1
  Se  Se7  1  0.193849  0.169783  0.812142  1
  Se  Se8  1  0.667002  0.314326  0.825443  1
  Se  Se9  1  0.167002  0.685674  0.674557  1
  Se  Se10  1  0.306151  0.169783  0.312142  1
  Se  Se11  1  0.806151  0.830217  0.187858  1
  O  O12  1  0.244996  0.567014  0.048283  1
  O  O13  1  0.744996  0.432986  0.451717  1
  O  O14  1  0.775511  0.966421  0.565580  1
  O  O15  1  0.275511  0.033579  0.934420  1
  O  O16  1  0.559345  0.950471  0.779808  1
  O  O17  1  0.470037  0.575656  0.256539  1
  O  O18  1  0.970037  0.424344  0.243461  1
  O  O19  1  0.059345  0.049529  0.720192  1
  O  O20  1  0.955134  0.214296  0.458604  1
  O  O21  1  0.577041  0.737429  0.565119  1
  O  O22  1  0.455134  0.785704  0.041396  1
  O  O23  1  0.077041  0.262571  0.934881  1
  O  O24  1  0.755004  0.432986  0.951717  1
  O  O25  1  0.255004  0.567014  0.548283  1
  O  O26  1  0.224489  0.033579  0.434420  1
  O  O27  1  0.724489  0.966421  0.065580  1
  O  O28  1  0.440655  0.049529  0.220192  1
  O  O29  1  0.529963  0.424344  0.743461  1
  O  O30  1  0.029963  0.575656  0.756539  1
  O  O31  1  0.940655  0.950471  0.279808  1
  O  O32  1  0.044866  0.785704  0.541396  1
  O  O33  1  0.422959  0.262571  0.434881  1
  O  O34  1  0.544866  0.214296  0.958604  1
  O  O35  1  0.922959  0.737429  0.065119  1
