# generated using pymatgen
data_Li2Zr6Ga15Rh7
_symmetry_space_group_name_H-M   'P 1'
_cell_length_a   8.79716720
_cell_length_b   8.79716757
_cell_length_c   8.79716700
_cell_angle_alpha   120.07274442
_cell_angle_beta   119.73332844
_cell_angle_gamma   90.16828112
_symmetry_Int_Tables_number   1
_chemical_formula_structural   Li2Zr6Ga15Rh7
_chemical_formula_sum   'Li2 Zr6 Ga15 Rh7'
_cell_volume   482.10629626
_cell_formula_units_Z   1
loop_
 _symmetry_equiv_pos_site_id
 _symmetry_equiv_pos_as_xyz
  1  'x, y, z'
loop_
 _atom_site_type_symbol
 _atom_site_label
 _atom_site_symmetry_multiplicity
 _atom_site_fract_x
 _atom_site_fract_y
 _atom_site_fract_z
 _atom_site_occupancy
  Li  Li0  1  0.376154  0.123109  0.746955  1
  Li  Li1  1  0.376154  0.629201  0.253045  1
  Zr  Zr2  1  0.786243  0.283672  0.069054  1
  Zr  Zr3  1  0.214618  0.283672  0.497428  1
  Zr  Zr4  1  0.211286  0.711286  0.500000  1
  Zr  Zr5  1  0.214618  0.717190  0.930946  1
  Zr  Zr6  1  0.786243  0.717190  0.502572  1
  Zr  Zr7  1  0.779560  0.279560  0.500000  1
  Ga  Ga8  1  0.995024  0.495024  0.500000  1
  Ga  Ga9  1  0.161690  0.352461  0.190771  1
  Ga  Ga10  1  0.161690  0.970919  0.809229  1
  Ga  Ga11  1  0.165158  0.346244  0.818912  1
  Ga  Ga12  1  0.527331  0.346244  0.181088  1
  Ga  Ga13  1  0.845577  0.656821  0.811245  1
  Ga  Ga14  1  0.845577  0.034331  0.188755  1
  Ga  Ga15  1  0.847987  0.654757  0.193229  1
  Ga  Ga16  1  0.461529  0.654757  0.806771  1
  Ga  Ga17  1  0.372526  0.124970  0.247555  1
  Ga  Ga18  1  0.877416  0.124970  0.752445  1
  Ga  Ga19  1  0.617248  0.865476  0.248229  1
  Ga  Ga20  1  0.617248  0.369020  0.751771  1
  Ga  Ga21  1  0.608281  0.876431  0.731850  1
  Ga  Ga22  1  0.144580  0.876431  0.268150  1
  Rh  Rh23  1  0.990212  0.999825  0.495869  1
  Rh  Rh24  1  0.503955  0.999825  0.009613  1
  Rh  Rh25  1  0.503821  0.503821  0.000000  1
  Rh  Rh26  1  0.503955  0.494343  0.504131  1
  Rh  Rh27  1  0.990212  0.494343  0.990387  1
  Rh  Rh28  1  0.001212  0.001212  0.000000  1
  Rh  Rh29  1  0.512891  0.012891  0.500000  1
