# generated using pymatgen
data_Ti2Cd2C
_symmetry_space_group_name_H-M   'P 1'
_cell_length_a   3.12924600
_cell_length_b   3.12924727
_cell_length_c   9.69425200
_cell_angle_alpha   90.00000000
_cell_angle_beta   90.00000000
_cell_angle_gamma   119.99998655
_symmetry_Int_Tables_number   1
_chemical_formula_structural   Ti2Cd2C
_chemical_formula_sum   'Ti2 Cd2 C1'
_cell_volume   82.20998777
_cell_formula_units_Z   1
loop_
 _symmetry_equiv_pos_site_id
 _symmetry_equiv_pos_as_xyz
  1  'x, y, z'
loop_
 _atom_site_type_symbol
 _atom_site_label
 _atom_site_symmetry_multiplicity
 _atom_site_fract_x
 _atom_site_fract_y
 _atom_site_fract_z
 _atom_site_occupancy
  Ti  Ti0  1  0.333333  0.666666  0.385146  1
  Ti  Ti1  1  0.666665  0.333333  0.614855  1
  Cd  Cd2  1  0.666665  0.333333  0.133233  1
  Cd  Cd3  1  0.333333  0.666666  0.866767  1
  C  C4  1  0.000000  0.000000  0.500000  1
