# generated using pymatgen
data_SmAl4Ga2Pt
_symmetry_space_group_name_H-M   'P 1'
_cell_length_a   4.28022900
_cell_length_b   4.28022900
_cell_length_c   8.26055900
_cell_angle_alpha   90.00000000
_cell_angle_beta   90.00000000
_cell_angle_gamma   90.00000000
_symmetry_Int_Tables_number   1
_chemical_formula_structural   SmAl4Ga2Pt
_chemical_formula_sum   'Sm1 Al4 Ga2 Pt1'
_cell_volume   151.33641710
_cell_formula_units_Z   1
loop_
 _symmetry_equiv_pos_site_id
 _symmetry_equiv_pos_as_xyz
  1  'x, y, z'
loop_
 _atom_site_type_symbol
 _atom_site_label
 _atom_site_symmetry_multiplicity
 _atom_site_fract_x
 _atom_site_fract_y
 _atom_site_fract_z
 _atom_site_occupancy
  Sm  Sm0  1  0.000000  0.000000  0.000000  1
  Al  Al1  1  0.499999  0.000000  0.330197  1
  Al  Al2  1  0.000000  0.499999  0.330197  1
  Al  Al3  1  0.499999  0.000000  0.669802  1
  Al  Al4  1  0.000000  0.499999  0.669802  1
  Ga  Ga5  1  0.499999  0.499999  0.146973  1
  Ga  Ga6  1  0.499999  0.499999  0.853026  1
  Pt  Pt7  1  0.000000  0.000000  0.500000  1
