# generated using pymatgen
data_Pr3Ni6Sb5
_symmetry_space_group_name_H-M   'P 1'
_cell_length_a   4.31342800
_cell_length_b   10.02854600
_cell_length_c   12.92357700
_cell_angle_alpha   90.00000000
_cell_angle_beta   90.00000000
_cell_angle_gamma   90.00000000
_symmetry_Int_Tables_number   1
_chemical_formula_structural   Pr3Ni6Sb5
_chemical_formula_sum   'Pr6 Ni12 Sb10'
_cell_volume   559.04048337
_cell_formula_units_Z   2
loop_
 _symmetry_equiv_pos_site_id
 _symmetry_equiv_pos_as_xyz
  1  'x, y, z'
loop_
 _atom_site_type_symbol
 _atom_site_label
 _atom_site_symmetry_multiplicity
 _atom_site_fract_x
 _atom_site_fract_y
 _atom_site_fract_z
 _atom_site_occupancy
  Pr  Pr0  1  0.000000  0.243367  0.000000  1
  Pr  Pr1  1  0.500000  0.756633  0.500000  1
  Pr  Pr2  1  0.000000  0.250822  0.328497  1
  Pr  Pr3  1  0.500000  0.749178  0.171503  1
  Pr  Pr4  1  0.000000  0.250822  0.671503  1
  Pr  Pr5  1  0.500000  0.749178  0.828497  1
  Ni  Ni6  1  0.000000  0.997084  0.163136  1
  Ni  Ni7  1  0.500000  0.002916  0.336864  1
  Ni  Ni8  1  0.000000  0.997084  0.836864  1
  Ni  Ni9  1  0.500000  0.002916  0.663136  1
  Ni  Ni10  1  0.500000  0.991257  0.000000  1
  Ni  Ni11  1  0.000000  0.008743  0.500000  1
  Ni  Ni12  1  0.000000  0.613698  0.324578  1
  Ni  Ni13  1  0.500000  0.386302  0.175422  1
  Ni  Ni14  1  0.000000  0.613698  0.675422  1
  Ni  Ni15  1  0.500000  0.386302  0.824578  1
  Ni  Ni16  1  0.500000  0.495793  0.000000  1
  Ni  Ni17  1  0.000000  0.504207  0.500000  1
  Sb  Sb18  1  0.000000  0.513935  0.133949  1
  Sb  Sb19  1  0.500000  0.486065  0.366051  1
  Sb  Sb20  1  0.000000  0.513935  0.866051  1
  Sb  Sb21  1  0.500000  0.486065  0.633949  1
  Sb  Sb22  1  0.000000  0.868808  0.333979  1
  Sb  Sb23  1  0.500000  0.131192  0.166021  1
  Sb  Sb24  1  0.000000  0.868808  0.666021  1
  Sb  Sb25  1  0.500000  0.131192  0.833979  1
  Sb  Sb26  1  0.000000  0.854353  0.000000  1
  Sb  Sb27  1  0.500000  0.145647  0.500000  1
