# generated using pymatgen
data_Li4MnGePd6
_symmetry_space_group_name_H-M   'P 1'
_cell_length_a   4.30713100
_cell_length_b   4.30713050
_cell_length_c   10.43301600
_cell_angle_alpha   90.00000000
_cell_angle_beta   90.00000000
_cell_angle_gamma   120.00001150
_symmetry_Int_Tables_number   1
_chemical_formula_structural   Li4MnGePd6
_chemical_formula_sum   'Li4 Mn1 Ge1 Pd6'
_cell_volume   167.61642221
_cell_formula_units_Z   1
loop_
 _symmetry_equiv_pos_site_id
 _symmetry_equiv_pos_as_xyz
  1  'x, y, z'
loop_
 _atom_site_type_symbol
 _atom_site_label
 _atom_site_symmetry_multiplicity
 _atom_site_fract_x
 _atom_site_fract_y
 _atom_site_fract_z
 _atom_site_occupancy
  Li  Li0  1  0.000000  0.000000  0.495800  1
  Li  Li1  1  0.333333  0.666667  0.166101  1
  Li  Li2  1  0.666667  0.333333  0.837793  1
  Li  Li3  1  0.000000  0.000000  0.999250  1
  Mn  Mn4  1  0.666667  0.333333  0.329864  1
  Ge  Ge5  1  0.333333  0.666667  0.671301  1
  Pd  Pd6  1  0.333333  0.666667  0.424616  1
  Pd  Pd7  1  0.666667  0.333333  0.080334  1
  Pd  Pd8  1  0.000000  0.000000  0.744979  1
  Pd  Pd9  1  0.000000  0.000000  0.247078  1
  Pd  Pd10  1  0.333333  0.666667  0.913230  1
  Pd  Pd11  1  0.666667  0.333333  0.589654  1
