# generated using pymatgen
data_NaTb6FeBr12
_symmetry_space_group_name_H-M   'P 1'
_cell_length_a   9.18489951
_cell_length_b   9.18489660
_cell_length_c   9.18489814
_cell_angle_alpha   106.66334758
_cell_angle_beta   106.66333334
_cell_angle_gamma   106.66334136
_symmetry_Int_Tables_number   1
_chemical_formula_structural   NaTb6FeBr12
_chemical_formula_sum   'Na1 Tb6 Fe1 Br12'
_cell_volume   651.14594142
_cell_formula_units_Z   1
loop_
 _symmetry_equiv_pos_site_id
 _symmetry_equiv_pos_as_xyz
  1  'x, y, z'
loop_
 _atom_site_type_symbol
 _atom_site_label
 _atom_site_symmetry_multiplicity
 _atom_site_fract_x
 _atom_site_fract_y
 _atom_site_fract_z
 _atom_site_occupancy
  Na  Na0  1  0.500000  0.500000  0.500000  1
  Tb  Tb1  1  0.896223  0.970998  0.689900  1
  Tb  Tb2  1  0.970998  0.689900  0.896223  1
  Tb  Tb3  1  0.689900  0.896223  0.970998  1
  Tb  Tb4  1  0.103777  0.029002  0.310100  1
  Tb  Tb5  1  0.029002  0.310100  0.103777  1
  Tb  Tb6  1  0.310100  0.103777  0.029002  1
  Fe  Fe7  1  0.000000  0.000000  0.000000  1
  Br  Br8  1  0.552187  0.856099  0.631184  1
  Br  Br9  1  0.856099  0.631184  0.552187  1
  Br  Br10  1  0.631184  0.552187  0.856099  1
  Br  Br11  1  0.447813  0.143901  0.368816  1
  Br  Br12  1  0.143901  0.368816  0.447813  1
  Br  Br13  1  0.368816  0.447813  0.143901  1
  Br  Br14  1  0.683539  0.221401  0.072975  1
  Br  Br15  1  0.221401  0.072975  0.683539  1
  Br  Br16  1  0.072975  0.683539  0.221401  1
  Br  Br17  1  0.316461  0.778599  0.927025  1
  Br  Br18  1  0.778599  0.927025  0.316461  1
  Br  Br19  1  0.927025  0.316461  0.778599  1
