# generated using pymatgen
data_LiPr3Hg3Rh2
_symmetry_space_group_name_H-M   'P 1'
_cell_length_a   7.83304800
_cell_length_b   7.83304838
_cell_length_c   3.90674200
_cell_angle_alpha   90.00000000
_cell_angle_beta   90.00000000
_cell_angle_gamma   119.99999838
_symmetry_Int_Tables_number   1
_chemical_formula_structural   LiPr3Hg3Rh2
_chemical_formula_sum   'Li1 Pr3 Hg3 Rh2'
_cell_volume   207.59025734
_cell_formula_units_Z   1
loop_
 _symmetry_equiv_pos_site_id
 _symmetry_equiv_pos_as_xyz
  1  'x, y, z'
loop_
 _atom_site_type_symbol
 _atom_site_label
 _atom_site_symmetry_multiplicity
 _atom_site_fract_x
 _atom_site_fract_y
 _atom_site_fract_z
 _atom_site_occupancy
  Li  Li0  1  0.000000  0.000000  0.500000  1
  Pr  Pr1  1  0.420187  0.420187  0.500000  1
  Pr  Pr2  1  0.579813  0.000000  0.500000  1
  Pr  Pr3  1  0.000000  0.579813  0.500000  1
  Hg  Hg4  1  0.751348  0.751348  0.000000  1
  Hg  Hg5  1  0.248652  0.000000  0.000000  1
  Hg  Hg6  1  0.000000  0.248652  0.000000  1
  Rh  Rh7  1  0.666667  0.333333  0.000000  1
  Rh  Rh8  1  0.333333  0.666667  0.000000  1
