# generated using pymatgen
data_Cs2K10Al3FeSe12
_symmetry_space_group_name_H-M   'P 1'
_cell_length_a   13.84032220
_cell_length_b   8.24012403
_cell_length_c   10.48744307
_cell_angle_alpha   53.05301816
_cell_angle_beta   89.08599795
_cell_angle_gamma   89.70248092
_symmetry_Int_Tables_number   1
_chemical_formula_structural   Cs2K10Al3FeSe12
_chemical_formula_sum   'Cs2 K10 Al3 Fe1 Se12'
_cell_volume   955.73807976
_cell_formula_units_Z   1
loop_
 _symmetry_equiv_pos_site_id
 _symmetry_equiv_pos_as_xyz
  1  'x, y, z'
loop_
 _atom_site_type_symbol
 _atom_site_label
 _atom_site_symmetry_multiplicity
 _atom_site_fract_x
 _atom_site_fract_y
 _atom_site_fract_z
 _atom_site_occupancy
  Cs  Cs0  1  0.313203  0.182277  0.054437  1
  Cs  Cs1  1  0.686356  0.817239  0.945711  1
  K  K2  1  0.818592  0.832165  0.442276  1
  K  K3  1  0.899837  0.316570  0.403327  1
  K  K4  1  0.618779  0.371495  0.471681  1
  K  K5  1  0.111580  0.634795  0.021837  1
  K  K6  1  0.381267  0.628074  0.528385  1
  K  K7  1  0.888508  0.365576  0.978659  1
  K  K8  1  0.614969  0.297000  0.910314  1
  K  K9  1  0.100127  0.684052  0.596125  1
  K  K10  1  0.385146  0.702677  0.089877  1
  K  K11  1  0.181519  0.167984  0.557528  1
  Al  Al12  1  0.566868  0.035586  0.351877  1
  Al  Al13  1  0.433169  0.964251  0.648167  1
  Al  Al14  1  0.936897  0.054324  0.845043  1
  Fe  Fe15  1  0.063489  0.945259  0.155869  1
  Se  Se16  1  0.419814  0.203443  0.356081  1
  Se  Se17  1  0.905786  0.823245  0.136916  1
  Se  Se18  1  0.580168  0.796515  0.643811  1
  Se  Se19  1  0.093105  0.177982  0.861163  1
  Se  Se20  1  0.700588  0.269001  0.227776  1
  Se  Se21  1  0.182336  0.681866  0.295278  1
  Se  Se22  1  0.299443  0.730713  0.772364  1
  Se  Se23  1  0.817977  0.318954  0.705428  1
  Se  Se24  1  0.544233  0.858249  0.240695  1
  Se  Se25  1  0.050581  0.132600  0.260737  1
  Se  Se26  1  0.455747  0.141543  0.759412  1
  Se  Se27  1  0.949917  0.866564  0.739225  1
