# generated using pymatgen
data_Zr2P2RuPt
_symmetry_space_group_name_H-M   'P 1'
_cell_length_a   3.84908700
_cell_length_b   6.57738000
_cell_length_c   7.48741600
_cell_angle_alpha   90.00000000
_cell_angle_beta   90.00000000
_cell_angle_gamma   90.00000000
_symmetry_Int_Tables_number   1
_chemical_formula_structural   Zr2P2RuPt
_chemical_formula_sum   'Zr4 P4 Ru2 Pt2'
_cell_volume   189.55822092
_cell_formula_units_Z   2
loop_
 _symmetry_equiv_pos_site_id
 _symmetry_equiv_pos_as_xyz
  1  'x, y, z'
loop_
 _atom_site_type_symbol
 _atom_site_label
 _atom_site_symmetry_multiplicity
 _atom_site_fract_x
 _atom_site_fract_y
 _atom_site_fract_z
 _atom_site_occupancy
  Zr  Zr0  1  0.750000  0.528722  0.325028  1
  Zr  Zr1  1  0.250000  0.976658  0.819328  1
  Zr  Zr2  1  0.750000  0.028722  0.174972  1
  Zr  Zr3  1  0.250000  0.476658  0.680672  1
  P  P4  1  0.250000  0.743379  0.109806  1
  P  P5  1  0.250000  0.243379  0.390194  1
  P  P6  1  0.750000  0.264647  0.862293  1
  P  P7  1  0.750000  0.764647  0.637707  1
  Ru  Ru8  1  0.750000  0.137512  0.552331  1
  Ru  Ru9  1  0.750000  0.637512  0.947669  1
  Pt  Pt10  1  0.250000  0.349083  0.071159  1
  Pt  Pt11  1  0.250000  0.849083  0.428841  1
