# generated using pymatgen
data_PtCl35
_symmetry_space_group_name_H-M   'P 1'
_cell_length_a   14.38377941
_cell_length_b   10.26025305
_cell_length_c   9.71269500
_cell_angle_alpha   88.81408388
_cell_angle_beta   66.02770759
_cell_angle_gamma   92.31545463
_symmetry_Int_Tables_number   1
_chemical_formula_structural   PtCl35
_chemical_formula_sum   'Pt1 Cl35'
_cell_volume   1307.61722576
_cell_formula_units_Z   1
loop_
 _symmetry_equiv_pos_site_id
 _symmetry_equiv_pos_as_xyz
  1  'x, y, z'
loop_
 _atom_site_type_symbol
 _atom_site_label
 _atom_site_symmetry_multiplicity
 _atom_site_fract_x
 _atom_site_fract_y
 _atom_site_fract_z
 _atom_site_occupancy
  Pt  Pt0  1  0.244927  0.454958  0.426278  1
  Cl  Cl1  1  0.498584  0.264792  0.566641  1
  Cl  Cl2  1  0.776690  0.577407  0.540178  1
  Cl  Cl3  1  0.476391  0.661817  0.780127  1
  Cl  Cl4  1  0.071560  0.901154  0.817690  1
  Cl  Cl5  1  0.892402  0.152770  0.988547  1
  Cl  Cl6  1  0.660561  0.336702  0.274823  1
  Cl  Cl7  1  0.601530  0.339396  0.853569  1
  Cl  Cl8  1  0.338573  0.751856  0.673744  1
  Cl  Cl9  1  0.329969  0.594193  0.214626  1
  Cl  Cl10  1  0.630978  0.148021  0.829738  1
  Cl  Cl11  1  0.919262  0.537680  0.403989  1
  Cl  Cl12  1  0.080717  0.960113  0.613328  1
  Cl  Cl13  1  0.876989  0.085549  0.284191  1
  Cl  Cl14  1  0.896037  0.216361  0.789001  1
  Cl  Cl15  1  0.646929  0.048496  0.243097  1
  Cl  Cl16  1  0.032890  0.813608  0.120838  1
  Cl  Cl17  1  0.356186  0.942697  0.719033  1
  Cl  Cl18  1  0.895539  0.272879  0.336507  1
  Cl  Cl19  1  0.864799  0.926948  0.669249  1
  Cl  Cl20  1  0.878108  0.669432  0.839592  1
  Cl  Cl21  1  0.305654  0.037018  0.293943  1
  Cl  Cl22  1  0.354257  0.297266  0.282041  1
  Cl  Cl23  1  0.577766  0.612266  0.866827  1
  Cl  Cl24  1  0.126216  0.394887  0.330258  1
  Cl  Cl25  1  0.713702  0.890770  0.743213  1
  Cl  Cl26  1  0.885910  0.474612  0.820628  1
  Cl  Cl27  1  0.500647  0.038078  0.264326  1
  Cl  Cl28  1  0.169219  0.302584  0.622828  1
  Cl  Cl29  1  0.669056  0.766565  0.271111  1
  Cl  Cl30  1  0.878871  0.799874  0.186935  1
  Cl  Cl31  1  0.386016  0.213920  0.767949  1
  Cl  Cl32  1  0.366738  0.511302  0.521156  1
  Cl  Cl33  1  0.655541  0.548507  0.235045  1
  Cl  Cl34  1  0.145052  0.616557  0.563024  1
  Cl  Cl35  1  0.295736  0.838966  0.245933  1
