# generated using pymatgen
data_Tb10Y2Co4BiRu
_symmetry_space_group_name_H-M   'P 1'
_cell_length_a   8.38867727
_cell_length_b   8.38867782
_cell_length_c   8.37573872
_cell_angle_alpha   111.12509969
_cell_angle_beta   110.46173084
_cell_angle_gamma   106.92429969
_symmetry_Int_Tables_number   1
_chemical_formula_structural   Tb10Y2Co4BiRu
_chemical_formula_sum   'Tb10 Y2 Co4 Bi1 Ru1'
_cell_volume   452.65099607
_cell_formula_units_Z   1
loop_
 _symmetry_equiv_pos_site_id
 _symmetry_equiv_pos_as_xyz
  1  'x, y, z'
loop_
 _atom_site_type_symbol
 _atom_site_label
 _atom_site_symmetry_multiplicity
 _atom_site_fract_x
 _atom_site_fract_y
 _atom_site_fract_z
 _atom_site_occupancy
  Tb  Tb0  1  0.182540  0.710161  0.892702  1
  Tb  Tb1  1  0.817460  0.289839  0.107298  1
  Tb  Tb2  1  0.688504  0.379176  0.690539  1
  Tb  Tb3  1  0.311496  0.620824  0.309461  1
  Tb  Tb4  1  0.688637  0.997964  0.309461  1
  Tb  Tb5  1  0.311363  0.002036  0.690539  1
  Tb  Tb6  1  0.597522  0.792249  0.805528  1
  Tb  Tb7  1  0.402478  0.207751  0.194472  1
  Tb  Tb8  1  0.986722  0.791995  0.194472  1
  Tb  Tb9  1  0.013278  0.208005  0.805528  1
  Y  Y10  1  0.815782  0.711122  0.526904  1
  Y  Y11  1  0.184218  0.288878  0.473096  1
  Co  Co12  1  0.621833  0.999697  0.621530  1
  Co  Co13  1  0.378167  0.000303  0.378470  1
  Co  Co14  1  0.110702  0.610702  0.500000  1
  Co  Co15  1  0.889298  0.389298  0.500000  1
  Bi  Bi16  1  0.500000  0.500000  0.000000  1
  Ru  Ru17  1  0.000000  0.000000  0.000000  1
