# generated using pymatgen
data_DyHo(IrO4)2
_symmetry_space_group_name_H-M   'P 1'
_cell_length_a   5.34375335
_cell_length_b   7.61833758
_cell_length_c   7.39782998
_cell_angle_alpha   80.87853368
_cell_angle_beta   90.63511983
_cell_angle_gamma   92.52548558
_symmetry_Int_Tables_number   1
_chemical_formula_structural   DyHo(IrO4)2
_chemical_formula_sum   'Dy2 Ho2 Ir4 O16'
_cell_volume   297.06965255
_cell_formula_units_Z   2
loop_
 _symmetry_equiv_pos_site_id
 _symmetry_equiv_pos_as_xyz
  1  'x, y, z'
loop_
 _atom_site_type_symbol
 _atom_site_label
 _atom_site_symmetry_multiplicity
 _atom_site_fract_x
 _atom_site_fract_y
 _atom_site_fract_z
 _atom_site_occupancy
  Dy  Dy0  1  0.266484  0.130997  0.611975  1
  Dy  Dy1  1  0.733516  0.869003  0.388025  1
  Ho  Ho2  1  0.204383  0.163065  0.106930  1
  Ho  Ho3  1  0.795617  0.836935  0.893070  1
  Ir  Ir4  1  0.236079  0.660904  0.201999  1
  Ir  Ir5  1  0.763921  0.339096  0.798001  1
  Ir  Ir6  1  0.719709  0.337918  0.301219  1
  Ir  Ir7  1  0.280291  0.662082  0.698781  1
  O  O8  1  0.083146  0.443945  0.689578  1
  O  O9  1  0.916855  0.556055  0.310422  1
  O  O10  1  0.612081  0.327826  0.554518  1
  O  O11  1  0.387919  0.672174  0.445482  1
  O  O12  1  0.865546  0.332636  0.056153  1
  O  O13  1  0.134454  0.667364  0.943847  1
  O  O14  1  0.400955  0.437594  0.194072  1
  O  O15  1  0.599045  0.562406  0.805928  1
  O  O16  1  0.040222  0.887746  0.171055  1
  O  O17  1  0.959778  0.112254  0.828945  1
  O  O18  1  0.500950  0.108923  0.323212  1
  O  O19  1  0.499050  0.891077  0.676788  1
  O  O20  1  0.463552  0.197357  0.877471  1
  O  O21  1  0.536448  0.802643  0.122529  1
  O  O22  1  0.988094  0.171721  0.381886  1
  O  O23  1  0.011906  0.828279  0.618114  1
