# generated using pymatgen
data_LiPrP6Pd20Pb
_symmetry_space_group_name_H-M   'P 1'
_cell_length_a   8.66978078
_cell_length_b   8.66914637
_cell_length_c   8.66908602
_cell_angle_alpha   59.99869543
_cell_angle_beta   60.00591863
_cell_angle_gamma   60.00206087
_symmetry_Int_Tables_number   1
_chemical_formula_structural   LiPrP6Pd20Pb
_chemical_formula_sum   'Li1 Pr1 P6 Pd20 Pb1'
_cell_volume   460.74928521
_cell_formula_units_Z   1
loop_
 _symmetry_equiv_pos_site_id
 _symmetry_equiv_pos_as_xyz
  1  'x, y, z'
loop_
 _atom_site_type_symbol
 _atom_site_label
 _atom_site_symmetry_multiplicity
 _atom_site_fract_x
 _atom_site_fract_y
 _atom_site_fract_z
 _atom_site_occupancy
  Li  Li0  1  0.000003  0.000022  0.999970  1
  Pr  Pr1  1  0.249946  0.250056  0.249984  1
  P  P2  1  0.739008  0.261033  0.261033  1
  P  P3  1  0.739038  0.738933  0.261008  1
  P  P4  1  0.739020  0.261007  0.738953  1
  P  P5  1  0.260996  0.739012  0.260966  1
  P  P6  1  0.261015  0.738975  0.739006  1
  P  P7  1  0.261013  0.261000  0.738997  1
  Pd  Pd8  1  0.341369  0.002373  0.002387  1
  Pd  Pd9  1  0.002418  0.653829  0.341360  1
  Pd  Pd10  1  0.341352  0.002368  0.653904  1
  Pd  Pd11  1  0.002383  0.653868  0.002376  1
  Pd  Pd12  1  0.653928  0.341381  0.002338  1
  Pd  Pd13  1  0.616207  0.616179  0.151433  1
  Pd  Pd14  1  0.387672  0.836900  0.387722  1
  Pd  Pd15  1  0.151274  0.616245  0.616244  1
  Pd  Pd16  1  0.653913  0.002368  0.341352  1
  Pd  Pd17  1  0.002366  0.341401  0.653848  1
  Pd  Pd18  1  0.653887  0.002371  0.002357  1
  Pd  Pd19  1  0.002397  0.002374  0.341392  1
  Pd  Pd20  1  0.616229  0.151341  0.616206  1
  Pd  Pd21  1  0.341347  0.653892  0.002387  1
  Pd  Pd22  1  0.387668  0.387710  0.387715  1
  Pd  Pd23  1  0.616227  0.616227  0.616213  1
  Pd  Pd24  1  0.387671  0.387729  0.836878  1
  Pd  Pd25  1  0.002370  0.002387  0.653836  1
  Pd  Pd26  1  0.836901  0.387705  0.387697  1
  Pd  Pd27  1  0.002362  0.341393  0.002362  1
  Pb  Pb28  1  0.750019  0.749920  0.750076  1
