# generated using pymatgen
data_Tm4Re4TcOs3
_symmetry_space_group_name_H-M   'P 1'
_cell_length_a   5.34071949
_cell_length_b   5.21660731
_cell_length_c   8.96784700
_cell_angle_alpha   90.00000000
_cell_angle_beta   90.00000000
_cell_angle_gamma   119.24054024
_symmetry_Int_Tables_number   1
_chemical_formula_structural   Tm4Re4TcOs3
_chemical_formula_sum   'Tm4 Re4 Tc1 Os3'
_cell_volume   218.01164931
_cell_formula_units_Z   1
loop_
 _symmetry_equiv_pos_site_id
 _symmetry_equiv_pos_as_xyz
  1  'x, y, z'
loop_
 _atom_site_type_symbol
 _atom_site_label
 _atom_site_symmetry_multiplicity
 _atom_site_fract_x
 _atom_site_fract_y
 _atom_site_fract_z
 _atom_site_occupancy
  Tm  Tm0  1  0.670326  0.335229  0.562606  1
  Tm  Tm1  1  0.328220  0.663998  0.435758  1
  Tm  Tm2  1  0.328220  0.663998  0.064242  1
  Tm  Tm3  1  0.670326  0.335229  0.937394  1
  Re  Re4  1  0.169100  0.340777  0.750000  1
  Re  Re5  1  0.168682  0.830054  0.750000  1
  Re  Re6  1  0.832206  0.662549  0.250000  1
  Re  Re7  1  0.832942  0.169517  0.250000  1
  Tc  Tc8  1  0.652021  0.825224  0.750000  1
  Os  Os9  1  0.997952  0.998576  0.499785  1
  Os  Os10  1  0.997952  0.998576  0.000215  1
  Os  Os11  1  0.352052  0.176273  0.250000  1
