# generated using pymatgen
data_ErTh5(SnRh)6
_symmetry_space_group_name_H-M   'P 1'
_cell_length_a   7.53065853
_cell_length_b   7.54700631
_cell_length_c   8.24741500
_cell_angle_alpha   90.00000000
_cell_angle_beta   90.00000000
_cell_angle_gamma   119.92238922
_symmetry_Int_Tables_number   1
_chemical_formula_structural   ErTh5(SnRh)6
_chemical_formula_sum   'Er1 Th5 Sn6 Rh6'
_cell_volume   406.25176465
_cell_formula_units_Z   1
loop_
 _symmetry_equiv_pos_site_id
 _symmetry_equiv_pos_as_xyz
  1  'x, y, z'
loop_
 _atom_site_type_symbol
 _atom_site_label
 _atom_site_symmetry_multiplicity
 _atom_site_fract_x
 _atom_site_fract_y
 _atom_site_fract_z
 _atom_site_occupancy
  Er  Er0  1  0.593488  0.000088  0.750000  1
  Th  Th1  1  0.416375  0.414726  0.750000  1
  Th  Th2  1  0.002617  0.585647  0.750000  1
  Th  Th3  1  0.584142  0.000372  0.250000  1
  Th  Th4  1  0.412452  0.413746  0.250000  1
  Th  Th5  1  0.997822  0.585835  0.250000  1
  Sn  Sn6  1  0.255682  0.999937  0.995541  1
  Sn  Sn7  1  0.748746  0.753778  0.502186  1
  Sn  Sn8  1  0.995214  0.246324  0.501987  1
  Sn  Sn9  1  0.995214  0.246324  0.998013  1
  Sn  Sn10  1  0.748746  0.753778  0.997814  1
  Sn  Sn11  1  0.255682  0.999937  0.504459  1
  Rh  Rh12  1  0.666410  0.337994  0.998983  1
  Rh  Rh13  1  0.666410  0.337994  0.501017  1
  Rh  Rh14  1  0.328320  0.661837  0.000443  1
  Rh  Rh15  1  0.328320  0.661837  0.499557  1
  Rh  Rh16  1  0.003855  0.999967  0.750000  1
  Rh  Rh17  1  0.000504  0.999880  0.250000  1
