# generated using pymatgen
data_Sm2ThZnAu5
_symmetry_space_group_name_H-M   'P 1'
_cell_length_a   8.58785921
_cell_length_b   8.58785922
_cell_length_c   13.63758400
_cell_angle_alpha   90.00000000
_cell_angle_beta   90.00000000
_cell_angle_gamma   127.34226050
_symmetry_Int_Tables_number   1
_chemical_formula_structural   Sm2ThZnAu5
_chemical_formula_sum   'Sm8 Th4 Zn4 Au20'
_cell_volume   799.62942162
_cell_formula_units_Z   4
loop_
 _symmetry_equiv_pos_site_id
 _symmetry_equiv_pos_as_xyz
  1  'x, y, z'
loop_
 _atom_site_type_symbol
 _atom_site_label
 _atom_site_symmetry_multiplicity
 _atom_site_fract_x
 _atom_site_fract_y
 _atom_site_fract_z
 _atom_site_occupancy
  Sm  Sm0  1  0.630646  0.369354  0.460383  1
  Sm  Sm1  1  0.369354  0.630646  0.539617  1
  Sm  Sm2  1  0.630646  0.369354  0.039617  1
  Sm  Sm3  1  0.369354  0.630646  0.960383  1
  Sm  Sm4  1  0.882644  0.117356  0.951569  1
  Sm  Sm5  1  0.117356  0.882644  0.048431  1
  Sm  Sm6  1  0.882644  0.117356  0.548431  1
  Sm  Sm7  1  0.117356  0.882644  0.451569  1
  Th  Th8  1  0.930975  0.069025  0.250000  1
  Th  Th9  1  0.069025  0.930975  0.750000  1
  Th  Th10  1  0.318186  0.681814  0.250000  1
  Th  Th11  1  0.681814  0.318186  0.750000  1
  Zn  Zn12  1  0.719052  0.280948  0.250000  1
  Zn  Zn13  1  0.280948  0.719052  0.750000  1
  Zn  Zn14  1  0.533714  0.466286  0.250000  1
  Zn  Zn15  1  0.466286  0.533714  0.750000  1
  Au  Au16  1  0.320005  0.065588  0.250000  1
  Au  Au17  1  0.065588  0.320005  0.750000  1
  Au  Au18  1  0.679995  0.934412  0.750000  1
  Au  Au19  1  0.934412  0.679995  0.250000  1
  Au  Au20  1  0.569007  0.002579  0.396337  1
  Au  Au21  1  0.002579  0.569007  0.603663  1
  Au  Au22  1  0.569007  0.002579  0.103663  1
  Au  Au23  1  0.002579  0.569007  0.896337  1
  Au  Au24  1  0.430993  0.997421  0.603663  1
  Au  Au25  1  0.997421  0.430993  0.396337  1
  Au  Au26  1  0.430993  0.997421  0.896337  1
  Au  Au27  1  0.997421  0.430993  0.103663  1
  Au  Au28  1  0.685233  0.741749  0.394490  1
  Au  Au29  1  0.741749  0.685233  0.605510  1
  Au  Au30  1  0.685233  0.741749  0.105510  1
  Au  Au31  1  0.741749  0.685233  0.894490  1
  Au  Au32  1  0.314767  0.258251  0.605510  1
  Au  Au33  1  0.258251  0.314767  0.394490  1
  Au  Au34  1  0.314767  0.258251  0.894490  1
  Au  Au35  1  0.258251  0.314767  0.105510  1
