# generated using pymatgen
data_BaYb2(Si3Pd10)2
_symmetry_space_group_name_H-M   'P 1'
_cell_length_a   8.74468444
_cell_length_b   8.74468439
_cell_length_c   8.74468500
_cell_angle_alpha   60.00000146
_cell_angle_beta   60.00000166
_cell_angle_gamma   60.00000090
_symmetry_Int_Tables_number   1
_chemical_formula_structural   BaYb2(Si3Pd10)2
_chemical_formula_sum   'Ba1 Yb2 Si6 Pd20'
_cell_volume   472.84354760
_cell_formula_units_Z   1
loop_
 _symmetry_equiv_pos_site_id
 _symmetry_equiv_pos_as_xyz
  1  'x, y, z'
loop_
 _atom_site_type_symbol
 _atom_site_label
 _atom_site_symmetry_multiplicity
 _atom_site_fract_x
 _atom_site_fract_y
 _atom_site_fract_z
 _atom_site_occupancy
  Ba  Ba0  1  0.250000  0.250000  0.250000  1
  Yb  Yb1  1  0.000000  0.000000  0.000000  1
  Yb  Yb2  1  0.750000  0.750000  0.750000  1
  Si  Si3  1  0.732550  0.267450  0.267450  1
  Si  Si4  1  0.267450  0.732550  0.732550  1
  Si  Si5  1  0.267450  0.732550  0.267450  1
  Si  Si6  1  0.732550  0.267450  0.732550  1
  Si  Si7  1  0.267450  0.267450  0.732550  1
  Si  Si8  1  0.732550  0.732550  0.267450  1
  Pd  Pd9  1  0.347477  0.996214  0.996214  1
  Pd  Pd10  1  0.660095  0.996214  0.996214  1
  Pd  Pd11  1  0.996214  0.347477  0.660095  1
  Pd  Pd12  1  0.996214  0.660095  0.347477  1
  Pd  Pd13  1  0.996214  0.347477  0.996214  1
  Pd  Pd14  1  0.660095  0.996214  0.347477  1
  Pd  Pd15  1  0.996214  0.660095  0.996214  1
  Pd  Pd16  1  0.347477  0.996214  0.660095  1
  Pd  Pd17  1  0.996214  0.996214  0.347477  1
  Pd  Pd18  1  0.996214  0.996214  0.660095  1
  Pd  Pd19  1  0.660095  0.347477  0.996214  1
  Pd  Pd20  1  0.347477  0.660095  0.996214  1
  Pd  Pd21  1  0.389388  0.389388  0.389388  1
  Pd  Pd22  1  0.617496  0.617496  0.617496  1
  Pd  Pd23  1  0.389388  0.389388  0.831835  1
  Pd  Pd24  1  0.389388  0.831835  0.389388  1
  Pd  Pd25  1  0.617496  0.617496  0.147510  1
  Pd  Pd26  1  0.617496  0.147510  0.617496  1
  Pd  Pd27  1  0.831835  0.389388  0.389388  1
  Pd  Pd28  1  0.147510  0.617496  0.617496  1
