# generated using pymatgen
data_ScFe5P3
_symmetry_space_group_name_H-M   'P 1'
_cell_length_a   3.59336000
_cell_length_b   10.15472700
_cell_length_c   11.67211000
_cell_angle_alpha   90.00000000
_cell_angle_beta   90.00000000
_cell_angle_gamma   90.00000000
_symmetry_Int_Tables_number   1
_chemical_formula_structural   ScFe5P3
_chemical_formula_sum   'Sc4 Fe20 P12'
_cell_volume   425.91050615
_cell_formula_units_Z   4
loop_
 _symmetry_equiv_pos_site_id
 _symmetry_equiv_pos_as_xyz
  1  'x, y, z'
loop_
 _atom_site_type_symbol
 _atom_site_label
 _atom_site_symmetry_multiplicity
 _atom_site_fract_x
 _atom_site_fract_y
 _atom_site_fract_z
 _atom_site_occupancy
  Sc  Sc0  1  0.250000  0.581405  0.704577  1
  Sc  Sc1  1  0.250000  0.918595  0.204577  1
  Sc  Sc2  1  0.750000  0.418595  0.295423  1
  Sc  Sc3  1  0.750000  0.081405  0.795423  1
  Fe  Fe4  1  0.250000  0.709177  0.989067  1
  Fe  Fe5  1  0.250000  0.790823  0.489067  1
  Fe  Fe6  1  0.750000  0.290823  0.010933  1
  Fe  Fe7  1  0.750000  0.209177  0.510933  1
  Fe  Fe8  1  0.250000  0.406159  0.488451  1
  Fe  Fe9  1  0.250000  0.093841  0.988451  1
  Fe  Fe10  1  0.750000  0.593841  0.511549  1
  Fe  Fe11  1  0.750000  0.906159  0.011549  1
  Fe  Fe12  1  0.250000  0.218356  0.176477  1
  Fe  Fe13  1  0.250000  0.281645  0.676477  1
  Fe  Fe14  1  0.750000  0.781645  0.823523  1
  Fe  Fe15  1  0.750000  0.718355  0.323523  1
  Fe  Fe16  1  0.250000  0.878262  0.701553  1
  Fe  Fe17  1  0.250000  0.621738  0.201553  1
  Fe  Fe18  1  0.750000  0.121738  0.298447  1
  Fe  Fe19  1  0.750000  0.378262  0.798447  1
  Fe  Fe20  1  0.250000  0.463327  0.931740  1
  Fe  Fe21  1  0.250000  0.036673  0.431740  1
  Fe  Fe22  1  0.750000  0.536673  0.068260  1
  Fe  Fe23  1  0.750000  0.963327  0.568260  1
  P  P24  1  0.250000  0.419830  0.115175  1
  P  P25  1  0.250000  0.080170  0.615175  1
  P  P26  1  0.750000  0.580170  0.884825  1
  P  P27  1  0.750000  0.919830  0.384825  1
  P  P28  1  0.250000  0.262622  0.869856  1
  P  P29  1  0.250000  0.237378  0.369856  1
  P  P30  1  0.750000  0.737378  0.130144  1
  P  P31  1  0.750000  0.762622  0.630144  1
  P  P32  1  0.250000  0.597677  0.394077  1
  P  P33  1  0.250000  0.902323  0.894077  1
  P  P34  1  0.750000  0.402323  0.605923  1
  P  P35  1  0.750000  0.097677  0.105923  1
