# generated using pymatgen
data_YMg3Sc4(Ni4P3)4
_symmetry_space_group_name_H-M   'P 1'
_cell_length_a   12.12298800
_cell_length_b   12.12298800
_cell_length_c   3.71104900
_cell_angle_alpha   90.00000000
_cell_angle_beta   90.00000000
_cell_angle_gamma   120.00000546
_symmetry_Int_Tables_number   1
_chemical_formula_structural   YMg3Sc4(Ni4P3)4
_chemical_formula_sum   'Y1 Mg3 Sc4 Ni16 P12'
_cell_volume   472.33121422
_cell_formula_units_Z   1
loop_
 _symmetry_equiv_pos_site_id
 _symmetry_equiv_pos_as_xyz
  1  'x, y, z'
loop_
 _atom_site_type_symbol
 _atom_site_label
 _atom_site_symmetry_multiplicity
 _atom_site_fract_x
 _atom_site_fract_y
 _atom_site_fract_z
 _atom_site_occupancy
  Y  Y0  1  0.666667  0.333333  0.000000  1
  Mg  Mg1  1  0.559712  0.560946  0.000000  1
  Mg  Mg2  1  0.439054  0.998765  0.000000  1
  Mg  Mg3  1  0.001235  0.440288  0.000000  1
  Sc  Sc4  1  0.183370  0.183126  0.500000  1
  Sc  Sc5  1  0.816874  0.000244  0.500000  1
  Sc  Sc6  1  0.999756  0.816630  0.500000  1
  Sc  Sc7  1  0.333333  0.666667  0.000000  1
  Ni  Ni8  1  0.720892  0.723997  0.500000  1
  Ni  Ni9  1  0.276003  0.996894  0.500000  1
  Ni  Ni10  1  0.003106  0.279108  0.500000  1
  Ni  Ni11  1  0.183143  0.377131  0.000000  1
  Ni  Ni12  1  0.622869  0.806012  0.000000  1
  Ni  Ni13  1  0.193988  0.816857  0.000000  1
  Ni  Ni14  1  0.807281  0.627071  0.000000  1
  Ni  Ni15  1  0.819790  0.192719  0.000000  1
  Ni  Ni16  1  0.372929  0.180210  0.000000  1
  Ni  Ni17  1  0.362380  0.486466  0.500000  1
  Ni  Ni18  1  0.513534  0.875915  0.500000  1
  Ni  Ni19  1  0.124085  0.637620  0.500000  1
  Ni  Ni20  1  0.880842  0.517893  0.500000  1
  Ni  Ni21  1  0.637052  0.119158  0.500000  1
  Ni  Ni22  1  0.482107  0.362948  0.500000  1
  Ni  Ni23  1  0.000000  0.000000  0.000000  1
  P  P24  1  0.825032  0.826414  0.000000  1
  P  P25  1  0.173586  0.998618  0.000000  1
  P  P26  1  0.001382  0.174968  0.000000  1
  P  P27  1  0.175457  0.481880  0.500000  1
  P  P28  1  0.518120  0.693577  0.500000  1
  P  P29  1  0.306423  0.824543  0.500000  1
  P  P30  1  0.694875  0.524348  0.500000  1
  P  P31  1  0.829472  0.305125  0.500000  1
  P  P32  1  0.475652  0.170528  0.500000  1
  P  P33  1  0.352376  0.352026  0.000000  1
  P  P34  1  0.647974  0.000350  0.000000  1
  P  P35  1  0.999650  0.647624  0.000000  1
