# generated using pymatgen
data_Tb7DySc12Si15Au
_symmetry_space_group_name_H-M   'P 1'
_cell_length_a   7.13658963
_cell_length_b   7.39267901
_cell_length_c   14.08420216
_cell_angle_alpha   89.92649571
_cell_angle_beta   89.69086067
_cell_angle_gamma   90.18100896
_symmetry_Int_Tables_number   1
_chemical_formula_structural   Tb7DySc12Si15Au
_chemical_formula_sum   'Tb7 Dy1 Sc12 Si15 Au1'
_cell_volume   743.04645828
_cell_formula_units_Z   1
loop_
 _symmetry_equiv_pos_site_id
 _symmetry_equiv_pos_as_xyz
  1  'x, y, z'
loop_
 _atom_site_type_symbol
 _atom_site_label
 _atom_site_symmetry_multiplicity
 _atom_site_fract_x
 _atom_site_fract_y
 _atom_site_fract_z
 _atom_site_occupancy
  Tb  Tb0  1  0.012409  0.175202  0.097544  1
  Tb  Tb1  1  0.987346  0.825375  0.903418  1
  Tb  Tb2  1  0.487056  0.676332  0.903327  1
  Tb  Tb3  1  0.988105  0.828125  0.597757  1
  Tb  Tb4  1  0.512214  0.324169  0.096647  1
  Tb  Tb5  1  0.010555  0.173898  0.399853  1
  Tb  Tb6  1  0.510452  0.324677  0.400778  1
  Dy  Dy7  1  0.490911  0.676188  0.599257  1
  Sc  Sc8  1  0.162583  0.501030  0.750997  1
  Sc  Sc9  1  0.837901  0.498754  0.250741  1
  Sc  Sc10  1  0.338116  0.000297  0.249255  1
  Sc  Sc11  1  0.663822  0.996612  0.750912  1
  Sc  Sc12  1  0.338070  0.176068  0.625724  1
  Sc  Sc13  1  0.666900  0.823633  0.373784  1
  Sc  Sc14  1  0.169060  0.673338  0.373530  1
  Sc  Sc15  1  0.670362  0.824198  0.125027  1
  Sc  Sc16  1  0.827965  0.325741  0.625315  1
  Sc  Sc17  1  0.328673  0.175203  0.875920  1
  Sc  Sc18  1  0.830013  0.322611  0.875842  1
  Sc  Sc19  1  0.169460  0.676646  0.124997  1
  Si  Si20  1  0.035216  0.119778  0.750592  1
  Si  Si21  1  0.966379  0.882950  0.249382  1
  Si  Si22  1  0.466513  0.616645  0.248455  1
  Si  Si23  1  0.535059  0.384159  0.752216  1
  Si  Si24  1  0.285038  0.874880  0.750637  1
  Si  Si25  1  0.713085  0.126820  0.248898  1
  Si  Si26  1  0.214555  0.372163  0.248182  1
  Si  Si27  1  0.786754  0.626312  0.752336  1
  Si  Si28  1  0.835618  0.537631  0.459427  1
  Si  Si29  1  0.341644  0.962803  0.460223  1
  Si  Si30  1  0.844191  0.535656  0.038979  1
  Si  Si31  1  0.657065  0.035973  0.538019  1
  Si  Si32  1  0.155215  0.464228  0.961506  1
  Si  Si33  1  0.656355  0.035074  0.960893  1
  Si  Si34  1  0.343480  0.964152  0.039363  1
  Au  Au35  1  0.161862  0.462679  0.540265  1
