# generated using pymatgen
data_Nd2Cu18Si7Sn
_symmetry_space_group_name_H-M   'P 1'
_cell_length_a   8.23972706
_cell_length_b   8.23155697
_cell_length_c   8.28099097
_cell_angle_alpha   120.70147188
_cell_angle_beta   120.82700717
_cell_angle_gamma   88.73922551
_symmetry_Int_Tables_number   1
_chemical_formula_structural   Nd2Cu18Si7Sn
_chemical_formula_sum   'Nd2 Cu18 Si7 Sn1'
_cell_volume   392.26164823
_cell_formula_units_Z   1
loop_
 _symmetry_equiv_pos_site_id
 _symmetry_equiv_pos_as_xyz
  1  'x, y, z'
loop_
 _atom_site_type_symbol
 _atom_site_label
 _atom_site_symmetry_multiplicity
 _atom_site_fract_x
 _atom_site_fract_y
 _atom_site_fract_z
 _atom_site_occupancy
  Nd  Nd0  1  0.255442  0.249701  0.001061  1
  Nd  Nd1  1  0.749563  0.755255  0.000964  1
  Cu  Cu2  1  0.933452  0.193452  0.141159  1
  Cu  Cu3  1  0.202438  0.062570  0.266918  1
  Cu  Cu4  1  0.794774  0.927769  0.729956  1
  Cu  Cu5  1  0.427542  0.295666  0.729641  1
  Cu  Cu6  1  0.069453  0.802397  0.866769  1
  Cu  Cu7  1  0.804963  0.045954  0.483780  1
  Cu  Cu8  1  0.545734  0.305266  0.483568  1
  Cu  Cu9  1  0.190576  0.947310  0.503577  1
  Cu  Cu10  1  0.446456  0.689433  0.503445  1
  Cu  Cu11  1  0.944224  0.443329  0.727169  1
  Cu  Cu12  1  0.692150  0.191073  0.249847  1
  Cu  Cu13  1  0.076302  0.576917  0.287171  1
  Cu  Cu14  1  0.694920  0.434437  0.142081  1
  Cu  Cu15  1  0.563011  0.701961  0.267300  1
  Cu  Cu16  1  0.490970  0.991474  0.492021  1
  Cu  Cu17  1  0.001634  0.501138  0.497865  1
  Cu  Cu18  1  0.308465  0.809090  0.752885  1
  Cu  Cu19  1  0.301773  0.570091  0.865913  1
  Si  Si20  1  0.553474  0.053531  0.848587  1
  Si  Si21  1  0.056122  0.207141  0.496462  1
  Si  Si22  1  0.293855  0.443658  0.504093  1
  Si  Si23  1  0.943902  0.794219  0.504396  1
  Si  Si24  1  0.443594  0.943488  0.151846  1
  Si  Si25  1  0.199247  0.699029  0.144564  1
  Si  Si26  1  0.707481  0.556087  0.496700  1
  Sn  Sn27  1  0.808482  0.308566  0.860259  1
