# generated using pymatgen
data_Tm11Sc(Si3Rh)4
_symmetry_space_group_name_H-M   'P 1'
_cell_length_a   4.16968100
_cell_length_b   10.57716802
_cell_length_c   12.16320808
_cell_angle_alpha   89.86792736
_cell_angle_beta   90.00000000
_cell_angle_gamma   90.00000000
_symmetry_Int_Tables_number   1
_chemical_formula_structural   Tm11Sc(Si3Rh)4
_chemical_formula_sum   'Tm11 Sc1 Si12 Rh4'
_cell_volume   536.43760728
_cell_formula_units_Z   1
loop_
 _symmetry_equiv_pos_site_id
 _symmetry_equiv_pos_as_xyz
  1  'x, y, z'
loop_
 _atom_site_type_symbol
 _atom_site_label
 _atom_site_symmetry_multiplicity
 _atom_site_fract_x
 _atom_site_fract_y
 _atom_site_fract_z
 _atom_site_occupancy
  Tm  Tm0  1  0.250000  0.879473  0.018749  1
  Tm  Tm1  1  0.250000  0.620886  0.519649  1
  Tm  Tm2  1  0.750000  0.121264  0.978174  1
  Tm  Tm3  1  0.750000  0.377095  0.481857  1
  Tm  Tm4  1  0.250000  0.922008  0.604141  1
  Tm  Tm5  1  0.250000  0.579443  0.103381  1
  Tm  Tm6  1  0.750000  0.079341  0.397763  1
  Tm  Tm7  1  0.750000  0.419561  0.895553  1
  Tm  Tm8  1  0.250000  0.660026  0.800189  1
  Tm  Tm9  1  0.250000  0.840518  0.300457  1
  Tm  Tm10  1  0.750000  0.339349  0.199759  1
  Sc  Sc11  1  0.750000  0.160824  0.701670  1
  Si  Si12  1  0.250000  0.016476  0.820666  1
  Si  Si13  1  0.250000  0.485073  0.322329  1
  Si  Si14  1  0.750000  0.986038  0.177608  1
  Si  Si15  1  0.750000  0.514807  0.677855  1
  Si  Si16  1  0.250000  0.246838  0.837436  1
  Si  Si17  1  0.250000  0.251117  0.343635  1
  Si  Si18  1  0.750000  0.751879  0.158202  1
  Si  Si19  1  0.750000  0.748322  0.657922  1
  Si  Si20  1  0.250000  0.196537  0.548872  1
  Si  Si21  1  0.250000  0.301685  0.040890  1
  Si  Si22  1  0.750000  0.802265  0.457943  1
  Si  Si23  1  0.750000  0.697855  0.957201  1
  Rh  Rh24  1  0.250000  0.390213  0.680366  1
  Rh  Rh25  1  0.250000  0.109421  0.181243  1
  Rh  Rh26  1  0.750000  0.609287  0.319211  1
  Rh  Rh27  1  0.750000  0.892401  0.817279  1
