# generated using pymatgen
data_Er6Al16IrOs6
_symmetry_space_group_name_H-M   'P 1'
_cell_length_a   8.92121490
_cell_length_b   8.92121485
_cell_length_c   8.92121500
_cell_angle_alpha   60.00000315
_cell_angle_beta   60.00000335
_cell_angle_gamma   60.00000846
_symmetry_Int_Tables_number   1
_chemical_formula_structural   Er6Al16IrOs6
_chemical_formula_sum   'Er6 Al16 Ir1 Os6'
_cell_volume   502.06165925
_cell_formula_units_Z   1
loop_
 _symmetry_equiv_pos_site_id
 _symmetry_equiv_pos_as_xyz
  1  'x, y, z'
loop_
 _atom_site_type_symbol
 _atom_site_label
 _atom_site_symmetry_multiplicity
 _atom_site_fract_x
 _atom_site_fract_y
 _atom_site_fract_z
 _atom_site_occupancy
  Er  Er0  1  0.211996  0.788004  0.788004  1
  Er  Er1  1  0.788004  0.211996  0.211996  1
  Er  Er2  1  0.788004  0.211996  0.788004  1
  Er  Er3  1  0.788004  0.788004  0.211996  1
  Er  Er4  1  0.211996  0.788004  0.211996  1
  Er  Er5  1  0.211996  0.211996  0.788004  1
  Al  Al6  1  0.833464  0.833464  0.833464  1
  Al  Al7  1  0.833464  0.833464  0.499611  1
  Al  Al8  1  0.499611  0.833464  0.833464  1
  Al  Al9  1  0.833464  0.499611  0.833464  1
  Al  Al10  1  0.166536  0.166536  0.166536  1
  Al  Al11  1  0.166536  0.166536  0.500389  1
  Al  Al12  1  0.166536  0.500389  0.166536  1
  Al  Al13  1  0.500389  0.166536  0.166536  1
  Al  Al14  1  0.621890  0.621890  0.621890  1
  Al  Al15  1  0.621890  0.621890  0.134329  1
  Al  Al16  1  0.134329  0.621890  0.621890  1
  Al  Al17  1  0.621890  0.134329  0.621890  1
  Al  Al18  1  0.378110  0.378110  0.378110  1
  Al  Al19  1  0.378110  0.378110  0.865671  1
  Al  Al20  1  0.378110  0.865671  0.378110  1
  Al  Al21  1  0.865671  0.378110  0.378110  1
  Ir  Ir22  1  0.500000  0.500000  0.500000  1
  Os  Os23  1  0.000000  0.500000  0.500000  1
  Os  Os24  1  0.500000  0.000000  0.000000  1
  Os  Os25  1  0.500000  0.000000  0.500000  1
  Os  Os26  1  0.500000  0.500000  0.000000  1
  Os  Os27  1  0.000000  0.500000  0.000000  1
  Os  Os28  1  0.000000  0.000000  0.500000  1
