# generated using pymatgen
data_La3Th(Si5Os3)2
_symmetry_space_group_name_H-M   'P 1'
_cell_length_a   8.29115217
_cell_length_b   8.27247908
_cell_length_c   5.92934872
_cell_angle_alpha   70.39461812
_cell_angle_beta   70.41488600
_cell_angle_gamma   93.87766803
_symmetry_Int_Tables_number   1
_chemical_formula_structural   La3Th(Si5Os3)2
_chemical_formula_sum   'La3 Th1 Si10 Os6'
_cell_volume   353.43272252
_cell_formula_units_Z   1
loop_
 _symmetry_equiv_pos_site_id
 _symmetry_equiv_pos_as_xyz
  1  'x, y, z'
loop_
 _atom_site_type_symbol
 _atom_site_label
 _atom_site_symmetry_multiplicity
 _atom_site_fract_x
 _atom_site_fract_y
 _atom_site_fract_z
 _atom_site_occupancy
  La  La0  1  0.867743  0.602154  0.756438  1
  La  La1  1  0.396402  0.134477  0.742392  1
  La  La2  1  0.133793  0.397675  0.242437  1
  Th  Th3  1  0.601314  0.866472  0.258955  1
  Si  Si4  1  0.059580  0.259819  0.835950  1
  Si  Si5  1  0.742028  0.941137  0.662975  1
  Si  Si6  1  0.940179  0.739815  0.163957  1
  Si  Si7  1  0.257908  0.057950  0.337373  1
  Si  Si8  1  0.209141  0.790868  0.751518  1
  Si  Si9  1  0.791719  0.210330  0.248675  1
  Si  Si10  1  0.511936  0.488827  0.752318  1
  Si  Si11  1  0.488813  0.509824  0.248974  1
  Si  Si12  1  0.771280  0.229328  0.749021  1
  Si  Si13  1  0.228096  0.772126  0.250088  1
  Os  Os14  1  0.259533  0.543808  0.629945  1
  Os  Os15  1  0.460304  0.746187  0.865624  1
  Os  Os16  1  0.742306  0.458732  0.366832  1
  Os  Os17  1  0.542740  0.252565  0.132671  1
  Os  Os18  1  0.002193  0.994886  0.752302  1
  Os  Os19  1  0.992991  0.003022  0.251558  1
