# generated using pymatgen
data_Nd6EuRuBr12
_symmetry_space_group_name_H-M   'P 1'
_cell_length_a   9.56002578
_cell_length_b   9.56002497
_cell_length_c   9.56002461
_cell_angle_alpha   106.29215033
_cell_angle_beta   106.29215593
_cell_angle_gamma   106.29214402
_symmetry_Int_Tables_number   1
_chemical_formula_structural   Nd6EuRuBr12
_chemical_formula_sum   'Nd6 Eu1 Ru1 Br12'
_cell_volume   741.25229634
_cell_formula_units_Z   1
loop_
 _symmetry_equiv_pos_site_id
 _symmetry_equiv_pos_as_xyz
  1  'x, y, z'
loop_
 _atom_site_type_symbol
 _atom_site_label
 _atom_site_symmetry_multiplicity
 _atom_site_fract_x
 _atom_site_fract_y
 _atom_site_fract_z
 _atom_site_occupancy
  Nd  Nd0  1  0.898597  0.688283  0.978073  1
  Nd  Nd1  1  0.978073  0.898597  0.688283  1
  Nd  Nd2  1  0.688283  0.978073  0.898597  1
  Nd  Nd3  1  0.101403  0.311717  0.021927  1
  Nd  Nd4  1  0.021927  0.101403  0.311717  1
  Nd  Nd5  1  0.311717  0.021927  0.101403  1
  Eu  Eu6  1  0.500000  0.500000  0.500000  1
  Ru  Ru7  1  0.000000  0.000000  0.000000  1
  Br  Br8  1  0.628708  0.848128  0.549654  1
  Br  Br9  1  0.549654  0.628708  0.848128  1
  Br  Br10  1  0.848128  0.549654  0.628708  1
  Br  Br11  1  0.371292  0.151872  0.450346  1
  Br  Br12  1  0.450346  0.371292  0.151872  1
  Br  Br13  1  0.151872  0.450346  0.371292  1
  Br  Br14  1  0.682040  0.072581  0.221070  1
  Br  Br15  1  0.221070  0.682040  0.072581  1
  Br  Br16  1  0.072581  0.221070  0.682040  1
  Br  Br17  1  0.317960  0.927419  0.778930  1
  Br  Br18  1  0.778930  0.317960  0.927419  1
  Br  Br19  1  0.927419  0.778930  0.317960  1
