# generated using pymatgen
data_Pr9Nd(TlSi2)2
_symmetry_space_group_name_H-M   'P 1'
_cell_length_a   7.94730593
_cell_length_b   7.94730479
_cell_length_c   9.31639400
_cell_angle_alpha   115.24709229
_cell_angle_beta   115.24708841
_cell_angle_gamma   89.99999970
_symmetry_Int_Tables_number   1
_chemical_formula_structural   Pr9Nd(TlSi2)2
_chemical_formula_sum   'Pr9 Nd1 Tl2 Si4'
_cell_volume   469.32064858
_cell_formula_units_Z   1
loop_
 _symmetry_equiv_pos_site_id
 _symmetry_equiv_pos_as_xyz
  1  'x, y, z'
loop_
 _atom_site_type_symbol
 _atom_site_label
 _atom_site_symmetry_multiplicity
 _atom_site_fract_x
 _atom_site_fract_y
 _atom_site_fract_z
 _atom_site_occupancy
  Pr  Pr0  1  0.000000  0.000000  0.000000  1
  Pr  Pr1  1  0.961404  0.814304  0.276047  1
  Pr  Pr2  1  0.314644  0.461744  0.276047  1
  Pr  Pr3  1  0.814304  0.314644  0.276047  1
  Pr  Pr4  1  0.461744  0.961404  0.276047  1
  Pr  Pr5  1  0.038596  0.185696  0.723953  1
  Pr  Pr6  1  0.685356  0.538256  0.723953  1
  Pr  Pr7  1  0.185696  0.685356  0.723953  1
  Pr  Pr8  1  0.538256  0.038596  0.723953  1
  Nd  Nd9  1  0.500000  0.500000  0.000000  1
  Tl  Tl10  1  0.749782  0.749782  0.499566  1
  Tl  Tl11  1  0.250218  0.250218  0.500434  1
  Si  Si12  1  0.614783  0.884491  0.000000  1
  Si  Si13  1  0.385217  0.115509  0.000000  1
  Si  Si14  1  0.884491  0.385217  0.000000  1
  Si  Si15  1  0.115509  0.614783  0.000000  1
