# generated using pymatgen
data_Tb3Dy3Ta2(Co4P3)4
_symmetry_space_group_name_H-M   'P 1'
_cell_length_a   3.70732100
_cell_length_b   10.63226200
_cell_length_c   12.33054000
_cell_angle_alpha   90.00221062
_cell_angle_beta   90.00000000
_cell_angle_gamma   90.00000000
_symmetry_Int_Tables_number   1
_chemical_formula_structural   Tb3Dy3Ta2(Co4P3)4
_chemical_formula_sum   'Tb3 Dy3 Ta2 Co16 P12'
_cell_volume   486.03546210
_cell_formula_units_Z   1
loop_
 _symmetry_equiv_pos_site_id
 _symmetry_equiv_pos_as_xyz
  1  'x, y, z'
loop_
 _atom_site_type_symbol
 _atom_site_label
 _atom_site_symmetry_multiplicity
 _atom_site_fract_x
 _atom_site_fract_y
 _atom_site_fract_z
 _atom_site_occupancy
  Tb  Tb0  1  0.000000  0.500026  0.526772  1
  Tb  Tb1  1  0.500000  0.999988  0.473237  1
  Tb  Tb2  1  0.500000  0.820594  0.205064  1
  Dy  Dy3  1  0.500000  0.179495  0.204971  1
  Dy  Dy4  1  0.000000  0.679440  0.795030  1
  Dy  Dy5  1  0.000000  0.320550  0.795021  1
  Ta  Ta6  1  0.500000  0.499868  0.156429  1
  Ta  Ta7  1  0.000000  0.000042  0.843522  1
  Co  Co8  1  0.500000  0.499962  0.702800  1
  Co  Co9  1  0.000000  0.000375  0.297338  1
  Co  Co10  1  0.000000  0.499885  0.987066  1
  Co  Co11  1  0.500000  0.000130  0.012697  1
  Co  Co12  1  0.500000  0.332676  0.992480  1
  Co  Co13  1  0.500000  0.667203  0.992372  1
  Co  Co14  1  0.000000  0.167403  0.007405  1
  Co  Co15  1  0.000000  0.832720  0.007258  1
  Co  Co16  1  0.500000  0.295476  0.432137  1
  Co  Co17  1  0.500000  0.704504  0.432340  1
  Co  Co18  1  0.000000  0.204597  0.567890  1
  Co  Co19  1  0.000000  0.795421  0.568016  1
  Co  Co20  1  0.500000  0.877951  0.705737  1
  Co  Co21  1  0.500000  0.122020  0.705707  1
  Co  Co22  1  0.000000  0.621752  0.294531  1
  Co  Co23  1  0.000000  0.377914  0.294287  1
  P  P24  1  0.500000  0.499950  0.882282  1
  P  P25  1  0.000000  0.000333  0.117467  1
  P  P26  1  0.500000  0.500021  0.356138  1
  P  P27  1  0.000000  0.000022  0.643894  1
  P  P28  1  0.500000  0.310588  0.615785  1
  P  P29  1  0.500000  0.689369  0.615880  1
  P  P30  1  0.000000  0.189499  0.384244  1
  P  P31  1  0.000000  0.810520  0.384606  1
  P  P32  1  0.500000  0.841027  0.892985  1
  P  P33  1  0.500000  0.159029  0.892930  1
  P  P34  1  0.000000  0.658654  0.106721  1
  P  P35  1  0.000000  0.340995  0.106962  1
