# generated using pymatgen
data_Y6Al24Os7Pd
_symmetry_space_group_name_H-M   'P 1'
_cell_length_a   8.85342090
_cell_length_b   8.85342162
_cell_length_c   9.54008683
_cell_angle_alpha   89.65220421
_cell_angle_beta   90.34779487
_cell_angle_gamma   119.80231671
_symmetry_Int_Tables_number   1
_chemical_formula_structural   Y6Al24Os7Pd
_chemical_formula_sum   'Y6 Al24 Os7 Pd1'
_cell_volume   648.86775859
_cell_formula_units_Z   1
loop_
 _symmetry_equiv_pos_site_id
 _symmetry_equiv_pos_as_xyz
  1  'x, y, z'
loop_
 _atom_site_type_symbol
 _atom_site_label
 _atom_site_symmetry_multiplicity
 _atom_site_fract_x
 _atom_site_fract_y
 _atom_site_fract_z
 _atom_site_occupancy
  Y  Y0  1  0.189131  0.384824  0.251588  1
  Y  Y1  1  0.810869  0.615176  0.748412  1
  Y  Y2  1  0.615176  0.810869  0.251588  1
  Y  Y3  1  0.384824  0.189131  0.748412  1
  Y  Y4  1  0.193833  0.806167  0.252086  1
  Y  Y5  1  0.806167  0.193833  0.747914  1
  Al  Al6  1  0.330901  0.669099  0.017435  1
  Al  Al7  1  0.669099  0.330901  0.982565  1
  Al  Al8  1  0.666488  0.333512  0.515608  1
  Al  Al9  1  0.333512  0.666488  0.484392  1
  Al  Al10  1  0.163354  0.325881  0.576454  1
  Al  Al11  1  0.836646  0.674119  0.423546  1
  Al  Al12  1  0.674119  0.836646  0.576454  1
  Al  Al13  1  0.843377  0.676386  0.078520  1
  Al  Al14  1  0.325881  0.163354  0.423546  1
  Al  Al15  1  0.156623  0.323614  0.921480  1
  Al  Al16  1  0.163214  0.836786  0.574968  1
  Al  Al17  1  0.323614  0.156623  0.078520  1
  Al  Al18  1  0.836786  0.163214  0.425032  1
  Al  Al19  1  0.676386  0.843377  0.921480  1
  Al  Al20  1  0.836674  0.163326  0.075093  1
  Al  Al21  1  0.163326  0.836674  0.924907  1
  Al  Al22  1  0.560404  0.121280  0.249349  1
  Al  Al23  1  0.439596  0.878720  0.750651  1
  Al  Al24  1  0.878720  0.439596  0.249349  1
  Al  Al25  1  0.121280  0.560404  0.750651  1
  Al  Al26  1  0.561388  0.438612  0.252258  1
  Al  Al27  1  0.438612  0.561388  0.747742  1
  Al  Al28  1  0.999606  0.000394  0.250255  1
  Al  Al29  1  0.000394  0.999606  0.749745  1
  Os  Os30  1  0.500000  0.000000  0.000000  1
  Os  Os31  1  0.000000  0.500000  0.000000  1
  Os  Os32  1  0.500000  0.000000  0.500000  1
  Os  Os33  1  0.000000  0.500000  0.500000  1
  Os  Os34  1  0.500000  0.500000  0.500000  1
  Os  Os35  1  0.000000  0.000000  0.000000  1
  Os  Os36  1  0.000000  0.000000  0.500000  1
  Pd  Pd37  1  0.500000  0.500000  0.000000  1
