# generated using pymatgen
data_Dy5Ta3Co16(AsP5)2
_symmetry_space_group_name_H-M   'P 1'
_cell_length_a   12.23494284
_cell_length_b   12.26563555
_cell_length_c   3.71932300
_cell_angle_alpha   90.00000000
_cell_angle_beta   90.00000000
_cell_angle_gamma   120.08301003
_symmetry_Int_Tables_number   1
_chemical_formula_structural   Dy5Ta3Co16(AsP5)2
_chemical_formula_sum   'Dy5 Ta3 Co16 As2 P10'
_cell_volume   482.97277307
_cell_formula_units_Z   1
loop_
 _symmetry_equiv_pos_site_id
 _symmetry_equiv_pos_as_xyz
  1  'x, y, z'
loop_
 _atom_site_type_symbol
 _atom_site_label
 _atom_site_symmetry_multiplicity
 _atom_site_fract_x
 _atom_site_fract_y
 _atom_site_fract_z
 _atom_site_occupancy
  Dy  Dy0  1  0.667704  0.334218  0.000000  1
  Dy  Dy1  1  0.332296  0.666515  0.000000  1
  Dy  Dy2  1  0.178144  0.178156  0.500000  1
  Dy  Dy3  1  0.821856  0.000012  0.500000  1
  Dy  Dy4  1  0.000000  0.815254  0.500000  1
  Ta  Ta5  1  0.561516  0.559707  0.000000  1
  Ta  Ta6  1  0.438484  0.998192  0.000000  1
  Ta  Ta7  1  0.000000  0.445027  0.000000  1
  Co  Co8  1  0.827830  0.204014  0.000000  1
  Co  Co9  1  0.803124  0.625975  0.000000  1
  Co  Co10  1  0.375251  0.171754  0.000000  1
  Co  Co11  1  0.196876  0.822852  0.000000  1
  Co  Co12  1  0.624749  0.796504  0.000000  1
  Co  Co13  1  0.172170  0.376185  0.000000  1
  Co  Co14  1  0.644212  0.131385  0.500000  1
  Co  Co15  1  0.874253  0.518710  0.500000  1
  Co  Co16  1  0.487491  0.356256  0.500000  1
  Co  Co17  1  0.125747  0.644458  0.500000  1
  Co  Co18  1  0.512509  0.868766  0.500000  1
  Co  Co19  1  0.355788  0.487174  0.500000  1
  Co  Co20  1  0.720040  0.718731  0.500000  1
  Co  Co21  1  0.279960  0.998691  0.500000  1
  Co  Co22  1  0.000000  0.281660  0.500000  1
  Co  Co23  1  0.000000  0.000331  0.000000  1
  As  As24  1  0.353322  0.353857  0.000000  1
  As  As25  1  0.646678  0.000535  0.000000  1
  P  P26  1  0.000000  0.644507  0.000000  1
  P  P27  1  0.832787  0.313307  0.500000  1
  P  P28  1  0.690796  0.520985  0.500000  1
  P  P29  1  0.479837  0.168186  0.500000  1
  P  P30  1  0.309204  0.830189  0.500000  1
  P  P31  1  0.520163  0.688349  0.500000  1
  P  P32  1  0.167213  0.480520  0.500000  1
  P  P33  1  0.823492  0.822000  0.000000  1
  P  P34  1  0.176508  0.998508  0.000000  1
  P  P35  1  0.000000  0.178528  0.000000  1
