# generated using pymatgen
data_CaLa4Nd5Ru4
_symmetry_space_group_name_H-M   'P 1'
_cell_length_a   9.01795473
_cell_length_b   9.07539571
_cell_length_c   7.37953746
_cell_angle_alpha   84.29597611
_cell_angle_beta   84.02553244
_cell_angle_gamma   43.22779005
_symmetry_Int_Tables_number   1
_chemical_formula_structural   CaLa4Nd5Ru4
_chemical_formula_sum   'Ca1 La4 Nd5 Ru4'
_cell_volume   411.15470888
_cell_formula_units_Z   1
loop_
 _symmetry_equiv_pos_site_id
 _symmetry_equiv_pos_as_xyz
  1  'x, y, z'
loop_
 _atom_site_type_symbol
 _atom_site_label
 _atom_site_symmetry_multiplicity
 _atom_site_fract_x
 _atom_site_fract_y
 _atom_site_fract_z
 _atom_site_occupancy
  Ca  Ca0  1  0.361802  0.208180  0.813852  1
  La  La1  1  0.016816  0.793298  0.903960  1
  La  La2  1  0.204361  0.985815  0.595341  1
  La  La3  1  0.988034  0.200754  0.092345  1
  La  La4  1  0.792849  0.014030  0.404392  1
  Nd  Nd5  1  0.788630  0.638906  0.681181  1
  Nd  Nd6  1  0.636182  0.791693  0.183208  1
  Nd  Nd7  1  0.208472  0.363828  0.314967  1
  Nd  Nd8  1  0.572419  0.425125  0.749052  1
  Nd  Nd9  1  0.428096  0.572718  0.252043  1
  Ru  Ru10  1  0.156396  0.627547  0.582106  1
  Ru  Ru11  1  0.384404  0.826524  0.917063  1
  Ru  Ru12  1  0.836690  0.391062  0.414441  1
  Ru  Ru13  1  0.624847  0.160518  0.096048  1
