# generated using pymatgen
data_Lu3ThZnIr
_symmetry_space_group_name_H-M   'P 1'
_cell_length_a   9.48285893
_cell_length_b   9.48285809
_cell_length_c   9.48285900
_cell_angle_alpha   60.00000031
_cell_angle_beta   60.00000324
_cell_angle_gamma   59.99999722
_symmetry_Int_Tables_number   1
_chemical_formula_structural   Lu3ThZnIr
_chemical_formula_sum   'Lu12 Th4 Zn4 Ir4'
_cell_volume   602.97990502
_cell_formula_units_Z   4
loop_
 _symmetry_equiv_pos_site_id
 _symmetry_equiv_pos_as_xyz
  1  'x, y, z'
loop_
 _atom_site_type_symbol
 _atom_site_label
 _atom_site_symmetry_multiplicity
 _atom_site_fract_x
 _atom_site_fract_y
 _atom_site_fract_z
 _atom_site_occupancy
  Lu  Lu0  1  0.811216  0.188784  0.188784  1
  Lu  Lu1  1  0.188784  0.811216  0.811216  1
  Lu  Lu2  1  0.188784  0.811216  0.188784  1
  Lu  Lu3  1  0.811216  0.188784  0.811216  1
  Lu  Lu4  1  0.188784  0.188784  0.811216  1
  Lu  Lu5  1  0.811216  0.811216  0.188784  1
  Lu  Lu6  1  0.933708  0.566292  0.566292  1
  Lu  Lu7  1  0.566292  0.933708  0.933708  1
  Lu  Lu8  1  0.566292  0.933708  0.566292  1
  Lu  Lu9  1  0.933708  0.566292  0.933708  1
  Lu  Lu10  1  0.566292  0.566292  0.933708  1
  Lu  Lu11  1  0.933708  0.933708  0.566292  1
  Th  Th12  1  0.354672  0.354672  0.354672  1
  Th  Th13  1  0.354672  0.354672  0.935984  1
  Th  Th14  1  0.354672  0.935984  0.354672  1
  Th  Th15  1  0.935984  0.354672  0.354672  1
  Zn  Zn16  1  0.583621  0.583621  0.583621  1
  Zn  Zn17  1  0.583621  0.583621  0.249137  1
  Zn  Zn18  1  0.583621  0.249137  0.583621  1
  Zn  Zn19  1  0.249137  0.583621  0.583621  1
  Ir  Ir20  1  0.142097  0.142097  0.142097  1
  Ir  Ir21  1  0.142097  0.142097  0.573706  1
  Ir  Ir22  1  0.142097  0.573706  0.142097  1
  Ir  Ir23  1  0.573706  0.142097  0.142097  1
