# generated using pymatgen
data_ErBi3W2O11
_symmetry_space_group_name_H-M   'P 1'
_cell_length_a   6.56138320
_cell_length_b   7.71754755
_cell_length_c   9.85206034
_cell_angle_alpha   100.57626457
_cell_angle_beta   90.42219142
_cell_angle_gamma   90.25621073
_symmetry_Int_Tables_number   1
_chemical_formula_structural   ErBi3W2O11
_chemical_formula_sum   'Er2 Bi6 W4 O22'
_cell_volume   490.38926065
_cell_formula_units_Z   2
loop_
 _symmetry_equiv_pos_site_id
 _symmetry_equiv_pos_as_xyz
  1  'x, y, z'
loop_
 _atom_site_type_symbol
 _atom_site_label
 _atom_site_symmetry_multiplicity
 _atom_site_fract_x
 _atom_site_fract_y
 _atom_site_fract_z
 _atom_site_occupancy
  Er  Er0  1  0.748456  0.375573  0.478556  1
  Er  Er1  1  0.251544  0.624427  0.521444  1
  Bi  Bi2  1  0.753050  0.872223  0.491846  1
  Bi  Bi3  1  0.246950  0.127777  0.508154  1
  Bi  Bi4  1  0.453312  0.937370  0.817088  1
  Bi  Bi5  1  0.546688  0.062630  0.182912  1
  Bi  Bi6  1  0.385236  0.454180  0.825673  1
  Bi  Bi7  1  0.614764  0.545820  0.174327  1
  W  W8  1  0.922266  0.700212  0.809792  1
  W  W9  1  0.077734  0.299788  0.190208  1
  W  W10  1  0.915851  0.199855  0.803373  1
  W  W11  1  0.084149  0.800145  0.196627  1
  O  O12  1  0.229080  0.712197  0.755317  1
  O  O13  1  0.770920  0.287803  0.244683  1
  O  O14  1  0.623719  0.671578  0.837403  1
  O  O15  1  0.376281  0.328422  0.162597  1
  O  O16  1  0.639974  0.250872  0.855138  1
  O  O17  1  0.360026  0.749128  0.144862  1
  O  O18  1  0.876326  0.181708  0.596844  1
  O  O19  1  0.123674  0.818292  0.403156  1
  O  O20  1  0.209065  0.146846  0.758314  1
  O  O21  1  0.790935  0.853154  0.241686  1
  O  O22  1  0.900085  0.622599  0.600789  1
  O  O23  1  0.099915  0.377401  0.399211  1
  O  O24  1  0.001792  0.546125  0.177386  1
  O  O25  1  0.998208  0.453875  0.822614  1
  O  O26  1  0.995821  0.792376  0.993616  1
  O  O27  1  0.004179  0.207624  0.006384  1
  O  O28  1  0.567763  0.600164  0.395644  1
  O  O29  1  0.432237  0.399836  0.604356  1
  O  O30  1  0.173679  0.060521  0.232306  1
  O  O31  1  0.826321  0.939479  0.767694  1
  O  O32  1  0.553798  0.107490  0.403288  1
  O  O33  1  0.446202  0.892510  0.596712  1
