# generated using pymatgen
data_Lu4Mg2Sc(InPt)2
_symmetry_space_group_name_H-M   'P 1'
_cell_length_a   3.57138000
_cell_length_b   7.90846700
_cell_length_c   18.04274700
_cell_angle_alpha   90.00000000
_cell_angle_beta   90.00000000
_cell_angle_gamma   90.00000000
_symmetry_Int_Tables_number   1
_chemical_formula_structural   Lu4Mg2Sc(InPt)2
_chemical_formula_sum   'Lu8 Mg4 Sc2 In4 Pt4'
_cell_volume   509.60188803
_cell_formula_units_Z   2
loop_
 _symmetry_equiv_pos_site_id
 _symmetry_equiv_pos_as_xyz
  1  'x, y, z'
loop_
 _atom_site_type_symbol
 _atom_site_label
 _atom_site_symmetry_multiplicity
 _atom_site_fract_x
 _atom_site_fract_y
 _atom_site_fract_z
 _atom_site_occupancy
  Lu  Lu0  1  0.000000  0.111808  0.414318  1
  Lu  Lu1  1  0.000000  0.888192  0.585682  1
  Lu  Lu2  1  0.000000  0.388192  0.914318  1
  Lu  Lu3  1  0.000000  0.611808  0.085682  1
  Lu  Lu4  1  0.000000  0.252762  0.218594  1
  Lu  Lu5  1  0.000000  0.747238  0.781406  1
  Lu  Lu6  1  0.000000  0.247238  0.718594  1
  Lu  Lu7  1  0.000000  0.752762  0.281406  1
  Mg  Mg8  1  0.500000  0.429386  0.352941  1
  Mg  Mg9  1  0.500000  0.570614  0.647059  1
  Mg  Mg10  1  0.500000  0.070614  0.852941  1
  Mg  Mg11  1  0.500000  0.929386  0.147059  1
  Sc  Sc12  1  0.000000  0.000000  0.000000  1
  Sc  Sc13  1  0.000000  0.500000  0.500000  1
  In  In14  1  0.500000  0.278299  0.062778  1
  In  In15  1  0.500000  0.721701  0.937222  1
  In  In16  1  0.500000  0.221701  0.562778  1
  In  In17  1  0.500000  0.778299  0.437222  1
  Pt  Pt18  1  0.500000  0.037579  0.300985  1
  Pt  Pt19  1  0.500000  0.962421  0.699015  1
  Pt  Pt20  1  0.500000  0.462421  0.800985  1
  Pt  Pt21  1  0.500000  0.537579  0.199015  1
