# generated using pymatgen
data_TbTm5(Sc2Pb3)2
_symmetry_space_group_name_H-M   'P 1'
_cell_length_a   6.34914600
_cell_length_b   8.83021202
_cell_length_c   8.85007688
_cell_angle_alpha   119.92576766
_cell_angle_beta   90.00116796
_cell_angle_gamma   89.99764916
_symmetry_Int_Tables_number   1
_chemical_formula_structural   TbTm5(Sc2Pb3)2
_chemical_formula_sum   'Tb1 Tm5 Sc4 Pb6'
_cell_volume   430.01983914
_cell_formula_units_Z   1
loop_
 _symmetry_equiv_pos_site_id
 _symmetry_equiv_pos_as_xyz
  1  'x, y, z'
loop_
 _atom_site_type_symbol
 _atom_site_label
 _atom_site_symmetry_multiplicity
 _atom_site_fract_x
 _atom_site_fract_y
 _atom_site_fract_z
 _atom_site_occupancy
  Tb  Tb0  1  0.750004  0.236590  0.000000  1
  Tm  Tm1  1  0.749997  0.762644  0.762627  1
  Tm  Tm2  1  0.749997  0.000017  0.237373  1
  Tm  Tm3  1  0.249991  0.763976  0.000000  1
  Tm  Tm4  1  0.249998  0.237025  0.237722  1
  Tm  Tm5  1  0.249998  0.999303  0.762278  1
  Sc  Sc6  1  0.500016  0.333694  0.667233  1
  Sc  Sc7  1  0.500016  0.666461  0.332767  1
  Sc  Sc8  1  0.999996  0.666498  0.332783  1
  Sc  Sc9  1  0.999996  0.333715  0.667217  1
  Pb  Pb10  1  0.750064  0.602342  0.000000  1
  Pb  Pb11  1  0.750017  0.399121  0.400554  1
  Pb  Pb12  1  0.750017  0.998568  0.599446  1
  Pb  Pb13  1  0.249948  0.398780  0.000000  1
  Pb  Pb14  1  0.249973  0.601369  0.601471  1
  Pb  Pb15  1  0.249973  0.999899  0.398529  1
