# generated using pymatgen
data_SrAcSi4
_symmetry_space_group_name_H-M   'P 1'
_cell_length_a   7.58147376
_cell_length_b   7.58147374
_cell_length_c   7.58147431
_cell_angle_alpha   145.34941052
_cell_angle_beta   145.34940900
_cell_angle_gamma   49.81412909
_symmetry_Int_Tables_number   1
_chemical_formula_structural   SrAcSi4
_chemical_formula_sum   'Sr1 Ac1 Si4'
_cell_volume   140.20489923
_cell_formula_units_Z   1
loop_
 _symmetry_equiv_pos_site_id
 _symmetry_equiv_pos_as_xyz
  1  'x, y, z'
loop_
 _atom_site_type_symbol
 _atom_site_label
 _atom_site_symmetry_multiplicity
 _atom_site_fract_x
 _atom_site_fract_y
 _atom_site_fract_z
 _atom_site_occupancy
  Sr  Sr0  1  0.000000  0.000000  0.000000  1
  Ac  Ac1  1  0.250000  0.750000  0.500000  1
  Si  Si2  1  0.665784  0.165784  0.500000  1
  Si  Si3  1  0.585102  0.585102  0.000000  1
  Si  Si4  1  0.834216  0.334216  0.500000  1
  Si  Si5  1  0.414898  0.414898  0.000000  1
