# generated using pymatgen
data_Ac3Ga4Cl
_symmetry_space_group_name_H-M   'P 1'
_cell_length_a   8.43069179
_cell_length_b   8.43069052
_cell_length_c   8.43069141
_cell_angle_alpha   119.59703842
_cell_angle_beta   119.59703765
_cell_angle_gamma   90.69938312
_symmetry_Int_Tables_number   1
_chemical_formula_structural   Ac3Ga4Cl
_chemical_formula_sum   'Ac6 Ga8 Cl2'
_cell_volume   426.26205515
_cell_formula_units_Z   2
loop_
 _symmetry_equiv_pos_site_id
 _symmetry_equiv_pos_as_xyz
  1  'x, y, z'
loop_
 _atom_site_type_symbol
 _atom_site_label
 _atom_site_symmetry_multiplicity
 _atom_site_fract_x
 _atom_site_fract_y
 _atom_site_fract_z
 _atom_site_occupancy
  Ac  Ac0  1  0.839606  0.660394  0.500000  1
  Ac  Ac1  1  0.660394  0.160394  0.820789  1
  Ac  Ac2  1  0.339606  0.839606  0.179211  1
  Ac  Ac3  1  0.160394  0.339606  0.500000  1
  Ac  Ac4  1  0.250000  0.250000  0.000000  1
  Ac  Ac5  1  0.750000  0.750000  0.000000  1
  Ga  Ga6  1  0.161012  0.942697  0.500000  1
  Ga  Ga7  1  0.442697  0.661012  0.500000  1
  Ga  Ga8  1  0.557303  0.338988  0.500000  1
  Ga  Ga9  1  0.661012  0.161012  0.218316  1
  Ga  Ga10  1  0.838988  0.057303  0.500000  1
  Ga  Ga11  1  0.057303  0.557303  0.218316  1
  Ga  Ga12  1  0.338988  0.838988  0.781684  1
  Ga  Ga13  1  0.942697  0.442697  0.781684  1
  Cl  Cl14  1  0.000000  0.000000  0.000000  1
  Cl  Cl15  1  0.500000  0.500000  0.000000  1
