# generated using pymatgen
data_Nd2Tm4Co17MoP12
_symmetry_space_group_name_H-M   'P 1'
_cell_length_a   3.70945600
_cell_length_b   10.54792100
_cell_length_c   12.24149600
_cell_angle_alpha   90.00000000
_cell_angle_beta   90.00000000
_cell_angle_gamma   90.00000000
_symmetry_Int_Tables_number   1
_chemical_formula_structural   Nd2Tm4Co17MoP12
_chemical_formula_sum   'Nd2 Tm4 Co17 Mo1 P12'
_cell_volume   478.97361188
_cell_formula_units_Z   1
loop_
 _symmetry_equiv_pos_site_id
 _symmetry_equiv_pos_as_xyz
  1  'x, y, z'
loop_
 _atom_site_type_symbol
 _atom_site_label
 _atom_site_symmetry_multiplicity
 _atom_site_fract_x
 _atom_site_fract_y
 _atom_site_fract_z
 _atom_site_occupancy
  Nd  Nd0  1  0.000000  0.500000  0.525756  1
  Nd  Nd1  1  0.500000  0.000000  0.477651  1
  Tm  Tm2  1  0.500000  0.818316  0.205210  1
  Tm  Tm3  1  0.500000  0.181684  0.205210  1
  Tm  Tm4  1  0.000000  0.682807  0.796988  1
  Tm  Tm5  1  0.000000  0.317193  0.796988  1
  Co  Co6  1  0.000000  0.000000  0.841812  1
  Co  Co7  1  0.500000  0.500000  0.705491  1
  Co  Co8  1  0.000000  0.000000  0.292812  1
  Co  Co9  1  0.000000  0.500000  0.985507  1
  Co  Co10  1  0.500000  0.000000  0.014289  1
  Co  Co11  1  0.500000  0.330923  0.990201  1
  Co  Co12  1  0.500000  0.669077  0.990201  1
  Co  Co13  1  0.000000  0.165766  0.005692  1
  Co  Co14  1  0.000000  0.834234  0.005692  1
  Co  Co15  1  0.500000  0.295141  0.430101  1
  Co  Co16  1  0.500000  0.704859  0.430101  1
  Co  Co17  1  0.000000  0.203731  0.571249  1
  Co  Co18  1  0.000000  0.796269  0.571249  1
  Co  Co19  1  0.500000  0.879236  0.711844  1
  Co  Co20  1  0.500000  0.120764  0.711844  1
  Co  Co21  1  0.000000  0.622186  0.289433  1
  Co  Co22  1  0.000000  0.377814  0.289433  1
  Mo  Mo23  1  0.500000  0.500000  0.153958  1
  P  P24  1  0.500000  0.500000  0.881401  1
  P  P25  1  0.000000  0.000000  0.116606  1
  P  P26  1  0.500000  0.500000  0.345717  1
  P  P27  1  0.000000  0.000000  0.660068  1
  P  P28  1  0.500000  0.307525  0.619501  1
  P  P29  1  0.500000  0.692475  0.619501  1
  P  P30  1  0.000000  0.191447  0.382348  1
  P  P31  1  0.000000  0.808553  0.382348  1
  P  P32  1  0.500000  0.848839  0.892051  1
  P  P33  1  0.500000  0.151161  0.892051  1
  P  P34  1  0.000000  0.657686  0.104848  1
  P  P35  1  0.000000  0.342314  0.104848  1
