# generated using pymatgen
data_Hf4Ir2O
_symmetry_space_group_name_H-M   'P 1'
_cell_length_a   8.74764853
_cell_length_b   8.74764841
_cell_length_c   8.74764800
_cell_angle_alpha   60.00000156
_cell_angle_beta   60.00000199
_cell_angle_gamma   59.99999872
_symmetry_Int_Tables_number   1
_chemical_formula_structural   Hf4Ir2O
_chemical_formula_sum   'Hf16 Ir8 O4'
_cell_volume   473.32446561
_cell_formula_units_Z   4
loop_
 _symmetry_equiv_pos_site_id
 _symmetry_equiv_pos_as_xyz
  1  'x, y, z'
loop_
 _atom_site_type_symbol
 _atom_site_label
 _atom_site_symmetry_multiplicity
 _atom_site_fract_x
 _atom_site_fract_y
 _atom_site_fract_z
 _atom_site_occupancy
  Hf  Hf0  1  0.125000  0.625000  0.625000  1
  Hf  Hf1  1  0.625000  0.125000  0.625000  1
  Hf  Hf2  1  0.625000  0.625000  0.125000  1
  Hf  Hf3  1  0.625000  0.625000  0.625000  1
  Hf  Hf4  1  0.814537  0.814537  0.185463  1
  Hf  Hf5  1  0.185463  0.185463  0.814537  1
  Hf  Hf6  1  0.814537  0.185463  0.814537  1
  Hf  Hf7  1  0.185463  0.814537  0.185463  1
  Hf  Hf8  1  0.185463  0.814537  0.814537  1
  Hf  Hf9  1  0.814537  0.185463  0.185463  1
  Hf  Hf10  1  0.435463  0.435463  0.064537  1
  Hf  Hf11  1  0.064537  0.064537  0.435463  1
  Hf  Hf12  1  0.435463  0.064537  0.435463  1
  Hf  Hf13  1  0.064537  0.435463  0.064537  1
  Hf  Hf14  1  0.064537  0.435463  0.435463  1
  Hf  Hf15  1  0.435463  0.064537  0.064537  1
  Ir  Ir16  1  0.783755  0.405415  0.405415  1
  Ir  Ir17  1  0.405415  0.783755  0.405415  1
  Ir  Ir18  1  0.405415  0.405415  0.783755  1
  Ir  Ir19  1  0.405415  0.405415  0.405415  1
  Ir  Ir20  1  0.466245  0.844585  0.844585  1
  Ir  Ir21  1  0.844585  0.466245  0.844585  1
  Ir  Ir22  1  0.844585  0.844585  0.466245  1
  Ir  Ir23  1  0.844585  0.844585  0.844585  1
  O  O24  1  0.625000  0.125000  0.125000  1
  O  O25  1  0.125000  0.625000  0.125000  1
  O  O26  1  0.125000  0.125000  0.625000  1
  O  O27  1  0.125000  0.125000  0.125000  1
