# generated using pymatgen
data_Ac3La(Si3Rh)2
_symmetry_space_group_name_H-M   'P 1'
_cell_length_a   8.41877700
_cell_length_b   8.41877660
_cell_length_c   4.48296500
_cell_angle_alpha   90.00000000
_cell_angle_beta   90.00000000
_cell_angle_gamma   120.00000550
_symmetry_Int_Tables_number   1
_chemical_formula_structural   Ac3La(Si3Rh)2
_chemical_formula_sum   'Ac3 La1 Si6 Rh2'
_cell_volume   275.16547811
_cell_formula_units_Z   1
loop_
 _symmetry_equiv_pos_site_id
 _symmetry_equiv_pos_as_xyz
  1  'x, y, z'
loop_
 _atom_site_type_symbol
 _atom_site_label
 _atom_site_symmetry_multiplicity
 _atom_site_fract_x
 _atom_site_fract_y
 _atom_site_fract_z
 _atom_site_occupancy
  Ac  Ac0  1  0.000000  0.500000  0.500000  1
  Ac  Ac1  1  0.500000  0.500000  0.500000  1
  Ac  Ac2  1  0.500000  0.000000  0.500000  1
  La  La3  1  0.000000  0.000000  0.500000  1
  Si  Si4  1  0.164669  0.329339  0.000000  1
  Si  Si5  1  0.670661  0.835331  0.000000  1
  Si  Si6  1  0.329339  0.164669  0.000000  1
  Si  Si7  1  0.164669  0.835331  0.000000  1
  Si  Si8  1  0.835331  0.670661  0.000000  1
  Si  Si9  1  0.835331  0.164669  0.000000  1
  Rh  Rh10  1  0.333333  0.666667  0.000000  1
  Rh  Rh11  1  0.666667  0.333333  0.000000  1
