# generated using pymatgen
data_AlZn4ReN6
_symmetry_space_group_name_H-M   'P 1'
_cell_length_a   5.69685841
_cell_length_b   5.69685994
_cell_length_c   5.31990805
_cell_angle_alpha   89.93897756
_cell_angle_beta   89.93897660
_cell_angle_gamma   119.81896878
_symmetry_Int_Tables_number   1
_chemical_formula_structural   AlZn4ReN6
_chemical_formula_sum   'Al1 Zn4 Re1 N6'
_cell_volume   149.79388859
_cell_formula_units_Z   1
loop_
 _symmetry_equiv_pos_site_id
 _symmetry_equiv_pos_as_xyz
  1  'x, y, z'
loop_
 _atom_site_type_symbol
 _atom_site_label
 _atom_site_symmetry_multiplicity
 _atom_site_fract_x
 _atom_site_fract_y
 _atom_site_fract_z
 _atom_site_occupancy
  Al  Al0  1  0.180440  0.180439  0.042878  1
  Zn  Zn1  1  0.498339  0.167300  0.509356  1
  Zn  Zn2  1  0.167300  0.498339  0.509356  1
  Zn  Zn3  1  0.469914  0.831247  0.037310  1
  Zn  Zn4  1  0.831247  0.469914  0.037310  1
  Re  Re5  1  0.840034  0.840034  0.538875  1
  N  N6  1  0.482030  0.167715  0.139182  1
  N  N7  1  0.167715  0.482030  0.139182  1
  N  N8  1  0.527250  0.832136  0.641784  1
  N  N9  1  0.832136  0.527250  0.641784  1
  N  N10  1  0.140220  0.140220  0.677605  1
  N  N11  1  0.863374  0.863374  0.196620  1
