# generated using pymatgen
data_Ac4Ag5Sn3
_symmetry_space_group_name_H-M   'P 1'
_cell_length_a   4.98907300
_cell_length_b   7.88735293
_cell_length_c   8.62561800
_cell_angle_alpha   90.43939032
_cell_angle_beta   90.00000000
_cell_angle_gamma   90.00000000
_symmetry_Int_Tables_number   1
_chemical_formula_structural   Ac4Ag5Sn3
_chemical_formula_sum   'Ac4 Ag5 Sn3'
_cell_volume   339.41308639
_cell_formula_units_Z   1
loop_
 _symmetry_equiv_pos_site_id
 _symmetry_equiv_pos_as_xyz
  1  'x, y, z'
loop_
 _atom_site_type_symbol
 _atom_site_label
 _atom_site_symmetry_multiplicity
 _atom_site_fract_x
 _atom_site_fract_y
 _atom_site_fract_z
 _atom_site_occupancy
  Ac  Ac0  1  0.500000  0.503669  0.790582  1
  Ac  Ac1  1  0.500000  0.997298  0.711087  1
  Ac  Ac2  1  0.000000  0.506548  0.219463  1
  Ac  Ac3  1  0.000000  0.994403  0.280828  1
  Ag  Ag4  1  0.500000  0.803348  0.082239  1
  Ag  Ag5  1  0.500000  0.297271  0.421969  1
  Ag  Ag6  1  0.000000  0.186567  0.915796  1
  Ag  Ag7  1  0.000000  0.692637  0.577084  1
  Ag  Ag8  1  0.500000  0.717273  0.412313  1
  Sn  Sn9  1  0.500000  0.217570  0.091165  1
  Sn  Sn10  1  0.000000  0.294551  0.586502  1
  Sn  Sn11  1  0.000000  0.788866  0.910973  1
