# generated using pymatgen
data_Ac4(Sn3Pb)3
_symmetry_space_group_name_H-M   'P 1'
_cell_length_a   6.96786786
_cell_length_b   6.96786754
_cell_length_c   12.37822413
_cell_angle_alpha   89.99999975
_cell_angle_beta   73.65283606
_cell_angle_gamma   120.00000869
_symmetry_Int_Tables_number   1
_chemical_formula_structural   Ac4(Sn3Pb)3
_chemical_formula_sum   'Ac4 Sn9 Pb3'
_cell_volume   492.20818763
_cell_formula_units_Z   1
loop_
 _symmetry_equiv_pos_site_id
 _symmetry_equiv_pos_as_xyz
  1  'x, y, z'
loop_
 _atom_site_type_symbol
 _atom_site_label
 _atom_site_symmetry_multiplicity
 _atom_site_fract_x
 _atom_site_fract_y
 _atom_site_fract_z
 _atom_site_occupancy
  Ac  Ac0  1  0.587345  0.293672  0.118984  1
  Ac  Ac1  1  0.742271  0.871136  0.386593  1
  Ac  Ac2  1  0.251455  0.125728  0.622819  1
  Ac  Ac3  1  0.421028  0.710515  0.868457  1
  Sn  Sn4  1  0.233651  0.840796  0.373494  1
  Sn  Sn5  1  0.233652  0.392856  0.373494  1
  Sn  Sn6  1  0.785708  0.392855  0.373494  1
  Sn  Sn7  1  0.209417  0.604708  0.629855  1
  Sn  Sn8  1  0.765436  0.604708  0.629855  1
  Sn  Sn9  1  0.765435  0.160728  0.629855  1
  Sn  Sn10  1  0.419072  0.209536  0.871683  1
  Sn  Sn11  1  0.918781  0.709246  0.871683  1
  Sn  Sn12  1  0.918780  0.209537  0.871683  1
  Pb  Pb13  1  0.082254  0.791733  0.126015  1
  Pb  Pb14  1  0.082253  0.290520  0.126015  1
  Pb  Pb15  1  0.583466  0.791732  0.126015  1
