# generated using pymatgen
data_Hf4ReSi3N
_symmetry_space_group_name_H-M   'P 1'
_cell_length_a   7.69764000
_cell_length_b   7.69764018
_cell_length_c   5.41771300
_cell_angle_alpha   90.00000000
_cell_angle_beta   90.00000000
_cell_angle_gamma   119.99999922
_symmetry_Int_Tables_number   1
_chemical_formula_structural   Hf4ReSi3N
_chemical_formula_sum   'Hf8 Re2 Si6 N2'
_cell_volume   278.01090591
_cell_formula_units_Z   2
loop_
 _symmetry_equiv_pos_site_id
 _symmetry_equiv_pos_as_xyz
  1  'x, y, z'
loop_
 _atom_site_type_symbol
 _atom_site_label
 _atom_site_symmetry_multiplicity
 _atom_site_fract_x
 _atom_site_fract_y
 _atom_site_fract_z
 _atom_site_occupancy
  Hf  Hf0  1  0.235072  0.000000  0.250052  1
  Hf  Hf1  1  0.764928  0.000000  0.749948  1
  Hf  Hf2  1  0.000000  0.235072  0.250052  1
  Hf  Hf3  1  0.000000  0.764928  0.749948  1
  Hf  Hf4  1  0.764928  0.764928  0.250052  1
  Hf  Hf5  1  0.235072  0.235072  0.749948  1
  Hf  Hf6  1  0.666667  0.333333  0.500000  1
  Hf  Hf7  1  0.333333  0.666667  0.500000  1
  Re  Re8  1  0.333333  0.666667  0.000000  1
  Re  Re9  1  0.666667  0.333333  0.000000  1
  Si  Si10  1  0.591556  0.000000  0.227055  1
  Si  Si11  1  0.408444  0.000000  0.772945  1
  Si  Si12  1  0.000000  0.591556  0.227055  1
  Si  Si13  1  0.000000  0.408444  0.772945  1
  Si  Si14  1  0.408444  0.408444  0.227055  1
  Si  Si15  1  0.591556  0.591556  0.772945  1
  N  N16  1  0.000000  0.000000  0.000000  1
  N  N17  1  0.000000  0.000000  0.500000  1
