# generated using pymatgen
data_Er8Tm8Cd4IrPt3
_symmetry_space_group_name_H-M   'P 1'
_cell_length_a   9.58461192
_cell_length_b   9.54370451
_cell_length_c   9.55432500
_cell_angle_alpha   59.96317770
_cell_angle_beta   60.10447202
_cell_angle_gamma   60.18085190
_symmetry_Int_Tables_number   1
_chemical_formula_structural   Er8Tm8Cd4IrPt3
_chemical_formula_sum   'Er8 Tm8 Cd4 Ir1 Pt3'
_cell_volume   619.13841217
_cell_formula_units_Z   1
loop_
 _symmetry_equiv_pos_site_id
 _symmetry_equiv_pos_as_xyz
  1  'x, y, z'
loop_
 _atom_site_type_symbol
 _atom_site_label
 _atom_site_symmetry_multiplicity
 _atom_site_fract_x
 _atom_site_fract_y
 _atom_site_fract_z
 _atom_site_occupancy
  Er  Er0  1  0.441695  0.439068  0.059619  1
  Er  Er1  1  0.059188  0.064401  0.438205  1
  Er  Er2  1  0.186270  0.814166  0.814248  1
  Er  Er3  1  0.815752  0.186544  0.185786  1
  Er  Er4  1  0.815752  0.186544  0.811918  1
  Er  Er5  1  0.186270  0.814166  0.185317  1
  Er  Er6  1  0.816975  0.813699  0.184663  1
  Er  Er7  1  0.187943  0.186957  0.812551  1
  Tm  Tm8  1  0.603519  0.599480  0.597335  1
  Tm  Tm9  1  0.603519  0.599480  0.199664  1
  Tm  Tm10  1  0.606398  0.194214  0.599694  1
  Tm  Tm11  1  0.186307  0.606633  0.603530  1
  Tm  Tm12  1  0.058247  0.439489  0.439604  1
  Tm  Tm13  1  0.441135  0.059609  0.059359  1
  Tm  Tm14  1  0.441135  0.059609  0.439897  1
  Tm  Tm15  1  0.058247  0.439489  0.062661  1
  Cd  Cd16  1  0.830702  0.830947  0.832964  1
  Cd  Cd17  1  0.830702  0.830947  0.505387  1
  Cd  Cd18  1  0.830406  0.503902  0.832846  1
  Cd  Cd19  1  0.505646  0.830169  0.832093  1
  Ir  Ir20  1  0.822814  0.391494  0.392846  1
  Pt  Pt21  1  0.390471  0.393739  0.396836  1
  Pt  Pt22  1  0.390471  0.393739  0.818954  1
  Pt  Pt23  1  0.390440  0.821512  0.394024  1
