# generated using pymatgen
data_Cs2Mg2AlGaP4
_symmetry_space_group_name_H-M   'P 1'
_cell_length_a   8.01548543
_cell_length_b   8.01548574
_cell_length_c   5.99333300
_cell_angle_alpha   90.00000000
_cell_angle_beta   90.00000000
_cell_angle_gamma   136.16395087
_symmetry_Int_Tables_number   1
_chemical_formula_structural   Cs2Mg2AlGaP4
_chemical_formula_sum   'Cs2 Mg2 Al1 Ga1 P4'
_cell_volume   266.69126044
_cell_formula_units_Z   1
loop_
 _symmetry_equiv_pos_site_id
 _symmetry_equiv_pos_as_xyz
  1  'x, y, z'
loop_
 _atom_site_type_symbol
 _atom_site_label
 _atom_site_symmetry_multiplicity
 _atom_site_fract_x
 _atom_site_fract_y
 _atom_site_fract_z
 _atom_site_occupancy
  Cs  Cs0  1  0.500000  0.000000  0.252731  1
  Cs  Cs1  1  0.000000  0.500000  0.747269  1
  Mg  Mg2  1  0.500000  0.500000  0.500000  1
  Mg  Mg3  1  0.500000  0.500000  0.000000  1
  Al  Al4  1  0.000000  0.000000  0.000000  1
  Ga  Ga5  1  0.000000  0.000000  0.500000  1
  P  P6  1  0.681461  0.865578  0.752190  1
  P  P7  1  0.134422  0.318539  0.247810  1
  P  P8  1  0.865578  0.681461  0.247810  1
  P  P9  1  0.318539  0.134422  0.752190  1
