# generated using pymatgen
data_Yb2FeRh3
_symmetry_space_group_name_H-M   'P 1'
_cell_length_a   5.05975552
_cell_length_b   5.05976822
_cell_length_c   5.05975966
_cell_angle_alpha   64.72488711
_cell_angle_beta   64.72459026
_cell_angle_gamma   64.72482274
_symmetry_Int_Tables_number   1
_chemical_formula_structural   Yb2FeRh3
_chemical_formula_sum   'Yb2 Fe1 Rh3'
_cell_volume   101.06872780
_cell_formula_units_Z   1
loop_
 _symmetry_equiv_pos_site_id
 _symmetry_equiv_pos_as_xyz
  1  'x, y, z'
loop_
 _atom_site_type_symbol
 _atom_site_label
 _atom_site_symmetry_multiplicity
 _atom_site_fract_x
 _atom_site_fract_y
 _atom_site_fract_z
 _atom_site_occupancy
  Yb  Yb0  1  0.373508  0.373507  0.373507  1
  Yb  Yb1  1  0.626492  0.626493  0.626493  1
  Fe  Fe2  1  0.000000  0.000000  0.000000  1
  Rh  Rh3  1  0.500000  0.000000  0.000000  1
  Rh  Rh4  1  0.000000  0.500000  0.000000  1
  Rh  Rh5  1  0.000000  0.000000  0.500000  1
