# generated using pymatgen
data_Tb3Tl2InAg2Ir
_symmetry_space_group_name_H-M   'P 1'
_cell_length_a   8.02844796
_cell_length_b   8.11103058
_cell_length_c   3.77037500
_cell_angle_alpha   90.00000000
_cell_angle_beta   90.00000000
_cell_angle_gamma   120.01134386
_symmetry_Int_Tables_number   1
_chemical_formula_structural   Tb3Tl2InAg2Ir
_chemical_formula_sum   'Tb3 Tl2 In1 Ag2 Ir1'
_cell_volume   212.60484612
_cell_formula_units_Z   1
loop_
 _symmetry_equiv_pos_site_id
 _symmetry_equiv_pos_as_xyz
  1  'x, y, z'
loop_
 _atom_site_type_symbol
 _atom_site_label
 _atom_site_symmetry_multiplicity
 _atom_site_fract_x
 _atom_site_fract_y
 _atom_site_fract_z
 _atom_site_occupancy
  Tb  Tb0  1  0.421922  0.388937  0.000000  1
  Tb  Tb1  1  0.611518  0.034416  0.000000  1
  Tb  Tb2  1  0.963445  0.573958  0.000000  1
  Tl  Tl3  1  0.014050  0.278912  0.500000  1
  Tl  Tl4  1  0.723372  0.732314  0.500000  1
  In  In5  1  0.267583  0.992342  0.500000  1
  Ag  Ag6  1  0.007686  0.999698  0.000000  1
  Ag  Ag7  1  0.331790  0.672826  0.500000  1
  Ir  Ir8  1  0.658635  0.326598  0.500000  1
