# generated using pymatgen
data_Ta2Nb11Co8Os3C4
_symmetry_space_group_name_H-M   'P 1'
_cell_length_a   8.19654906
_cell_length_b   8.14017945
_cell_length_c   8.19778700
_cell_angle_alpha   59.76561524
_cell_angle_beta   59.99499976
_cell_angle_gamma   59.75939444
_symmetry_Int_Tables_number   1
_chemical_formula_structural   Ta2Nb11Co8Os3C4
_chemical_formula_sum   'Ta2 Nb11 Co8 Os3 C4'
_cell_volume   385.35587918
_cell_formula_units_Z   1
loop_
 _symmetry_equiv_pos_site_id
 _symmetry_equiv_pos_as_xyz
  1  'x, y, z'
loop_
 _atom_site_type_symbol
 _atom_site_label
 _atom_site_symmetry_multiplicity
 _atom_site_fract_x
 _atom_site_fract_y
 _atom_site_fract_z
 _atom_site_occupancy
  Ta  Ta0  1  0.625129  0.124912  0.624979  1
  Ta  Ta1  1  0.803888  0.802613  0.196750  1
  Nb  Nb2  1  0.186831  0.194605  0.809282  1
  Nb  Nb3  1  0.809441  0.194228  0.809567  1
  Nb  Nb4  1  0.195996  0.803040  0.196363  1
  Nb  Nb5  1  0.195996  0.803040  0.804601  1
  Nb  Nb6  1  0.809441  0.194228  0.186764  1
  Nb  Nb7  1  0.445329  0.446676  0.053998  1
  Nb  Nb8  1  0.063327  0.055655  0.440509  1
  Nb  Nb9  1  0.440438  0.055665  0.440842  1
  Nb  Nb10  1  0.053929  0.446744  0.053484  1
  Nb  Nb11  1  0.053929  0.446744  0.445843  1
  Nb  Nb12  1  0.440438  0.055665  0.063055  1
  Co  Co13  1  0.731723  0.426106  0.421085  1
  Co  Co14  1  0.425159  0.725356  0.424742  1
  Co  Co15  1  0.421353  0.425903  0.731601  1
  Co  Co16  1  0.421353  0.425903  0.421143  1
  Co  Co17  1  0.518548  0.824016  0.828718  1
  Co  Co18  1  0.825061  0.524950  0.824995  1
  Co  Co19  1  0.828750  0.824270  0.517760  1
  Co  Co20  1  0.828750  0.824270  0.829220  1
  Os  Os21  1  0.124958  0.625286  0.624878  1
  Os  Os22  1  0.625595  0.625528  0.124899  1
  Os  Os23  1  0.625595  0.625528  0.623978  1
  C  C24  1  0.625845  0.123495  0.125330  1
  C  C25  1  0.123368  0.625805  0.125414  1
  C  C26  1  0.124917  0.124884  0.625122  1
  C  C27  1  0.124917  0.124884  0.125077  1
