# generated using pymatgen
data_BaPmAgAu3
_symmetry_space_group_name_H-M   'P 1'
_cell_length_a   4.82542600
_cell_length_b   4.82542557
_cell_length_c   7.99835200
_cell_angle_alpha   90.00000000
_cell_angle_beta   90.00000000
_cell_angle_gamma   120.00000297
_symmetry_Int_Tables_number   1
_chemical_formula_structural   BaPmAgAu3
_chemical_formula_sum   'Ba1 Pm1 Ag1 Au3'
_cell_volume   161.28813223
_cell_formula_units_Z   1
loop_
 _symmetry_equiv_pos_site_id
 _symmetry_equiv_pos_as_xyz
  1  'x, y, z'
loop_
 _atom_site_type_symbol
 _atom_site_label
 _atom_site_symmetry_multiplicity
 _atom_site_fract_x
 _atom_site_fract_y
 _atom_site_fract_z
 _atom_site_occupancy
  Ba  Ba0  1  0.000000  0.000000  0.003971  1
  Pm  Pm1  1  0.000000  0.000000  0.492184  1
  Ag  Ag2  1  0.333333  0.666666  0.703102  1
  Au  Au3  1  0.666667  0.333333  0.297909  1
  Au  Au4  1  0.333333  0.666666  0.299848  1
  Au  Au5  1  0.666667  0.333333  0.702984  1
