# generated using pymatgen
data_Pr8MgSc10Si16Tc
_symmetry_space_group_name_H-M   'P 1'
_cell_length_a   7.16801696
_cell_length_b   7.55938500
_cell_length_c   14.12649700
_cell_angle_alpha   90.00000000
_cell_angle_beta   90.00000000
_cell_angle_gamma   89.88659345
_symmetry_Int_Tables_number   1
_chemical_formula_structural   Pr8MgSc10Si16Tc
_chemical_formula_sum   'Pr8 Mg1 Sc10 Si16 Tc1'
_cell_volume   765.45404020
_cell_formula_units_Z   1
loop_
 _symmetry_equiv_pos_site_id
 _symmetry_equiv_pos_as_xyz
  1  'x, y, z'
loop_
 _atom_site_type_symbol
 _atom_site_label
 _atom_site_symmetry_multiplicity
 _atom_site_fract_x
 _atom_site_fract_y
 _atom_site_fract_z
 _atom_site_occupancy
  Pr  Pr0  1  0.010278  0.176222  0.402776  1
  Pr  Pr1  1  0.517224  0.326853  0.403122  1
  Pr  Pr2  1  0.492624  0.677653  0.899047  1
  Pr  Pr3  1  0.492624  0.677653  0.600953  1
  Pr  Pr4  1  0.985409  0.831155  0.601540  1
  Pr  Pr5  1  0.985409  0.831155  0.898460  1
  Pr  Pr6  1  0.517224  0.326853  0.096878  1
  Pr  Pr7  1  0.010278  0.176222  0.097224  1
  Mg  Mg8  1  0.845466  0.501834  0.250000  1
  Sc  Sc9  1  0.327574  0.169854  0.627552  1
  Sc  Sc10  1  0.674640  0.820894  0.377726  1
  Sc  Sc11  1  0.168937  0.674742  0.375729  1
  Sc  Sc12  1  0.824722  0.319867  0.873103  1
  Sc  Sc13  1  0.824722  0.319867  0.626897  1
  Sc  Sc14  1  0.343171  0.998375  0.250000  1
  Sc  Sc15  1  0.327574  0.169854  0.872448  1
  Sc  Sc16  1  0.168937  0.674742  0.124271  1
  Sc  Sc17  1  0.674640  0.820894  0.122274  1
  Sc  Sc18  1  0.158954  0.495255  0.750000  1
  Si  Si19  1  0.297409  0.884791  0.750000  1
  Si  Si20  1  0.462366  0.625603  0.250000  1
  Si  Si21  1  0.021047  0.117570  0.750000  1
  Si  Si22  1  0.531240  0.366280  0.750000  1
  Si  Si23  1  0.153392  0.464835  0.540362  1
  Si  Si24  1  0.969329  0.884726  0.250000  1
  Si  Si25  1  0.709509  0.102927  0.250000  1
  Si  Si26  1  0.850999  0.539883  0.032998  1
  Si  Si27  1  0.347150  0.964895  0.038155  1
  Si  Si28  1  0.153392  0.464835  0.959638  1
  Si  Si29  1  0.648255  0.036800  0.547968  1
  Si  Si30  1  0.347150  0.964895  0.461845  1
  Si  Si31  1  0.850999  0.539883  0.467002  1
  Si  Si32  1  0.791436  0.609819  0.750000  1
  Si  Si33  1  0.223604  0.382908  0.250000  1
  Si  Si34  1  0.648255  0.036800  0.952032  1
  Tc  Tc35  1  0.644062  0.022604  0.750000  1
