# generated using pymatgen
data_Dy3HoRe2(B8Mo)2
_symmetry_space_group_name_H-M   'P 1'
_cell_length_a   3.61803500
_cell_length_b   6.00062297
_cell_length_c   11.60914254
_cell_angle_alpha   89.97095562
_cell_angle_beta   90.00000000
_cell_angle_gamma   90.00000000
_symmetry_Int_Tables_number   1
_chemical_formula_structural   Dy3HoRe2(B8Mo)2
_chemical_formula_sum   'Dy3 Ho1 Re2 B16 Mo2'
_cell_volume   252.03983810
_cell_formula_units_Z   1
loop_
 _symmetry_equiv_pos_site_id
 _symmetry_equiv_pos_as_xyz
  1  'x, y, z'
loop_
 _atom_site_type_symbol
 _atom_site_label
 _atom_site_symmetry_multiplicity
 _atom_site_fract_x
 _atom_site_fract_y
 _atom_site_fract_z
 _atom_site_occupancy
  Dy  Dy0  1  0.000000  0.627877  0.149378  1
  Dy  Dy1  1  0.000000  0.372142  0.850574  1
  Dy  Dy2  1  0.000000  0.126646  0.349282  1
  Ho  Ho3  1  0.000000  0.873303  0.650679  1
  Re  Re4  1  0.000000  0.134460  0.086875  1
  Re  Re5  1  0.000000  0.865509  0.912865  1
  B  B6  1  0.500000  0.977098  0.191440  1
  B  B7  1  0.500000  0.022733  0.808341  1
  B  B8  1  0.500000  0.476130  0.305833  1
  B  B9  1  0.500000  0.524146  0.694223  1
  B  B10  1  0.500000  0.789127  0.313547  1
  B  B11  1  0.500000  0.210441  0.686458  1
  B  B12  1  0.500000  0.285539  0.184387  1
  B  B13  1  0.500000  0.714525  0.815441  1
  B  B14  1  0.500000  0.867194  0.467801  1
  B  B15  1  0.500000  0.132694  0.532512  1
  B  B16  1  0.500000  0.363250  0.030781  1
  B  B17  1  0.500000  0.636790  0.969136  1
  B  B18  1  0.500000  0.886847  0.047174  1
  B  B19  1  0.500000  0.113094  0.952708  1
  B  B20  1  0.500000  0.385151  0.452530  1
  B  B21  1  0.500000  0.615253  0.547792  1
  Mo  Mo22  1  0.000000  0.629358  0.415405  1
  Mo  Mo23  1  0.000000  0.370695  0.584839  1
