# generated using pymatgen
data_Sr5MnN5
_symmetry_space_group_name_H-M   'P 1'
_cell_length_a   7.55207915
_cell_length_b   7.55208029
_cell_length_c   8.96518869
_cell_angle_alpha   76.39396019
_cell_angle_beta   76.39395940
_cell_angle_gamma   96.38855110
_symmetry_Int_Tables_number   1
_chemical_formula_structural   Sr5MnN5
_chemical_formula_sum   'Sr10 Mn2 N10'
_cell_volume   475.45134330
_cell_formula_units_Z   2
loop_
 _symmetry_equiv_pos_site_id
 _symmetry_equiv_pos_as_xyz
  1  'x, y, z'
loop_
 _atom_site_type_symbol
 _atom_site_label
 _atom_site_symmetry_multiplicity
 _atom_site_fract_x
 _atom_site_fract_y
 _atom_site_fract_z
 _atom_site_occupancy
  Sr  Sr0  1  0.389439  0.389439  0.387330  1
  Sr  Sr1  1  0.610561  0.610561  0.612670  1
  Sr  Sr2  1  0.665202  0.665202  0.010301  1
  Sr  Sr3  1  0.334798  0.334798  0.989699  1
  Sr  Sr4  1  0.924390  0.924390  0.199016  1
  Sr  Sr5  1  0.075610  0.075610  0.800984  1
  Sr  Sr6  1  0.560139  0.094682  0.758498  1
  Sr  Sr7  1  0.905318  0.439861  0.241502  1
  Sr  Sr8  1  0.439861  0.905318  0.241502  1
  Sr  Sr9  1  0.094682  0.560139  0.758498  1
  Mn  Mn10  1  0.756643  0.243357  0.000000  1
  Mn  Mn11  1  0.243357  0.756643  0.000000  1
  N  N12  1  0.656277  0.656277  0.314595  1
  N  N13  1  0.343723  0.343723  0.685405  1
  N  N14  1  0.717946  0.015057  0.988026  1
  N  N15  1  0.984943  0.282054  0.011974  1
  N  N16  1  0.282054  0.984943  0.011974  1
  N  N17  1  0.015057  0.717946  0.988026  1
  N  N18  1  0.396854  0.731979  0.830264  1
  N  N19  1  0.268021  0.603146  0.169735  1
  N  N20  1  0.603146  0.268021  0.169735  1
  N  N21  1  0.731979  0.396854  0.830264  1
