# generated using pymatgen
data_Y2Nb3Co3Ni6As7
_symmetry_space_group_name_H-M   'P 1'
_cell_length_a   3.85280400
_cell_length_b   9.60152289
_cell_length_c   9.60152300
_cell_angle_alpha   119.99999692
_cell_angle_beta   90.00000000
_cell_angle_gamma   90.00000000
_symmetry_Int_Tables_number   1
_chemical_formula_structural   Y2Nb3Co3Ni6As7
_chemical_formula_sum   'Y2 Nb3 Co3 Ni6 As7'
_cell_volume   307.60104725
_cell_formula_units_Z   1
loop_
 _symmetry_equiv_pos_site_id
 _symmetry_equiv_pos_as_xyz
  1  'x, y, z'
loop_
 _atom_site_type_symbol
 _atom_site_label
 _atom_site_symmetry_multiplicity
 _atom_site_fract_x
 _atom_site_fract_y
 _atom_site_fract_z
 _atom_site_occupancy
  Y  Y0  1  0.000000  0.666667  0.333333  1
  Y  Y1  1  0.500000  0.333333  0.666667  1
  Nb  Nb2  1  0.500000  0.777925  0.895401  1
  Nb  Nb3  1  0.500000  0.117476  0.222075  1
  Nb  Nb4  1  0.500000  0.104599  0.882524  1
  Co  Co5  1  0.000000  0.873799  0.155065  1
  Co  Co6  1  0.000000  0.281266  0.126201  1
  Co  Co7  1  0.000000  0.844935  0.718734  1
  Ni  Ni8  1  0.000000  0.572282  0.936767  1
  Ni  Ni9  1  0.000000  0.364485  0.427718  1
  Ni  Ni10  1  0.000000  0.063233  0.635515  1
  Ni  Ni11  1  0.500000  0.944595  0.383489  1
  Ni  Ni12  1  0.500000  0.438893  0.055405  1
  Ni  Ni13  1  0.500000  0.616511  0.561107  1
  As  As14  1  0.000000  0.000000  0.000000  1
  As  As15  1  0.500000  0.710500  0.122456  1
  As  As16  1  0.500000  0.411956  0.289500  1
  As  As17  1  0.500000  0.877544  0.588044  1
  As  As18  1  0.000000  0.583490  0.693422  1
  As  As19  1  0.000000  0.109933  0.416510  1
  As  As20  1  0.000000  0.306578  0.890067  1
