# generated using pymatgen
data_TbLu(B3Mo)2
_symmetry_space_group_name_H-M   'P 1'
_cell_length_a   3.15844500
_cell_length_b   5.42980417
_cell_length_c   6.81473757
_cell_angle_alpha   78.26490202
_cell_angle_beta   90.00000000
_cell_angle_gamma   90.00000000
_symmetry_Int_Tables_number   1
_chemical_formula_structural   TbLu(B3Mo)2
_chemical_formula_sum   'Tb1 Lu1 B6 Mo2'
_cell_volume   114.42817306
_cell_formula_units_Z   1
loop_
 _symmetry_equiv_pos_site_id
 _symmetry_equiv_pos_as_xyz
  1  'x, y, z'
loop_
 _atom_site_type_symbol
 _atom_site_label
 _atom_site_symmetry_multiplicity
 _atom_site_fract_x
 _atom_site_fract_y
 _atom_site_fract_z
 _atom_site_occupancy
  Tb  Tb0  1  0.750000  0.673190  0.294366  1
  Lu  Lu1  1  0.250000  0.318644  0.714003  1
  B  B2  1  0.250000  0.926513  0.525073  1
  B  B3  1  0.750000  0.087657  0.477416  1
  B  B4  1  0.250000  0.912097  0.002120  1
  B  B5  1  0.750000  0.086821  0.993993  1
  B  B6  1  0.250000  0.581998  0.004234  1
  B  B7  1  0.750000  0.415084  0.990765  1
  Mo  Mo8  1  0.250000  0.188366  0.219449  1
  Mo  Mo9  1  0.750000  0.809631  0.778581  1
