# generated using pymatgen
data_BaLi(NbS2)6
_symmetry_space_group_name_H-M   'P 1'
_cell_length_a   5.85698500
_cell_length_b   5.85698542
_cell_length_c   14.62383500
_cell_angle_alpha   90.00000000
_cell_angle_beta   90.00000000
_cell_angle_gamma   120.00000326
_symmetry_Int_Tables_number   1
_chemical_formula_structural   BaLi(NbS2)6
_chemical_formula_sum   'Ba1 Li1 Nb6 S12'
_cell_volume   434.45034928
_cell_formula_units_Z   1
loop_
 _symmetry_equiv_pos_site_id
 _symmetry_equiv_pos_as_xyz
  1  'x, y, z'
loop_
 _atom_site_type_symbol
 _atom_site_label
 _atom_site_symmetry_multiplicity
 _atom_site_fract_x
 _atom_site_fract_y
 _atom_site_fract_z
 _atom_site_occupancy
  Ba  Ba0  1  0.000000  0.000000  0.500000  1
  Li  Li1  1  0.000000  0.000000  0.000000  1
  Nb  Nb2  1  0.000000  0.000000  0.771206  1
  Nb  Nb3  1  0.000000  0.000000  0.228794  1
  Nb  Nb4  1  0.333333  0.666667  0.227026  1
  Nb  Nb5  1  0.666667  0.333333  0.772974  1
  Nb  Nb6  1  0.666667  0.333333  0.227026  1
  Nb  Nb7  1  0.333333  0.666667  0.772974  1
  S  S8  1  0.332801  0.000000  0.121766  1
  S  S9  1  0.000000  0.332801  0.121766  1
  S  S10  1  0.667199  0.667199  0.121766  1
  S  S11  1  0.337630  0.337630  0.665196  1
  S  S12  1  0.662370  0.662370  0.334804  1
  S  S13  1  0.662370  0.000000  0.665196  1
  S  S14  1  0.000000  0.662370  0.665196  1
  S  S15  1  0.000000  0.667199  0.878234  1
  S  S16  1  0.332801  0.332801  0.878234  1
  S  S17  1  0.000000  0.337630  0.334804  1
  S  S18  1  0.337630  0.000000  0.334804  1
  S  S19  1  0.667199  0.000000  0.878234  1
