# generated using pymatgen
data_Nd2(Ga3Ir)3
_symmetry_space_group_name_H-M   'P 1'
_cell_length_a   7.66685165
_cell_length_b   7.66684782
_cell_length_c   9.66652000
_cell_angle_alpha   90.00000000
_cell_angle_beta   90.00000000
_cell_angle_gamma   119.74932824
_symmetry_Int_Tables_number   1
_chemical_formula_structural   Nd2(Ga3Ir)3
_chemical_formula_sum   'Nd4 Ga18 Ir6'
_cell_volume   493.31708370
_cell_formula_units_Z   2
loop_
 _symmetry_equiv_pos_site_id
 _symmetry_equiv_pos_as_xyz
  1  'x, y, z'
loop_
 _atom_site_type_symbol
 _atom_site_label
 _atom_site_symmetry_multiplicity
 _atom_site_fract_x
 _atom_site_fract_y
 _atom_site_fract_z
 _atom_site_occupancy
  Nd  Nd0  1  0.997110  0.668156  0.250000  1
  Nd  Nd1  1  0.002890  0.331844  0.750000  1
  Nd  Nd2  1  0.668156  0.997110  0.250000  1
  Nd  Nd3  1  0.331844  0.002890  0.750000  1
  Ga  Ga4  1  0.127907  0.127907  0.250000  1
  Ga  Ga5  1  0.872093  0.872093  0.750000  1
  Ga  Ga6  1  0.001292  0.334186  0.077080  1
  Ga  Ga7  1  0.998708  0.665814  0.922920  1
  Ga  Ga8  1  0.998708  0.665814  0.577080  1
  Ga  Ga9  1  0.334186  0.001292  0.422920  1
  Ga  Ga10  1  0.001292  0.334186  0.422920  1
  Ga  Ga11  1  0.665814  0.998708  0.577080  1
  Ga  Ga12  1  0.665814  0.998708  0.922920  1
  Ga  Ga13  1  0.334186  0.001292  0.077080  1
  Ga  Ga14  1  0.334048  0.334048  0.559975  1
  Ga  Ga15  1  0.665952  0.665952  0.440025  1
  Ga  Ga16  1  0.665952  0.665952  0.059975  1
  Ga  Ga17  1  0.334048  0.334048  0.940025  1
  Ga  Ga18  1  0.337471  0.544161  0.250000  1
  Ga  Ga19  1  0.662529  0.455839  0.750000  1
  Ga  Ga20  1  0.544161  0.337471  0.250000  1
  Ga  Ga21  1  0.455839  0.662529  0.750000  1
  Ir  Ir22  1  0.670989  0.329011  0.000000  1
  Ir  Ir23  1  0.329011  0.670989  0.000000  1
  Ir  Ir24  1  0.329011  0.670989  0.500000  1
  Ir  Ir25  1  0.670989  0.329011  0.500000  1
  Ir  Ir26  1  0.000000  0.000000  0.000000  1
  Ir  Ir27  1  0.000000  0.000000  0.500000  1
