# generated using pymatgen
data_Li8Pr(UBr8)3
_symmetry_space_group_name_H-M   'P 1'
_cell_length_a   7.01688500
_cell_length_b   7.01688504
_cell_length_c   26.09245300
_cell_angle_alpha   90.00000000
_cell_angle_beta   90.00000000
_cell_angle_gamma   119.99999510
_symmetry_Int_Tables_number   1
_chemical_formula_structural   Li8Pr(UBr8)3
_chemical_formula_sum   'Li8 Pr1 U3 Br24'
_cell_volume   1112.58777409
_cell_formula_units_Z   1
loop_
 _symmetry_equiv_pos_site_id
 _symmetry_equiv_pos_as_xyz
  1  'x, y, z'
loop_
 _atom_site_type_symbol
 _atom_site_label
 _atom_site_symmetry_multiplicity
 _atom_site_fract_x
 _atom_site_fract_y
 _atom_site_fract_z
 _atom_site_occupancy
  Li  Li0  1  0.000000  0.000000  0.250000  1
  Li  Li1  1  0.000000  0.000000  0.750000  1
  Li  Li2  1  0.333333  0.666667  0.999750  1
  Li  Li3  1  0.333333  0.666667  0.500250  1
  Li  Li4  1  0.333333  0.666667  0.250000  1
  Li  Li5  1  0.666667  0.333333  0.750000  1
  Li  Li6  1  0.666667  0.333333  0.997330  1
  Li  Li7  1  0.666667  0.333333  0.502670  1
  Pr  Pr8  1  0.333333  0.666667  0.750000  1
  U  U9  1  0.000000  0.000000  0.999760  1
  U  U10  1  0.000000  0.000000  0.500240  1
  U  U11  1  0.666667  0.333333  0.250000  1
  Br  Br12  1  0.333147  0.999539  0.308565  1
  Br  Br13  1  0.333867  0.015115  0.811014  1
  Br  Br14  1  0.999726  0.328274  0.059243  1
  Br  Br15  1  0.000783  0.329795  0.557604  1
  Br  Br16  1  0.000461  0.333608  0.308565  1
  Br  Br17  1  0.984885  0.318753  0.811014  1
  Br  Br18  1  0.333147  0.333608  0.191435  1
  Br  Br19  1  0.333867  0.318753  0.688986  1
  Br  Br20  1  0.328548  0.328274  0.440757  1
  Br  Br21  1  0.329012  0.329795  0.942396  1
  Br  Br22  1  0.671726  0.000274  0.440757  1
  Br  Br23  1  0.328548  0.000274  0.059243  1
  Br  Br24  1  0.329012  0.999217  0.557604  1
  Br  Br25  1  0.671726  0.671452  0.059243  1
  Br  Br26  1  0.670205  0.670988  0.557604  1
  Br  Br27  1  0.666392  0.666853  0.308565  1
  Br  Br28  1  0.681247  0.666133  0.811014  1
  Br  Br29  1  0.000461  0.666853  0.191435  1
  Br  Br30  1  0.984885  0.666133  0.688986  1
  Br  Br31  1  0.999726  0.671452  0.440757  1
  Br  Br32  1  0.000783  0.670988  0.942396  1
  Br  Br33  1  0.670205  0.999217  0.942396  1
  Br  Br34  1  0.666392  0.999539  0.191435  1
  Br  Br35  1  0.681247  0.015115  0.688986  1
