# generated using pymatgen
data_Hf3Re2Si3Tc
_symmetry_space_group_name_H-M   'P 1'
_cell_length_a   6.96760114
_cell_length_b   6.96760190
_cell_length_c   3.40361600
_cell_angle_alpha   90.00000000
_cell_angle_beta   90.00000000
_cell_angle_gamma   120.02308454
_symmetry_Int_Tables_number   1
_chemical_formula_structural   Hf3Re2Si3Tc
_chemical_formula_sum   'Hf3 Re2 Si3 Tc1'
_cell_volume   143.06609671
_cell_formula_units_Z   1
loop_
 _symmetry_equiv_pos_site_id
 _symmetry_equiv_pos_as_xyz
  1  'x, y, z'
loop_
 _atom_site_type_symbol
 _atom_site_label
 _atom_site_symmetry_multiplicity
 _atom_site_fract_x
 _atom_site_fract_y
 _atom_site_fract_z
 _atom_site_occupancy
  Hf  Hf0  1  0.403187  0.403187  0.500000  1
  Hf  Hf1  1  0.596427  0.000177  0.500000  1
  Hf  Hf2  1  0.000177  0.596427  0.500000  1
  Re  Re3  1  0.256435  0.000673  0.000000  1
  Re  Re4  1  0.000673  0.256435  0.000000  1
  Si  Si5  1  0.666637  0.333360  0.000000  1
  Si  Si6  1  0.333360  0.666637  0.000000  1
  Si  Si7  1  0.998068  0.998068  0.500000  1
  Tc  Tc8  1  0.745036  0.745036  0.000000  1
