# generated using pymatgen
data_Tm2TcOs3
_symmetry_space_group_name_H-M   'P 1'
_cell_length_a   5.36443241
_cell_length_b   5.22509184
_cell_length_c   8.83092500
_cell_angle_alpha   90.00000000
_cell_angle_beta   90.00000000
_cell_angle_gamma   119.69798892
_symmetry_Int_Tables_number   1
_chemical_formula_structural   Tm2TcOs3
_chemical_formula_sum   'Tm4 Tc2 Os6'
_cell_volume   215.01471286
_cell_formula_units_Z   2
loop_
 _symmetry_equiv_pos_site_id
 _symmetry_equiv_pos_as_xyz
  1  'x, y, z'
loop_
 _atom_site_type_symbol
 _atom_site_label
 _atom_site_symmetry_multiplicity
 _atom_site_fract_x
 _atom_site_fract_y
 _atom_site_fract_z
 _atom_site_occupancy
  Tm  Tm0  1  0.668884  0.334396  0.563169  1
  Tm  Tm1  1  0.332213  0.665993  0.433936  1
  Tm  Tm2  1  0.332213  0.665993  0.066064  1
  Tm  Tm3  1  0.668884  0.334396  0.936831  1
  Tc  Tc4  1  0.172251  0.345031  0.750000  1
  Tc  Tc5  1  0.169904  0.827184  0.750000  1
  Os  Os6  1  0.001944  0.000310  0.498948  1
  Os  Os7  1  0.001944  0.000310  0.001052  1
  Os  Os8  1  0.654287  0.826489  0.750000  1
  Os  Os9  1  0.826112  0.655883  0.250000  1
  Os  Os10  1  0.826654  0.171352  0.250000  1
  Os  Os11  1  0.344710  0.172662  0.250000  1
