# generated using pymatgen
data_La3Ho2Bi3O14
_symmetry_space_group_name_H-M   'P 1'
_cell_length_a   6.71865861
_cell_length_b   6.80465725
_cell_length_c   7.89420393
_cell_angle_alpha   106.63644163
_cell_angle_beta   89.72100987
_cell_angle_gamma   98.68887057
_symmetry_Int_Tables_number   1
_chemical_formula_structural   La3Ho2Bi3O14
_chemical_formula_sum   'La3 Ho2 Bi3 O14'
_cell_volume   341.55170456
_cell_formula_units_Z   1
loop_
 _symmetry_equiv_pos_site_id
 _symmetry_equiv_pos_as_xyz
  1  'x, y, z'
loop_
 _atom_site_type_symbol
 _atom_site_label
 _atom_site_symmetry_multiplicity
 _atom_site_fract_x
 _atom_site_fract_y
 _atom_site_fract_z
 _atom_site_occupancy
  La  La0  1  0.268460  0.533573  0.882570  1
  La  La1  1  0.741878  0.460262  0.116102  1
  La  La2  1  0.751942  0.483536  0.618114  1
  Ho  Ho3  1  0.458658  0.009880  0.256275  1
  Ho  Ho4  1  0.536266  0.999878  0.748088  1
  Bi  Bi5  1  0.994280  0.998460  0.499553  1
  Bi  Bi6  1  0.998696  0.996067  0.997794  1
  Bi  Bi7  1  0.287628  0.543100  0.389990  1
  O  O8  1  0.446813  0.664034  0.178986  1
  O  O9  1  0.557315  0.343994  0.832401  1
  O  O10  1  0.302657  0.937371  0.951831  1
  O  O11  1  0.696034  0.057420  0.050079  1
  O  O12  1  0.297269  0.937946  0.519011  1
  O  O13  1  0.696612  0.069797  0.484833  1
  O  O14  1  0.535682  0.353647  0.341336  1
  O  O15  1  0.462282  0.652041  0.652796  1
  O  O16  1  0.926954  0.665489  0.940364  1
  O  O17  1  0.069489  0.319631  0.036063  1
  O  O18  1  0.070114  0.328409  0.619858  1
  O  O19  1  0.913334  0.668820  0.389761  1
  O  O20  1  0.870949  0.922556  0.730850  1
  O  O21  1  0.116686  0.054086  0.263344  1
