# generated using pymatgen
data_Bi4RuCl2
_symmetry_space_group_name_H-M   'P 1'
_cell_length_a   8.84874883
_cell_length_b   8.84874910
_cell_length_c   10.92351238
_cell_angle_alpha   53.23808892
_cell_angle_beta   53.23808641
_cell_angle_gamma   45.77009315
_symmetry_Int_Tables_number   1
_chemical_formula_structural   Bi4RuCl2
_chemical_formula_sum   'Bi8 Ru2 Cl4'
_cell_volume   465.93956270
_cell_formula_units_Z   2
loop_
 _symmetry_equiv_pos_site_id
 _symmetry_equiv_pos_as_xyz
  1  'x, y, z'
loop_
 _atom_site_type_symbol
 _atom_site_label
 _atom_site_symmetry_multiplicity
 _atom_site_fract_x
 _atom_site_fract_y
 _atom_site_fract_z
 _atom_site_occupancy
  Bi  Bi0  1  0.452229  0.452229  0.357350  1
  Bi  Bi1  1  0.547771  0.547771  0.642650  1
  Bi  Bi2  1  0.333745  0.333745  0.715612  1
  Bi  Bi3  1  0.666255  0.666255  0.284388  1
  Bi  Bi4  1  0.826152  0.826152  0.573192  1
  Bi  Bi5  1  0.173848  0.173848  0.426808  1
  Bi  Bi6  1  0.083764  0.083764  0.220745  1
  Bi  Bi7  1  0.916236  0.916236  0.779255  1
  Ru  Ru8  1  0.208598  0.791402  0.500000  1
  Ru  Ru9  1  0.791402  0.208598  0.500000  1
  Cl  Cl10  1  0.892377  0.892377  0.259994  1
  Cl  Cl11  1  0.107623  0.107623  0.740006  1
  Cl  Cl12  1  0.695845  0.695845  0.916928  1
  Cl  Cl13  1  0.304155  0.304155  0.083072  1
