# generated using pymatgen
data_Li4Pr8Zn4PdRh7
_symmetry_space_group_name_H-M   'P 1'
_cell_length_a   4.11798400
_cell_length_b   7.33362490
_cell_length_c   16.63346884
_cell_angle_alpha   90.20372722
_cell_angle_beta   90.00000000
_cell_angle_gamma   90.00000000
_symmetry_Int_Tables_number   1
_chemical_formula_structural   Li4Pr8Zn4PdRh7
_chemical_formula_sum   'Li4 Pr8 Zn4 Pd1 Rh7'
_cell_volume   502.32342503
_cell_formula_units_Z   1
loop_
 _symmetry_equiv_pos_site_id
 _symmetry_equiv_pos_as_xyz
  1  'x, y, z'
loop_
 _atom_site_type_symbol
 _atom_site_label
 _atom_site_symmetry_multiplicity
 _atom_site_fract_x
 _atom_site_fract_y
 _atom_site_fract_z
 _atom_site_occupancy
  Li  Li0  1  0.250000  0.989669  0.434362  1
  Li  Li1  1  0.750000  0.508371  0.939934  1
  Li  Li2  1  0.750000  0.008330  0.562148  1
  Li  Li3  1  0.750000  0.369427  0.651180  1
  Pr  Pr4  1  0.750000  0.453931  0.215924  1
  Pr  Pr5  1  0.750000  0.956718  0.279999  1
  Pr  Pr6  1  0.750000  0.832811  0.061230  1
  Pr  Pr7  1  0.250000  0.035036  0.724172  1
  Pr  Pr8  1  0.250000  0.167075  0.940526  1
  Pr  Pr9  1  0.250000  0.547536  0.785465  1
  Pr  Pr10  1  0.750000  0.344722  0.433631  1
  Pr  Pr11  1  0.250000  0.668417  0.559883  1
  Zn  Zn12  1  0.250000  0.633947  0.349023  1
  Zn  Zn13  1  0.750000  0.869491  0.853941  1
  Zn  Zn14  1  0.250000  0.498069  0.059246  1
  Zn  Zn15  1  0.250000  0.126853  0.148250  1
  Pd  Pd16  1  0.250000  0.245675  0.562440  1
  Rh  Rh17  1  0.750000  0.255943  0.065615  1
  Rh  Rh18  1  0.250000  0.251923  0.311605  1
  Rh  Rh19  1  0.750000  0.243011  0.813911  1
  Rh  Rh20  1  0.250000  0.748415  0.936893  1
  Rh  Rh21  1  0.750000  0.752933  0.688397  1
  Rh  Rh22  1  0.750000  0.742132  0.435808  1
  Rh  Rh23  1  0.250000  0.749566  0.186417  1
