# generated using pymatgen
data_H4CF8
_symmetry_space_group_name_H-M   'P 1'
_cell_length_a   4.46367245
_cell_length_b   4.34035801
_cell_length_c   7.72415628
_cell_angle_alpha   93.15297123
_cell_angle_beta   97.01222157
_cell_angle_gamma   109.57166318
_symmetry_Int_Tables_number   1
_chemical_formula_structural   H4CF8
_chemical_formula_sum   'H4 C1 F8'
_cell_volume   139.20876311
_cell_formula_units_Z   1
loop_
 _symmetry_equiv_pos_site_id
 _symmetry_equiv_pos_as_xyz
  1  'x, y, z'
loop_
 _atom_site_type_symbol
 _atom_site_label
 _atom_site_symmetry_multiplicity
 _atom_site_fract_x
 _atom_site_fract_y
 _atom_site_fract_z
 _atom_site_occupancy
  H  H0  1  0.334432  0.146492  0.100500  1
  H  H1  1  0.481533  0.818873  0.942269  1
  H  H2  1  0.058582  0.434539  0.068458  1
  H  H3  1  0.678091  0.521097  0.901837  1
  C  C4  1  0.073295  0.759168  0.509365  1
  F  F5  1  0.065281  0.447579  0.507880  1
  F  F6  1  0.985946  0.847172  0.660137  1
  F  F7  1  0.973548  0.596694  0.008739  1
  F  F8  1  0.372866  0.958056  0.498892  1
  F  F9  1  0.218796  0.266956  0.164424  1
  F  F10  1  0.472057  0.537758  0.841913  1
  F  F11  1  0.548860  0.027876  0.023049  1
  F  F12  1  0.868336  0.782263  0.373010  1
