# generated using pymatgen
data_Be3Re4B5W8
_symmetry_space_group_name_H-M   'P 1'
_cell_length_a   3.11556000
_cell_length_b   7.66217444
_cell_length_c   9.85216888
_cell_angle_alpha   90.13598062
_cell_angle_beta   90.00000000
_cell_angle_gamma   90.00000000
_symmetry_Int_Tables_number   1
_chemical_formula_structural   Be3Re4B5W8
_chemical_formula_sum   'Be3 Re4 B5 W8'
_cell_volume   235.18996038
_cell_formula_units_Z   1
loop_
 _symmetry_equiv_pos_site_id
 _symmetry_equiv_pos_as_xyz
  1  'x, y, z'
loop_
 _atom_site_type_symbol
 _atom_site_label
 _atom_site_symmetry_multiplicity
 _atom_site_fract_x
 _atom_site_fract_y
 _atom_site_fract_z
 _atom_site_occupancy
  Be  Be0  1  0.500000  0.121609  0.460711  1
  Be  Be1  1  0.500000  0.878747  0.537863  1
  Be  Be2  1  0.000000  0.380628  0.962821  1
  Re  Re3  1  0.500000  0.623171  0.396958  1
  Re  Re4  1  0.500000  0.378873  0.603212  1
  Re  Re5  1  0.000000  0.875882  0.898406  1
  Re  Re6  1  0.000000  0.121272  0.102664  1
  B  B7  1  0.000000  0.617141  0.040598  1
  B  B8  1  0.500000  0.127255  0.262090  1
  B  B9  1  0.500000  0.877082  0.736870  1
  B  B10  1  0.000000  0.377022  0.763911  1
  B  B11  1  0.000000  0.623344  0.234986  1
  W  W12  1  0.500000  0.809837  0.131383  1
  W  W13  1  0.500000  0.182620  0.864501  1
  W  W14  1  0.000000  0.682906  0.636021  1
  W  W15  1  0.000000  0.318328  0.365098  1
  W  W16  1  0.500000  0.579679  0.861518  1
  W  W17  1  0.500000  0.423248  0.142513  1
  W  W18  1  0.000000  0.921382  0.352930  1
  W  W19  1  0.000000  0.079973  0.644945  1
