# generated using pymatgen
data_YbCdCu3Pt
_symmetry_space_group_name_H-M   'P 1'
_cell_length_a   5.12647065
_cell_length_b   5.18469607
_cell_length_c   5.12647200
_cell_angle_alpha   60.37080756
_cell_angle_beta   60.00000418
_cell_angle_gamma   60.37080251
_symmetry_Int_Tables_number   1
_chemical_formula_structural   YbCdCu3Pt
_chemical_formula_sum   'Yb1 Cd1 Cu3 Pt1'
_cell_volume   96.88507461
_cell_formula_units_Z   1
loop_
 _symmetry_equiv_pos_site_id
 _symmetry_equiv_pos_as_xyz
  1  'x, y, z'
loop_
 _atom_site_type_symbol
 _atom_site_label
 _atom_site_symmetry_multiplicity
 _atom_site_fract_x
 _atom_site_fract_y
 _atom_site_fract_z
 _atom_site_occupancy
  Yb  Yb0  1  0.749640  0.751080  0.749640  1
  Cd  Cd1  1  0.999985  0.000045  0.999985  1
  Cu  Cu2  1  0.375234  0.374428  0.375234  1
  Cu  Cu3  1  0.875104  0.374428  0.375234  1
  Cu  Cu4  1  0.375234  0.374428  0.875104  1
  Pt  Pt5  1  0.374803  0.875592  0.374803  1
