# generated using pymatgen
data_CeDySi2Ir3Rh
_symmetry_space_group_name_H-M   'P 1'
_cell_length_a   9.08115619
_cell_length_b   9.08115610
_cell_length_c   4.08861100
_cell_angle_alpha   90.00000000
_cell_angle_beta   90.00000000
_cell_angle_gamma   154.35614563
_symmetry_Int_Tables_number   1
_chemical_formula_structural   CeDySi2Ir3Rh
_chemical_formula_sum   'Ce1 Dy1 Si2 Ir3 Rh1'
_cell_volume   145.92212143
_cell_formula_units_Z   1
loop_
 _symmetry_equiv_pos_site_id
 _symmetry_equiv_pos_as_xyz
  1  'x, y, z'
loop_
 _atom_site_type_symbol
 _atom_site_label
 _atom_site_symmetry_multiplicity
 _atom_site_fract_x
 _atom_site_fract_y
 _atom_site_fract_z
 _atom_site_occupancy
  Ce  Ce0  1  0.902370  0.097630  0.250000  1
  Dy  Dy1  1  0.101511  0.898489  0.750000  1
  Si  Si2  1  0.321672  0.678328  0.750000  1
  Si  Si3  1  0.676628  0.323372  0.250000  1
  Ir  Ir4  1  0.544610  0.455390  0.250000  1
  Ir  Ir5  1  0.455323  0.544677  0.750000  1
  Ir  Ir6  1  0.749280  0.250720  0.750000  1
  Rh  Rh7  1  0.248609  0.751391  0.250000  1
