# generated using pymatgen
data_Tb7Er(Si3Ni)4
_symmetry_space_group_name_H-M   'P 1'
_cell_length_a   7.93992100
_cell_length_b   7.94735525
_cell_length_c   8.07315400
_cell_angle_alpha   90.00000000
_cell_angle_beta   90.00000000
_cell_angle_gamma   119.96906496
_symmetry_Int_Tables_number   1
_chemical_formula_structural   Tb7Er(Si3Ni)4
_chemical_formula_sum   'Tb7 Er1 Si12 Ni4'
_cell_volume   441.31427084
_cell_formula_units_Z   1
loop_
 _symmetry_equiv_pos_site_id
 _symmetry_equiv_pos_as_xyz
  1  'x, y, z'
loop_
 _atom_site_type_symbol
 _atom_site_label
 _atom_site_symmetry_multiplicity
 _atom_site_fract_x
 _atom_site_fract_y
 _atom_site_fract_z
 _atom_site_occupancy
  Tb  Tb0  1  0.499831  0.999663  0.750000  1
  Tb  Tb1  1  0.999658  0.499834  0.250000  1
  Tb  Tb2  1  0.000327  0.500190  0.750000  1
  Tb  Tb3  1  0.500177  0.499834  0.250000  1
  Tb  Tb4  1  0.499861  0.500190  0.750000  1
  Tb  Tb5  1  0.000008  0.000016  0.250000  1
  Tb  Tb6  1  0.000004  0.000009  0.750000  1
  Er  Er7  1  0.500069  0.000137  0.250000  1
  Si  Si8  1  0.170562  0.341123  0.000245  1
  Si  Si9  1  0.829439  0.658877  0.999878  1
  Si  Si10  1  0.658134  0.829545  0.000949  1
  Si  Si11  1  0.829439  0.658877  0.500122  1
  Si  Si12  1  0.341903  0.170476  0.000602  1
  Si  Si13  1  0.170562  0.341123  0.499755  1
  Si  Si14  1  0.171411  0.829545  0.000949  1
  Si  Si15  1  0.341903  0.170476  0.499398  1
  Si  Si16  1  0.828573  0.170476  0.000602  1
  Si  Si17  1  0.658134  0.829545  0.499051  1
  Si  Si18  1  0.828573  0.170476  0.499398  1
  Si  Si19  1  0.171411  0.829545  0.499051  1
  Ni  Ni20  1  0.333308  0.666618  0.002468  1
  Ni  Ni21  1  0.666702  0.333403  0.001431  1
  Ni  Ni22  1  0.666702  0.333403  0.498569  1
  Ni  Ni23  1  0.333308  0.666618  0.497532  1
