# generated using pymatgen
data_Li5IrO6
_symmetry_space_group_name_H-M   'P 1'
_cell_length_a   5.09694588
_cell_length_b   5.09695002
_cell_length_c   5.05031117
_cell_angle_alpha   99.86503658
_cell_angle_beta   99.86543099
_cell_angle_gamma   119.96048409
_symmetry_Int_Tables_number   1
_chemical_formula_structural   Li5IrO6
_chemical_formula_sum   'Li5 Ir1 O6'
_cell_volume   106.79576806
_cell_formula_units_Z   1
loop_
 _symmetry_equiv_pos_site_id
 _symmetry_equiv_pos_as_xyz
  1  'x, y, z'
loop_
 _atom_site_type_symbol
 _atom_site_label
 _atom_site_symmetry_multiplicity
 _atom_site_fract_x
 _atom_site_fract_y
 _atom_site_fract_z
 _atom_site_occupancy
  Li  Li0  1  0.498594  0.501385  0.999987  1
  Li  Li1  1  0.989269  0.010745  0.500013  1
  Li  Li2  1  0.667659  0.332339  0.500012  1
  Li  Li3  1  0.344045  0.655966  0.500011  1
  Li  Li4  1  0.834496  0.165484  0.999986  1
  Ir  Ir5  1  0.166448  0.833550  0.000005  1
  O  O6  1  0.936405  0.603524  0.232093  1
  O  O7  1  0.555939  0.912272  0.237451  1
  O  O8  1  0.245662  0.222732  0.237736  1
  O  O9  1  0.777273  0.754342  0.762259  1
  O  O10  1  0.087731  0.444067  0.762547  1
  O  O11  1  0.396477  0.063596  0.767900  1
