# generated using pymatgen
data_Tm4CBr6
_symmetry_space_group_name_H-M   'P 1'
_cell_length_a   3.81028200
_cell_length_b   12.87691200
_cell_length_c   13.33138600
_cell_angle_alpha   90.00000000
_cell_angle_beta   90.00000000
_cell_angle_gamma   90.00000000
_symmetry_Int_Tables_number   1
_chemical_formula_structural   Tm4CBr6
_chemical_formula_sum   'Tm8 C2 Br12'
_cell_volume   654.10000153
_cell_formula_units_Z   2
loop_
 _symmetry_equiv_pos_site_id
 _symmetry_equiv_pos_as_xyz
  1  'x, y, z'
loop_
 _atom_site_type_symbol
 _atom_site_label
 _atom_site_symmetry_multiplicity
 _atom_site_fract_x
 _atom_site_fract_y
 _atom_site_fract_z
 _atom_site_occupancy
  Tm  Tm0  1  0.000000  0.097956  0.077919  1
  Tm  Tm1  1  0.000000  0.902044  0.922081  1
  Tm  Tm2  1  0.000000  0.597956  0.422081  1
  Tm  Tm3  1  0.000000  0.402044  0.577919  1
  Tm  Tm4  1  0.500000  0.119192  0.860051  1
  Tm  Tm5  1  0.500000  0.880808  0.139949  1
  Tm  Tm6  1  0.500000  0.619192  0.639949  1
  Tm  Tm7  1  0.500000  0.380808  0.360051  1
  C  C8  1  0.500000  0.000000  0.000000  1
  C  C9  1  0.500000  0.500000  0.500000  1
  Br  Br10  1  0.500000  0.269451  0.681300  1
  Br  Br11  1  0.500000  0.730549  0.318700  1
  Br  Br12  1  0.500000  0.769451  0.818700  1
  Br  Br13  1  0.500000  0.230549  0.181300  1
  Br  Br14  1  0.000000  0.260892  0.932977  1
  Br  Br15  1  0.000000  0.739108  0.067023  1
  Br  Br16  1  0.000000  0.481692  0.239635  1
  Br  Br17  1  0.000000  0.518308  0.760365  1
  Br  Br18  1  0.000000  0.981692  0.260365  1
  Br  Br19  1  0.000000  0.018308  0.739635  1
  Br  Br20  1  0.000000  0.239108  0.432977  1
  Br  Br21  1  0.000000  0.760892  0.567023  1
