# generated using pymatgen
data_Ac5ScIrO12
_symmetry_space_group_name_H-M   'P 1'
_cell_length_a   7.37157504
_cell_length_b   7.37157496
_cell_length_c   7.86617400
_cell_angle_alpha   74.53817004
_cell_angle_beta   74.53817021
_cell_angle_gamma   50.55614721
_symmetry_Int_Tables_number   1
_chemical_formula_structural   Ac5ScIrO12
_chemical_formula_sum   'Ac5 Sc1 Ir1 O12'
_cell_volume   315.42371161
_cell_formula_units_Z   1
loop_
 _symmetry_equiv_pos_site_id
 _symmetry_equiv_pos_as_xyz
  1  'x, y, z'
loop_
 _atom_site_type_symbol
 _atom_site_label
 _atom_site_symmetry_multiplicity
 _atom_site_fract_x
 _atom_site_fract_y
 _atom_site_fract_z
 _atom_site_occupancy
  Ac  Ac0  1  0.311190  0.304743  0.356009  1
  Ac  Ac1  1  0.695257  0.688810  0.643991  1
  Ac  Ac2  1  0.689379  0.698999  0.163152  1
  Ac  Ac3  1  0.301001  0.310621  0.836848  1
  Ac  Ac4  1  0.007636  0.992364  0.500000  1
  Sc  Sc5  1  0.766430  0.233570  0.000000  1
  Ir  Ir6  1  0.246288  0.753712  0.000000  1
  O  O7  1  0.094848  0.596782  0.575795  1
  O  O8  1  0.022962  0.975983  0.173220  1
  O  O9  1  0.403218  0.905152  0.424205  1
  O  O10  1  0.481264  0.521009  0.169729  1
  O  O11  1  0.099988  0.594049  0.077741  1
  O  O12  1  0.907376  0.400356  0.420125  1
  O  O13  1  0.024017  0.977038  0.826780  1
  O  O14  1  0.599644  0.092623  0.579875  1
  O  O15  1  0.478991  0.518736  0.830271  1
  O  O16  1  0.571986  0.107427  0.077367  1
  O  O17  1  0.405951  0.900012  0.922259  1
  O  O18  1  0.892573  0.428014  0.922633  1
