# generated using pymatgen
data_Yb3Tm5(B6Ru)4
_symmetry_space_group_name_H-M   'P 1'
_cell_length_a   3.62546500
_cell_length_b   9.09193315
_cell_length_c   11.47100944
_cell_angle_alpha   89.94255444
_cell_angle_beta   90.00000000
_cell_angle_gamma   90.00000000
_symmetry_Int_Tables_number   1
_chemical_formula_structural   Yb3Tm5(B6Ru)4
_chemical_formula_sum   'Yb3 Tm5 B24 Ru4'
_cell_volume   378.11279108
_cell_formula_units_Z   1
loop_
 _symmetry_equiv_pos_site_id
 _symmetry_equiv_pos_as_xyz
  1  'x, y, z'
loop_
 _atom_site_type_symbol
 _atom_site_label
 _atom_site_symmetry_multiplicity
 _atom_site_fract_x
 _atom_site_fract_y
 _atom_site_fract_z
 _atom_site_occupancy
  Yb  Yb0  1  0.000000  0.324841  0.414551  1
  Yb  Yb1  1  0.000000  0.675026  0.584923  1
  Yb  Yb2  1  0.000000  0.823619  0.085967  1
  Tm  Tm3  1  0.000000  0.175660  0.915113  1
  Tm  Tm4  1  0.000000  0.941291  0.366771  1
  Tm  Tm5  1  0.000000  0.057938  0.631460  1
  Tm  Tm6  1  0.000000  0.443004  0.132519  1
  Tm  Tm7  1  0.000000  0.558431  0.868136  1
  B  B8  1  0.500000  0.553431  0.432794  1
  B  B9  1  0.500000  0.445743  0.568039  1
  B  B10  1  0.500000  0.054193  0.066466  1
  B  B11  1  0.500000  0.946330  0.933247  1
  B  B12  1  0.500000  0.749076  0.417590  1
  B  B13  1  0.500000  0.250756  0.582663  1
  B  B14  1  0.500000  0.249457  0.081271  1
  B  B15  1  0.500000  0.751354  0.917939  1
  B  B16  1  0.500000  0.791169  0.264077  1
  B  B17  1  0.500000  0.208061  0.736575  1
  B  B18  1  0.500000  0.291331  0.234758  1
  B  B19  1  0.500000  0.709731  0.764891  1
  B  B20  1  0.500000  0.630706  0.185443  1
  B  B21  1  0.500000  0.368808  0.815839  1
  B  B22  1  0.500000  0.130966  0.313784  1
  B  B23  1  0.500000  0.869697  0.685165  1
  B  B24  1  0.500000  0.983035  0.210627  1
  B  B25  1  0.500000  0.017660  0.788849  1
  B  B26  1  0.500000  0.483516  0.288759  1
  B  B27  1  0.500000  0.516130  0.711974  1
  B  B28  1  0.500000  0.598830  0.027233  1
  B  B29  1  0.500000  0.400028  0.972634  1
  B  B30  1  0.500000  0.096759  0.472917  1
  B  B31  1  0.500000  0.903057  0.526238  1
  Ru  Ru32  1  0.000000  0.639364  0.320096  1
  Ru  Ru33  1  0.000000  0.359166  0.681656  1
  Ru  Ru34  1  0.000000  0.138997  0.178993  1
  Ru  Ru35  1  0.000000  0.862841  0.820041  1
