# generated using pymatgen
data_Zr10Sn5BiAs
_symmetry_space_group_name_H-M   'P 1'
_cell_length_a   5.90628500
_cell_length_b   8.64866376
_cell_length_c   8.64118409
_cell_angle_alpha   120.02865103
_cell_angle_beta   90.00013118
_cell_angle_gamma   89.99972659
_symmetry_Int_Tables_number   1
_chemical_formula_structural   Zr10Sn5BiAs
_chemical_formula_sum   'Zr10 Sn5 Bi1 As1'
_cell_volume   382.15702320
_cell_formula_units_Z   1
loop_
 _symmetry_equiv_pos_site_id
 _symmetry_equiv_pos_as_xyz
  1  'x, y, z'
loop_
 _atom_site_type_symbol
 _atom_site_label
 _atom_site_symmetry_multiplicity
 _atom_site_fract_x
 _atom_site_fract_y
 _atom_site_fract_z
 _atom_site_occupancy
  Zr  Zr0  1  0.499012  0.331485  0.664300  1
  Zr  Zr1  1  0.499012  0.667185  0.335700  1
  Zr  Zr2  1  0.001390  0.667123  0.335981  1
  Zr  Zr3  1  0.001390  0.331142  0.664019  1
  Zr  Zr4  1  0.761962  0.252102  0.000000  1
  Zr  Zr5  1  0.761161  0.746330  0.741668  1
  Zr  Zr6  1  0.761161  0.004662  0.258332  1
  Zr  Zr7  1  0.239309  0.745622  0.000000  1
  Zr  Zr8  1  0.238737  0.255523  0.255946  1
  Zr  Zr9  1  0.238737  0.999577  0.744054  1
  Sn  Sn10  1  0.748510  0.393018  0.392480  1
  Sn  Sn11  1  0.748510  0.000540  0.607520  1
  Sn  Sn12  1  0.251188  0.390609  0.000000  1
  Sn  Sn13  1  0.251248  0.607773  0.608329  1
  Sn  Sn14  1  0.251248  0.999445  0.391671  1
  Bi  Bi15  1  0.747841  0.608305  0.000000  1
  As  As16  1  0.499589  0.999562  0.000000  1
