# generated using pymatgen
data_Zr6Al6MoW3N2
_symmetry_space_group_name_H-M   'P 1'
_cell_length_a   7.96233900
_cell_length_b   7.96233838
_cell_length_c   5.38290400
_cell_angle_alpha   90.00000000
_cell_angle_beta   90.00000000
_cell_angle_gamma   119.99999010
_symmetry_Int_Tables_number   1
_chemical_formula_structural   Zr6Al6MoW3N2
_chemical_formula_sum   'Zr6 Al6 Mo1 W3 N2'
_cell_volume   295.54839397
_cell_formula_units_Z   1
loop_
 _symmetry_equiv_pos_site_id
 _symmetry_equiv_pos_as_xyz
  1  'x, y, z'
loop_
 _atom_site_type_symbol
 _atom_site_label
 _atom_site_symmetry_multiplicity
 _atom_site_fract_x
 _atom_site_fract_y
 _atom_site_fract_z
 _atom_site_occupancy
  Zr  Zr0  1  0.232638  0.000440  0.250227  1
  Zr  Zr1  1  0.767802  0.000440  0.749773  1
  Zr  Zr2  1  0.999560  0.232198  0.250227  1
  Zr  Zr3  1  0.999560  0.767362  0.749773  1
  Zr  Zr4  1  0.767802  0.767362  0.250227  1
  Zr  Zr5  1  0.232638  0.232198  0.749773  1
  Al  Al6  1  0.584792  0.999713  0.249852  1
  Al  Al7  1  0.414921  0.999713  0.750148  1
  Al  Al8  1  0.000287  0.585079  0.249852  1
  Al  Al9  1  0.000287  0.415208  0.750148  1
  Al  Al10  1  0.414921  0.415208  0.249852  1
  Al  Al11  1  0.584792  0.585079  0.750148  1
  Mo  Mo12  1  0.333333  0.666667  0.000000  1
  W  W13  1  0.666667  0.333333  0.000000  1
  W  W14  1  0.666667  0.333333  0.500000  1
  W  W15  1  0.333333  0.666667  0.500000  1
  N  N16  1  0.000000  0.000000  0.000000  1
  N  N17  1  0.000000  0.000000  0.500000  1
