# generated using pymatgen
data_EuSb12Ru3Rh
_symmetry_space_group_name_H-M   'P 1'
_cell_length_a   8.15389917
_cell_length_b   8.13822891
_cell_length_c   8.13822889
_cell_angle_alpha   109.43218734
_cell_angle_beta   109.51022817
_cell_angle_gamma   109.51022716
_symmetry_Int_Tables_number   1
_chemical_formula_structural   EuSb12Ru3Rh
_chemical_formula_sum   'Eu1 Sb12 Ru3 Rh1'
_cell_volume   415.52192300
_cell_formula_units_Z   1
loop_
 _symmetry_equiv_pos_site_id
 _symmetry_equiv_pos_as_xyz
  1  'x, y, z'
loop_
 _atom_site_type_symbol
 _atom_site_label
 _atom_site_symmetry_multiplicity
 _atom_site_fract_x
 _atom_site_fract_y
 _atom_site_fract_z
 _atom_site_occupancy
  Eu  Eu0  1  0.000000  0.000000  0.000000  1
  Sb  Sb1  1  0.659911  0.841845  0.501580  1
  Sb  Sb2  1  0.340089  0.158155  0.498420  1
  Sb  Sb3  1  0.844582  0.184666  0.342947  1
  Sb  Sb4  1  0.818066  0.659735  0.158155  1
  Sb  Sb5  1  0.841669  0.501580  0.659735  1
  Sb  Sb6  1  0.181934  0.340265  0.841845  1
  Sb  Sb7  1  0.155418  0.815334  0.657053  1
  Sb  Sb8  1  0.501635  0.657053  0.841719  1
  Sb  Sb9  1  0.498365  0.342947  0.158281  1
  Sb  Sb10  1  0.158331  0.498420  0.340265  1
  Sb  Sb11  1  0.340084  0.841719  0.184666  1
  Sb  Sb12  1  0.659916  0.158281  0.815334  1
  Ru  Ru13  1  0.500000  0.500000  0.500000  1
  Ru  Ru14  1  0.000000  0.000000  0.500000  1
  Ru  Ru15  1  0.000000  0.500000  0.000000  1
  Rh  Rh16  1  0.500000  0.000000  0.000000  1
