# generated using pymatgen
data_Rb13Ti2(Ga3As5)2
_symmetry_space_group_name_H-M   'P 1'
_cell_length_a   9.70044670
_cell_length_b   9.57035617
_cell_length_c   13.31564120
_cell_angle_alpha   80.77508228
_cell_angle_beta   76.13108621
_cell_angle_gamma   62.37393414
_symmetry_Int_Tables_number   1
_chemical_formula_structural   Rb13Ti2(Ga3As5)2
_chemical_formula_sum   'Rb13 Ti2 Ga6 As10'
_cell_volume   1061.57882403
_cell_formula_units_Z   1
loop_
 _symmetry_equiv_pos_site_id
 _symmetry_equiv_pos_as_xyz
  1  'x, y, z'
loop_
 _atom_site_type_symbol
 _atom_site_label
 _atom_site_symmetry_multiplicity
 _atom_site_fract_x
 _atom_site_fract_y
 _atom_site_fract_z
 _atom_site_occupancy
  Rb  Rb0  1  0.504203  0.858128  0.353350  1
  Rb  Rb1  1  0.495797  0.141872  0.646650  1
  Rb  Rb2  1  0.860140  0.589902  0.889553  1
  Rb  Rb3  1  0.139860  0.410098  0.110447  1
  Rb  Rb4  1  0.095658  0.795824  0.431197  1
  Rb  Rb5  1  0.904342  0.204176  0.568803  1
  Rb  Rb6  1  0.752186  0.682739  0.598179  1
  Rb  Rb7  1  0.247814  0.317261  0.401821  1
  Rb  Rb8  1  0.500000  0.500000  0.000000  1
  Rb  Rb9  1  0.319748  0.934667  0.096907  1
  Rb  Rb10  1  0.680252  0.065333  0.903093  1
  Rb  Rb11  1  0.883042  0.857449  0.161329  1
  Rb  Rb12  1  0.116958  0.142551  0.838671  1
  Ti  Ti13  1  0.379033  0.734933  0.772342  1
  Ti  Ti14  1  0.620967  0.265067  0.227658  1
  Ga  Ga15  1  0.049777  0.799421  0.709490  1
  Ga  Ga16  1  0.950223  0.200579  0.290510  1
  Ga  Ga17  1  0.594623  0.445114  0.413449  1
  Ga  Ga18  1  0.405377  0.554886  0.586551  1
  Ga  Ga19  1  0.727008  0.547649  0.174988  1
  Ga  Ga20  1  0.272992  0.452351  0.825012  1
  As  As21  1  0.445287  0.555628  0.260649  1
  As  As22  1  0.554713  0.444372  0.739351  1
  As  As23  1  0.129482  0.742746  0.893657  1
  As  As24  1  0.870518  0.257254  0.106343  1
  As  As25  1  0.709944  0.140225  0.397054  1
  As  As26  1  0.290056  0.859775  0.602946  1
  As  As27  1  0.844993  0.496903  0.353273  1
  As  As28  1  0.155007  0.503097  0.646727  1
  As  As29  1  0.502237  0.855880  0.840643  1
  As  As30  1  0.497763  0.144120  0.159357  1
