# generated using pymatgen
data_Tb2Er10InCo5
_symmetry_space_group_name_H-M   'P 1'
_cell_length_a   8.21718481
_cell_length_b   8.21718400
_cell_length_c   8.21156793
_cell_angle_alpha   110.93975593
_cell_angle_beta   110.73422118
_cell_angle_gamma   106.80209070
_symmetry_Int_Tables_number   1
_chemical_formula_structural   Tb2Er10InCo5
_chemical_formula_sum   'Tb2 Er10 In1 Co5'
_cell_volume   425.97247084
_cell_formula_units_Z   1
loop_
 _symmetry_equiv_pos_site_id
 _symmetry_equiv_pos_as_xyz
  1  'x, y, z'
loop_
 _atom_site_type_symbol
 _atom_site_label
 _atom_site_symmetry_multiplicity
 _atom_site_fract_x
 _atom_site_fract_y
 _atom_site_fract_z
 _atom_site_occupancy
  Tb  Tb0  1  0.289368  0.185609  0.474977  1
  Tb  Tb1  1  0.710632  0.814391  0.525023  1
  Er  Er2  1  0.288946  0.813996  0.102942  1
  Er  Er3  1  0.711054  0.186004  0.897058  1
  Er  Er4  1  0.619802  0.313956  0.304797  1
  Er  Er5  1  0.380198  0.686044  0.695203  1
  Er  Er6  1  0.009160  0.315005  0.695203  1
  Er  Er7  1  0.990840  0.684995  0.304797  1
  Er  Er8  1  0.211312  0.404139  0.191474  1
  Er  Er9  1  0.788688  0.595861  0.808526  1
  Er  Er10  1  0.212664  0.019839  0.808526  1
  Er  Er11  1  0.787336  0.980161  0.191474  1
  In  In12  1  0.500000  0.500000  0.000000  1
  Co  Co13  1  0.999568  0.377573  0.377141  1
  Co  Co14  1  0.000432  0.622427  0.622859  1
  Co  Co15  1  0.387186  0.887186  0.500000  1
  Co  Co16  1  0.612814  0.112814  0.500000  1
  Co  Co17  1  0.000000  0.000000  0.000000  1
