# generated using pymatgen
data_Tb16Cd4Ir3Pd
_symmetry_space_group_name_H-M   'P 1'
_cell_length_a   9.68304666
_cell_length_b   9.68304744
_cell_length_c   9.68304813
_cell_angle_alpha   60.18595081
_cell_angle_beta   60.18595149
_cell_angle_gamma   60.18595013
_symmetry_Int_Tables_number   1
_chemical_formula_structural   Tb16Cd4Ir3Pd
_chemical_formula_sum   'Tb16 Cd4 Ir3 Pd1'
_cell_volume   644.68290039
_cell_formula_units_Z   1
loop_
 _symmetry_equiv_pos_site_id
 _symmetry_equiv_pos_as_xyz
  1  'x, y, z'
loop_
 _atom_site_type_symbol
 _atom_site_label
 _atom_site_symmetry_multiplicity
 _atom_site_fract_x
 _atom_site_fract_y
 _atom_site_fract_z
 _atom_site_occupancy
  Tb  Tb0  1  0.597661  0.597661  0.597661  1
  Tb  Tb1  1  0.603607  0.603607  0.198151  1
  Tb  Tb2  1  0.603607  0.198151  0.603607  1
  Tb  Tb3  1  0.198151  0.603607  0.603607  1
  Tb  Tb4  1  0.054002  0.440812  0.440812  1
  Tb  Tb5  1  0.437943  0.060310  0.060310  1
  Tb  Tb6  1  0.440812  0.054002  0.440812  1
  Tb  Tb7  1  0.060310  0.437943  0.060310  1
  Tb  Tb8  1  0.440812  0.440812  0.054002  1
  Tb  Tb9  1  0.060310  0.060310  0.437943  1
  Tb  Tb10  1  0.188754  0.812753  0.812753  1
  Tb  Tb11  1  0.814580  0.187042  0.187042  1
  Tb  Tb12  1  0.812753  0.188754  0.812753  1
  Tb  Tb13  1  0.187042  0.814580  0.187042  1
  Tb  Tb14  1  0.812753  0.812753  0.188754  1
  Tb  Tb15  1  0.187042  0.187042  0.814580  1
  Cd  Cd16  1  0.830887  0.830887  0.830887  1
  Cd  Cd17  1  0.831170  0.831170  0.505749  1
  Cd  Cd18  1  0.831170  0.505749  0.831170  1
  Cd  Cd19  1  0.505749  0.831170  0.831170  1
  Ir  Ir20  1  0.392131  0.392131  0.823765  1
  Ir  Ir21  1  0.392131  0.823765  0.392131  1
  Ir  Ir22  1  0.823765  0.392131  0.392131  1
  Pd  Pd23  1  0.392858  0.392858  0.392858  1
