# generated using pymatgen
data_HfTe(P2O7)2
_symmetry_space_group_name_H-M   'P 1'
_cell_length_a   5.08617026
_cell_length_b   7.19599040
_cell_length_c   8.61129572
_cell_angle_alpha   91.89813655
_cell_angle_beta   93.68786830
_cell_angle_gamma   106.58919359
_symmetry_Int_Tables_number   1
_chemical_formula_structural   HfTe(P2O7)2
_chemical_formula_sum   'Hf1 Te1 P4 O14'
_cell_volume   300.99246315
_cell_formula_units_Z   1
loop_
 _symmetry_equiv_pos_site_id
 _symmetry_equiv_pos_as_xyz
  1  'x, y, z'
loop_
 _atom_site_type_symbol
 _atom_site_label
 _atom_site_symmetry_multiplicity
 _atom_site_fract_x
 _atom_site_fract_y
 _atom_site_fract_z
 _atom_site_occupancy
  Hf  Hf0  1  0.500000  0.500000  0.500000  1
  Te  Te1  1  0.000000  0.000000  0.000000  1
  P  P2  1  0.513486  0.136600  0.761160  1
  P  P3  1  0.122406  0.748637  0.691788  1
  P  P4  1  0.877594  0.251363  0.308212  1
  P  P5  1  0.486514  0.863400  0.238840  1
  O  O6  1  0.374786  0.173226  0.908349  1
  O  O7  1  0.049830  0.754656  0.862560  1
  O  O8  1  0.773067  0.072805  0.798912  1
  O  O9  1  0.303843  0.616361  0.665689  1
  O  O10  1  0.573301  0.309094  0.658173  1
  O  O11  1  0.297238  0.965369  0.653326  1
  O  O12  1  0.869168  0.699201  0.576447  1
  O  O13  1  0.130832  0.300799  0.423553  1
  O  O14  1  0.702762  0.034631  0.346674  1
  O  O15  1  0.426699  0.690906  0.341827  1
  O  O16  1  0.696157  0.383639  0.334311  1
  O  O17  1  0.226933  0.927195  0.201088  1
  O  O18  1  0.950170  0.245344  0.137440  1
  O  O19  1  0.625214  0.826774  0.091651  1
