# generated using pymatgen
data_Er2Tm(InAg)3
_symmetry_space_group_name_H-M   'P 1'
_cell_length_a   7.83695822
_cell_length_b   7.83695830
_cell_length_c   3.92463200
_cell_angle_alpha   90.00000000
_cell_angle_beta   90.00000000
_cell_angle_gamma   119.97256607
_symmetry_Int_Tables_number   1
_chemical_formula_structural   Er2Tm(InAg)3
_chemical_formula_sum   'Er2 Tm1 In3 Ag3'
_cell_volume   208.80679681
_cell_formula_units_Z   1
loop_
 _symmetry_equiv_pos_site_id
 _symmetry_equiv_pos_as_xyz
  1  'x, y, z'
loop_
 _atom_site_type_symbol
 _atom_site_label
 _atom_site_symmetry_multiplicity
 _atom_site_fract_x
 _atom_site_fract_y
 _atom_site_fract_z
 _atom_site_occupancy
  Er  Er0  1  0.403589  0.000140  0.500001  1
  Er  Er1  1  0.000140  0.403588  0.500001  1
  Tm  Tm2  1  0.596388  0.596389  0.500001  1
  In  In3  1  0.736175  0.999804  0.000000  1
  In  In4  1  0.264006  0.264005  0.000000  1
  In  In5  1  0.999804  0.736174  0.000000  1
  Ag  Ag6  1  0.666494  0.333570  0.000000  1
  Ag  Ag7  1  0.333569  0.666493  0.000000  1
  Ag  Ag8  1  0.999837  0.999837  0.500001  1
