# generated using pymatgen
data_Sm12Ta7Zn(MoN4)12
_symmetry_space_group_name_H-M   'P 1'
_cell_length_a   11.23009195
_cell_length_b   11.23009217
_cell_length_c   11.23954200
_cell_angle_alpha   109.48826737
_cell_angle_beta   109.48826777
_cell_angle_gamma   109.45416773
_symmetry_Int_Tables_number   1
_chemical_formula_structural   Sm12Ta7Zn(MoN4)12
_chemical_formula_sum   'Sm12 Ta7 Zn1 Mo12 N48'
_cell_volume   1090.94272046
_cell_formula_units_Z   1
loop_
 _symmetry_equiv_pos_site_id
 _symmetry_equiv_pos_as_xyz
  1  'x, y, z'
loop_
 _atom_site_type_symbol
 _atom_site_label
 _atom_site_symmetry_multiplicity
 _atom_site_fract_x
 _atom_site_fract_y
 _atom_site_fract_z
 _atom_site_occupancy
  Sm  Sm0  1  0.250349  0.376554  0.124263  1
  Sm  Sm1  1  0.374681  0.751010  0.128981  1
  Sm  Sm2  1  0.376327  0.125318  0.254298  1
  Sm  Sm3  1  0.876554  0.626205  0.252292  1
  Sm  Sm4  1  0.748990  0.123673  0.377970  1
  Sm  Sm5  1  0.126205  0.249651  0.373914  1
  Sm  Sm6  1  0.873795  0.750349  0.626086  1
  Sm  Sm7  1  0.251010  0.876327  0.622029  1
  Sm  Sm8  1  0.123446  0.373794  0.747708  1
  Sm  Sm9  1  0.623673  0.874682  0.745702  1
  Sm  Sm10  1  0.625318  0.248990  0.871019  1
  Sm  Sm11  1  0.749651  0.623446  0.875737  1
  Ta  Ta12  1  0.000000  0.000000  0.000000  1
  Ta  Ta13  1  0.500000  0.000000  0.000000  1
  Ta  Ta14  1  0.000000  0.500000  0.000000  1
  Ta  Ta15  1  0.500000  0.500000  0.000000  1
  Ta  Ta16  1  0.000000  0.000000  0.500000  1
  Ta  Ta17  1  0.000000  0.500000  0.500000  1
  Ta  Ta18  1  0.500000  0.500000  0.500000  1
  Zn  Zn19  1  0.500000  0.000000  0.500000  1
  Mo  Mo20  1  0.874533  0.249652  0.124438  1
  Mo  Mo21  1  0.749652  0.875120  0.125214  1
  Mo  Mo22  1  0.624881  0.374533  0.250095  1
  Mo  Mo23  1  0.123895  0.876542  0.249214  1
  Mo  Mo24  1  0.247352  0.623895  0.374680  1
  Mo  Mo25  1  0.623458  0.747352  0.372672  1
  Mo  Mo26  1  0.376542  0.252648  0.627328  1
  Mo  Mo27  1  0.752648  0.376105  0.625320  1
  Mo  Mo28  1  0.876106  0.123458  0.750786  1
  Mo  Mo29  1  0.375119  0.625467  0.749905  1
  Mo  Mo30  1  0.250348  0.124881  0.874786  1
  Mo  Mo31  1  0.125467  0.750348  0.875563  1
  N  N32  1  0.317333  0.900393  0.017480  1
  N  N33  1  0.201126  0.117544  0.016936  1
  N  N34  1  0.883724  0.400667  0.084773  1
  N  N35  1  0.700550  0.683779  0.084514  1
  N  N36  1  0.980905  0.681848  0.099285  1
  N  N37  1  0.617544  0.416418  0.100608  1
  N  N38  1  0.599606  0.916940  0.117087  1
  N  N39  1  0.016771  0.200550  0.116035  1
  N  N40  1  0.201612  0.583964  0.181753  1
  N  N41  1  0.477879  0.596454  0.178877  1
  N  N42  1  0.583059  0.182667  0.200147  1
  N  N43  1  0.118575  0.022121  0.200998  1
  N  N44  1  0.483057  0.383724  0.298951  1
  N  N45  1  0.306758  0.911699  0.289827  1
  N  N46  1  0.900666  0.016943  0.315895  1
  N  N47  1  0.916417  0.298874  0.315811  1
  N  N48  1  0.299057  0.480905  0.381620  1
  N  N49  1  0.588301  0.895058  0.378129  1
  N  N50  1  0.083965  0.882353  0.402212  1
  N  N51  1  0.816221  0.516771  0.400736  1
  N  N52  1  0.818152  0.799057  0.417437  1
  N  N53  1  0.096454  0.618575  0.417577  1
  N  N54  1  0.382353  0.298388  0.480140  1
  N  N55  1  0.604942  0.193243  0.483069  1
  N  N56  1  0.617647  0.701611  0.519859  1
  N  N57  1  0.395058  0.806757  0.516931  1
  N  N58  1  0.181848  0.200943  0.582562  1
  N  N59  1  0.903546  0.381425  0.582424  1
  N  N60  1  0.916035  0.117647  0.597788  1
  N  N61  1  0.183779  0.483229  0.599264  1
  N  N62  1  0.411700  0.104942  0.621871  1
  N  N63  1  0.700942  0.519094  0.618380  1
  N  N64  1  0.083583  0.701126  0.684190  1
  N  N65  1  0.099333  0.983057  0.684105  1
  N  N66  1  0.693243  0.088301  0.710173  1
  N  N67  1  0.516942  0.616276  0.701048  1
  N  N68  1  0.416940  0.817333  0.799853  1
  N  N69  1  0.881425  0.977879  0.799002  1
  N  N70  1  0.522121  0.403546  0.821123  1
  N  N71  1  0.798388  0.416035  0.818247  1
  N  N72  1  0.400394  0.083060  0.882913  1
  N  N73  1  0.983229  0.799450  0.883965  1
  N  N74  1  0.019095  0.318152  0.900714  1
  N  N75  1  0.382456  0.583583  0.899392  1
  N  N76  1  0.299450  0.316222  0.915486  1
  N  N77  1  0.116276  0.599333  0.915227  1
  N  N78  1  0.682667  0.099606  0.982520  1
  N  N79  1  0.798874  0.882456  0.983064  1
