# generated using pymatgen
data_Y17Ho3(Ga2Pb)4
_symmetry_space_group_name_H-M   'P 1'
_cell_length_a   7.88707600
_cell_length_b   7.88707600
_cell_length_c   13.95944700
_cell_angle_alpha   90.00000000
_cell_angle_beta   90.00000000
_cell_angle_gamma   90.00000000
_symmetry_Int_Tables_number   1
_chemical_formula_structural   Y17Ho3(Ga2Pb)4
_chemical_formula_sum   'Y17 Ho3 Ga8 Pb4'
_cell_volume   868.36091100
_cell_formula_units_Z   1
loop_
 _symmetry_equiv_pos_site_id
 _symmetry_equiv_pos_as_xyz
  1  'x, y, z'
loop_
 _atom_site_type_symbol
 _atom_site_label
 _atom_site_symmetry_multiplicity
 _atom_site_fract_x
 _atom_site_fract_y
 _atom_site_fract_z
 _atom_site_occupancy
  Y  Y0  1  0.838675  0.837024  0.891760  1
  Y  Y1  1  0.162976  0.161346  0.608232  1
  Y  Y2  1  0.838813  0.163047  0.391806  1
  Y  Y3  1  0.161187  0.836953  0.391806  1
  Y  Y4  1  0.336953  0.338813  0.391806  1
  Y  Y5  1  0.837171  0.161406  0.108195  1
  Y  Y6  1  0.337024  0.661325  0.891760  1
  Y  Y7  1  0.162829  0.838594  0.108195  1
  Y  Y8  1  0.338654  0.662976  0.608232  1
  Y  Y9  1  0.661406  0.662829  0.108195  1
  Y  Y10  1  0.661346  0.337024  0.608232  1
  Y  Y11  1  0.837024  0.838654  0.608232  1
  Y  Y12  1  0.662976  0.338675  0.891760  1
  Y  Y13  1  0.161325  0.162976  0.891760  1
  Y  Y14  1  0.500000  0.000000  0.251981  1
  Y  Y15  1  0.663047  0.661187  0.391806  1
  Y  Y16  1  0.338594  0.337171  0.108195  1
  Ho  Ho17  1  0.500000  0.000000  0.751998  1
  Ho  Ho18  1  0.000000  0.500000  0.248025  1
  Ho  Ho19  1  0.000000  0.500000  0.748037  1
  Ga  Ga20  1  0.632182  0.367935  0.249996  1
  Ga  Ga21  1  0.367818  0.632065  0.249996  1
  Ga  Ga22  1  0.132065  0.132182  0.249996  1
  Ga  Ga23  1  0.367857  0.367863  0.750000  1
  Ga  Ga24  1  0.132137  0.867857  0.750000  1
  Ga  Ga25  1  0.867935  0.867818  0.249996  1
  Ga  Ga26  1  0.632143  0.632137  0.750000  1
  Ga  Ga27  1  0.867863  0.132143  0.750000  1
  Pb  Pb28  1  0.000000  0.500000  0.999822  1
  Pb  Pb29  1  0.500000  0.000000  0.000140  1
  Pb  Pb30  1  0.500000  0.000000  0.500198  1
  Pb  Pb31  1  0.000000  0.500000  0.499844  1
