# generated using pymatgen
data_Dy13Ho7CoBi8RuRh2
_symmetry_space_group_name_H-M   'P 1'
_cell_length_a   8.01908306
_cell_length_b   8.98515905
_cell_length_c   12.45283600
_cell_angle_alpha   90.00399820
_cell_angle_beta   89.83057205
_cell_angle_gamma   90.00437348
_symmetry_Int_Tables_number   1
_chemical_formula_structural   Dy13Ho7CoBi8RuRh2
_chemical_formula_sum   'Dy13 Ho7 Co1 Bi8 Ru1 Rh2'
_cell_volume   897.25698596
_cell_formula_units_Z   1
loop_
 _symmetry_equiv_pos_site_id
 _symmetry_equiv_pos_as_xyz
  1  'x, y, z'
loop_
 _atom_site_type_symbol
 _atom_site_label
 _atom_site_symmetry_multiplicity
 _atom_site_fract_x
 _atom_site_fract_y
 _atom_site_fract_z
 _atom_site_occupancy
  Dy  Dy0  1  0.345201  0.750117  0.700404  1
  Dy  Dy1  1  0.657284  0.249945  0.293845  1
  Dy  Dy2  1  0.842884  0.249979  0.793267  1
  Dy  Dy3  1  0.155904  0.750010  0.205231  1
  Dy  Dy4  1  0.880585  0.750008  0.806722  1
  Dy  Dy5  1  0.121739  0.250016  0.194070  1
  Dy  Dy6  1  0.378118  0.249886  0.693235  1
  Dy  Dy7  1  0.615439  0.750172  0.311918  1
  Dy  Dy8  1  0.677064  0.545403  0.564367  1
  Dy  Dy9  1  0.052243  0.750120  0.498282  1
  Dy  Dy10  1  0.950518  0.249866  0.501574  1
  Dy  Dy11  1  0.549202  0.250000  0.001481  1
  Dy  Dy12  1  0.447766  0.750022  0.997186  1
  Ho  Ho13  1  0.324815  0.465337  0.436413  1
  Ho  Ho14  1  0.176043  0.460001  0.934680  1
  Ho  Ho15  1  0.324922  0.034736  0.436431  1
  Ho  Ho16  1  0.822998  0.543833  0.065285  1
  Ho  Ho17  1  0.676327  0.954432  0.564310  1
  Ho  Ho18  1  0.823039  0.956172  0.065307  1
  Ho  Ho19  1  0.176043  0.040044  0.934672  1
  Co  Co20  1  0.432573  0.750238  0.492048  1
  Bi  Bi21  1  0.570399  0.509172  0.826457  1
  Bi  Bi22  1  0.430042  0.491401  0.173309  1
  Bi  Bi23  1  0.071551  0.490856  0.672748  1
  Bi  Bi24  1  0.430001  0.008635  0.173263  1
  Bi  Bi25  1  0.928901  0.509369  0.327390  1
  Bi  Bi26  1  0.570495  0.990812  0.826337  1
  Bi  Bi27  1  0.928990  0.990632  0.327349  1
  Bi  Bi28  1  0.071140  0.009114  0.672681  1
  Ru  Ru29  1  0.071396  0.750015  0.990181  1
  Rh  Rh30  1  0.927436  0.250003  0.010375  1
  Rh  Rh31  1  0.568940  0.249655  0.509181  1
