# generated using pymatgen
data_Ce2PrSn3Ir2Rh
_symmetry_space_group_name_H-M   'P 1'
_cell_length_a   7.57144949
_cell_length_b   7.50653067
_cell_length_c   4.07322900
_cell_angle_alpha   90.00000000
_cell_angle_beta   90.00000000
_cell_angle_gamma   119.71678529
_symmetry_Int_Tables_number   1
_chemical_formula_structural   Ce2PrSn3Ir2Rh
_chemical_formula_sum   'Ce2 Pr1 Sn3 Ir2 Rh1'
_cell_volume   201.05742041
_cell_formula_units_Z   1
loop_
 _symmetry_equiv_pos_site_id
 _symmetry_equiv_pos_as_xyz
  1  'x, y, z'
loop_
 _atom_site_type_symbol
 _atom_site_label
 _atom_site_symmetry_multiplicity
 _atom_site_fract_x
 _atom_site_fract_y
 _atom_site_fract_z
 _atom_site_occupancy
  Ce  Ce0  1  0.585122  0.584953  0.000000  1
  Ce  Ce1  1  0.414878  0.999831  0.000000  1
  Pr  Pr2  1  0.000000  0.411453  0.000000  1
  Sn  Sn3  1  0.249520  0.252035  0.500000  1
  Sn  Sn4  1  0.000000  0.744869  0.500000  1
  Sn  Sn5  1  0.750480  0.002516  0.500000  1
  Ir  Ir6  1  0.650573  0.330866  0.500000  1
  Ir  Ir7  1  0.349427  0.680294  0.500000  1
  Rh  Rh8  1  0.000000  0.993181  0.000000  1
