# generated using pymatgen
data_ErTm9S10
_symmetry_space_group_name_H-M   'P 1'
_cell_length_a   6.67262814
_cell_length_b   7.63941967
_cell_length_c   8.55246500
_cell_angle_alpha   102.81162197
_cell_angle_beta   97.74730396
_cell_angle_gamma   106.83372396
_symmetry_Int_Tables_number   1
_chemical_formula_structural   ErTm9S10
_chemical_formula_sum   'Er1 Tm9 S10'
_cell_volume   397.53363463
_cell_formula_units_Z   1
loop_
 _symmetry_equiv_pos_site_id
 _symmetry_equiv_pos_as_xyz
  1  'x, y, z'
loop_
 _atom_site_type_symbol
 _atom_site_label
 _atom_site_symmetry_multiplicity
 _atom_site_fract_x
 _atom_site_fract_y
 _atom_site_fract_z
 _atom_site_occupancy
  Er  Er0  1  0.000000  0.500000  0.000000  1
  Tm  Tm1  1  0.799055  0.599926  0.600236  1
  Tm  Tm2  1  0.601417  0.200537  0.201083  1
  Tm  Tm3  1  0.398583  0.799463  0.798917  1
  Tm  Tm4  1  0.600322  0.700351  0.200732  1
  Tm  Tm5  1  0.200945  0.400074  0.399764  1
  Tm  Tm6  1  0.399678  0.299649  0.799268  1
  Tm  Tm7  1  0.000000  0.000000  0.000000  1
  Tm  Tm8  1  0.200789  0.900320  0.400606  1
  Tm  Tm9  1  0.799211  0.099680  0.599394  1
  S  S10  1  0.698473  0.650150  0.900291  1
  S  S11  1  0.500127  0.250201  0.500287  1
  S  S12  1  0.698809  0.148880  0.899836  1
  S  S13  1  0.301191  0.851120  0.100164  1
  S  S14  1  0.499873  0.749799  0.499713  1
  S  S15  1  0.099362  0.449286  0.698891  1
  S  S16  1  0.301527  0.349850  0.099709  1
  S  S17  1  0.901255  0.049921  0.299800  1
  S  S18  1  0.098745  0.950079  0.700200  1
  S  S19  1  0.900638  0.550714  0.301109  1
