# generated using pymatgen
data_CePaBiO6
_symmetry_space_group_name_H-M   'P 1'
_cell_length_a   6.70759106
_cell_length_b   6.70759055
_cell_length_c   6.70759200
_cell_angle_alpha   146.13218200
_cell_angle_beta   131.27696503
_cell_angle_gamma   60.65777421
_symmetry_Int_Tables_number   1
_chemical_formula_structural   CePaBiO6
_chemical_formula_sum   'Ce1 Pa1 Bi1 O6'
_cell_volume   125.18467297
_cell_formula_units_Z   1
loop_
 _symmetry_equiv_pos_site_id
 _symmetry_equiv_pos_as_xyz
  1  'x, y, z'
loop_
 _atom_site_type_symbol
 _atom_site_label
 _atom_site_symmetry_multiplicity
 _atom_site_fract_x
 _atom_site_fract_y
 _atom_site_fract_z
 _atom_site_occupancy
  Ce  Ce0  1  0.333965  0.333965  0.000000  1
  Pa  Pa1  1  0.666337  0.666337  0.000000  1
  Bi  Bi2  1  0.999611  0.999611  0.000000  1
  O  O3  1  0.572742  0.824315  0.748427  1
  O  O4  1  0.270946  0.504776  0.766170  1
  O  O5  1  0.905736  0.170953  0.734784  1
  O  O6  1  0.075886  0.824315  0.251573  1
  O  O7  1  0.738607  0.504776  0.233830  1
  O  O8  1  0.436169  0.170953  0.265216  1
