# generated using pymatgen
data_NdDy2Ho(Mo2O7)2
_symmetry_space_group_name_H-M   'P 1'
_cell_length_a   7.42012913
_cell_length_b   7.37297970
_cell_length_c   7.37297959
_cell_angle_alpha   59.79633845
_cell_angle_beta   60.41572173
_cell_angle_gamma   60.41570855
_symmetry_Int_Tables_number   1
_chemical_formula_structural   NdDy2Ho(Mo2O7)2
_chemical_formula_sum   'Nd1 Dy2 Ho1 Mo4 O14'
_cell_volume   286.55098556
_cell_formula_units_Z   1
loop_
 _symmetry_equiv_pos_site_id
 _symmetry_equiv_pos_as_xyz
  1  'x, y, z'
loop_
 _atom_site_type_symbol
 _atom_site_label
 _atom_site_symmetry_multiplicity
 _atom_site_fract_x
 _atom_site_fract_y
 _atom_site_fract_z
 _atom_site_occupancy
  Nd  Nd0  1  0.625000  0.125000  0.125000  1
  Dy  Dy1  1  0.125000  0.625000  0.125000  1
  Dy  Dy2  1  0.125000  0.125000  0.625000  1
  Ho  Ho3  1  0.125000  0.125000  0.125000  1
  Mo  Mo4  1  0.125000  0.625000  0.625000  1
  Mo  Mo5  1  0.625000  0.125000  0.625000  1
  Mo  Mo6  1  0.625000  0.625000  0.125000  1
  Mo  Mo7  1  0.625000  0.625000  0.625000  1
  O  O8  1  0.714638  0.707157  0.288271  1
  O  O9  1  0.287540  0.289151  0.710531  1
  O  O10  1  0.714638  0.288271  0.707157  1
  O  O11  1  0.287540  0.710531  0.289151  1
  O  O12  1  0.283329  0.719112  0.719112  1
  O  O13  1  0.727379  0.284176  0.284176  1
  O  O14  1  0.535362  0.542843  0.961729  1
  O  O15  1  0.962460  0.960849  0.539469  1
  O  O16  1  0.535362  0.961729  0.542843  1
  O  O17  1  0.962460  0.539469  0.960849  1
  O  O18  1  0.966671  0.530888  0.530888  1
  O  O19  1  0.522621  0.965824  0.965824  1
  O  O20  1  0.241589  0.251813  0.251813  1
  O  O21  1  0.008411  0.998187  0.998187  1
