# generated using pymatgen
data_Yb3CeSb3
_symmetry_space_group_name_H-M   'P 1'
_cell_length_a   8.21207105
_cell_length_b   8.21207050
_cell_length_c   8.25559835
_cell_angle_alpha   70.46302615
_cell_angle_beta   70.46302442
_cell_angle_gamma   109.20966512
_symmetry_Int_Tables_number   1
_chemical_formula_structural   Yb3CeSb3
_chemical_formula_sum   'Yb6 Ce2 Sb6'
_cell_volume   429.26310414
_cell_formula_units_Z   2
loop_
 _symmetry_equiv_pos_site_id
 _symmetry_equiv_pos_as_xyz
  1  'x, y, z'
loop_
 _atom_site_type_symbol
 _atom_site_label
 _atom_site_symmetry_multiplicity
 _atom_site_fract_x
 _atom_site_fract_y
 _atom_site_fract_z
 _atom_site_occupancy
  Yb  Yb0  1  0.001988  0.359863  0.494802  1
  Yb  Yb1  1  0.497019  0.495451  0.147192  1
  Yb  Yb2  1  0.644584  0.147619  0.357390  1
  Yb  Yb3  1  0.359863  0.001988  0.994802  1
  Yb  Yb4  1  0.495451  0.497019  0.647192  1
  Yb  Yb5  1  0.147619  0.644584  0.857390  1
  Ce  Ce6  1  0.852077  0.999982  0.000655  1
  Ce  Ce7  1  0.999982  0.852077  0.500655  1
  Sb  Sb8  1  0.626700  0.873244  0.751289  1
  Sb  Sb9  1  0.873244  0.626700  0.251289  1
  Sb  Sb10  1  0.247834  0.123180  0.625875  1
  Sb  Sb11  1  0.753539  0.376921  0.872796  1
  Sb  Sb12  1  0.376921  0.753539  0.372796  1
  Sb  Sb13  1  0.123180  0.247834  0.125875  1
