# generated using pymatgen
data_NaHf2AgF11
_symmetry_space_group_name_H-M   'P 1'
_cell_length_a   5.76906905
_cell_length_b   5.92434694
_cell_length_c   7.90385487
_cell_angle_alpha   112.10560858
_cell_angle_beta   95.73645989
_cell_angle_gamma   105.84310119
_symmetry_Int_Tables_number   1
_chemical_formula_structural   NaHf2AgF11
_chemical_formula_sum   'Na1 Hf2 Ag1 F11'
_cell_volume   234.46455077
_cell_formula_units_Z   1
loop_
 _symmetry_equiv_pos_site_id
 _symmetry_equiv_pos_as_xyz
  1  'x, y, z'
loop_
 _atom_site_type_symbol
 _atom_site_label
 _atom_site_symmetry_multiplicity
 _atom_site_fract_x
 _atom_site_fract_y
 _atom_site_fract_z
 _atom_site_occupancy
  Na  Na0  1  0.000000  0.000000  0.000000  1
  Hf  Hf1  1  0.505770  0.737258  0.230059  1
  Hf  Hf2  1  0.494230  0.262742  0.769941  1
  Ag  Ag3  1  0.000000  0.500000  0.500000  1
  F  F4  1  0.261183  0.840049  0.114941  1
  F  F5  1  0.342081  0.346621  0.014523  1
  F  F6  1  0.657919  0.653379  0.985477  1
  F  F7  1  0.771121  0.482995  0.686621  1
  F  F8  1  0.790720  0.052336  0.276504  1
  F  F9  1  0.209280  0.947664  0.723496  1
  F  F10  1  0.738817  0.159951  0.885059  1
  F  F11  1  0.228879  0.517005  0.313379  1
  F  F12  1  0.737790  0.607724  0.345283  1
  F  F13  1  0.262210  0.392276  0.654717  1
  F  F14  1  0.500000  0.000000  0.500000  1
