# generated using pymatgen
data_Ho16Sc4Si15Au
_symmetry_space_group_name_H-M   'P 1'
_cell_length_a   7.27608876
_cell_length_b   7.59437810
_cell_length_c   14.45907126
_cell_angle_alpha   89.85743638
_cell_angle_beta   89.43376003
_cell_angle_gamma   90.17865898
_symmetry_Int_Tables_number   1
_chemical_formula_structural   Ho16Sc4Si15Au
_chemical_formula_sum   'Ho16 Sc4 Si15 Au1'
_cell_volume   798.92480175
_cell_formula_units_Z   1
loop_
 _symmetry_equiv_pos_site_id
 _symmetry_equiv_pos_as_xyz
  1  'x, y, z'
loop_
 _atom_site_type_symbol
 _atom_site_label
 _atom_site_symmetry_multiplicity
 _atom_site_fract_x
 _atom_site_fract_y
 _atom_site_fract_z
 _atom_site_occupancy
  Ho  Ho0  1  0.977092  0.818468  0.101108  1
  Ho  Ho1  1  0.475236  0.684175  0.401408  1
  Ho  Ho2  1  0.520865  0.318427  0.899168  1
  Ho  Ho3  1  0.026316  0.182345  0.598402  1
  Ho  Ho4  1  0.025316  0.180475  0.899683  1
  Ho  Ho5  1  0.526286  0.316185  0.598430  1
  Ho  Ho6  1  0.478929  0.682505  0.101073  1
  Ho  Ho7  1  0.973007  0.816534  0.400719  1
  Ho  Ho8  1  0.675663  0.821967  0.875321  1
  Ho  Ho9  1  0.180743  0.678198  0.623348  1
  Ho  Ho10  1  0.821191  0.328722  0.125418  1
  Ho  Ho11  1  0.317561  0.175812  0.375057  1
  Ho  Ho12  1  0.322537  0.177459  0.125950  1
  Ho  Ho13  1  0.819988  0.323254  0.375426  1
  Ho  Ho14  1  0.178803  0.672778  0.875985  1
  Ho  Ho15  1  0.681971  0.823392  0.623919  1
  Sc  Sc16  1  0.650369  0.990446  0.249976  1
  Sc  Sc17  1  0.152724  0.512266  0.249004  1
  Sc  Sc18  1  0.847137  0.487079  0.749433  1
  Sc  Sc19  1  0.348394  0.012083  0.749812  1
  Si  Si20  1  0.772453  0.636616  0.252333  1
  Si  Si21  1  0.272688  0.865236  0.250989  1
  Si  Si22  1  0.727986  0.131926  0.748768  1
  Si  Si23  1  0.225877  0.366007  0.747104  1
  Si  Si24  1  0.015220  0.098353  0.250295  1
  Si  Si25  1  0.517823  0.401787  0.252369  1
  Si  Si26  1  0.479861  0.599204  0.747198  1
  Si  Si27  1  0.983399  0.900020  0.748655  1
  Si  Si28  1  0.352356  0.972361  0.540803  1
  Si  Si29  1  0.652154  0.029898  0.041995  1
  Si  Si30  1  0.148937  0.470714  0.459011  1
  Si  Si31  1  0.160959  0.472276  0.044179  1
  Si  Si32  1  0.647465  0.028962  0.458456  1
  Si  Si33  1  0.348750  0.968948  0.961331  1
  Si  Si34  1  0.852092  0.528908  0.540396  1
  Au  Au35  1  0.841853  0.526213  0.957476  1
