# generated using pymatgen
data_Rb2CdSi2SnAs4
_symmetry_space_group_name_H-M   'P 1'
_cell_length_a   8.42091213
_cell_length_b   8.97267362
_cell_length_c   8.57118632
_cell_angle_alpha   85.12477160
_cell_angle_beta   77.52251544
_cell_angle_gamma   72.48118594
_symmetry_Int_Tables_number   1
_chemical_formula_structural   Rb2CdSi2SnAs4
_chemical_formula_sum   'Rb4 Cd2 Si4 Sn2 As8'
_cell_volume   602.85943432
_cell_formula_units_Z   2
loop_
 _symmetry_equiv_pos_site_id
 _symmetry_equiv_pos_as_xyz
  1  'x, y, z'
loop_
 _atom_site_type_symbol
 _atom_site_label
 _atom_site_symmetry_multiplicity
 _atom_site_fract_x
 _atom_site_fract_y
 _atom_site_fract_z
 _atom_site_occupancy
  Rb  Rb0  1  0.442070  0.759356  0.384728  1
  Rb  Rb1  1  0.557930  0.240644  0.615272  1
  Rb  Rb2  1  0.426327  0.789548  0.871394  1
  Rb  Rb3  1  0.573673  0.210452  0.128606  1
  Cd  Cd4  1  0.959696  0.825336  0.247629  1
  Cd  Cd5  1  0.040304  0.174664  0.752371  1
  Si  Si6  1  0.941898  0.573214  0.618898  1
  Si  Si7  1  0.058102  0.426786  0.381102  1
  Si  Si8  1  0.147425  0.466500  0.968869  1
  Si  Si9  1  0.852575  0.533500  0.031131  1
  Sn  Sn10  1  0.941731  0.885277  0.785734  1
  Sn  Sn11  1  0.058269  0.114723  0.214266  1
  As  As12  1  0.782698  0.831482  0.557779  1
  As  As13  1  0.217302  0.168518  0.442221  1
  As  As14  1  0.814018  0.399535  0.286865  1
  As  As15  1  0.185982  0.600465  0.713135  1
  As  As16  1  0.743820  0.808920  0.056409  1
  As  As17  1  0.256180  0.191080  0.943591  1
  As  As18  1  0.773163  0.441960  0.812116  1
  As  As19  1  0.226837  0.558040  0.187884  1
