# generated using pymatgen
data_CeHo9(IrPb3)2
_symmetry_space_group_name_H-M   'P 1'
_cell_length_a   9.17478400
_cell_length_b   9.17478506
_cell_length_c   6.83720000
_cell_angle_alpha   90.00000000
_cell_angle_beta   90.00000000
_cell_angle_gamma   120.02018907
_symmetry_Int_Tables_number   1
_chemical_formula_structural   CeHo9(IrPb3)2
_chemical_formula_sum   'Ce1 Ho9 Ir2 Pb6'
_cell_volume   498.32454006
_cell_formula_units_Z   1
loop_
 _symmetry_equiv_pos_site_id
 _symmetry_equiv_pos_as_xyz
  1  'x, y, z'
loop_
 _atom_site_type_symbol
 _atom_site_label
 _atom_site_symmetry_multiplicity
 _atom_site_fract_x
 _atom_site_fract_y
 _atom_site_fract_z
 _atom_site_occupancy
  Ce  Ce0  1  0.229882  0.229882  0.750000  1
  Ho  Ho1  1  0.999396  0.760747  0.750000  1
  Ho  Ho2  1  0.238840  0.000308  0.250000  1
  Ho  Ho3  1  0.760747  0.999396  0.750000  1
  Ho  Ho4  1  0.334151  0.667480  0.499867  1
  Ho  Ho5  1  0.000308  0.238840  0.250000  1
  Ho  Ho6  1  0.667480  0.334151  0.499867  1
  Ho  Ho7  1  0.764163  0.764163  0.250000  1
  Ho  Ho8  1  0.334151  0.667480  0.000133  1
  Ho  Ho9  1  0.667480  0.334151  0.000133  1
  Ir  Ir10  1  0.000705  0.000705  0.999696  1
  Ir  Ir11  1  0.000705  0.000705  0.500304  1
  Pb  Pb12  1  0.405720  0.405720  0.250000  1
  Pb  Pb13  1  0.998822  0.407753  0.750000  1
  Pb  Pb14  1  0.999099  0.594949  0.250000  1
  Pb  Pb15  1  0.594949  0.999099  0.250000  1
  Pb  Pb16  1  0.407753  0.998822  0.750000  1
  Pb  Pb17  1  0.595651  0.595651  0.750000  1
