# generated using pymatgen
data_Y16Cd4Co3Pd
_symmetry_space_group_name_H-M   'P 1'
_cell_length_a   9.61565698
_cell_length_b   9.61325432
_cell_length_c   9.61143626
_cell_angle_alpha   59.93136723
_cell_angle_beta   59.94455679
_cell_angle_gamma   59.94790250
_symmetry_Int_Tables_number   1
_chemical_formula_structural   Y16Cd4Co3Pd
_chemical_formula_sum   'Y16 Cd4 Co3 Pd1'
_cell_volume   627.39901724
_cell_formula_units_Z   1
loop_
 _symmetry_equiv_pos_site_id
 _symmetry_equiv_pos_as_xyz
  1  'x, y, z'
loop_
 _atom_site_type_symbol
 _atom_site_label
 _atom_site_symmetry_multiplicity
 _atom_site_fract_x
 _atom_site_fract_y
 _atom_site_fract_z
 _atom_site_occupancy
  Y  Y0  1  0.439194  0.439325  0.049918  1
  Y  Y1  1  0.594081  0.594587  0.594755  1
  Y  Y2  1  0.188179  0.814177  0.814297  1
  Y  Y3  1  0.061221  0.060840  0.436894  1
  Y  Y4  1  0.437348  0.060829  0.060786  1
  Y  Y5  1  0.814105  0.188441  0.814201  1
  Y  Y6  1  0.439343  0.049882  0.439265  1
  Y  Y7  1  0.605033  0.202828  0.605140  1
  Y  Y8  1  0.814156  0.814137  0.188460  1
  Y  Y9  1  0.202946  0.605238  0.605099  1
  Y  Y10  1  0.812365  0.188306  0.188197  1
  Y  Y11  1  0.050062  0.439556  0.439339  1
  Y  Y12  1  0.188547  0.812049  0.188222  1
  Y  Y13  1  0.604900  0.605132  0.202944  1
  Y  Y14  1  0.188412  0.188191  0.812240  1
  Y  Y15  1  0.061171  0.437040  0.060753  1
  Cd  Cd16  1  0.829684  0.829758  0.507947  1
  Cd  Cd17  1  0.830684  0.830578  0.830537  1
  Cd  Cd18  1  0.507754  0.829784  0.829766  1
  Cd  Cd19  1  0.829720  0.507864  0.829778  1
  Co  Co20  1  0.826355  0.390995  0.391095  1
  Co  Co21  1  0.390988  0.826188  0.391409  1
  Co  Co22  1  0.391063  0.391385  0.826128  1
  Pd  Pd23  1  0.392689  0.392890  0.392829  1
