# generated using pymatgen
data_Pa2Al9Os2Rh
_symmetry_space_group_name_H-M   'P 1'
_cell_length_a   7.64040442
_cell_length_b   7.64040463
_cell_length_c   9.34217200
_cell_angle_alpha   90.00000000
_cell_angle_beta   90.00000000
_cell_angle_gamma   120.11032010
_symmetry_Int_Tables_number   1
_chemical_formula_structural   Pa2Al9Os2Rh
_chemical_formula_sum   'Pa4 Al18 Os4 Rh2'
_cell_volume   471.76675736
_cell_formula_units_Z   2
loop_
 _symmetry_equiv_pos_site_id
 _symmetry_equiv_pos_as_xyz
  1  'x, y, z'
loop_
 _atom_site_type_symbol
 _atom_site_label
 _atom_site_symmetry_multiplicity
 _atom_site_fract_x
 _atom_site_fract_y
 _atom_site_fract_z
 _atom_site_occupancy
  Pa  Pa0  1  0.997159  0.661278  0.250000  1
  Pa  Pa1  1  0.002841  0.338722  0.750000  1
  Pa  Pa2  1  0.661278  0.997159  0.250000  1
  Pa  Pa3  1  0.338722  0.002841  0.750000  1
  Al  Al4  1  0.123006  0.123006  0.250000  1
  Al  Al5  1  0.876994  0.876994  0.750000  1
  Al  Al6  1  0.004593  0.332791  0.075928  1
  Al  Al7  1  0.995407  0.667209  0.924072  1
  Al  Al8  1  0.995407  0.667209  0.575928  1
  Al  Al9  1  0.332791  0.004593  0.424072  1
  Al  Al10  1  0.004593  0.332791  0.424072  1
  Al  Al11  1  0.667209  0.995407  0.575928  1
  Al  Al12  1  0.667209  0.995407  0.924072  1
  Al  Al13  1  0.332791  0.004593  0.075928  1
  Al  Al14  1  0.336316  0.336316  0.554331  1
  Al  Al15  1  0.663684  0.663684  0.445669  1
  Al  Al16  1  0.663684  0.663684  0.054331  1
  Al  Al17  1  0.336316  0.336316  0.945669  1
  Al  Al18  1  0.340374  0.546095  0.250000  1
  Al  Al19  1  0.659626  0.453905  0.750000  1
  Al  Al20  1  0.546095  0.340374  0.250000  1
  Al  Al21  1  0.453905  0.659626  0.750000  1
  Os  Os22  1  0.675007  0.324993  0.000000  1
  Os  Os23  1  0.324993  0.675007  0.000000  1
  Os  Os24  1  0.324993  0.675007  0.500000  1
  Os  Os25  1  0.675007  0.324993  0.500000  1
  Rh  Rh26  1  0.000000  0.000000  0.000000  1
  Rh  Rh27  1  0.000000  0.000000  0.500000  1
