# generated using pymatgen
data_Co6Si2Mo3Ru
_symmetry_space_group_name_H-M   'P 1'
_cell_length_a   4.74041100
_cell_length_b   4.74040995
_cell_length_c   7.36419700
_cell_angle_alpha   90.00000000
_cell_angle_beta   90.00000000
_cell_angle_gamma   119.99998642
_symmetry_Int_Tables_number   1
_chemical_formula_structural   Co6Si2Mo3Ru
_chemical_formula_sum   'Co6 Si2 Mo3 Ru1'
_cell_volume   143.31379185
_cell_formula_units_Z   1
loop_
 _symmetry_equiv_pos_site_id
 _symmetry_equiv_pos_as_xyz
  1  'x, y, z'
loop_
 _atom_site_type_symbol
 _atom_site_label
 _atom_site_symmetry_multiplicity
 _atom_site_fract_x
 _atom_site_fract_y
 _atom_site_fract_z
 _atom_site_occupancy
  Co  Co0  1  0.829022  0.170978  0.247805  1
  Co  Co1  1  0.829022  0.658044  0.247805  1
  Co  Co2  1  0.341956  0.170978  0.247805  1
  Co  Co3  1  0.172129  0.827871  0.751080  1
  Co  Co4  1  0.172129  0.344259  0.751080  1
  Co  Co5  1  0.655741  0.827871  0.751080  1
  Si  Si6  1  0.000000  0.000000  0.499865  1
  Si  Si7  1  0.000000  0.000000  0.997644  1
  Mo  Mo8  1  0.666667  0.333333  0.566998  1
  Mo  Mo9  1  0.666667  0.333333  0.928681  1
  Mo  Mo10  1  0.333333  0.666667  0.073619  1
  Ru  Ru11  1  0.333333  0.666667  0.436539  1
