# generated using pymatgen
data_Yb3Y17Ir12
_symmetry_space_group_name_H-M   'P 1'
_cell_length_a   6.32542600
_cell_length_b   10.94771200
_cell_length_c   10.94771200
_cell_angle_alpha   90.00000000
_cell_angle_beta   90.00000000
_cell_angle_gamma   90.00000000
_symmetry_Int_Tables_number   1
_chemical_formula_structural   Yb3Y17Ir12
_chemical_formula_sum   'Yb3 Y17 Ir12'
_cell_volume   758.11747469
_cell_formula_units_Z   1
loop_
 _symmetry_equiv_pos_site_id
 _symmetry_equiv_pos_as_xyz
  1  'x, y, z'
loop_
 _atom_site_type_symbol
 _atom_site_label
 _atom_site_symmetry_multiplicity
 _atom_site_fract_x
 _atom_site_fract_y
 _atom_site_fract_z
 _atom_site_occupancy
  Yb  Yb0  1  0.000000  0.750000  0.250000  1
  Yb  Yb1  1  0.000000  0.250000  0.750000  1
  Yb  Yb2  1  0.500000  0.250000  0.750000  1
  Y  Y3  1  0.378912  0.840300  0.541509  1
  Y  Y4  1  0.878372  0.662540  0.538792  1
  Y  Y5  1  0.878372  0.837460  0.961208  1
  Y  Y6  1  0.378912  0.659700  0.958491  1
  Y  Y7  1  0.878650  0.540084  0.836878  1
  Y  Y8  1  0.379318  0.960435  0.839623  1
  Y  Y9  1  0.379318  0.539565  0.660377  1
  Y  Y10  1  0.878650  0.959916  0.663122  1
  Y  Y11  1  0.620682  0.160377  0.460436  1
  Y  Y12  1  0.121350  0.336878  0.459917  1
  Y  Y13  1  0.121350  0.163122  0.040084  1
  Y  Y14  1  0.620682  0.339623  0.039565  1
  Y  Y15  1  0.121628  0.461209  0.162540  1
  Y  Y16  1  0.621088  0.041509  0.159700  1
  Y  Y17  1  0.621088  0.458492  0.340300  1
  Y  Y18  1  0.121628  0.038792  0.337460  1
  Y  Y19  1  0.500000  0.750000  0.250000  1
  Ir  Ir20  1  0.252926  0.904937  0.094588  1
  Ir  Ir21  1  0.747074  0.594588  0.095063  1
  Ir  Ir22  1  0.747074  0.905412  0.404937  1
  Ir  Ir23  1  0.252926  0.595063  0.405412  1
  Ir  Ir24  1  0.752424  0.092092  0.906894  1
  Ir  Ir25  1  0.247576  0.406894  0.907908  1
  Ir  Ir26  1  0.247576  0.093106  0.592092  1
  Ir  Ir27  1  0.752424  0.407908  0.593106  1
  Ir  Ir28  1  0.119703  0.750000  0.750000  1
  Ir  Ir29  1  0.620445  0.750000  0.750000  1
  Ir  Ir30  1  0.880297  0.250000  0.250000  1
  Ir  Ir31  1  0.379555  0.250000  0.250000  1
