# generated using pymatgen
data_Ba6Tc(NiO6)2
_symmetry_space_group_name_H-M   'P 1'
_cell_length_a   9.14942065
_cell_length_b   9.14942018
_cell_length_c   7.30984324
_cell_angle_alpha   68.12622737
_cell_angle_beta   68.12622931
_cell_angle_gamma   36.76048297
_symmetry_Int_Tables_number   1
_chemical_formula_structural   Ba6Tc(NiO6)2
_chemical_formula_sum   'Ba6 Tc1 Ni2 O12'
_cell_volume   336.81456159
_cell_formula_units_Z   1
loop_
 _symmetry_equiv_pos_site_id
 _symmetry_equiv_pos_as_xyz
  1  'x, y, z'
loop_
 _atom_site_type_symbol
 _atom_site_label
 _atom_site_symmetry_multiplicity
 _atom_site_fract_x
 _atom_site_fract_y
 _atom_site_fract_z
 _atom_site_occupancy
  Ba  Ba0  1  0.871047  0.871047  0.721869  1
  Ba  Ba1  1  0.222142  0.222142  0.714048  1
  Ba  Ba2  1  0.548495  0.548495  0.705328  1
  Ba  Ba3  1  0.451505  0.451505  0.294672  1
  Ba  Ba4  1  0.777858  0.777858  0.285952  1
  Ba  Ba5  1  0.128953  0.128953  0.278131  1
  Tc  Tc6  1  0.000000  0.000000  0.000000  1
  Ni  Ni7  1  0.667816  0.667816  0.999830  1
  Ni  Ni8  1  0.332184  0.332184  0.000170  1
  O  O9  1  0.951832  0.951832  0.289898  1
  O  O10  1  0.284253  0.284253  0.313106  1
  O  O11  1  0.610441  0.610441  0.316467  1
  O  O12  1  0.389559  0.389559  0.683533  1
  O  O13  1  0.715747  0.715747  0.686894  1
  O  O14  1  0.048168  0.048168  0.710102  1
  O  O15  1  0.500000  0.000000  0.000000  1
  O  O16  1  0.843089  0.311345  0.000527  1
  O  O17  1  0.156911  0.688655  0.999473  1
  O  O18  1  0.000000  0.500000  0.000000  1
  O  O19  1  0.311345  0.843089  0.000527  1
  O  O20  1  0.688655  0.156911  0.999473  1
