# generated using pymatgen
data_HfTlPS5
_symmetry_space_group_name_H-M   'P 1'
_cell_length_a   9.93399011
_cell_length_b   9.93399084
_cell_length_c   6.72006500
_cell_angle_alpha   82.56098554
_cell_angle_beta   82.56098499
_cell_angle_gamma   44.21611480
_symmetry_Int_Tables_number   1
_chemical_formula_structural   HfTlPS5
_chemical_formula_sum   'Hf2 Tl2 P2 S10'
_cell_volume   457.93051341
_cell_formula_units_Z   2
loop_
 _symmetry_equiv_pos_site_id
 _symmetry_equiv_pos_as_xyz
  1  'x, y, z'
loop_
 _atom_site_type_symbol
 _atom_site_label
 _atom_site_symmetry_multiplicity
 _atom_site_fract_x
 _atom_site_fract_y
 _atom_site_fract_z
 _atom_site_occupancy
  Hf  Hf0  1  0.773873  0.226127  0.500000  1
  Hf  Hf1  1  0.226127  0.773873  0.500000  1
  Tl  Tl2  1  0.777608  0.777608  0.735681  1
  Tl  Tl3  1  0.222392  0.222392  0.264319  1
  P  P4  1  0.366359  0.366359  0.709808  1
  P  P5  1  0.633641  0.633641  0.290192  1
  S  S6  1  0.812953  0.364246  0.174399  1
  S  S7  1  0.742803  0.742803  0.249044  1
  S  S8  1  0.187047  0.635754  0.825601  1
  S  S9  1  0.413385  0.413385  0.405068  1
  S  S10  1  0.635754  0.187047  0.825601  1
  S  S11  1  0.937168  0.937168  0.328796  1
  S  S12  1  0.062832  0.062832  0.671204  1
  S  S13  1  0.586615  0.586615  0.594932  1
  S  S14  1  0.364246  0.812953  0.174399  1
  S  S15  1  0.257197  0.257197  0.750956  1
