# generated using pymatgen
data_Er3Lu5Re2(B12Ru)2
_symmetry_space_group_name_H-M   'P 1'
_cell_length_a   3.61813300
_cell_length_b   9.06389795
_cell_length_c   11.44037203
_cell_angle_alpha   90.19180952
_cell_angle_beta   90.00000000
_cell_angle_gamma   90.00000000
_symmetry_Int_Tables_number   1
_chemical_formula_structural   Er3Lu5Re2(B12Ru)2
_chemical_formula_sum   'Er3 Lu5 Re2 B24 Ru2'
_cell_volume   375.17789994
_cell_formula_units_Z   1
loop_
 _symmetry_equiv_pos_site_id
 _symmetry_equiv_pos_as_xyz
  1  'x, y, z'
loop_
 _atom_site_type_symbol
 _atom_site_label
 _atom_site_symmetry_multiplicity
 _atom_site_fract_x
 _atom_site_fract_y
 _atom_site_fract_z
 _atom_site_occupancy
  Er  Er0  1  0.000000  0.320472  0.412505  1
  Er  Er1  1  0.000000  0.679501  0.587528  1
  Er  Er2  1  0.000000  0.824069  0.084616  1
  Lu  Lu3  1  0.000000  0.175707  0.915626  1
  Lu  Lu4  1  0.000000  0.943413  0.370759  1
  Lu  Lu5  1  0.000000  0.056718  0.629318  1
  Lu  Lu6  1  0.000000  0.443181  0.128678  1
  Lu  Lu7  1  0.000000  0.556593  0.871137  1
  Re  Re8  1  0.000000  0.139145  0.179762  1
  Re  Re9  1  0.000000  0.861423  0.820050  1
  B  B10  1  0.500000  0.554083  0.433329  1
  B  B11  1  0.500000  0.445833  0.566741  1
  B  B12  1  0.500000  0.053456  0.066178  1
  B  B13  1  0.500000  0.947225  0.933417  1
  B  B14  1  0.500000  0.750152  0.419182  1
  B  B15  1  0.500000  0.249845  0.580942  1
  B  B16  1  0.500000  0.250458  0.079982  1
  B  B17  1  0.500000  0.749560  0.919358  1
  B  B18  1  0.500000  0.791852  0.265554  1
  B  B19  1  0.500000  0.207953  0.734873  1
  B  B20  1  0.500000  0.293135  0.234877  1
  B  B21  1  0.500000  0.706896  0.764974  1
  B  B22  1  0.500000  0.630525  0.185111  1
  B  B23  1  0.500000  0.368982  0.815190  1
  B  B24  1  0.500000  0.130912  0.315705  1
  B  B25  1  0.500000  0.869265  0.684323  1
  B  B26  1  0.500000  0.981781  0.212784  1
  B  B27  1  0.500000  0.018883  0.787395  1
  B  B28  1  0.500000  0.482700  0.287640  1
  B  B29  1  0.500000  0.517142  0.712402  1
  B  B30  1  0.500000  0.601535  0.028214  1
  B  B31  1  0.500000  0.397744  0.971518  1
  B  B32  1  0.500000  0.101751  0.472165  1
  B  B33  1  0.500000  0.898308  0.527896  1
  Ru  Ru34  1  0.000000  0.638470  0.320999  1
  Ru  Ru35  1  0.000000  0.361332  0.679272  1
