# generated using pymatgen
data_Ca2La(CdPd)3
_symmetry_space_group_name_H-M   'P 1'
_cell_length_a   7.66657119
_cell_length_b   7.76561673
_cell_length_c   4.14856100
_cell_angle_alpha   90.00000000
_cell_angle_beta   90.00000000
_cell_angle_gamma   120.42829071
_symmetry_Int_Tables_number   1
_chemical_formula_structural   Ca2La(CdPd)3
_chemical_formula_sum   'Ca2 La1 Cd3 Pd3'
_cell_volume   212.96817507
_cell_formula_units_Z   1
loop_
 _symmetry_equiv_pos_site_id
 _symmetry_equiv_pos_as_xyz
  1  'x, y, z'
loop_
 _atom_site_type_symbol
 _atom_site_label
 _atom_site_symmetry_multiplicity
 _atom_site_fract_x
 _atom_site_fract_y
 _atom_site_fract_z
 _atom_site_occupancy
  Ca  Ca0  1  0.404649  0.405089  0.500000  1
  Ca  Ca1  1  0.595351  0.000439  0.500000  1
  La  La2  1  0.000000  0.592524  0.500000  1
  Cd  Cd3  1  0.737091  0.747130  0.000000  1
  Cd  Cd4  1  0.262909  0.010039  0.000000  1
  Cd  Cd5  1  0.000000  0.242046  0.000000  1
  Pd  Pd6  1  0.679977  0.344411  0.000000  1
  Pd  Pd7  1  0.320023  0.664434  0.000000  1
  Pd  Pd8  1  0.000000  0.993888  0.500000  1
