# generated using pymatgen
data_EuNb9Se16
_symmetry_space_group_name_H-M   'P 1'
_cell_length_a   7.00873800
_cell_length_b   7.00873973
_cell_length_c   14.45460400
_cell_angle_alpha   90.00000000
_cell_angle_beta   90.00000000
_cell_angle_gamma   120.00001071
_symmetry_Int_Tables_number   1
_chemical_formula_structural   EuNb9Se16
_chemical_formula_sum   'Eu1 Nb9 Se16'
_cell_volume   614.91705887
_cell_formula_units_Z   1
loop_
 _symmetry_equiv_pos_site_id
 _symmetry_equiv_pos_as_xyz
  1  'x, y, z'
loop_
 _atom_site_type_symbol
 _atom_site_label
 _atom_site_symmetry_multiplicity
 _atom_site_fract_x
 _atom_site_fract_y
 _atom_site_fract_z
 _atom_site_occupancy
  Eu  Eu0  1  0.000000  0.000000  0.000000  1
  Nb  Nb1  1  0.000000  0.000000  0.270856  1
  Nb  Nb2  1  0.000000  0.000000  0.729144  1
  Nb  Nb3  1  0.506258  0.012517  0.270855  1
  Nb  Nb4  1  0.493742  0.987483  0.729145  1
  Nb  Nb5  1  0.987483  0.493742  0.270855  1
  Nb  Nb6  1  0.012517  0.506258  0.729145  1
  Nb  Nb7  1  0.506258  0.493742  0.270855  1
  Nb  Nb8  1  0.493742  0.506258  0.729145  1
  Nb  Nb9  1  0.000000  0.000000  0.500000  1
  Se  Se10  1  0.333333  0.666667  0.610632  1
  Se  Se11  1  0.666667  0.333333  0.389368  1
  Se  Se12  1  0.666667  0.333333  0.151169  1
  Se  Se13  1  0.333333  0.666667  0.848831  1
  Se  Se14  1  0.168264  0.336526  0.155428  1
  Se  Se15  1  0.831736  0.663474  0.844572  1
  Se  Se16  1  0.663474  0.831736  0.155428  1
  Se  Se17  1  0.831509  0.663019  0.613656  1
  Se  Se18  1  0.336526  0.168264  0.844572  1
  Se  Se19  1  0.168491  0.336981  0.386344  1
  Se  Se20  1  0.168264  0.831736  0.155428  1
  Se  Se21  1  0.336981  0.168491  0.613656  1
  Se  Se22  1  0.831736  0.168264  0.844572  1
  Se  Se23  1  0.663019  0.831509  0.386344  1
  Se  Se24  1  0.831509  0.168491  0.613656  1
  Se  Se25  1  0.168491  0.831509  0.386344  1
