# generated using pymatgen
data_Pa6Al24Fe7Re
_symmetry_space_group_name_H-M   'P 1'
_cell_length_a   8.75462449
_cell_length_b   8.75462518
_cell_length_c   9.20199576
_cell_angle_alpha   90.35227140
_cell_angle_beta   89.64772666
_cell_angle_gamma   120.25596270
_symmetry_Int_Tables_number   1
_chemical_formula_structural   Pa6Al24Fe7Re
_chemical_formula_sum   'Pa6 Al24 Fe7 Re1'
_cell_volume   609.18735654
_cell_formula_units_Z   1
loop_
 _symmetry_equiv_pos_site_id
 _symmetry_equiv_pos_as_xyz
  1  'x, y, z'
loop_
 _atom_site_type_symbol
 _atom_site_label
 _atom_site_symmetry_multiplicity
 _atom_site_fract_x
 _atom_site_fract_y
 _atom_site_fract_z
 _atom_site_occupancy
  Pa  Pa0  1  0.800909  0.199091  0.748477  1
  Pa  Pa1  1  0.199091  0.800909  0.251523  1
  Pa  Pa2  1  0.398804  0.204614  0.751517  1
  Pa  Pa3  1  0.601196  0.795386  0.248483  1
  Pa  Pa4  1  0.795386  0.601196  0.751517  1
  Pa  Pa5  1  0.204614  0.398804  0.248483  1
  Al  Al6  1  0.670907  0.329093  0.991735  1
  Al  Al7  1  0.329093  0.670907  0.008265  1
  Al  Al8  1  0.332585  0.667415  0.490617  1
  Al  Al9  1  0.667415  0.332585  0.509383  1
  Al  Al10  1  0.840908  0.159092  0.420814  1
  Al  Al11  1  0.159092  0.840908  0.579186  1
  Al  Al12  1  0.319581  0.158006  0.422375  1
  Al  Al13  1  0.158717  0.841283  0.920935  1
  Al  Al14  1  0.680419  0.841994  0.577625  1
  Al  Al15  1  0.841283  0.158717  0.079065  1
  Al  Al16  1  0.841994  0.680419  0.422375  1
  Al  Al17  1  0.680917  0.845100  0.920191  1
  Al  Al18  1  0.158006  0.319581  0.577625  1
  Al  Al19  1  0.319083  0.154900  0.079809  1
  Al  Al20  1  0.154900  0.319083  0.920191  1
  Al  Al21  1  0.845100  0.680917  0.079809  1
  Al  Al22  1  0.434992  0.565008  0.743264  1
  Al  Al23  1  0.565008  0.434992  0.256736  1
  Al  Al24  1  0.117907  0.561522  0.749448  1
  Al  Al25  1  0.882093  0.438478  0.250552  1
  Al  Al26  1  0.438478  0.882093  0.749448  1
  Al  Al27  1  0.561522  0.117907  0.250552  1
  Al  Al28  1  0.999366  0.000634  0.750027  1
  Al  Al29  1  0.000634  0.999366  0.249973  1
  Fe  Fe30  1  0.000000  0.500000  0.000000  1
  Fe  Fe31  1  0.500000  0.500000  0.500000  1
  Fe  Fe32  1  0.500000  0.000000  0.000000  1
  Fe  Fe33  1  0.000000  0.500000  0.500000  1
  Fe  Fe34  1  0.500000  0.000000  0.500000  1
  Fe  Fe35  1  0.000000  0.000000  0.000000  1
  Fe  Fe36  1  0.000000  0.000000  0.500000  1
  Re  Re37  1  0.500000  0.500000  0.000000  1
