# generated using pymatgen
data_Nd4Al23Ni6
_symmetry_space_group_name_H-M   'P 1'
_cell_length_a   8.31025918
_cell_length_b   8.31025784
_cell_length_c   18.31474833
_cell_angle_alpha   68.08392958
_cell_angle_beta   68.08393337
_cell_angle_gamma   28.69902323
_symmetry_Int_Tables_number   1
_chemical_formula_structural   Nd4Al23Ni6
_chemical_formula_sum   'Nd4 Al23 Ni6'
_cell_volume   560.49249146
_cell_formula_units_Z   1
loop_
 _symmetry_equiv_pos_site_id
 _symmetry_equiv_pos_as_xyz
  1  'x, y, z'
loop_
 _atom_site_type_symbol
 _atom_site_label
 _atom_site_symmetry_multiplicity
 _atom_site_fract_x
 _atom_site_fract_y
 _atom_site_fract_z
 _atom_site_occupancy
  Nd  Nd0  1  0.265909  0.265909  0.781190  1
  Nd  Nd1  1  0.568692  0.568692  0.593734  1
  Nd  Nd2  1  0.734091  0.734091  0.218810  1
  Nd  Nd3  1  0.431308  0.431308  0.406266  1
  Al  Al4  1  0.468481  0.468481  0.781959  1
  Al  Al5  1  0.082869  0.082869  0.312182  1
  Al  Al6  1  0.608245  0.608245  0.839802  1
  Al  Al7  1  0.257044  0.257044  0.953656  1
  Al  Al8  1  0.624350  0.624350  0.405531  1
  Al  Al9  1  0.090643  0.090643  0.951786  1
  Al  Al10  1  0.531519  0.531519  0.218041  1
  Al  Al11  1  0.203153  0.203153  0.478747  1
  Al  Al12  1  0.909034  0.909034  0.278594  1
  Al  Al13  1  0.391755  0.391755  0.160198  1
  Al  Al14  1  0.909357  0.909357  0.048214  1
  Al  Al15  1  0.742956  0.742956  0.046344  1
  Al  Al16  1  0.375650  0.375650  0.594469  1
  Al  Al17  1  0.277368  0.277368  0.324249  1
  Al  Al18  1  0.856640  0.856640  0.858555  1
  Al  Al19  1  0.143360  0.143360  0.141445  1
  Al  Al20  1  0.431899  0.431899  0.940537  1
  Al  Al21  1  0.796847  0.796847  0.521253  1
  Al  Al22  1  0.568101  0.568101  0.059463  1
  Al  Al23  1  0.722632  0.722632  0.675751  1
  Al  Al24  1  0.917131  0.917131  0.687818  1
  Al  Al25  1  0.090966  0.090966  0.721406  1
  Al  Al26  1  0.000000  0.000000  0.500000  1
  Ni  Ni27  1  0.992451  0.992451  0.133712  1
  Ni  Ni28  1  0.007549  0.007549  0.866288  1
  Ni  Ni29  1  0.309909  0.309909  0.067123  1
  Ni  Ni30  1  0.690091  0.690091  0.932877  1
  Ni  Ni31  1  0.773525  0.773525  0.397873  1
  Ni  Ni32  1  0.226475  0.226475  0.602127  1
