# generated using pymatgen
data_LiTh9(In2Ru)4
_symmetry_space_group_name_H-M   'P 1'
_cell_length_a   8.19901400
_cell_length_b   18.38924438
_cell_length_c   3.81925300
_cell_angle_alpha   90.00000000
_cell_angle_beta   90.00000000
_cell_angle_gamma   90.71263392
_symmetry_Int_Tables_number   1
_chemical_formula_structural   LiTh9(In2Ru)4
_chemical_formula_sum   'Li1 Th9 In8 Ru4'
_cell_volume   575.79825901
_cell_formula_units_Z   1
loop_
 _symmetry_equiv_pos_site_id
 _symmetry_equiv_pos_as_xyz
  1  'x, y, z'
loop_
 _atom_site_type_symbol
 _atom_site_label
 _atom_site_symmetry_multiplicity
 _atom_site_fract_x
 _atom_site_fract_y
 _atom_site_fract_z
 _atom_site_occupancy
  Li  Li0  1  0.000000  0.000000  0.000000  1
  Th  Th1  1  0.500000  0.500000  0.000000  1
  Th  Th2  1  0.758042  0.272692  0.000000  1
  Th  Th3  1  0.241958  0.727308  0.000000  1
  Th  Th4  1  0.747846  0.780853  0.000000  1
  Th  Th5  1  0.252154  0.219147  0.000000  1
  Th  Th6  1  0.610211  0.086095  0.000000  1
  Th  Th7  1  0.389789  0.913905  0.000000  1
  Th  Th8  1  0.875409  0.590191  0.000000  1
  Th  Th9  1  0.124591  0.409809  0.000000  1
  In  In10  1  0.728392  0.939607  0.500000  1
  In  In11  1  0.271608  0.060393  0.500000  1
  In  In12  1  0.794663  0.431500  0.500000  1
  In  In13  1  0.205337  0.568500  0.500000  1
  In  In14  1  0.554919  0.650638  0.500000  1
  In  In15  1  0.445081  0.349362  0.500000  1
  In  In16  1  0.938319  0.139160  0.500000  1
  In  In17  1  0.061681  0.860840  0.500000  1
  Ru  Ru18  1  0.511991  0.193898  0.500000  1
  Ru  Ru19  1  0.488009  0.806102  0.500000  1
  Ru  Ru20  1  0.985834  0.696367  0.500000  1
  Ru  Ru21  1  0.014166  0.303633  0.500000  1
