# generated using pymatgen
data_Ho2Tm18FeCo3Sb8
_symmetry_space_group_name_H-M   'P 1'
_cell_length_a   7.78730257
_cell_length_b   8.73641100
_cell_length_c   12.08170888
_cell_angle_alpha   90.00000000
_cell_angle_beta   89.95624611
_cell_angle_gamma   90.00000000
_symmetry_Int_Tables_number   1
_chemical_formula_structural   Ho2Tm18FeCo3Sb8
_chemical_formula_sum   'Ho2 Tm18 Fe1 Co3 Sb8'
_cell_volume   821.95557656
_cell_formula_units_Z   1
loop_
 _symmetry_equiv_pos_site_id
 _symmetry_equiv_pos_as_xyz
  1  'x, y, z'
loop_
 _atom_site_type_symbol
 _atom_site_label
 _atom_site_symmetry_multiplicity
 _atom_site_fract_x
 _atom_site_fract_y
 _atom_site_fract_z
 _atom_site_occupancy
  Ho  Ho0  1  0.377382  0.250000  0.692236  1
  Ho  Ho1  1  0.877446  0.750000  0.808405  1
  Tm  Tm2  1  0.157476  0.750000  0.205057  1
  Tm  Tm3  1  0.656153  0.250000  0.295757  1
  Tm  Tm4  1  0.843675  0.250000  0.796598  1
  Tm  Tm5  1  0.344504  0.750000  0.703410  1
  Tm  Tm6  1  0.449298  0.750000  0.997571  1
  Tm  Tm7  1  0.947874  0.250000  0.502543  1
  Tm  Tm8  1  0.549303  0.250000  0.002424  1
  Tm  Tm9  1  0.050612  0.750000  0.496856  1
  Tm  Tm10  1  0.621504  0.750000  0.308203  1
  Tm  Tm11  1  0.122876  0.250000  0.190936  1
  Tm  Tm12  1  0.823988  0.963749  0.066138  1
  Tm  Tm13  1  0.325357  0.033628  0.435156  1
  Tm  Tm14  1  0.176277  0.462059  0.934846  1
  Tm  Tm15  1  0.676973  0.539192  0.565017  1
  Tm  Tm16  1  0.176277  0.037941  0.934846  1
  Tm  Tm17  1  0.676973  0.960808  0.565017  1
  Tm  Tm18  1  0.823988  0.536251  0.066138  1
  Tm  Tm19  1  0.325357  0.466372  0.435156  1
  Fe  Fe20  1  0.429676  0.750000  0.489558  1
  Co  Co21  1  0.933293  0.250000  0.009144  1
  Co  Co22  1  0.568125  0.250000  0.508472  1
  Co  Co23  1  0.066833  0.750000  0.992265  1
  Sb  Sb24  1  0.931002  0.992714  0.327478  1
  Sb  Sb25  1  0.431206  0.008035  0.171835  1
  Sb  Sb26  1  0.068332  0.491784  0.671860  1
  Sb  Sb27  1  0.568851  0.508099  0.827954  1
  Sb  Sb28  1  0.068332  0.008216  0.671860  1
  Sb  Sb29  1  0.568851  0.991901  0.827954  1
  Sb  Sb30  1  0.931002  0.507286  0.327478  1
  Sb  Sb31  1  0.431206  0.491965  0.171835  1
