# generated using pymatgen
data_Dy5Y13Sc2(Cd3Ru)2
_symmetry_space_group_name_H-M   'P 1'
_cell_length_a   9.55712888
_cell_length_b   9.55665884
_cell_length_c   9.79614420
_cell_angle_alpha   89.99999721
_cell_angle_beta   89.95088488
_cell_angle_gamma   119.99837630
_symmetry_Int_Tables_number   1
_chemical_formula_structural   Dy5Y13Sc2(Cd3Ru)2
_chemical_formula_sum   'Dy5 Y13 Sc2 Cd6 Ru2'
_cell_volume   774.86531140
_cell_formula_units_Z   1
loop_
 _symmetry_equiv_pos_site_id
 _symmetry_equiv_pos_as_xyz
  1  'x, y, z'
loop_
 _atom_site_type_symbol
 _atom_site_label
 _atom_site_symmetry_multiplicity
 _atom_site_fract_x
 _atom_site_fract_y
 _atom_site_fract_z
 _atom_site_occupancy
  Dy  Dy0  1  0.208367  0.791312  0.440554  1
  Dy  Dy1  1  0.208367  0.417054  0.440554  1
  Dy  Dy2  1  0.582926  0.791463  0.440621  1
  Dy  Dy3  1  0.791524  0.208568  0.559480  1
  Dy  Dy4  1  0.791524  0.582956  0.559480  1
  Y  Y5  1  0.416245  0.208122  0.558856  1
  Y  Y6  1  0.791788  0.208129  0.940814  1
  Y  Y7  1  0.791788  0.583659  0.940814  1
  Y  Y8  1  0.416455  0.208228  0.940875  1
  Y  Y9  1  0.208152  0.791780  0.059169  1
  Y  Y10  1  0.208152  0.416372  0.059169  1
  Y  Y11  1  0.583663  0.791832  0.059137  1
  Y  Y12  1  0.540973  0.459108  0.250337  1
  Y  Y13  1  0.540973  0.081865  0.250337  1
  Y  Y14  1  0.918026  0.459013  0.250512  1
  Y  Y15  1  0.459031  0.541094  0.749611  1
  Y  Y16  1  0.459031  0.917937  0.749611  1
  Y  Y17  1  0.081916  0.540958  0.749514  1
  Sc  Sc18  1  0.999866  0.999933  0.499916  1
  Sc  Sc19  1  0.000017  0.000008  0.000128  1
  Cd  Cd20  1  0.889219  0.110821  0.249842  1
  Cd  Cd21  1  0.889219  0.778400  0.249842  1
  Cd  Cd22  1  0.221648  0.110825  0.249934  1
  Cd  Cd23  1  0.110858  0.889212  0.750105  1
  Cd  Cd24  1  0.110858  0.221643  0.750105  1
  Cd  Cd25  1  0.778346  0.889172  0.750167  1
  Ru  Ru26  1  0.333391  0.666696  0.251849  1
  Ru  Ru27  1  0.667677  0.333838  0.748669  1
