# generated using pymatgen
data_Ce2Al2Co14Ni
_symmetry_space_group_name_H-M   'P 1'
_cell_length_a   6.33434981
_cell_length_b   6.33435073
_cell_length_c   6.31330501
_cell_angle_alpha   82.53612601
_cell_angle_beta   82.53611991
_cell_angle_gamma   82.70365899
_symmetry_Int_Tables_number   1
_chemical_formula_structural   Ce2Al2Co14Ni
_chemical_formula_sum   'Ce2 Al2 Co14 Ni1'
_cell_volume   247.47310239
_cell_formula_units_Z   1
loop_
 _symmetry_equiv_pos_site_id
 _symmetry_equiv_pos_as_xyz
  1  'x, y, z'
loop_
 _atom_site_type_symbol
 _atom_site_label
 _atom_site_symmetry_multiplicity
 _atom_site_fract_x
 _atom_site_fract_y
 _atom_site_fract_z
 _atom_site_occupancy
  Ce  Ce0  1  0.354918  0.354918  0.354635  1
  Ce  Ce1  1  0.645639  0.645639  0.645351  1
  Al  Al2  1  0.105930  0.105930  0.105311  1
  Al  Al3  1  0.894752  0.894752  0.894159  1
  Co  Co4  1  0.000552  0.286580  0.713637  1
  Co  Co5  1  0.000805  0.000805  0.499824  1
  Co  Co6  1  0.501430  0.998879  0.000572  1
  Co  Co7  1  0.998879  0.501430  0.000572  1
  Co  Co8  1  0.285322  0.714730  0.999330  1
  Co  Co9  1  0.715030  0.999503  0.286182  1
  Co  Co10  1  0.999503  0.715030  0.286182  1
  Co  Co11  1  0.714730  0.285322  0.999330  1
  Co  Co12  1  0.853609  0.350876  0.351857  1
  Co  Co13  1  0.286580  0.000552  0.713637  1
  Co  Co14  1  0.649558  0.144033  0.648542  1
  Co  Co15  1  0.648510  0.648510  0.146594  1
  Co  Co16  1  0.144033  0.649558  0.648542  1
  Co  Co17  1  0.350876  0.853609  0.351857  1
  Ni  Ni18  1  0.349345  0.349345  0.853888  1
