# generated using pymatgen
data_Nd2TeP
_symmetry_space_group_name_H-M   'P 1'
_cell_length_a   7.68761635
_cell_length_b   7.68761595
_cell_length_c   7.68761649
_cell_angle_alpha   32.24946050
_cell_angle_beta   32.24946402
_cell_angle_gamma   32.24946068
_symmetry_Int_Tables_number   1
_chemical_formula_structural   Nd2TeP
_chemical_formula_sum   'Nd2 Te1 P1'
_cell_volume   114.98548252
_cell_formula_units_Z   1
loop_
 _symmetry_equiv_pos_site_id
 _symmetry_equiv_pos_as_xyz
  1  'x, y, z'
loop_
 _atom_site_type_symbol
 _atom_site_label
 _atom_site_symmetry_multiplicity
 _atom_site_fract_x
 _atom_site_fract_y
 _atom_site_fract_z
 _atom_site_occupancy
  Nd  Nd0  1  0.262030  0.262030  0.262030  1
  Nd  Nd1  1  0.737970  0.737970  0.737970  1
  Te  Te2  1  0.500000  0.500000  0.500000  1
  P  P3  1  0.000000  0.000000  0.000000  1
