# generated using pymatgen
data_TbY3S4
_symmetry_space_group_name_H-M   'P 1'
_cell_length_a   12.79109400
_cell_length_b   12.79109426
_cell_length_c   12.79109397
_cell_angle_alpha   17.78010010
_cell_angle_beta   17.78009700
_cell_angle_gamma   17.78009718
_symmetry_Int_Tables_number   1
_chemical_formula_structural   TbY3S4
_chemical_formula_sum   'Tb1 Y3 S4'
_cell_volume   170.35765822
_cell_formula_units_Z   1
loop_
 _symmetry_equiv_pos_site_id
 _symmetry_equiv_pos_as_xyz
  1  'x, y, z'
loop_
 _atom_site_type_symbol
 _atom_site_label
 _atom_site_symmetry_multiplicity
 _atom_site_fract_x
 _atom_site_fract_y
 _atom_site_fract_z
 _atom_site_occupancy
  Tb  Tb0  1  0.000000  0.000000  0.000000  1
  Y  Y1  1  0.249667  0.249667  0.249667  1
  Y  Y2  1  0.500000  0.500000  0.500000  1
  Y  Y3  1  0.750333  0.750333  0.750333  1
  S  S4  1  0.375430  0.375430  0.375430  1
  S  S5  1  0.125303  0.125303  0.125303  1
  S  S6  1  0.624570  0.624570  0.624570  1
  S  S7  1  0.874697  0.874697  0.874697  1
