# generated using pymatgen
data_CeNd5Pa2(ZnRh)8
_symmetry_space_group_name_H-M   'P 1'
_cell_length_a   3.87029800
_cell_length_b   7.54179598
_cell_length_c   16.52343472
_cell_angle_alpha   90.38103618
_cell_angle_beta   90.00000000
_cell_angle_gamma   90.00000000
_symmetry_Int_Tables_number   1
_chemical_formula_structural   CeNd5Pa2(ZnRh)8
_chemical_formula_sum   'Ce1 Nd5 Pa2 Zn8 Rh8'
_cell_volume   482.29183604
_cell_formula_units_Z   1
loop_
 _symmetry_equiv_pos_site_id
 _symmetry_equiv_pos_as_xyz
  1  'x, y, z'
loop_
 _atom_site_type_symbol
 _atom_site_label
 _atom_site_symmetry_multiplicity
 _atom_site_fract_x
 _atom_site_fract_y
 _atom_site_fract_z
 _atom_site_occupancy
  Ce  Ce0  1  0.750000  0.324735  0.438212  1
  Nd  Nd1  1  0.250000  0.063750  0.712469  1
  Nd  Nd2  1  0.250000  0.169494  0.937755  1
  Nd  Nd3  1  0.750000  0.940815  0.287148  1
  Nd  Nd4  1  0.250000  0.555206  0.785634  1
  Nd  Nd5  1  0.750000  0.441175  0.214291  1
  Pa  Pa6  1  0.250000  0.674524  0.560196  1
  Pa  Pa7  1  0.750000  0.827716  0.060720  1
  Zn  Zn8  1  0.250000  0.109755  0.156316  1
  Zn  Zn9  1  0.750000  0.498355  0.942444  1
  Zn  Zn10  1  0.750000  0.013152  0.560138  1
  Zn  Zn11  1  0.750000  0.389024  0.652684  1
  Zn  Zn12  1  0.750000  0.887086  0.846342  1
  Zn  Zn13  1  0.250000  0.485885  0.060661  1
  Zn  Zn14  1  0.250000  0.612055  0.346893  1
  Zn  Zn15  1  0.250000  0.993508  0.441120  1
  Rh  Rh16  1  0.750000  0.734519  0.447528  1
  Rh  Rh17  1  0.750000  0.261399  0.812818  1
  Rh  Rh18  1  0.750000  0.749980  0.670971  1
  Rh  Rh19  1  0.250000  0.753942  0.171245  1
  Rh  Rh20  1  0.250000  0.760501  0.947741  1
  Rh  Rh21  1  0.250000  0.273160  0.555547  1
  Rh  Rh22  1  0.750000  0.232154  0.066669  1
  Rh  Rh23  1  0.250000  0.248109  0.324458  1
