# generated using pymatgen
data_La6Tb5Er5(CdIr)4
_symmetry_space_group_name_H-M   'P 1'
_cell_length_a   9.82205685
_cell_length_b   9.81130206
_cell_length_c   9.81130220
_cell_angle_alpha   59.92162784
_cell_angle_beta   59.96373621
_cell_angle_gamma   59.96373595
_symmetry_Int_Tables_number   1
_chemical_formula_structural   La6Tb5Er5(CdIr)4
_chemical_formula_sum   'La6 Tb5 Er5 Cd4 Ir4'
_cell_volume   667.79762205
_cell_formula_units_Z   1
loop_
 _symmetry_equiv_pos_site_id
 _symmetry_equiv_pos_as_xyz
  1  'x, y, z'
loop_
 _atom_site_type_symbol
 _atom_site_label
 _atom_site_symmetry_multiplicity
 _atom_site_fract_x
 _atom_site_fract_y
 _atom_site_fract_z
 _atom_site_occupancy
  La  La0  1  0.192204  0.807796  0.807796  1
  La  La1  1  0.807286  0.192714  0.192714  1
  La  La2  1  0.807410  0.192261  0.807609  1
  La  La3  1  0.192719  0.807609  0.192261  1
  La  La4  1  0.807410  0.807609  0.192261  1
  La  La5  1  0.192719  0.192261  0.807609  1
  Tb  Tb6  1  0.596217  0.597129  0.597129  1
  Tb  Tb7  1  0.596875  0.597161  0.209088  1
  Tb  Tb8  1  0.596875  0.209088  0.597161  1
  Tb  Tb9  1  0.209523  0.597129  0.597129  1
  Tb  Tb10  1  0.063793  0.436207  0.436207  1
  Er  Er11  1  0.436033  0.063967  0.063967  1
  Er  Er12  1  0.436760  0.063300  0.435786  1
  Er  Er13  1  0.064155  0.435786  0.063300  1
  Er  Er14  1  0.436760  0.435786  0.063300  1
  Er  Er15  1  0.064155  0.063300  0.435786  1
  Cd  Cd16  1  0.828482  0.828597  0.828597  1
  Cd  Cd17  1  0.828496  0.828743  0.514264  1
  Cd  Cd18  1  0.828496  0.514264  0.828743  1
  Cd  Cd19  1  0.514321  0.828597  0.828597  1
  Ir  Ir20  1  0.390880  0.390668  0.390668  1
  Ir  Ir21  1  0.390322  0.390831  0.828526  1
  Ir  Ir22  1  0.390322  0.828526  0.390831  1
  Ir  Ir23  1  0.827784  0.390668  0.390668  1
