# generated using pymatgen
data_Tb4Zr4Ir3Pt
_symmetry_space_group_name_H-M   'P 1'
_cell_length_a   4.64787300
_cell_length_b   7.14446724
_cell_length_c   8.25413744
_cell_angle_alpha   89.59959729
_cell_angle_beta   90.00000000
_cell_angle_gamma   90.00000000
_symmetry_Int_Tables_number   1
_chemical_formula_structural   Tb4Zr4Ir3Pt
_chemical_formula_sum   'Tb4 Zr4 Ir3 Pt1'
_cell_volume   274.08495254
_cell_formula_units_Z   1
loop_
 _symmetry_equiv_pos_site_id
 _symmetry_equiv_pos_as_xyz
  1  'x, y, z'
loop_
 _atom_site_type_symbol
 _atom_site_label
 _atom_site_symmetry_multiplicity
 _atom_site_fract_x
 _atom_site_fract_y
 _atom_site_fract_z
 _atom_site_occupancy
  Tb  Tb0  1  0.750000  0.516950  0.826475  1
  Tb  Tb1  1  0.250000  0.981151  0.322407  1
  Tb  Tb2  1  0.250000  0.486259  0.174868  1
  Tb  Tb3  1  0.750000  0.014116  0.677218  1
  Zr  Zr4  1  0.750000  0.646043  0.423748  1
  Zr  Zr5  1  0.250000  0.357982  0.581176  1
  Zr  Zr6  1  0.750000  0.141674  0.075983  1
  Zr  Zr7  1  0.250000  0.858957  0.922558  1
  Ir  Ir8  1  0.250000  0.728038  0.589328  1
  Ir  Ir9  1  0.250000  0.230919  0.909537  1
  Ir  Ir10  1  0.750000  0.769835  0.090600  1
  Pt  Pt11  1  0.750000  0.268074  0.406103  1
