# generated using pymatgen
data_Hf(IO3)4
_symmetry_space_group_name_H-M   'P 1'
_cell_length_a   8.45340100
_cell_length_b   8.45340100
_cell_length_c   7.49432200
_cell_angle_alpha   90.00000000
_cell_angle_beta   90.00000000
_cell_angle_gamma   90.00000000
_symmetry_Int_Tables_number   1
_chemical_formula_structural   Hf(IO3)4
_chemical_formula_sum   'Hf2 I8 O24'
_cell_volume   535.54416369
_cell_formula_units_Z   2
loop_
 _symmetry_equiv_pos_site_id
 _symmetry_equiv_pos_as_xyz
  1  'x, y, z'
loop_
 _atom_site_type_symbol
 _atom_site_label
 _atom_site_symmetry_multiplicity
 _atom_site_fract_x
 _atom_site_fract_y
 _atom_site_fract_z
 _atom_site_occupancy
  Hf  Hf0  1  0.250000  0.250000  0.054731  1
  Hf  Hf1  1  0.750000  0.750000  0.945269  1
  I  I2  1  0.969846  0.502774  0.271915  1
  I  I3  1  0.502774  0.530154  0.271915  1
  I  I4  1  0.997226  0.969846  0.271915  1
  I  I5  1  0.530154  0.997226  0.271915  1
  I  I6  1  0.469847  0.002775  0.728085  1
  I  I7  1  0.002775  0.030153  0.728085  1
  I  I8  1  0.497226  0.469847  0.728085  1
  I  I9  1  0.030153  0.497226  0.728085  1
  O  O10  1  0.661931  0.546669  0.098095  1
  O  O11  1  0.953332  0.661931  0.098095  1
  O  O12  1  0.546669  0.838070  0.098095  1
  O  O13  1  0.838070  0.953332  0.098095  1
  O  O14  1  0.322490  0.044509  0.215588  1
  O  O15  1  0.044509  0.177510  0.215588  1
  O  O16  1  0.455491  0.322490  0.215588  1
  O  O17  1  0.177510  0.455491  0.215588  1
  O  O18  1  0.650657  0.494735  0.446080  1
  O  O19  1  0.005266  0.650657  0.446080  1
  O  O20  1  0.494735  0.849343  0.446080  1
  O  O21  1  0.849343  0.005266  0.446080  1
  O  O22  1  0.150657  0.994734  0.553920  1
  O  O23  1  0.505266  0.150657  0.553920  1
  O  O24  1  0.994734  0.349343  0.553920  1
  O  O25  1  0.349343  0.505266  0.553920  1
  O  O26  1  0.822490  0.544510  0.784412  1
  O  O27  1  0.544510  0.677509  0.784412  1
  O  O28  1  0.955491  0.822490  0.784412  1
  O  O29  1  0.677509  0.955491  0.784412  1
  O  O30  1  0.161930  0.046669  0.901905  1
  O  O31  1  0.453331  0.161930  0.901905  1
  O  O32  1  0.046669  0.338070  0.901905  1
  O  O33  1  0.338070  0.453331  0.901905  1
