# generated using pymatgen
data_Dy3YCdSnAu4
_symmetry_space_group_name_H-M   'P 1'
_cell_length_a   8.01708443
_cell_length_b   8.01708443
_cell_length_c   7.36442100
_cell_angle_alpha   90.00000000
_cell_angle_beta   90.00000000
_cell_angle_gamma   90.12047926
_symmetry_Int_Tables_number   1
_chemical_formula_structural   Dy3YCdSnAu4
_chemical_formula_sum   'Dy6 Y2 Cd2 Sn2 Au8'
_cell_volume   473.33711814
_cell_formula_units_Z   2
loop_
 _symmetry_equiv_pos_site_id
 _symmetry_equiv_pos_as_xyz
  1  'x, y, z'
loop_
 _atom_site_type_symbol
 _atom_site_label
 _atom_site_symmetry_multiplicity
 _atom_site_fract_x
 _atom_site_fract_y
 _atom_site_fract_z
 _atom_site_occupancy
  Dy  Dy0  1  0.341034  0.341034  0.000000  1
  Dy  Dy1  1  0.658966  0.658966  0.000000  1
  Dy  Dy2  1  0.682483  0.682483  0.500000  1
  Dy  Dy3  1  0.317517  0.317517  0.500000  1
  Dy  Dy4  1  0.182524  0.817476  0.000000  1
  Dy  Dy5  1  0.817476  0.182524  0.000000  1
  Y  Y6  1  0.840796  0.159204  0.500000  1
  Y  Y7  1  0.159204  0.840796  0.500000  1
  Cd  Cd8  1  0.500000  0.000000  0.249989  1
  Cd  Cd9  1  0.000000  0.500000  0.750011  1
  Sn  Sn10  1  0.500000  0.000000  0.750130  1
  Sn  Sn11  1  0.000000  0.500000  0.249870  1
  Au  Au12  1  0.624545  0.368737  0.273130  1
  Au  Au13  1  0.375455  0.631263  0.273130  1
  Au  Au14  1  0.124999  0.131592  0.773985  1
  Au  Au15  1  0.875001  0.868408  0.773985  1
  Au  Au16  1  0.368737  0.624545  0.726870  1
  Au  Au17  1  0.631263  0.375455  0.726870  1
  Au  Au18  1  0.868408  0.875001  0.226015  1
  Au  Au19  1  0.131592  0.124999  0.226015  1
