# generated using pymatgen
data_Mg4Sc4In7Hg
_symmetry_space_group_name_H-M   'P 1'
_cell_length_a   6.45500562
_cell_length_b   6.46112226
_cell_length_c   8.55128800
_cell_angle_alpha   89.99993339
_cell_angle_beta   90.00319184
_cell_angle_gamma   89.55342923
_symmetry_Int_Tables_number   1
_chemical_formula_structural   Mg4Sc4In7Hg
_chemical_formula_sum   'Mg4 Sc4 In7 Hg1'
_cell_volume   356.63414814
_cell_formula_units_Z   1
loop_
 _symmetry_equiv_pos_site_id
 _symmetry_equiv_pos_as_xyz
  1  'x, y, z'
loop_
 _atom_site_type_symbol
 _atom_site_label
 _atom_site_symmetry_multiplicity
 _atom_site_fract_x
 _atom_site_fract_y
 _atom_site_fract_z
 _atom_site_occupancy
  Mg  Mg0  1  0.754422  0.245614  0.995262  1
  Mg  Mg1  1  0.245571  0.754314  0.995275  1
  Mg  Mg2  1  0.754516  0.245585  0.504755  1
  Mg  Mg3  1  0.245480  0.754440  0.504753  1
  Sc  Sc4  1  0.251291  0.250895  0.999550  1
  Sc  Sc5  1  0.748811  0.749271  0.999548  1
  Sc  Sc6  1  0.251323  0.250860  0.500401  1
  Sc  Sc7  1  0.748837  0.749261  0.500430  1
  In  In8  1  0.000196  0.499798  0.250014  1
  In  In9  1  0.000128  0.000078  0.250003  1
  In  In10  1  0.499850  0.499897  0.250034  1
  In  In11  1  0.499782  0.000171  0.250007  1
  In  In12  1  0.499830  0.499861  0.749947  1
  In  In13  1  0.499786  0.000155  0.749989  1
  In  In14  1  0.000193  0.499808  0.749990  1
  Hg  Hg15  1  0.999981  0.999992  0.750041  1
