# generated using pymatgen
data_Rb2Zr(OF3)2
_symmetry_space_group_name_H-M   'P 1'
_cell_length_a   6.58051502
_cell_length_b   6.57927684
_cell_length_c   5.78855933
_cell_angle_alpha   82.34145779
_cell_angle_beta   82.21021441
_cell_angle_gamma   86.87966412
_symmetry_Int_Tables_number   1
_chemical_formula_structural   Rb2Zr(OF3)2
_chemical_formula_sum   'Rb2 Zr1 O2 F6'
_cell_volume   245.91941768
_cell_formula_units_Z   1
loop_
 _symmetry_equiv_pos_site_id
 _symmetry_equiv_pos_as_xyz
  1  'x, y, z'
loop_
 _atom_site_type_symbol
 _atom_site_label
 _atom_site_symmetry_multiplicity
 _atom_site_fract_x
 _atom_site_fract_y
 _atom_site_fract_z
 _atom_site_occupancy
  Rb  Rb0  1  0.500000  0.000000  0.500000  1
  Rb  Rb1  1  0.000000  0.500000  0.500000  1
  Zr  Zr2  1  0.000000  0.000000  0.000000  1
  O  O3  1  0.463054  0.463172  0.098837  1
  O  O4  1  0.536946  0.536828  0.901163  1
  F  F5  1  0.217288  0.896622  0.213197  1
  F  F6  1  0.895426  0.217214  0.213671  1
  F  F7  1  0.782712  0.103378  0.786803  1
  F  F8  1  0.104574  0.782786  0.786329  1
  F  F9  1  0.800086  0.799375  0.207530  1
  F  F10  1  0.199914  0.200625  0.792470  1
