# generated using pymatgen
data_Ba2ScIn3(P2O7)4
_symmetry_space_group_name_H-M   'P 1'
_cell_length_a   7.71172160
_cell_length_b   7.74875936
_cell_length_c   10.07003448
_cell_angle_alpha   99.87169755
_cell_angle_beta   80.63878866
_cell_angle_gamma   90.75558665
_symmetry_Int_Tables_number   1
_chemical_formula_structural   Ba2ScIn3(P2O7)4
_chemical_formula_sum   'Ba2 Sc1 In3 P8 O28'
_cell_volume   584.87634916
_cell_formula_units_Z   1
loop_
 _symmetry_equiv_pos_site_id
 _symmetry_equiv_pos_as_xyz
  1  'x, y, z'
loop_
 _atom_site_type_symbol
 _atom_site_label
 _atom_site_symmetry_multiplicity
 _atom_site_fract_x
 _atom_site_fract_y
 _atom_site_fract_z
 _atom_site_occupancy
  Ba  Ba0  1  0.500000  0.000000  0.000000  1
  Ba  Ba1  1  0.000000  0.499999  0.500000  1
  Sc  Sc2  1  0.000000  0.000000  0.000000  1
  In  In3  1  0.549263  0.552820  0.251373  1
  In  In4  1  0.000000  0.000000  0.500000  1
  In  In5  1  0.450737  0.447180  0.748627  1
  P  P6  1  0.252212  0.366159  0.057227  1
  P  P7  1  0.175999  0.730905  0.199031  1
  P  P8  1  0.732342  0.181350  0.299881  1
  P  P9  1  0.366839  0.252082  0.438876  1
  P  P10  1  0.633161  0.747918  0.561124  1
  P  P11  1  0.267658  0.818650  0.700119  1
  P  P12  1  0.824001  0.269095  0.800969  1
  P  P13  1  0.747789  0.633841  0.942773  1
  O  O14  1  0.136788  0.828895  0.088369  1
  O  O15  1  0.743693  0.607011  0.089013  1
  O  O16  1  0.435578  0.361282  0.099765  1
  O  O17  1  0.158228  0.196845  0.083918  1
  O  O18  1  0.136956  0.522132  0.159535  1
  O  O19  1  0.786660  0.055740  0.165110  1
  O  O20  1  0.372228  0.747557  0.209448  1
  O  O21  1  0.746710  0.376371  0.289297  1
  O  O22  1  0.049898  0.775244  0.334830  1
  O  O23  1  0.522595  0.139192  0.333470  1
  O  O24  1  0.196402  0.161269  0.407259  1
  O  O25  1  0.361730  0.436935  0.401303  1
  O  O26  1  0.605344  0.748250  0.415302  1
  O  O27  1  0.822717  0.149922  0.417333  1
  O  O28  1  0.177283  0.850078  0.582667  1
  O  O29  1  0.394656  0.251750  0.584698  1
  O  O30  1  0.638270  0.563065  0.598697  1
  O  O31  1  0.803598  0.838731  0.592741  1
  O  O32  1  0.477405  0.860808  0.666530  1
  O  O33  1  0.950102  0.224756  0.665170  1
  O  O34  1  0.253290  0.623629  0.710703  1
  O  O35  1  0.627772  0.252443  0.790552  1
  O  O36  1  0.213340  0.944260  0.834890  1
  O  O37  1  0.863044  0.477868  0.840466  1
  O  O38  1  0.841772  0.803155  0.916083  1
  O  O39  1  0.564422  0.638718  0.900235  1
  O  O40  1  0.256307  0.392988  0.910987  1
  O  O41  1  0.863213  0.171105  0.911631  1
