# generated using pymatgen
data_Tb4Ga2Os5W
_symmetry_space_group_name_H-M   'P 1'
_cell_length_a   5.33170809
_cell_length_b   5.33957960
_cell_length_c   8.91364300
_cell_angle_alpha   90.00000000
_cell_angle_beta   90.00000000
_cell_angle_gamma   118.02552505
_symmetry_Int_Tables_number   1
_chemical_formula_structural   Tb4Ga2Os5W
_chemical_formula_sum   'Tb4 Ga2 Os5 W1'
_cell_volume   224.00652219
_cell_formula_units_Z   1
loop_
 _symmetry_equiv_pos_site_id
 _symmetry_equiv_pos_as_xyz
  1  'x, y, z'
loop_
 _atom_site_type_symbol
 _atom_site_label
 _atom_site_symmetry_multiplicity
 _atom_site_fract_x
 _atom_site_fract_y
 _atom_site_fract_z
 _atom_site_occupancy
  Tb  Tb0  1  0.326226  0.669272  0.435074  1
  Tb  Tb1  1  0.659115  0.328194  0.559767  1
  Tb  Tb2  1  0.659115  0.328194  0.940233  1
  Tb  Tb3  1  0.326226  0.669272  0.064926  1
  Ga  Ga4  1  0.185823  0.837182  0.750000  1
  Ga  Ga5  1  0.182156  0.346436  0.750000  1
  Os  Os6  1  0.979904  0.002438  0.503497  1
  Os  Os7  1  0.979904  0.002438  0.996503  1
  Os  Os8  1  0.827295  0.651873  0.250000  1
  Os  Os9  1  0.354352  0.173392  0.250000  1
  Os  Os10  1  0.678905  0.831050  0.750000  1
  W  W11  1  0.840983  0.160256  0.250000  1
