# generated using pymatgen
data_Tb3Dy3(Zn3C)2
_symmetry_space_group_name_H-M   'P 1'
_cell_length_a   9.19773151
_cell_length_b   9.19773125
_cell_length_c   9.19773100
_cell_angle_alpha   59.99999731
_cell_angle_beta   59.99999823
_cell_angle_gamma   59.99999998
_symmetry_Int_Tables_number   1
_chemical_formula_structural   Tb3Dy3(Zn3C)2
_chemical_formula_sum   'Tb6 Dy6 Zn12 C4'
_cell_volume   550.20829685
_cell_formula_units_Z   2
loop_
 _symmetry_equiv_pos_site_id
 _symmetry_equiv_pos_as_xyz
  1  'x, y, z'
loop_
 _atom_site_type_symbol
 _atom_site_label
 _atom_site_symmetry_multiplicity
 _atom_site_fract_x
 _atom_site_fract_y
 _atom_site_fract_z
 _atom_site_occupancy
  Tb  Tb0  1  0.447535  0.447535  0.052465  1
  Tb  Tb1  1  0.052465  0.447535  0.052465  1
  Tb  Tb2  1  0.447535  0.052465  0.052465  1
  Tb  Tb3  1  0.052465  0.052465  0.447535  1
  Tb  Tb4  1  0.447535  0.052465  0.447535  1
  Tb  Tb5  1  0.052465  0.447535  0.447535  1
  Dy  Dy6  1  0.803242  0.803242  0.196758  1
  Dy  Dy7  1  0.196758  0.803242  0.196758  1
  Dy  Dy8  1  0.803242  0.196758  0.196758  1
  Dy  Dy9  1  0.196758  0.196758  0.803242  1
  Dy  Dy10  1  0.803242  0.196758  0.803242  1
  Dy  Dy11  1  0.196758  0.803242  0.803242  1
  Zn  Zn12  1  0.826249  0.826249  0.521254  1
  Zn  Zn13  1  0.826249  0.521254  0.826249  1
  Zn  Zn14  1  0.521254  0.826249  0.826249  1
  Zn  Zn15  1  0.826249  0.826249  0.826249  1
  Zn  Zn16  1  0.423926  0.423926  0.728221  1
  Zn  Zn17  1  0.423926  0.728221  0.423926  1
  Zn  Zn18  1  0.728221  0.423926  0.423926  1
  Zn  Zn19  1  0.423926  0.423926  0.423926  1
  Zn  Zn20  1  0.624989  0.624989  0.125034  1
  Zn  Zn21  1  0.624989  0.125034  0.624989  1
  Zn  Zn22  1  0.125034  0.624989  0.624989  1
  Zn  Zn23  1  0.624989  0.624989  0.624989  1
  C  C24  1  0.124335  0.124335  0.626994  1
  C  C25  1  0.124335  0.626994  0.124335  1
  C  C26  1  0.626994  0.124335  0.124335  1
  C  C27  1  0.124335  0.124335  0.124335  1
