# generated using pymatgen
data_Y19Er(Cd3Ir)2
_symmetry_space_group_name_H-M   'P 1'
_cell_length_a   9.67502100
_cell_length_b   9.67502078
_cell_length_c   9.87015400
_cell_angle_alpha   90.00000000
_cell_angle_beta   90.00000000
_cell_angle_gamma   119.99999734
_symmetry_Int_Tables_number   1
_chemical_formula_structural   Y19Er(Cd3Ir)2
_chemical_formula_sum   'Y19 Er1 Cd6 Ir2'
_cell_volume   800.12602191
_cell_formula_units_Z   1
loop_
 _symmetry_equiv_pos_site_id
 _symmetry_equiv_pos_as_xyz
  1  'x, y, z'
loop_
 _atom_site_type_symbol
 _atom_site_label
 _atom_site_symmetry_multiplicity
 _atom_site_fract_x
 _atom_site_fract_y
 _atom_site_fract_z
 _atom_site_occupancy
  Y  Y0  1  0.000000  0.000000  0.000000  1
  Y  Y1  1  0.209274  0.790726  0.440465  1
  Y  Y2  1  0.209274  0.418548  0.440465  1
  Y  Y3  1  0.581452  0.790726  0.440465  1
  Y  Y4  1  0.790726  0.209274  0.559535  1
  Y  Y5  1  0.790726  0.581452  0.559535  1
  Y  Y6  1  0.418548  0.209274  0.559535  1
  Y  Y7  1  0.790502  0.209498  0.940811  1
  Y  Y8  1  0.790502  0.581004  0.940811  1
  Y  Y9  1  0.418996  0.209498  0.940811  1
  Y  Y10  1  0.209498  0.790502  0.059189  1
  Y  Y11  1  0.209498  0.418996  0.059189  1
  Y  Y12  1  0.581004  0.790502  0.059189  1
  Y  Y13  1  0.541539  0.458461  0.250504  1
  Y  Y14  1  0.541539  0.083078  0.250504  1
  Y  Y15  1  0.916922  0.458461  0.250504  1
  Y  Y16  1  0.458461  0.541539  0.749496  1
  Y  Y17  1  0.458461  0.916922  0.749496  1
  Y  Y18  1  0.083078  0.541539  0.749496  1
  Er  Er19  1  0.000000  0.000000  0.500000  1
  Cd  Cd20  1  0.885366  0.114634  0.250580  1
  Cd  Cd21  1  0.885366  0.770734  0.250580  1
  Cd  Cd22  1  0.229266  0.114634  0.250580  1
  Cd  Cd23  1  0.114634  0.885366  0.749420  1
  Cd  Cd24  1  0.114634  0.229266  0.749420  1
  Cd  Cd25  1  0.770734  0.885366  0.749420  1
  Ir  Ir26  1  0.333333  0.666667  0.249923  1
  Ir  Ir27  1  0.666667  0.333333  0.750077  1
