# generated using pymatgen
data_Nd16AgHg3Pt4
_symmetry_space_group_name_H-M   'P 1'
_cell_length_a   9.94940594
_cell_length_b   9.94940679
_cell_length_c   9.94940776
_cell_angle_alpha   60.26374512
_cell_angle_beta   60.26373938
_cell_angle_gamma   60.26374176
_symmetry_Int_Tables_number   1
_chemical_formula_structural   Nd16AgHg3Pt4
_chemical_formula_sum   'Nd16 Ag1 Hg3 Pt4'
_cell_volume   700.58600529
_cell_formula_units_Z   1
loop_
 _symmetry_equiv_pos_site_id
 _symmetry_equiv_pos_as_xyz
  1  'x, y, z'
loop_
 _atom_site_type_symbol
 _atom_site_label
 _atom_site_symmetry_multiplicity
 _atom_site_fract_x
 _atom_site_fract_y
 _atom_site_fract_z
 _atom_site_occupancy
  Nd  Nd0  1  0.350998  0.350998  0.350998  1
  Nd  Nd1  1  0.353706  0.353706  0.940216  1
  Nd  Nd2  1  0.353706  0.940216  0.353706  1
  Nd  Nd3  1  0.940216  0.353706  0.353706  1
  Nd  Nd4  1  0.810227  0.191483  0.191483  1
  Nd  Nd5  1  0.189895  0.809036  0.809036  1
  Nd  Nd6  1  0.191483  0.810227  0.191483  1
  Nd  Nd7  1  0.809036  0.189895  0.809036  1
  Nd  Nd8  1  0.191483  0.191483  0.810227  1
  Nd  Nd9  1  0.809036  0.809036  0.189895  1
  Nd  Nd10  1  0.936990  0.563866  0.563866  1
  Nd  Nd11  1  0.561236  0.936314  0.936314  1
  Nd  Nd12  1  0.563866  0.936990  0.563866  1
  Nd  Nd13  1  0.936314  0.561236  0.936314  1
  Nd  Nd14  1  0.563866  0.563866  0.936990  1
  Nd  Nd15  1  0.936314  0.936314  0.561236  1
  Ag  Ag16  1  0.583904  0.583904  0.583904  1
  Hg  Hg17  1  0.586211  0.586211  0.245302  1
  Hg  Hg18  1  0.586211  0.245302  0.586211  1
  Hg  Hg19  1  0.245302  0.586211  0.586211  1
  Pt  Pt20  1  0.144533  0.144533  0.144533  1
  Pt  Pt21  1  0.142740  0.142740  0.569980  1
  Pt  Pt22  1  0.142740  0.569980  0.142740  1
  Pt  Pt23  1  0.569980  0.142740  0.142740  1
