# generated using pymatgen
data_Li44Rh7
_symmetry_space_group_name_H-M   'P 1'
_cell_length_a   13.19558763
_cell_length_b   13.19558756
_cell_length_c   13.19558800
_cell_angle_alpha   59.99999890
_cell_angle_beta   59.99999908
_cell_angle_gamma   59.99999921
_symmetry_Int_Tables_number   1
_chemical_formula_structural   Li44Rh7
_chemical_formula_sum   'Li88 Rh14'
_cell_volume   1624.69262219
_cell_formula_units_Z   2
loop_
 _symmetry_equiv_pos_site_id
 _symmetry_equiv_pos_as_xyz
  1  'x, y, z'
loop_
 _atom_site_type_symbol
 _atom_site_label
 _atom_site_symmetry_multiplicity
 _atom_site_fract_x
 _atom_site_fract_y
 _atom_site_fract_z
 _atom_site_occupancy
  Li  Li0  1  0.479327  0.479327  0.132997  1
  Li  Li1  1  0.479327  0.479327  0.908350  1
  Li  Li2  1  0.718750  0.718750  0.082131  1
  Li  Li3  1  0.321173  0.559609  0.559609  1
  Li  Li4  1  0.355387  0.355387  0.144613  1
  Li  Li5  1  0.178614  0.821386  0.178614  1
  Li  Li6  1  0.479327  0.908350  0.479327  1
  Li  Li7  1  0.337085  0.771308  0.337085  1
  Li  Li8  1  0.132997  0.479327  0.908350  1
  Li  Li9  1  0.567266  0.001958  0.215388  1
  Li  Li10  1  0.700719  0.336092  0.981594  1
  Li  Li11  1  0.480367  0.082131  0.718750  1
  Li  Li12  1  0.132997  0.479327  0.479327  1
  Li  Li13  1  0.718750  0.480367  0.718750  1
  Li  Li14  1  0.479327  0.132997  0.479327  1
  Li  Li15  1  0.567266  0.215388  0.215388  1
  Li  Li16  1  0.479327  0.132997  0.908350  1
  Li  Li17  1  0.554523  0.771308  0.337085  1
  Li  Li18  1  0.821386  0.178614  0.178614  1
  Li  Li19  1  0.981594  0.336092  0.981594  1
  Li  Li20  1  0.001958  0.567266  0.215388  1
  Li  Li21  1  0.215388  0.215388  0.001958  1
  Li  Li22  1  0.718750  0.718750  0.480367  1
  Li  Li23  1  0.001958  0.215388  0.215388  1
  Li  Li24  1  0.215388  0.001958  0.215388  1
  Li  Li25  1  0.821386  0.821386  0.178614  1
  Li  Li26  1  0.178614  0.821386  0.821386  1
  Li  Li27  1  0.700719  0.981594  0.981594  1
  Li  Li28  1  0.480367  0.718750  0.718750  1
  Li  Li29  1  0.697643  0.907071  0.697643  1
  Li  Li30  1  0.215388  0.215388  0.567266  1
  Li  Li31  1  0.771308  0.337085  0.337085  1
  Li  Li32  1  0.697643  0.697643  0.907071  1
  Li  Li33  1  0.336092  0.981594  0.700719  1
  Li  Li34  1  0.832719  0.501843  0.832719  1
  Li  Li35  1  0.947695  0.947695  0.947695  1
  Li  Li36  1  0.479327  0.908350  0.132997  1
  Li  Li37  1  0.337085  0.771308  0.554523  1
  Li  Li38  1  0.337085  0.554523  0.337085  1
  Li  Li39  1  0.718750  0.082131  0.480367  1
  Li  Li40  1  0.771308  0.337085  0.554523  1
  Li  Li41  1  0.178614  0.178614  0.821386  1
  Li  Li42  1  0.981594  0.336092  0.700719  1
  Li  Li43  1  0.082131  0.718750  0.480367  1
  Li  Li44  1  0.559609  0.559609  0.559609  1
  Li  Li45  1  0.832719  0.832719  0.501843  1
  Li  Li46  1  0.144613  0.355387  0.144613  1
  Li  Li47  1  0.700719  0.981594  0.336092  1
  Li  Li48  1  0.337085  0.554523  0.771308  1
  Li  Li49  1  0.718750  0.480367  0.082131  1
  Li  Li50  1  0.832719  0.832719  0.832719  1
  Li  Li51  1  0.336092  0.981594  0.981594  1
  Li  Li52  1  0.559609  0.559609  0.321173  1
  Li  Li53  1  0.981594  0.700719  0.981594  1
  Li  Li54  1  0.908350  0.479327  0.132997  1
  Li  Li55  1  0.144613  0.144613  0.355387  1
  Li  Li56  1  0.947695  0.156916  0.947695  1
  Li  Li57  1  0.144613  0.355387  0.355387  1
  Li  Li58  1  0.981594  0.700719  0.336092  1
  Li  Li59  1  0.355387  0.144613  0.144613  1
  Li  Li60  1  0.908350  0.132997  0.479327  1
  Li  Li61  1  0.215388  0.567266  0.001958  1
  Li  Li62  1  0.082131  0.718750  0.718750  1
  Li  Li63  1  0.001958  0.215388  0.567266  1
  Li  Li64  1  0.908350  0.479327  0.479327  1
  Li  Li65  1  0.336092  0.700719  0.981594  1
  Li  Li66  1  0.554523  0.337085  0.771308  1
  Li  Li67  1  0.082131  0.480367  0.718750  1
  Li  Li68  1  0.559609  0.321173  0.559609  1
  Li  Li69  1  0.821386  0.178614  0.821386  1
  Li  Li70  1  0.501843  0.832719  0.832719  1
  Li  Li71  1  0.554523  0.337085  0.337085  1
  Li  Li72  1  0.771308  0.554523  0.337085  1
  Li  Li73  1  0.337085  0.337085  0.554523  1
  Li  Li74  1  0.981594  0.981594  0.336092  1
  Li  Li75  1  0.215388  0.567266  0.215388  1
  Li  Li76  1  0.132997  0.908350  0.479327  1
  Li  Li77  1  0.156916  0.947695  0.947695  1
  Li  Li78  1  0.697643  0.697643  0.697643  1
  Li  Li79  1  0.981594  0.981594  0.700719  1
  Li  Li80  1  0.567266  0.215388  0.001958  1
  Li  Li81  1  0.718750  0.082131  0.718750  1
  Li  Li82  1  0.215388  0.001958  0.567266  1
  Li  Li83  1  0.355387  0.144613  0.355387  1
  Li  Li84  1  0.947695  0.947695  0.156916  1
  Li  Li85  1  0.907071  0.697643  0.697643  1
  Li  Li86  1  0.337085  0.337085  0.771308  1
  Li  Li87  1  0.480367  0.718750  0.082131  1
  Rh  Rh88  1  0.584043  0.584043  0.915957  1
  Rh  Rh89  1  0.348501  0.348501  0.954497  1
  Rh  Rh90  1  0.083225  0.083225  0.750325  1
  Rh  Rh91  1  0.348501  0.954497  0.348501  1
  Rh  Rh92  1  0.083225  0.750325  0.083225  1
  Rh  Rh93  1  0.915957  0.584043  0.915957  1
  Rh  Rh94  1  0.348501  0.348501  0.348501  1
  Rh  Rh95  1  0.083225  0.083225  0.083225  1
  Rh  Rh96  1  0.584043  0.915957  0.584043  1
  Rh  Rh97  1  0.915957  0.915957  0.584043  1
  Rh  Rh98  1  0.954497  0.348501  0.348501  1
  Rh  Rh99  1  0.750325  0.083225  0.083225  1
  Rh  Rh100  1  0.915957  0.584043  0.584043  1
  Rh  Rh101  1  0.584043  0.915957  0.915957  1
