# generated using pymatgen
data_Hf18TiRe7GeOs
_symmetry_space_group_name_H-M   'P 1'
_cell_length_a   8.63759400
_cell_length_b   8.63759551
_cell_length_c   8.60288300
_cell_angle_alpha   90.00000000
_cell_angle_beta   90.00000000
_cell_angle_gamma   120.00000187
_symmetry_Int_Tables_number   1
_chemical_formula_structural   Hf18TiRe7GeOs
_chemical_formula_sum   'Hf18 Ti1 Re7 Ge1 Os1'
_cell_volume   555.85342936
_cell_formula_units_Z   1
loop_
 _symmetry_equiv_pos_site_id
 _symmetry_equiv_pos_as_xyz
  1  'x, y, z'
loop_
 _atom_site_type_symbol
 _atom_site_label
 _atom_site_symmetry_multiplicity
 _atom_site_fract_x
 _atom_site_fract_y
 _atom_site_fract_z
 _atom_site_occupancy
  Hf  Hf0  1  0.197237  0.802763  0.447770  1
  Hf  Hf1  1  0.197237  0.394474  0.447770  1
  Hf  Hf2  1  0.605526  0.802763  0.447770  1
  Hf  Hf3  1  0.805747  0.194253  0.546971  1
  Hf  Hf4  1  0.805747  0.611493  0.546971  1
  Hf  Hf5  1  0.388507  0.194253  0.546971  1
  Hf  Hf6  1  0.808077  0.191923  0.953077  1
  Hf  Hf7  1  0.808077  0.616155  0.953077  1
  Hf  Hf8  1  0.383845  0.191923  0.953077  1
  Hf  Hf9  1  0.198299  0.801701  0.053863  1
  Hf  Hf10  1  0.198299  0.396595  0.053863  1
  Hf  Hf11  1  0.603405  0.801701  0.053863  1
  Hf  Hf12  1  0.540486  0.459514  0.249741  1
  Hf  Hf13  1  0.540486  0.080972  0.249741  1
  Hf  Hf14  1  0.919028  0.459514  0.249741  1
  Hf  Hf15  1  0.460243  0.539757  0.750555  1
  Hf  Hf16  1  0.460243  0.920486  0.750555  1
  Hf  Hf17  1  0.079514  0.539757  0.750555  1
  Ti  Ti18  1  0.000000  0.000000  0.498009  1
  Re  Re19  1  0.888632  0.111368  0.250541  1
  Re  Re20  1  0.888632  0.777262  0.250541  1
  Re  Re21  1  0.222738  0.111368  0.250541  1
  Re  Re22  1  0.110832  0.889168  0.747867  1
  Re  Re23  1  0.110832  0.221668  0.747867  1
  Re  Re24  1  0.778332  0.889168  0.747867  1
  Re  Re25  1  0.000000  0.000000  0.998243  1
  Ge  Ge26  1  0.666667  0.333333  0.752301  1
  Os  Os27  1  0.333333  0.666667  0.250293  1
