# generated using pymatgen
data_Hf3Mg(Co3Os)2
_symmetry_space_group_name_H-M   'P 1'
_cell_length_a   4.87611400
_cell_length_b   4.87611435
_cell_length_c   8.17362500
_cell_angle_alpha   90.00000000
_cell_angle_beta   90.00000000
_cell_angle_gamma   119.99999762
_symmetry_Int_Tables_number   1
_chemical_formula_structural   Hf3Mg(Co3Os)2
_chemical_formula_sum   'Hf3 Mg1 Co6 Os2'
_cell_volume   168.30347502
_cell_formula_units_Z   1
loop_
 _symmetry_equiv_pos_site_id
 _symmetry_equiv_pos_as_xyz
  1  'x, y, z'
loop_
 _atom_site_type_symbol
 _atom_site_label
 _atom_site_symmetry_multiplicity
 _atom_site_fract_x
 _atom_site_fract_y
 _atom_site_fract_z
 _atom_site_occupancy
  Hf  Hf0  1  0.666667  0.333333  0.557438  1
  Hf  Hf1  1  0.666667  0.333333  0.930203  1
  Hf  Hf2  1  0.333333  0.666667  0.082025  1
  Mg  Mg3  1  0.333333  0.666667  0.441218  1
  Co  Co4  1  0.829372  0.170628  0.249230  1
  Co  Co5  1  0.829372  0.658743  0.249230  1
  Co  Co6  1  0.341257  0.170628  0.249230  1
  Co  Co7  1  0.171378  0.828622  0.748987  1
  Co  Co8  1  0.171378  0.342756  0.748987  1
  Co  Co9  1  0.657244  0.828622  0.748987  1
  Os  Os10  1  0.000000  0.000000  0.496703  1
  Os  Os11  1  0.000000  0.000000  0.997764  1
