# generated using pymatgen
data_Ho4Tm12CdNi4Ag3
_symmetry_space_group_name_H-M   'P 1'
_cell_length_a   9.35847871
_cell_length_b   9.38130227
_cell_length_c   9.38130200
_cell_angle_alpha   60.00000094
_cell_angle_beta   59.91929289
_cell_angle_gamma   59.91929783
_symmetry_Int_Tables_number   1
_chemical_formula_structural   Ho4Tm12CdNi4Ag3
_chemical_formula_sum   'Ho4 Tm12 Cd1 Ni4 Ag3'
_cell_volume   581.68204072
_cell_formula_units_Z   1
loop_
 _symmetry_equiv_pos_site_id
 _symmetry_equiv_pos_as_xyz
  1  'x, y, z'
loop_
 _atom_site_type_symbol
 _atom_site_label
 _atom_site_symmetry_multiplicity
 _atom_site_fract_x
 _atom_site_fract_y
 _atom_site_fract_z
 _atom_site_occupancy
  Ho  Ho0  1  0.350390  0.349757  0.349757  1
  Ho  Ho1  1  0.350390  0.349757  0.950098  1
  Ho  Ho2  1  0.350390  0.950098  0.349757  1
  Ho  Ho3  1  0.947630  0.350790  0.350790  1
  Tm  Tm4  1  0.811662  0.188289  0.188289  1
  Tm  Tm5  1  0.187848  0.811936  0.811936  1
  Tm  Tm6  1  0.187848  0.811936  0.188281  1
  Tm  Tm7  1  0.811662  0.188289  0.811760  1
  Tm  Tm8  1  0.187848  0.188281  0.811936  1
  Tm  Tm9  1  0.811662  0.811760  0.188289  1
  Tm  Tm10  1  0.932707  0.564835  0.564835  1
  Tm  Tm11  1  0.563259  0.935971  0.935971  1
  Tm  Tm12  1  0.563259  0.935971  0.564798  1
  Tm  Tm13  1  0.932707  0.564835  0.937623  1
  Tm  Tm14  1  0.563259  0.564798  0.935971  1
  Tm  Tm15  1  0.932707  0.937623  0.564835  1
  Cd  Cd16  1  0.262741  0.579087  0.579087  1
  Ni  Ni17  1  0.142485  0.142423  0.142423  1
  Ni  Ni18  1  0.142485  0.142423  0.572670  1
  Ni  Ni19  1  0.142485  0.572670  0.142423  1
  Ni  Ni20  1  0.572327  0.142558  0.142558  1
  Ag  Ag21  1  0.584087  0.583105  0.583105  1
  Ag  Ag22  1  0.584087  0.583105  0.249706  1
  Ag  Ag23  1  0.584087  0.249706  0.583105  1
