# generated using pymatgen
data_Tb3DyIn4
_symmetry_space_group_name_H-M   'P 1'
_cell_length_a   6.51674343
_cell_length_b   6.51674369
_cell_length_c   10.51770800
_cell_angle_alpha   90.00000000
_cell_angle_beta   90.00000000
_cell_angle_gamma   105.80878251
_symmetry_Int_Tables_number   1
_chemical_formula_structural   Tb3DyIn4
_chemical_formula_sum   'Tb6 Dy2 In8'
_cell_volume   429.77089793
_cell_formula_units_Z   2
loop_
 _symmetry_equiv_pos_site_id
 _symmetry_equiv_pos_as_xyz
  1  'x, y, z'
loop_
 _atom_site_type_symbol
 _atom_site_label
 _atom_site_symmetry_multiplicity
 _atom_site_fract_x
 _atom_site_fract_y
 _atom_site_fract_z
 _atom_site_occupancy
  Tb  Tb0  1  0.519084  0.519084  0.250000  1
  Tb  Tb1  1  0.480916  0.480916  0.750000  1
  Tb  Tb2  1  0.246540  0.753460  0.500000  1
  Tb  Tb3  1  0.246540  0.753460  0.000000  1
  Tb  Tb4  1  0.753460  0.246540  0.500000  1
  Tb  Tb5  1  0.753460  0.246540  0.000000  1
  Dy  Dy6  1  0.986907  0.986907  0.250000  1
  Dy  Dy7  1  0.013093  0.013093  0.750000  1
  In  In8  1  0.253492  0.253492  0.010425  1
  In  In9  1  0.746508  0.746508  0.989575  1
  In  In10  1  0.253492  0.253492  0.489575  1
  In  In11  1  0.746508  0.746508  0.510425  1
  In  In12  1  0.490696  0.011397  0.250000  1
  In  In13  1  0.988603  0.509304  0.750000  1
  In  In14  1  0.509304  0.988603  0.750000  1
  In  In15  1  0.011397  0.490696  0.250000  1
