# generated using pymatgen
data_Li2Er3ZnIr2Pd
_symmetry_space_group_name_H-M   'P 1'
_cell_length_a   7.05802735
_cell_length_b   7.05802713
_cell_length_c   3.96153900
_cell_angle_alpha   90.00000000
_cell_angle_beta   90.00000000
_cell_angle_gamma   119.87281049
_symmetry_Int_Tables_number   1
_chemical_formula_structural   Li2Er3ZnIr2Pd
_chemical_formula_sum   'Li2 Er3 Zn1 Ir2 Pd1'
_cell_volume   171.12616344
_cell_formula_units_Z   1
loop_
 _symmetry_equiv_pos_site_id
 _symmetry_equiv_pos_as_xyz
  1  'x, y, z'
loop_
 _atom_site_type_symbol
 _atom_site_label
 _atom_site_symmetry_multiplicity
 _atom_site_fract_x
 _atom_site_fract_y
 _atom_site_fract_z
 _atom_site_occupancy
  Li  Li0  1  0.241037  0.999000  0.500000  1
  Li  Li1  1  0.999000  0.241037  0.500000  1
  Er  Er2  1  0.585127  0.997693  0.000000  1
  Er  Er3  1  0.997693  0.585127  0.000000  1
  Er  Er4  1  0.417622  0.417622  0.000000  1
  Zn  Zn5  1  0.756119  0.756119  0.500000  1
  Ir  Ir6  1  0.337996  0.668335  0.500000  1
  Ir  Ir7  1  0.668335  0.337996  0.500000  1
  Pd  Pd8  1  0.997071  0.997071  0.000000  1
