# generated using pymatgen
data_Tb3SmGa18(TcPd2)2
_symmetry_space_group_name_H-M   'P 1'
_cell_length_a   7.66210437
_cell_length_b   7.66179958
_cell_length_c   9.68343109
_cell_angle_alpha   90.21442843
_cell_angle_beta   90.26082783
_cell_angle_gamma   120.30187800
_symmetry_Int_Tables_number   1
_chemical_formula_structural   Tb3SmGa18(TcPd2)2
_chemical_formula_sum   'Tb3 Sm1 Ga18 Tc2 Pd4'
_cell_volume   490.78861433
_cell_formula_units_Z   1
loop_
 _symmetry_equiv_pos_site_id
 _symmetry_equiv_pos_as_xyz
  1  'x, y, z'
loop_
 _atom_site_type_symbol
 _atom_site_label
 _atom_site_symmetry_multiplicity
 _atom_site_fract_x
 _atom_site_fract_y
 _atom_site_fract_z
 _atom_site_occupancy
  Tb  Tb0  1  0.004538  0.334703  0.752615  1
  Tb  Tb1  1  0.665226  0.995341  0.247331  1
  Tb  Tb2  1  0.334921  0.004650  0.752690  1
  Sm  Sm3  1  0.995258  0.665423  0.248007  1
  Ga  Ga4  1  0.129281  0.129790  0.251417  1
  Ga  Ga5  1  0.871020  0.871230  0.748610  1
  Ga  Ga6  1  0.003368  0.334935  0.077548  1
  Ga  Ga7  1  0.996751  0.664141  0.920763  1
  Ga  Ga8  1  0.000257  0.667797  0.581780  1
  Ga  Ga9  1  0.333405  0.000888  0.420084  1
  Ga  Ga10  1  0.999701  0.331241  0.419940  1
  Ga  Ga11  1  0.667816  0.000390  0.580890  1
  Ga  Ga12  1  0.663948  0.996828  0.921606  1
  Ga  Ga13  1  0.337119  0.003971  0.077348  1
  Ga  Ga14  1  0.335012  0.335074  0.573332  1
  Ga  Ga15  1  0.663861  0.664874  0.427888  1
  Ga  Ga16  1  0.658778  0.659607  0.061395  1
  Ga  Ga17  1  0.340243  0.340221  0.937473  1
  Ga  Ga18  1  0.336288  0.544298  0.246220  1
  Ga  Ga19  1  0.664183  0.455448  0.753612  1
  Ga  Ga20  1  0.543274  0.334781  0.246170  1
  Ga  Ga21  1  0.455576  0.664331  0.753601  1
  Tc  Tc22  1  0.674823  0.325509  0.999540  1
  Tc  Tc23  1  0.325068  0.674289  0.999439  1
  Pd  Pd24  1  0.329931  0.669980  0.500298  1
  Pd  Pd25  1  0.670037  0.330160  0.500374  1
  Pd  Pd26  1  0.000160  0.000031  0.999684  1
  Pd  Pd27  1  0.000156  0.000069  0.500345  1
