# generated using pymatgen
data_CeThOsC2
_symmetry_space_group_name_H-M   'P 1'
_cell_length_a   5.31861900
_cell_length_b   6.62787800
_cell_length_c   9.88846000
_cell_angle_alpha   90.00000000
_cell_angle_beta   90.00000000
_cell_angle_gamma   90.00000000
_symmetry_Int_Tables_number   1
_chemical_formula_structural   CeThOsC2
_chemical_formula_sum   'Ce4 Th4 Os4 C8'
_cell_volume   348.57966446
_cell_formula_units_Z   4
loop_
 _symmetry_equiv_pos_site_id
 _symmetry_equiv_pos_as_xyz
  1  'x, y, z'
loop_
 _atom_site_type_symbol
 _atom_site_label
 _atom_site_symmetry_multiplicity
 _atom_site_fract_x
 _atom_site_fract_y
 _atom_site_fract_z
 _atom_site_occupancy
  Ce  Ce0  1  0.250000  0.312966  0.046061  1
  Ce  Ce1  1  0.750000  0.187034  0.546061  1
  Ce  Ce2  1  0.250000  0.812966  0.453939  1
  Ce  Ce3  1  0.750000  0.687034  0.953939  1
  Th  Th4  1  0.250000  0.978541  0.780017  1
  Th  Th5  1  0.750000  0.521459  0.280017  1
  Th  Th6  1  0.250000  0.478541  0.719983  1
  Th  Th7  1  0.750000  0.021459  0.219983  1
  Os  Os8  1  0.250000  0.771470  0.139313  1
  Os  Os9  1  0.750000  0.728530  0.639313  1
  Os  Os10  1  0.250000  0.271470  0.360687  1
  Os  Os11  1  0.750000  0.228530  0.860687  1
  C  C12  1  0.250000  0.164961  0.553845  1
  C  C13  1  0.750000  0.335039  0.053845  1
  C  C14  1  0.250000  0.664961  0.946155  1
  C  C15  1  0.750000  0.835039  0.446155  1
  C  C16  1  0.250000  0.531247  0.256393  1
  C  C17  1  0.750000  0.968753  0.756393  1
  C  C18  1  0.250000  0.031247  0.243607  1
  C  C19  1  0.750000  0.468753  0.743607  1
