# generated using pymatgen
data_Pr2ZnIrRh
_symmetry_space_group_name_H-M   'P 1'
_cell_length_a   5.68292082
_cell_length_b   5.68292063
_cell_length_c   5.68291997
_cell_angle_alpha   135.88491919
_cell_angle_beta   116.45086276
_cell_angle_gamma   80.59725595
_symmetry_Int_Tables_number   1
_chemical_formula_structural   Pr2ZnIrRh
_chemical_formula_sum   'Pr2 Zn1 Ir1 Rh1'
_cell_volume   110.72246722
_cell_formula_units_Z   1
loop_
 _symmetry_equiv_pos_site_id
 _symmetry_equiv_pos_as_xyz
  1  'x, y, z'
loop_
 _atom_site_type_symbol
 _atom_site_label
 _atom_site_symmetry_multiplicity
 _atom_site_fract_x
 _atom_site_fract_y
 _atom_site_fract_z
 _atom_site_occupancy
  Pr  Pr0  1  0.701346  0.200160  0.501186  1
  Pr  Pr1  1  0.301026  0.799841  0.501187  1
  Zn  Zn2  1  0.998408  0.000000  0.998408  1
  Ir  Ir3  1  0.738734  0.500000  0.238733  1
  Rh  Rh4  1  0.260486  0.500001  0.760487  1
