# generated using pymatgen
data_Dy2Y4Co17P12Os
_symmetry_space_group_name_H-M   'P 1'
_cell_length_a   3.70324100
_cell_length_b   10.50993200
_cell_length_c   12.21964500
_cell_angle_alpha   90.00000000
_cell_angle_beta   90.00000000
_cell_angle_gamma   90.00000000
_symmetry_Int_Tables_number   1
_chemical_formula_structural   Dy2Y4Co17P12Os
_chemical_formula_sum   'Dy2 Y4 Co17 P12 Os1'
_cell_volume   475.59849463
_cell_formula_units_Z   1
loop_
 _symmetry_equiv_pos_site_id
 _symmetry_equiv_pos_as_xyz
  1  'x, y, z'
loop_
 _atom_site_type_symbol
 _atom_site_label
 _atom_site_symmetry_multiplicity
 _atom_site_fract_x
 _atom_site_fract_y
 _atom_site_fract_z
 _atom_site_occupancy
  Dy  Dy0  1  0.500000  0.817382  0.206997  1
  Dy  Dy1  1  0.500000  0.182618  0.206997  1
  Y  Y2  1  0.000000  0.500000  0.524247  1
  Y  Y3  1  0.500000  0.000000  0.478550  1
  Y  Y4  1  0.000000  0.683288  0.794095  1
  Y  Y5  1  0.000000  0.316712  0.794095  1
  Co  Co6  1  0.000000  0.000000  0.840459  1
  Co  Co7  1  0.500000  0.500000  0.703692  1
  Co  Co8  1  0.000000  0.000000  0.295320  1
  Co  Co9  1  0.000000  0.500000  0.988277  1
  Co  Co10  1  0.500000  0.000000  0.014642  1
  Co  Co11  1  0.500000  0.332732  0.991439  1
  Co  Co12  1  0.500000  0.667268  0.991439  1
  Co  Co13  1  0.000000  0.166744  0.005991  1
  Co  Co14  1  0.000000  0.833256  0.005991  1
  Co  Co15  1  0.500000  0.297452  0.429922  1
  Co  Co16  1  0.500000  0.702548  0.429922  1
  Co  Co17  1  0.000000  0.203155  0.568599  1
  Co  Co18  1  0.000000  0.796845  0.568599  1
  Co  Co19  1  0.500000  0.879373  0.709442  1
  Co  Co20  1  0.500000  0.120627  0.709442  1
  Co  Co21  1  0.000000  0.620188  0.290618  1
  Co  Co22  1  0.000000  0.379812  0.290618  1
  P  P23  1  0.500000  0.500000  0.881274  1
  P  P24  1  0.000000  0.000000  0.116953  1
  P  P25  1  0.500000  0.500000  0.350176  1
  P  P26  1  0.000000  0.000000  0.656300  1
  P  P27  1  0.500000  0.310796  0.616186  1
  P  P28  1  0.500000  0.689204  0.616186  1
  P  P29  1  0.000000  0.188516  0.383991  1
  P  P30  1  0.000000  0.811484  0.383991  1
  P  P31  1  0.500000  0.849588  0.892489  1
  P  P32  1  0.500000  0.150412  0.892489  1
  P  P33  1  0.000000  0.655495  0.105976  1
  P  P34  1  0.000000  0.344505  0.105976  1
  Os  Os35  1  0.500000  0.500000  0.158620  1
