# generated using pymatgen
data_Th(Ge2Rh3)2
_symmetry_space_group_name_H-M   'P 1'
_cell_length_a   7.23079800
_cell_length_b   7.23079871
_cell_length_c   3.90212400
_cell_angle_alpha   90.00000000
_cell_angle_beta   90.00000000
_cell_angle_gamma   120.00000590
_symmetry_Int_Tables_number   1
_chemical_formula_structural   Th(Ge2Rh3)2
_chemical_formula_sum   'Th1 Ge4 Rh6'
_cell_volume   176.68682759
_cell_formula_units_Z   1
loop_
 _symmetry_equiv_pos_site_id
 _symmetry_equiv_pos_as_xyz
  1  'x, y, z'
loop_
 _atom_site_type_symbol
 _atom_site_label
 _atom_site_symmetry_multiplicity
 _atom_site_fract_x
 _atom_site_fract_y
 _atom_site_fract_z
 _atom_site_occupancy
  Th  Th0  1  0.000000  0.000000  0.000000  1
  Ge  Ge1  1  0.666667  0.333333  0.000000  1
  Ge  Ge2  1  0.199200  0.800800  0.500000  1
  Ge  Ge3  1  0.199200  0.398400  0.500000  1
  Ge  Ge4  1  0.601600  0.800800  0.500000  1
  Rh  Rh5  1  0.467038  0.532962  0.000000  1
  Rh  Rh6  1  0.467038  0.934074  0.000000  1
  Rh  Rh7  1  0.065926  0.532962  0.000000  1
  Rh  Rh8  1  0.801254  0.198746  0.500000  1
  Rh  Rh9  1  0.801254  0.602509  0.500000  1
  Rh  Rh10  1  0.397491  0.198746  0.500000  1
