# generated using pymatgen
data_Na(TiTe2)4
_symmetry_space_group_name_H-M   'P 1'
_cell_length_a   9.27174645
_cell_length_b   9.27174685
_cell_length_c   9.27174759
_cell_angle_alpha   48.27051980
_cell_angle_beta   48.27051675
_cell_angle_gamma   48.27050420
_symmetry_Int_Tables_number   1
_chemical_formula_structural   Na(TiTe2)4
_chemical_formula_sum   'Na1 Ti4 Te8'
_cell_volume   406.93458655
_cell_formula_units_Z   1
loop_
 _symmetry_equiv_pos_site_id
 _symmetry_equiv_pos_as_xyz
  1  'x, y, z'
loop_
 _atom_site_type_symbol
 _atom_site_label
 _atom_site_symmetry_multiplicity
 _atom_site_fract_x
 _atom_site_fract_y
 _atom_site_fract_z
 _atom_site_occupancy
  Na  Na0  1  0.500000  0.500000  0.500000  1
  Ti  Ti1  1  0.000000  0.500000  0.500000  1
  Ti  Ti2  1  0.500000  0.000000  0.500000  1
  Ti  Ti3  1  0.500000  0.500000  0.000000  1
  Ti  Ti4  1  0.000000  0.000000  0.000000  1
  Te  Te5  1  0.260886  0.764189  0.764189  1
  Te  Te6  1  0.235811  0.235811  0.739114  1
  Te  Te7  1  0.739114  0.235811  0.235811  1
  Te  Te8  1  0.235811  0.739114  0.235811  1
  Te  Te9  1  0.262992  0.262992  0.262992  1
  Te  Te10  1  0.737008  0.737008  0.737008  1
  Te  Te11  1  0.764189  0.260886  0.764189  1
  Te  Te12  1  0.764189  0.764189  0.260886  1
