# generated using pymatgen
data_RbMnAs2O7
_symmetry_space_group_name_H-M   'P 1'
_cell_length_a   6.39957843
_cell_length_b   8.94668565
_cell_length_c   6.45995460
_cell_angle_alpha   96.69983057
_cell_angle_beta   103.01596661
_cell_angle_gamma   101.80581861
_symmetry_Int_Tables_number   1
_chemical_formula_structural   RbMnAs2O7
_chemical_formula_sum   'Rb2 Mn2 As4 O14'
_cell_volume   347.56511495
_cell_formula_units_Z   2
loop_
 _symmetry_equiv_pos_site_id
 _symmetry_equiv_pos_as_xyz
  1  'x, y, z'
loop_
 _atom_site_type_symbol
 _atom_site_label
 _atom_site_symmetry_multiplicity
 _atom_site_fract_x
 _atom_site_fract_y
 _atom_site_fract_z
 _atom_site_occupancy
  Rb  Rb0  1  0.000025  0.999981  0.000038  1
  Rb  Rb1  1  0.999965  0.499950  0.000095  1
  Mn  Mn2  1  0.625728  0.769558  0.313390  1
  Mn  Mn3  1  0.374340  0.230550  0.686609  1
  As  As4  1  0.821686  0.189623  0.524198  1
  As  As5  1  0.178348  0.810364  0.475790  1
  As  As6  1  0.483492  0.335039  0.240622  1
  As  As7  1  0.516500  0.664977  0.759323  1
  O  O8  1  0.782383  0.024095  0.355039  1
  O  O9  1  0.217609  0.975906  0.644973  1
  O  O10  1  0.669340  0.191302  0.713079  1
  O  O11  1  0.330626  0.808673  0.286889  1
  O  O12  1  0.416342  0.217705  0.995322  1
  O  O13  1  0.583709  0.782327  0.004645  1
  O  O14  1  0.319576  0.227708  0.376607  1
  O  O15  1  0.680358  0.772289  0.623337  1
  O  O16  1  0.767063  0.339717  0.366361  1
  O  O17  1  0.232914  0.660269  0.633659  1
  O  O18  1  0.083008  0.271824  0.685547  1
  O  O19  1  0.916990  0.728147  0.314463  1
  O  O20  1  0.545035  0.482645  0.761941  1
  O  O21  1  0.454957  0.517352  0.238073  1
