# generated using pymatgen
data_AlGa3Cl8
_symmetry_space_group_name_H-M   'P 1'
_cell_length_a   7.18933100
_cell_length_b   9.82471700
_cell_length_c   9.84039400
_cell_angle_alpha   90.00000000
_cell_angle_beta   90.00000000
_cell_angle_gamma   90.00000000
_symmetry_Int_Tables_number   1
_chemical_formula_structural   AlGa3Cl8
_chemical_formula_sum   'Al2 Ga6 Cl16'
_cell_volume   695.05795160
_cell_formula_units_Z   2
loop_
 _symmetry_equiv_pos_site_id
 _symmetry_equiv_pos_as_xyz
  1  'x, y, z'
loop_
 _atom_site_type_symbol
 _atom_site_label
 _atom_site_symmetry_multiplicity
 _atom_site_fract_x
 _atom_site_fract_y
 _atom_site_fract_z
 _atom_site_occupancy
  Al  Al0  1  0.750000  0.000000  0.818514  1
  Al  Al1  1  0.250000  0.500000  0.318514  1
  Ga  Ga2  1  0.828696  0.749686  0.250107  1
  Ga  Ga3  1  0.171304  0.249686  0.750107  1
  Ga  Ga4  1  0.250000  0.000000  0.181075  1
  Ga  Ga5  1  0.671304  0.250314  0.250107  1
  Ga  Ga6  1  0.750000  0.500000  0.681075  1
  Ga  Ga7  1  0.328696  0.750314  0.750107  1
  Cl  Cl8  1  0.331593  0.327313  0.441127  1
  Cl  Cl9  1  0.489923  0.540133  0.191401  1
  Cl  Cl10  1  0.666133  0.676402  0.556419  1
  Cl  Cl11  1  0.333867  0.176402  0.056419  1
  Cl  Cl12  1  0.005094  0.040367  0.311151  1
  Cl  Cl13  1  0.668407  0.827313  0.941127  1
  Cl  Cl14  1  0.833867  0.323598  0.556419  1
  Cl  Cl15  1  0.994906  0.540367  0.811151  1
  Cl  Cl16  1  0.168407  0.672687  0.441127  1
  Cl  Cl17  1  0.010077  0.459867  0.191401  1
  Cl  Cl18  1  0.494906  0.959633  0.311151  1
  Cl  Cl19  1  0.831593  0.172687  0.941127  1
  Cl  Cl20  1  0.166133  0.823598  0.056419  1
  Cl  Cl21  1  0.989923  0.959867  0.691401  1
  Cl  Cl22  1  0.505094  0.459633  0.811151  1
  Cl  Cl23  1  0.510077  0.040133  0.691401  1
