# generated using pymatgen
data_Ho4FeTc3B16
_symmetry_space_group_name_H-M   'P 1'
_cell_length_a   3.54386100
_cell_length_b   5.95027048
_cell_length_c   11.50922792
_cell_angle_alpha   89.95411408
_cell_angle_beta   90.00000000
_cell_angle_gamma   90.00000000
_symmetry_Int_Tables_number   1
_chemical_formula_structural   Ho4FeTc3B16
_chemical_formula_sum   'Ho4 Fe1 Tc3 B16'
_cell_volume   242.69422280
_cell_formula_units_Z   1
loop_
 _symmetry_equiv_pos_site_id
 _symmetry_equiv_pos_as_xyz
  1  'x, y, z'
loop_
 _atom_site_type_symbol
 _atom_site_label
 _atom_site_symmetry_multiplicity
 _atom_site_fract_x
 _atom_site_fract_y
 _atom_site_fract_z
 _atom_site_occupancy
  Ho  Ho0  1  0.500000  0.375443  0.147624  1
  Ho  Ho1  1  0.500000  0.627348  0.852071  1
  Ho  Ho2  1  0.500000  0.127317  0.651926  1
  Ho  Ho3  1  0.500000  0.872632  0.346713  1
  Fe  Fe4  1  0.500000  0.865065  0.089450  1
  Tc  Tc5  1  0.500000  0.367301  0.411609  1
  Tc  Tc6  1  0.500000  0.631909  0.586842  1
  Tc  Tc7  1  0.500000  0.132829  0.913667  1
  B  B8  1  0.000000  0.110997  0.048407  1
  B  B9  1  0.000000  0.885250  0.954753  1
  B  B10  1  0.000000  0.386366  0.546923  1
  B  B11  1  0.000000  0.613780  0.451909  1
  B  B12  1  0.000000  0.134789  0.468025  1
  B  B13  1  0.000000  0.864929  0.531203  1
  B  B14  1  0.000000  0.364648  0.970257  1
  B  B15  1  0.000000  0.638641  0.032673  1
  B  B16  1  0.000000  0.022327  0.190686  1
  B  B17  1  0.000000  0.974242  0.808979  1
  B  B18  1  0.000000  0.476147  0.693140  1
  B  B19  1  0.000000  0.526130  0.305877  1
  B  B20  1  0.000000  0.211904  0.313073  1
  B  B21  1  0.000000  0.786634  0.686163  1
  B  B22  1  0.000000  0.286141  0.815782  1
  B  B23  1  0.000000  0.717230  0.182249  1
