# generated using pymatgen
data_Lu3Sc3Pa2(ReB6)4
_symmetry_space_group_name_H-M   'P 1'
_cell_length_a   3.62074800
_cell_length_b   9.00810572
_cell_length_c   11.36558020
_cell_angle_alpha   90.22460585
_cell_angle_beta   90.00000000
_cell_angle_gamma   90.00000000
_symmetry_Int_Tables_number   1
_chemical_formula_structural   Lu3Sc3Pa2(ReB6)4
_chemical_formula_sum   'Lu3 Sc3 Pa2 Re4 B24'
_cell_volume   370.69783352
_cell_formula_units_Z   1
loop_
 _symmetry_equiv_pos_site_id
 _symmetry_equiv_pos_as_xyz
  1  'x, y, z'
loop_
 _atom_site_type_symbol
 _atom_site_label
 _atom_site_symmetry_multiplicity
 _atom_site_fract_x
 _atom_site_fract_y
 _atom_site_fract_z
 _atom_site_occupancy
  Lu  Lu0  1  0.000000  0.821587  0.084631  1
  Lu  Lu1  1  0.000000  0.178277  0.914335  1
  Lu  Lu2  1  0.000000  0.945652  0.372566  1
  Sc  Sc3  1  0.000000  0.054829  0.629370  1
  Sc  Sc4  1  0.000000  0.444221  0.124681  1
  Sc  Sc5  1  0.000000  0.555770  0.874829  1
  Pa  Pa6  1  0.000000  0.320484  0.413636  1
  Pa  Pa7  1  0.000000  0.679609  0.587301  1
  Re  Re8  1  0.000000  0.635935  0.320386  1
  Re  Re9  1  0.000000  0.362124  0.679698  1
  Re  Re10  1  0.000000  0.143006  0.180253  1
  Re  Re11  1  0.000000  0.858364  0.818576  1
  B  B12  1  0.500000  0.554058  0.432242  1
  B  B13  1  0.500000  0.444989  0.568148  1
  B  B14  1  0.500000  0.054357  0.065370  1
  B  B15  1  0.500000  0.945946  0.933869  1
  B  B16  1  0.500000  0.751260  0.418239  1
  B  B17  1  0.500000  0.246776  0.582411  1
  B  B18  1  0.500000  0.252598  0.078508  1
  B  B19  1  0.500000  0.747894  0.921024  1
  B  B20  1  0.500000  0.793035  0.262132  1
  B  B21  1  0.500000  0.205543  0.737328  1
  B  B22  1  0.500000  0.294658  0.232723  1
  B  B23  1  0.500000  0.706089  0.767018  1
  B  B24  1  0.500000  0.629381  0.181439  1
  B  B25  1  0.500000  0.369987  0.818230  1
  B  B26  1  0.500000  0.130966  0.314390  1
  B  B27  1  0.500000  0.870817  0.685035  1
  B  B28  1  0.500000  0.981180  0.210593  1
  B  B29  1  0.500000  0.019508  0.788277  1
  B  B30  1  0.500000  0.481619  0.283837  1
  B  B31  1  0.500000  0.517962  0.716043  1
  B  B32  1  0.500000  0.598609  0.026893  1
  B  B33  1  0.500000  0.401419  0.972726  1
  B  B34  1  0.500000  0.102671  0.473632  1
  B  B35  1  0.500000  0.898818  0.529631  1
