# generated using pymatgen
data_NdYZn5Si
_symmetry_space_group_name_H-M   'P 1'
_cell_length_a   8.26397979
_cell_length_b   8.26398002
_cell_length_c   8.79044100
_cell_angle_alpha   90.00000000
_cell_angle_beta   90.00000000
_cell_angle_gamma   149.47291520
_symmetry_Int_Tables_number   1
_chemical_formula_structural   NdYZn5Si
_chemical_formula_sum   'Nd2 Y2 Zn10 Si2'
_cell_volume   304.93437401
_cell_formula_units_Z   2
loop_
 _symmetry_equiv_pos_site_id
 _symmetry_equiv_pos_as_xyz
  1  'x, y, z'
loop_
 _atom_site_type_symbol
 _atom_site_label
 _atom_site_symmetry_multiplicity
 _atom_site_fract_x
 _atom_site_fract_y
 _atom_site_fract_z
 _atom_site_occupancy
  Nd  Nd0  1  0.000000  0.000000  0.500000  1
  Nd  Nd1  1  0.000000  0.000000  0.000000  1
  Y  Y2  1  0.200820  0.799180  0.250000  1
  Y  Y3  1  0.799180  0.200820  0.750000  1
  Zn  Zn4  1  0.812495  0.187505  0.392994  1
  Zn  Zn5  1  0.187505  0.812495  0.607006  1
  Zn  Zn6  1  0.812495  0.187505  0.107006  1
  Zn  Zn7  1  0.187505  0.812495  0.892994  1
  Zn  Zn8  1  0.650723  0.349277  0.474893  1
  Zn  Zn9  1  0.349277  0.650723  0.525107  1
  Zn  Zn10  1  0.650723  0.349277  0.025107  1
  Zn  Zn11  1  0.349277  0.650723  0.974893  1
  Zn  Zn12  1  0.402952  0.597048  0.250000  1
  Zn  Zn13  1  0.597048  0.402952  0.750000  1
  Si  Si14  1  0.557186  0.442814  0.250000  1
  Si  Si15  1  0.442814  0.557186  0.750000  1
