# generated using pymatgen
data_TbTm3(WO6)2
_symmetry_space_group_name_H-M   'P 1'
_cell_length_a   5.36127000
_cell_length_b   7.65725930
_cell_length_c   11.40458232
_cell_angle_alpha   75.25625206
_cell_angle_beta   90.00000000
_cell_angle_gamma   90.00000000
_symmetry_Int_Tables_number   1
_chemical_formula_structural   TbTm3(WO6)2
_chemical_formula_sum   'Tb2 Tm6 W4 O24'
_cell_volume   452.77245386
_cell_formula_units_Z   2
loop_
 _symmetry_equiv_pos_site_id
 _symmetry_equiv_pos_as_xyz
  1  'x, y, z'
loop_
 _atom_site_type_symbol
 _atom_site_label
 _atom_site_symmetry_multiplicity
 _atom_site_fract_x
 _atom_site_fract_y
 _atom_site_fract_z
 _atom_site_occupancy
  Tb  Tb0  1  0.684749  0.500000  0.750000  1
  Tb  Tb1  1  0.315251  0.500000  0.250000  1
  Tm  Tm2  1  0.739801  0.000000  0.750000  1
  Tm  Tm3  1  0.260199  0.000000  0.250000  1
  Tm  Tm4  1  0.185880  0.796796  0.578095  1
  Tm  Tm5  1  0.814120  0.796796  0.078095  1
  Tm  Tm6  1  0.185880  0.203204  0.921905  1
  Tm  Tm7  1  0.814120  0.203204  0.421905  1
  W  W8  1  0.254793  0.724229  0.885645  1
  W  W9  1  0.745207  0.724229  0.385645  1
  W  W10  1  0.254793  0.275771  0.614355  1
  W  W11  1  0.745207  0.275771  0.114355  1
  O  O12  1  0.039716  0.941344  0.895594  1
  O  O13  1  0.534490  0.848825  0.930853  1
  O  O14  1  0.960284  0.941344  0.395594  1
  O  O15  1  0.460160  0.792478  0.726324  1
  O  O16  1  0.465510  0.848825  0.430853  1
  O  O17  1  0.982746  0.713829  0.769662  1
  O  O18  1  0.539840  0.792478  0.226324  1
  O  O19  1  0.854441  0.636032  0.548883  1
  O  O20  1  0.358173  0.488197  0.887399  1
  O  O21  1  0.017254  0.713829  0.269662  1
  O  O22  1  0.358173  0.511803  0.612601  1
  O  O23  1  0.854441  0.363968  0.951117  1
  O  O24  1  0.145559  0.636032  0.048883  1
  O  O25  1  0.641827  0.488197  0.387399  1
  O  O26  1  0.982746  0.286171  0.730338  1
  O  O27  1  0.641827  0.511803  0.112601  1
  O  O28  1  0.145559  0.363968  0.451117  1
  O  O29  1  0.460160  0.207522  0.773676  1
  O  O30  1  0.017254  0.286171  0.230338  1
  O  O31  1  0.534490  0.151175  0.569147  1
  O  O32  1  0.539840  0.207522  0.273676  1
  O  O33  1  0.039716  0.058656  0.604406  1
  O  O34  1  0.465510  0.151175  0.069147  1
  O  O35  1  0.960284  0.058656  0.104406  1
