# generated using pymatgen
data_YTm3(As3Rh5)4
_symmetry_space_group_name_H-M   'P 1'
_cell_length_a   4.00288700
_cell_length_b   12.86968847
_cell_length_c   11.35108403
_cell_angle_alpha   90.00886978
_cell_angle_beta   90.00000000
_cell_angle_gamma   90.00000000
_symmetry_Int_Tables_number   1
_chemical_formula_structural   YTm3(As3Rh5)4
_chemical_formula_sum   'Y1 Tm3 As12 Rh20'
_cell_volume   584.76140118
_cell_formula_units_Z   1
loop_
 _symmetry_equiv_pos_site_id
 _symmetry_equiv_pos_as_xyz
  1  'x, y, z'
loop_
 _atom_site_type_symbol
 _atom_site_label
 _atom_site_symmetry_multiplicity
 _atom_site_fract_x
 _atom_site_fract_y
 _atom_site_fract_z
 _atom_site_occupancy
  Y  Y0  1  0.750000  0.202176  0.418587  1
  Tm  Tm1  1  0.750000  0.700660  0.079683  1
  Tm  Tm2  1  0.250000  0.299179  0.921271  1
  Tm  Tm3  1  0.250000  0.799735  0.579528  1
  As  As4  1  0.750000  0.616021  0.583374  1
  As  As5  1  0.250000  0.386850  0.417547  1
  As  As6  1  0.250000  0.884917  0.082745  1
  As  As7  1  0.750000  0.115170  0.916521  1
  As  As8  1  0.750000  0.889627  0.400115  1
  As  As9  1  0.250000  0.110620  0.599938  1
  As  As10  1  0.250000  0.609985  0.900506  1
  As  As11  1  0.750000  0.389754  0.099695  1
  As  As12  1  0.750000  0.867717  0.766742  1
  As  As13  1  0.250000  0.130288  0.232789  1
  As  As14  1  0.250000  0.631195  0.265944  1
  As  As15  1  0.750000  0.367524  0.734277  1
  Rh  Rh16  1  0.750000  0.702423  0.386537  1
  Rh  Rh17  1  0.250000  0.299146  0.615713  1
  Rh  Rh18  1  0.250000  0.797314  0.886338  1
  Rh  Rh19  1  0.750000  0.202234  0.113135  1
  Rh  Rh20  1  0.750000  0.996416  0.223316  1
  Rh  Rh21  1  0.250000  0.002022  0.775274  1
  Rh  Rh22  1  0.250000  0.504219  0.722856  1
  Rh  Rh23  1  0.750000  0.496473  0.277032  1
  Rh  Rh24  1  0.750000  0.675046  0.780989  1
  Rh  Rh25  1  0.250000  0.324422  0.219830  1
  Rh  Rh26  1  0.250000  0.823066  0.279111  1
  Rh  Rh27  1  0.750000  0.175271  0.719413  1
  Rh  Rh28  1  0.750000  0.928362  0.968119  1
  Rh  Rh29  1  0.250000  0.071895  0.030451  1
  Rh  Rh30  1  0.250000  0.573063  0.468413  1
  Rh  Rh31  1  0.750000  0.430119  0.534026  1
  Rh  Rh32  1  0.750000  0.976573  0.590383  1
  Rh  Rh33  1  0.250000  0.021005  0.410503  1
  Rh  Rh34  1  0.250000  0.522361  0.089802  1
  Rh  Rh35  1  0.750000  0.477154  0.909499  1
