# generated using pymatgen
data_Y3Tm(Lu2Ru)4
_symmetry_space_group_name_H-M   'P 1'
_cell_length_a   6.20283911
_cell_length_b   7.30286195
_cell_length_c   8.92391100
_cell_angle_alpha   90.00000000
_cell_angle_beta   90.00000000
_cell_angle_gamma   89.82798222
_symmetry_Int_Tables_number   1
_chemical_formula_structural   Y3Tm(Lu2Ru)4
_chemical_formula_sum   'Y3 Tm1 Lu8 Ru4'
_cell_volume   404.23776163
_cell_formula_units_Z   1
loop_
 _symmetry_equiv_pos_site_id
 _symmetry_equiv_pos_as_xyz
  1  'x, y, z'
loop_
 _atom_site_type_symbol
 _atom_site_label
 _atom_site_symmetry_multiplicity
 _atom_site_fract_x
 _atom_site_fract_y
 _atom_site_fract_z
 _atom_site_occupancy
  Y  Y0  1  0.871590  0.539663  0.250000  1
  Y  Y1  1  0.629251  0.040251  0.250000  1
  Y  Y2  1  0.129203  0.460369  0.750000  1
  Tm  Tm3  1  0.369482  0.958800  0.750000  1
  Lu  Lu4  1  0.335137  0.676598  0.063458  1
  Lu  Lu5  1  0.166209  0.174040  0.436862  1
  Lu  Lu6  1  0.664426  0.323724  0.564503  1
  Lu  Lu7  1  0.833157  0.825133  0.935462  1
  Lu  Lu8  1  0.664426  0.323724  0.935497  1
  Lu  Lu9  1  0.833157  0.825133  0.564538  1
  Lu  Lu10  1  0.335137  0.676598  0.436542  1
  Lu  Lu11  1  0.166209  0.174040  0.063138  1
  Ru  Ru12  1  0.045228  0.885058  0.250000  1
  Ru  Ru13  1  0.454624  0.384969  0.250000  1
  Ru  Ru14  1  0.959837  0.113985  0.750000  1
  Ru  Ru15  1  0.542925  0.617915  0.750000  1
