# generated using pymatgen
data_Pr4Ga23Cu2Au
_symmetry_space_group_name_H-M   'P 1'
_cell_length_a   6.17264400
_cell_length_b   6.17264400
_cell_length_c   15.39350200
_cell_angle_alpha   90.00000000
_cell_angle_beta   90.00000000
_cell_angle_gamma   90.00000000
_symmetry_Int_Tables_number   1
_chemical_formula_structural   Pr4Ga23Cu2Au
_chemical_formula_sum   'Pr4 Ga23 Cu2 Au1'
_cell_volume   586.51603907
_cell_formula_units_Z   1
loop_
 _symmetry_equiv_pos_site_id
 _symmetry_equiv_pos_as_xyz
  1  'x, y, z'
loop_
 _atom_site_type_symbol
 _atom_site_label
 _atom_site_symmetry_multiplicity
 _atom_site_fract_x
 _atom_site_fract_y
 _atom_site_fract_z
 _atom_site_occupancy
  Pr  Pr0  1  0.750000  0.250000  0.244868  1
  Pr  Pr1  1  0.250000  0.750000  0.244868  1
  Pr  Pr2  1  0.250000  0.750000  0.756928  1
  Pr  Pr3  1  0.750000  0.250000  0.756928  1
  Ga  Ga4  1  0.750000  0.750000  0.180315  1
  Ga  Ga5  1  0.750000  0.750000  0.818413  1
  Ga  Ga6  1  0.250000  0.250000  0.816982  1
  Ga  Ga7  1  0.250000  0.250000  0.343852  1
  Ga  Ga8  1  0.750000  0.750000  0.342694  1
  Ga  Ga9  1  0.750000  0.750000  0.657598  1
  Ga  Ga10  1  0.250000  0.250000  0.655208  1
  Ga  Ga11  1  0.499712  0.000566  0.914355  1
  Ga  Ga12  1  0.000566  0.000288  0.914355  1
  Ga  Ga13  1  0.499434  0.499712  0.914355  1
  Ga  Ga14  1  0.000288  0.499434  0.914355  1
  Ga  Ga15  1  0.498939  0.001010  0.084285  1
  Ga  Ga16  1  0.001010  0.001061  0.084285  1
  Ga  Ga17  1  0.498990  0.498939  0.084285  1
  Ga  Ga18  1  0.001061  0.498990  0.084285  1
  Ga  Ga19  1  0.577231  0.078441  0.432111  1
  Ga  Ga20  1  0.078441  0.922769  0.432111  1
  Ga  Ga21  1  0.421559  0.577231  0.432111  1
  Ga  Ga22  1  0.922769  0.421559  0.432111  1
  Ga  Ga23  1  0.419433  0.914310  0.570310  1
  Ga  Ga24  1  0.914310  0.080567  0.570310  1
  Ga  Ga25  1  0.585690  0.419433  0.570310  1
  Ga  Ga26  1  0.080567  0.585690  0.570310  1
  Cu  Cu27  1  0.750000  0.250000  0.998120  1
  Cu  Cu28  1  0.250000  0.750000  0.998120  1
  Au  Au29  1  0.250000  0.250000  0.180871  1
