# generated using pymatgen
data_Ca4Er3Tm(BO4)4
_symmetry_space_group_name_H-M   'P 1'
_cell_length_a   3.57453000
_cell_length_b   9.62626343
_cell_length_c   10.49778048
_cell_angle_alpha   89.96551796
_cell_angle_beta   90.00000000
_cell_angle_gamma   90.00000000
_symmetry_Int_Tables_number   1
_chemical_formula_structural   Ca4Er3Tm(BO4)4
_chemical_formula_sum   'Ca4 Er3 Tm1 B4 O16'
_cell_volume   361.22192025
_cell_formula_units_Z   1
loop_
 _symmetry_equiv_pos_site_id
 _symmetry_equiv_pos_as_xyz
  1  'x, y, z'
loop_
 _atom_site_type_symbol
 _atom_site_label
 _atom_site_symmetry_multiplicity
 _atom_site_fract_x
 _atom_site_fract_y
 _atom_site_fract_z
 _atom_site_occupancy
  Ca  Ca0  1  0.250000  0.669201  0.083897  1
  Ca  Ca1  1  0.750000  0.330887  0.915719  1
  Ca  Ca2  1  0.750000  0.169487  0.416313  1
  Ca  Ca3  1  0.250000  0.830611  0.584040  1
  Er  Er4  1  0.250000  0.086812  0.111346  1
  Er  Er5  1  0.750000  0.913197  0.888565  1
  Er  Er6  1  0.750000  0.586537  0.389003  1
  Tm  Tm7  1  0.250000  0.413282  0.611304  1
  B  B8  1  0.250000  0.367269  0.200188  1
  B  B9  1  0.750000  0.632421  0.799511  1
  B  B10  1  0.750000  0.867259  0.299756  1
  B  B11  1  0.250000  0.133069  0.700039  1
  O  O12  1  0.250000  0.499261  0.253517  1
  O  O13  1  0.750000  0.500498  0.746047  1
  O  O14  1  0.750000  0.999332  0.246545  1
  O  O15  1  0.250000  0.001091  0.753455  1
  O  O16  1  0.250000  0.247117  0.274926  1
  O  O17  1  0.750000  0.752843  0.725122  1
  O  O18  1  0.750000  0.747042  0.225191  1
  O  O19  1  0.250000  0.253667  0.774206  1
  O  O20  1  0.250000  0.351342  0.067725  1
  O  O21  1  0.750000  0.648423  0.931993  1
  O  O22  1  0.750000  0.851160  0.432250  1
  O  O23  1  0.250000  0.148866  0.567605  1
  O  O24  1  0.250000  0.612963  0.506721  1
  O  O25  1  0.750000  0.386245  0.495060  1
  O  O26  1  0.750000  0.113884  0.993758  1
  O  O27  1  0.250000  0.886234  0.006198  1
