# generated using pymatgen
data_CaPr3Al15(SiIr2)3
_symmetry_space_group_name_H-M   'P 1'
_cell_length_a   7.59744529
_cell_length_b   7.56827393
_cell_length_c   9.52507006
_cell_angle_alpha   89.94697522
_cell_angle_beta   89.89592062
_cell_angle_gamma   119.75171555
_symmetry_Int_Tables_number   1
_chemical_formula_structural   CaPr3Al15(SiIr2)3
_chemical_formula_sum   'Ca1 Pr3 Al15 Si3 Ir6'
_cell_volume   475.49141585
_cell_formula_units_Z   1
loop_
 _symmetry_equiv_pos_site_id
 _symmetry_equiv_pos_as_xyz
  1  'x, y, z'
loop_
 _atom_site_type_symbol
 _atom_site_label
 _atom_site_symmetry_multiplicity
 _atom_site_fract_x
 _atom_site_fract_y
 _atom_site_fract_z
 _atom_site_occupancy
  Ca  Ca0  1  0.993006  0.669561  0.244024  1
  Pr  Pr1  1  0.004428  0.335803  0.755682  1
  Pr  Pr2  1  0.678632  0.999079  0.246904  1
  Pr  Pr3  1  0.325651  0.998230  0.752900  1
  Al  Al4  1  0.871003  0.871032  0.749650  1
  Al  Al5  1  0.996521  0.665819  0.562548  1
  Al  Al6  1  0.335048  0.999436  0.424071  1
  Al  Al7  1  0.002983  0.338962  0.428994  1
  Al  Al8  1  0.665420  0.997894  0.572588  1
  Al  Al9  1  0.661672  0.992835  0.924261  1
  Al  Al10  1  0.337034  0.003409  0.078704  1
  Al  Al11  1  0.334108  0.333021  0.553399  1
  Al  Al12  1  0.664135  0.663722  0.447184  1
  Al  Al13  1  0.661159  0.662454  0.053861  1
  Al  Al14  1  0.337917  0.334608  0.945182  1
  Al  Al15  1  0.334143  0.546669  0.249751  1
  Al  Al16  1  0.661465  0.454087  0.750313  1
  Al  Al17  1  0.548655  0.340010  0.250792  1
  Al  Al18  1  0.455333  0.659230  0.750058  1
  Si  Si19  1  0.136695  0.129629  0.250774  1
  Si  Si20  1  0.004059  0.334589  0.076417  1
  Si  Si21  1  0.994732  0.671194  0.930243  1
  Ir  Ir22  1  0.684839  0.335845  0.002219  1
  Ir  Ir23  1  0.311631  0.661468  0.999969  1
  Ir  Ir24  1  0.327917  0.668713  0.499651  1
  Ir  Ir25  1  0.669644  0.328189  0.499598  1
  Ir  Ir26  1  0.001184  0.002678  0.007324  1
  Ir  Ir27  1  0.000985  0.001833  0.492938  1
