# generated using pymatgen
data_Ho5Be5P7Ir19
_symmetry_space_group_name_H-M   'P 1'
_cell_length_a   12.54718620
_cell_length_b   12.47098339
_cell_length_c   3.94618200
_cell_angle_alpha   90.00000000
_cell_angle_beta   90.00000000
_cell_angle_gamma   119.76088513
_symmetry_Int_Tables_number   1
_chemical_formula_structural   Ho5Be5P7Ir19
_chemical_formula_sum   'Ho5 Be5 P7 Ir19'
_cell_volume   536.03873819
_cell_formula_units_Z   1
loop_
 _symmetry_equiv_pos_site_id
 _symmetry_equiv_pos_as_xyz
  1  'x, y, z'
loop_
 _atom_site_type_symbol
 _atom_site_label
 _atom_site_symmetry_multiplicity
 _atom_site_fract_x
 _atom_site_fract_y
 _atom_site_fract_z
 _atom_site_occupancy
  Ho  Ho0  1  0.334131  0.665766  0.500000  1
  Ho  Ho1  1  0.663941  0.320893  0.500000  1
  Ho  Ho2  1  0.188959  0.190959  0.000000  1
  Ho  Ho3  1  0.812278  0.002083  0.000000  1
  Ho  Ho4  1  0.006370  0.816873  0.000000  1
  Be  Be5  1  0.311741  0.835017  0.000000  1
  Be  Be6  1  0.164854  0.477514  0.000000  1
  Be  Be7  1  0.522556  0.687095  0.000000  1
  Be  Be8  1  0.832077  0.307628  0.000000  1
  Be  Be9  1  0.478021  0.164796  0.000000  1
  P  P10  1  0.692692  0.515454  0.000000  1
  P  P11  1  0.366740  0.374055  0.500000  1
  P  P12  1  0.624387  0.999378  0.500000  1
  P  P13  1  0.006303  0.630683  0.500000  1
  P  P14  1  0.817592  0.819955  0.500000  1
  P  P15  1  0.185000  0.003581  0.500000  1
  P  P16  1  0.999021  0.183044  0.500000  1
  Ir  Ir17  1  0.194286  0.818479  0.500000  1
  Ir  Ir18  1  0.181347  0.376653  0.500000  1
  Ir  Ir19  1  0.624804  0.809426  0.500000  1
  Ir  Ir20  1  0.814217  0.189885  0.500000  1
  Ir  Ir21  1  0.376863  0.189516  0.500000  1
  Ir  Ir22  1  0.809621  0.623431  0.500000  1
  Ir  Ir23  1  0.125677  0.639011  0.000000  1
  Ir  Ir24  1  0.359021  0.487669  0.000000  1
  Ir  Ir25  1  0.509953  0.870902  0.000000  1
  Ir  Ir26  1  0.637862  0.124496  0.000000  1
  Ir  Ir27  1  0.496901  0.364440  0.000000  1
  Ir  Ir28  1  0.871907  0.507864  0.000000  1
  Ir  Ir29  1  0.548237  0.556981  0.500000  1
  Ir  Ir30  1  0.444334  0.002681  0.500000  1
  Ir  Ir31  1  0.996053  0.443183  0.500000  1
  Ir  Ir32  1  0.719474  0.715959  0.000000  1
  Ir  Ir33  1  0.282944  0.003286  0.000000  1
  Ir  Ir34  1  0.999343  0.281211  0.000000  1
  Ir  Ir35  1  0.000491  0.000153  0.500000  1
