# generated using pymatgen
data_TbGd4DyTa2O14
_symmetry_space_group_name_H-M   'P 1'
_cell_length_a   6.54899598
_cell_length_b   6.55399190
_cell_length_c   7.53354844
_cell_angle_alpha   90.05518079
_cell_angle_beta   90.05068341
_cell_angle_gamma   108.58617415
_symmetry_Int_Tables_number   1
_chemical_formula_structural   TbGd4DyTa2O14
_chemical_formula_sum   'Tb1 Gd4 Dy1 Ta2 O14'
_cell_volume   306.49059234
_cell_formula_units_Z   1
loop_
 _symmetry_equiv_pos_site_id
 _symmetry_equiv_pos_as_xyz
  1  'x, y, z'
loop_
 _atom_site_type_symbol
 _atom_site_label
 _atom_site_symmetry_multiplicity
 _atom_site_fract_x
 _atom_site_fract_y
 _atom_site_fract_z
 _atom_site_occupancy
  Tb  Tb0  1  0.000283  0.464260  0.741368  1
  Gd  Gd1  1  0.999487  0.533911  0.241550  1
  Gd  Gd2  1  0.465937  0.000738  0.258431  1
  Gd  Gd3  1  0.465376  0.464742  0.998108  1
  Gd  Gd4  1  0.535055  0.536379  0.501331  1
  Dy  Dy5  1  0.535561  0.999938  0.758702  1
  Ta  Ta6  1  0.002452  0.001550  0.501140  1
  Ta  Ta7  1  0.998325  0.997639  0.998656  1
  O  O8  1  0.932533  0.066904  0.749949  1
  O  O9  1  0.640474  0.357605  0.749471  1
  O  O10  1  0.304076  0.044877  0.547450  1
  O  O11  1  0.950473  0.694350  0.954601  1
  O  O12  1  0.628501  0.371114  0.250176  1
  O  O13  1  0.919382  0.674264  0.526078  1
  O  O14  1  0.325167  0.078880  0.972346  1
  O  O15  1  0.082065  0.326367  0.022166  1
  O  O16  1  0.673556  0.919340  0.478392  1
  O  O17  1  0.370915  0.631920  0.750561  1
  O  O18  1  0.693961  0.952190  0.040714  1
  O  O19  1  0.051172  0.306429  0.459093  1
  O  O20  1  0.361430  0.639398  0.249790  1
  O  O21  1  0.063818  0.937203  0.249927  1
