# generated using pymatgen
data_Y4HoEr3(WO6)4
_symmetry_space_group_name_H-M   'P 1'
_cell_length_a   5.39837202
_cell_length_b   7.70241355
_cell_length_c   11.43379274
_cell_angle_alpha   75.54772650
_cell_angle_beta   90.00159110
_cell_angle_gamma   89.99135392
_symmetry_Int_Tables_number   1
_chemical_formula_structural   Y4HoEr3(WO6)4
_chemical_formula_sum   'Y4 Ho1 Er3 W4 O24'
_cell_volume   460.37840108
_cell_formula_units_Z   1
loop_
 _symmetry_equiv_pos_site_id
 _symmetry_equiv_pos_as_xyz
  1  'x, y, z'
loop_
 _atom_site_type_symbol
 _atom_site_label
 _atom_site_symmetry_multiplicity
 _atom_site_fract_x
 _atom_site_fract_y
 _atom_site_fract_z
 _atom_site_occupancy
  Y  Y0  1  0.683773  0.500120  0.249911  1
  Y  Y1  1  0.316256  0.499995  0.750008  1
  Y  Y2  1  0.741401  0.999919  0.249906  1
  Y  Y3  1  0.258584  0.999952  0.750104  1
  Ho  Ho4  1  0.183241  0.206142  0.421911  1
  Er  Er5  1  0.183274  0.793646  0.078271  1
  Er  Er6  1  0.816712  0.793492  0.578308  1
  Er  Er7  1  0.816705  0.206374  0.921727  1
  W  W8  1  0.255992  0.276188  0.114422  1
  W  W9  1  0.255925  0.723980  0.385431  1
  W  W10  1  0.744069  0.723826  0.885467  1
  W  W11  1  0.744172  0.276319  0.614737  1
  O  O12  1  0.456602  0.208998  0.273108  1
  O  O13  1  0.455970  0.791167  0.226473  1
  O  O14  1  0.544022  0.791117  0.726488  1
  O  O15  1  0.544019  0.208913  0.773555  1
  O  O16  1  0.046736  0.059768  0.103387  1
  O  O17  1  0.046235  0.939568  0.396572  1
  O  O18  1  0.953299  0.940203  0.896626  1
  O  O19  1  0.953041  0.059615  0.603580  1
  O  O20  1  0.981258  0.288628  0.228687  1
  O  O21  1  0.981536  0.711424  0.270962  1
  O  O22  1  0.018461  0.711498  0.771006  1
  O  O23  1  0.018519  0.288492  0.728990  1
  O  O24  1  0.849704  0.365213  0.451502  1
  O  O25  1  0.850587  0.635205  0.048520  1
  O  O26  1  0.149429  0.635164  0.548555  1
  O  O27  1  0.149421  0.364813  0.951461  1
  O  O28  1  0.641249  0.510412  0.614050  1
  O  O29  1  0.641312  0.489642  0.885995  1
  O  O30  1  0.359186  0.490021  0.385929  1
  O  O31  1  0.358679  0.510399  0.114018  1
  O  O32  1  0.464653  0.155239  0.568586  1
  O  O33  1  0.463983  0.844491  0.931811  1
  O  O34  1  0.535967  0.844589  0.431824  1
  O  O35  1  0.536027  0.155469  0.068113  1
