# generated using pymatgen
data_H(Rh3Pb2)2
_symmetry_space_group_name_H-M   'P 1'
_cell_length_a   5.75154400
_cell_length_b   5.75154468
_cell_length_c   13.86159200
_cell_angle_alpha   90.00000000
_cell_angle_beta   90.00000000
_cell_angle_gamma   119.99999609
_symmetry_Int_Tables_number   1
_chemical_formula_structural   H(Rh3Pb2)2
_chemical_formula_sum   'H2 Rh12 Pb8'
_cell_volume   397.11172031
_cell_formula_units_Z   2
loop_
 _symmetry_equiv_pos_site_id
 _symmetry_equiv_pos_as_xyz
  1  'x, y, z'
loop_
 _atom_site_type_symbol
 _atom_site_label
 _atom_site_symmetry_multiplicity
 _atom_site_fract_x
 _atom_site_fract_y
 _atom_site_fract_z
 _atom_site_occupancy
  H  H0  1  0.000000  0.000000  0.500000  1
  H  H1  1  0.000000  0.000000  0.000000  1
  Rh  Rh2  1  0.331693  0.165847  0.412346  1
  Rh  Rh3  1  0.834153  0.165847  0.412346  1
  Rh  Rh4  1  0.834153  0.668307  0.412346  1
  Rh  Rh5  1  0.165847  0.331693  0.912346  1
  Rh  Rh6  1  0.668307  0.834153  0.587654  1
  Rh  Rh7  1  0.668307  0.834153  0.912346  1
  Rh  Rh8  1  0.331693  0.165847  0.087654  1
  Rh  Rh9  1  0.165847  0.331693  0.587654  1
  Rh  Rh10  1  0.165847  0.834153  0.587654  1
  Rh  Rh11  1  0.834153  0.165847  0.087654  1
  Rh  Rh12  1  0.834153  0.668307  0.087654  1
  Rh  Rh13  1  0.165847  0.834153  0.912346  1
  Pb  Pb14  1  0.000000  0.000000  0.750000  1
  Pb  Pb15  1  0.000000  0.000000  0.250000  1
  Pb  Pb16  1  0.333333  0.666667  0.750000  1
  Pb  Pb17  1  0.666667  0.333333  0.250000  1
  Pb  Pb18  1  0.333333  0.666667  0.418942  1
  Pb  Pb19  1  0.666667  0.333333  0.918942  1
  Pb  Pb20  1  0.666667  0.333333  0.581058  1
  Pb  Pb21  1  0.333333  0.666667  0.081058  1
