# generated using pymatgen
data_Ti2V(WN3)2
_symmetry_space_group_name_H-M   'P 1'
_cell_length_a   4.96854200
_cell_length_b   4.98042155
_cell_length_c   10.04573400
_cell_angle_alpha   90.00000000
_cell_angle_beta   90.00000000
_cell_angle_gamma   120.07911369
_symmetry_Int_Tables_number   1
_chemical_formula_structural   Ti2V(WN3)2
_chemical_formula_sum   'Ti4 V2 W4 N12'
_cell_volume   215.11000077
_cell_formula_units_Z   2
loop_
 _symmetry_equiv_pos_site_id
 _symmetry_equiv_pos_as_xyz
  1  'x, y, z'
loop_
 _atom_site_type_symbol
 _atom_site_label
 _atom_site_symmetry_multiplicity
 _atom_site_fract_x
 _atom_site_fract_y
 _atom_site_fract_z
 _atom_site_occupancy
  Ti  Ti0  1  0.331130  0.665566  0.500000  1
  Ti  Ti1  1  0.657620  0.328810  0.000000  1
  Ti  Ti2  1  0.657620  0.328810  0.500000  1
  Ti  Ti3  1  0.331130  0.665566  0.000000  1
  V  V4  1  0.330238  0.331057  0.750000  1
  V  V5  1  0.330238  0.999181  0.250000  1
  W  W6  1  0.677048  0.002496  0.750000  1
  W  W7  1  0.677048  0.674550  0.250000  1
  W  W8  1  0.001691  0.325574  0.250000  1
  W  W9  1  0.001691  0.676117  0.750000  1
  N  N10  1  0.338837  0.334972  0.376155  1
  N  N11  1  0.658937  0.999808  0.376482  1
  N  N12  1  0.003363  0.663263  0.376718  1
  N  N13  1  0.003363  0.340099  0.876718  1
  N  N14  1  0.658937  0.999808  0.123518  1
  N  N15  1  0.658937  0.659129  0.876482  1
  N  N16  1  0.338837  0.003865  0.876155  1
  N  N17  1  0.658937  0.659129  0.623518  1
  N  N18  1  0.003363  0.340099  0.623282  1
  N  N19  1  0.003363  0.663263  0.123282  1
  N  N20  1  0.338837  0.003865  0.623845  1
  N  N21  1  0.338837  0.334972  0.123845  1
