# generated using pymatgen
data_Sr2LiYbAg2Pb3
_symmetry_space_group_name_H-M   'P 1'
_cell_length_a   4.99031200
_cell_length_b   4.99031290
_cell_length_c   12.00087500
_cell_angle_alpha   90.00000000
_cell_angle_beta   90.00000000
_cell_angle_gamma   119.99999406
_symmetry_Int_Tables_number   1
_chemical_formula_structural   Sr2LiYbAg2Pb3
_chemical_formula_sum   'Sr2 Li1 Yb1 Ag2 Pb3'
_cell_volume   258.82072300
_cell_formula_units_Z   1
loop_
 _symmetry_equiv_pos_site_id
 _symmetry_equiv_pos_as_xyz
  1  'x, y, z'
loop_
 _atom_site_type_symbol
 _atom_site_label
 _atom_site_symmetry_multiplicity
 _atom_site_fract_x
 _atom_site_fract_y
 _atom_site_fract_z
 _atom_site_occupancy
  Sr  Sr0  1  0.666667  0.333333  0.325268  1
  Sr  Sr1  1  0.666667  0.333333  0.674154  1
  Li  Li2  1  0.000000  0.000000  0.159250  1
  Yb  Yb3  1  0.666667  0.333333  0.999882  1
  Ag  Ag4  1  0.000000  0.000000  0.839661  1
  Ag  Ag5  1  0.333333  0.666667  0.497349  1
  Pb  Pb6  1  0.333333  0.666667  0.138811  1
  Pb  Pb7  1  0.333333  0.666667  0.867281  1
  Pb  Pb8  1  0.000000  0.000000  0.498345  1
