# generated using pymatgen
data_YbHo2Al3Si2Ni
_symmetry_space_group_name_H-M   'P 1'
_cell_length_a   6.87796500
_cell_length_b   6.84342695
_cell_length_c   4.18707000
_cell_angle_alpha   90.00000000
_cell_angle_beta   90.00000000
_cell_angle_gamma   120.16708597
_symmetry_Int_Tables_number   1
_chemical_formula_structural   YbHo2Al3Si2Ni
_chemical_formula_sum   'Yb1 Ho2 Al3 Si2 Ni1'
_cell_volume   170.38869526
_cell_formula_units_Z   1
loop_
 _symmetry_equiv_pos_site_id
 _symmetry_equiv_pos_as_xyz
  1  'x, y, z'
loop_
 _atom_site_type_symbol
 _atom_site_label
 _atom_site_symmetry_multiplicity
 _atom_site_fract_x
 _atom_site_fract_y
 _atom_site_fract_z
 _atom_site_occupancy
  Yb  Yb0  1  0.408120  0.000000  0.000000  1
  Ho  Ho1  1  0.000505  0.409912  0.000000  1
  Ho  Ho2  1  0.590594  0.590087  0.000000  1
  Al  Al3  1  0.767757  0.000000  0.499999  1
  Al  Al4  1  0.231903  0.236756  0.499999  1
  Al  Al5  1  0.995147  0.763243  0.499999  1
  Si  Si6  1  0.673175  0.340029  0.499999  1
  Si  Si7  1  0.333147  0.659972  0.499999  1
  Ni  Ni8  1  0.999653  0.000000  0.000000  1
