# generated using pymatgen
data_Dy13Ho7(Bi2Ir)4
_symmetry_space_group_name_H-M   'P 1'
_cell_length_a   7.99134509
_cell_length_b   9.00515405
_cell_length_c   12.52163509
_cell_angle_alpha   90.00586680
_cell_angle_beta   89.98758861
_cell_angle_gamma   90.01121882
_symmetry_Int_Tables_number   1
_chemical_formula_structural   Dy13Ho7(Bi2Ir)4
_chemical_formula_sum   'Dy13 Ho7 Bi8 Ir4'
_cell_volume   901.09805917
_cell_formula_units_Z   1
loop_
 _symmetry_equiv_pos_site_id
 _symmetry_equiv_pos_as_xyz
  1  'x, y, z'
loop_
 _atom_site_type_symbol
 _atom_site_label
 _atom_site_symmetry_multiplicity
 _atom_site_fract_x
 _atom_site_fract_y
 _atom_site_fract_z
 _atom_site_occupancy
  Dy  Dy0  1  0.839316  0.749984  0.794090  1
  Dy  Dy1  1  0.160704  0.250004  0.205935  1
  Dy  Dy2  1  0.339220  0.250033  0.705945  1
  Dy  Dy3  1  0.660714  0.749987  0.294033  1
  Dy  Dy4  1  0.375376  0.749972  0.691091  1
  Dy  Dy5  1  0.624507  0.250059  0.308906  1
  Dy  Dy6  1  0.875473  0.249998  0.808968  1
  Dy  Dy7  1  0.124543  0.749999  0.191043  1
  Dy  Dy8  1  0.948139  0.749946  0.501745  1
  Dy  Dy9  1  0.052010  0.250048  0.498248  1
  Dy  Dy10  1  0.448018  0.250008  0.998247  1
  Dy  Dy11  1  0.551972  0.750001  0.001750  1
  Dy  Dy12  1  0.676243  0.041749  0.566141  1
  Ho  Ho13  1  0.324099  0.958242  0.433888  1
  Ho  Ho14  1  0.175780  0.958254  0.933945  1
  Ho  Ho15  1  0.324230  0.541797  0.433927  1
  Ho  Ho16  1  0.824225  0.041749  0.066048  1
  Ho  Ho17  1  0.675789  0.458241  0.566049  1
  Ho  Ho18  1  0.824217  0.458252  0.066054  1
  Ho  Ho19  1  0.175776  0.541753  0.933952  1
  Bi  Bi20  1  0.566455  0.491674  0.826483  1
  Bi  Bi21  1  0.433544  0.508331  0.173506  1
  Bi  Bi22  1  0.066443  0.508322  0.673526  1
  Bi  Bi23  1  0.433548  0.991664  0.173521  1
  Bi  Bi24  1  0.933544  0.491675  0.326479  1
  Bi  Bi25  1  0.566425  0.008317  0.826531  1
  Bi  Bi26  1  0.933515  0.008318  0.326479  1
  Bi  Bi27  1  0.066588  0.991655  0.673574  1
  Ir  Ir28  1  0.571128  0.749803  0.508631  1
  Ir  Ir29  1  0.428455  0.250165  0.491261  1
  Ir  Ir30  1  0.071250  0.249998  0.991345  1
  Ir  Ir31  1  0.928755  0.750004  0.008657  1
