# generated using pymatgen
data_CeThCo2(SiGe)2
_symmetry_space_group_name_H-M   'P 1'
_cell_length_a   8.55291895
_cell_length_b   8.55292028
_cell_length_c   4.13838200
_cell_angle_alpha   90.00000000
_cell_angle_beta   90.00000000
_cell_angle_gamma   152.09700390
_symmetry_Int_Tables_number   1
_chemical_formula_structural   CeThCo2(SiGe)2
_chemical_formula_sum   'Ce1 Th1 Co2 Si2 Ge2'
_cell_volume   141.67165380
_cell_formula_units_Z   1
loop_
 _symmetry_equiv_pos_site_id
 _symmetry_equiv_pos_as_xyz
  1  'x, y, z'
loop_
 _atom_site_type_symbol
 _atom_site_label
 _atom_site_symmetry_multiplicity
 _atom_site_fract_x
 _atom_site_fract_y
 _atom_site_fract_z
 _atom_site_occupancy
  Ce  Ce0  1  0.611333  0.388667  0.750000  1
  Th  Th1  1  0.387904  0.612096  0.250000  1
  Co  Co2  1  0.816459  0.183541  0.750000  1
  Co  Co3  1  0.184026  0.815974  0.250000  1
  Si  Si4  1  0.249576  0.750424  0.750000  1
  Si  Si5  1  0.748028  0.251972  0.250000  1
  Ge  Ge6  1  0.957863  0.042137  0.750000  1
  Ge  Ge7  1  0.044811  0.955189  0.250000  1
