# generated using pymatgen
data_Eu9Tm(Sn3H)2
_symmetry_space_group_name_H-M   'P 1'
_cell_length_a   9.65218503
_cell_length_b   9.65218571
_cell_length_c   9.65218520
_cell_angle_alpha   128.99362876
_cell_angle_beta   128.99363220
_cell_angle_gamma   75.02081873
_symmetry_Int_Tables_number   1
_chemical_formula_structural   Eu9Tm(Sn3H)2
_chemical_formula_sum   'Eu9 Tm1 Sn6 H2'
_cell_volume   528.94797658
_cell_formula_units_Z   1
loop_
 _symmetry_equiv_pos_site_id
 _symmetry_equiv_pos_as_xyz
  1  'x, y, z'
loop_
 _atom_site_type_symbol
 _atom_site_label
 _atom_site_symmetry_multiplicity
 _atom_site_fract_x
 _atom_site_fract_y
 _atom_site_fract_z
 _atom_site_occupancy
  Eu  Eu0  1  0.500000  0.500000  0.000000  1
  Eu  Eu1  1  0.513807  0.011080  0.827778  1
  Eu  Eu2  1  0.183302  0.686029  0.172222  1
  Eu  Eu3  1  0.011080  0.183302  0.497273  1
  Eu  Eu4  1  0.686029  0.513807  0.502727  1
  Eu  Eu5  1  0.486193  0.988920  0.172222  1
  Eu  Eu6  1  0.816698  0.313971  0.827778  1
  Eu  Eu7  1  0.988920  0.816698  0.502727  1
  Eu  Eu8  1  0.313971  0.486193  0.497273  1
  Tm  Tm9  1  0.000000  0.000000  0.000000  1
  Sn  Sn10  1  0.246856  0.246856  0.000000  1
  Sn  Sn11  1  0.753144  0.753144  0.000000  1
  Sn  Sn12  1  0.878024  0.365604  0.243627  1
  Sn  Sn13  1  0.121976  0.634396  0.756373  1
  Sn  Sn14  1  0.365604  0.121976  0.487580  1
  Sn  Sn15  1  0.634396  0.878024  0.512420  1
  H  H16  1  0.250000  0.750000  0.500000  1
  H  H17  1  0.750000  0.250000  0.500000  1
