# generated using pymatgen
data_DyLu3Ga18NiIr5
_symmetry_space_group_name_H-M   'P 1'
_cell_length_a   7.54872800
_cell_length_b   7.54701715
_cell_length_c   9.41688397
_cell_angle_alpha   90.21017703
_cell_angle_beta   90.20833431
_cell_angle_gamma   120.04414327
_symmetry_Int_Tables_number   1
_chemical_formula_structural   DyLu3Ga18NiIr5
_chemical_formula_sum   'Dy1 Lu3 Ga18 Ni1 Ir5'
_cell_volume   464.38909167
_cell_formula_units_Z   1
loop_
 _symmetry_equiv_pos_site_id
 _symmetry_equiv_pos_as_xyz
  1  'x, y, z'
loop_
 _atom_site_type_symbol
 _atom_site_label
 _atom_site_symmetry_multiplicity
 _atom_site_fract_x
 _atom_site_fract_y
 _atom_site_fract_z
 _atom_site_occupancy
  Dy  Dy0  1  0.333779  0.003166  0.749784  1
  Lu  Lu1  1  0.996926  0.666082  0.250354  1
  Lu  Lu2  1  0.003043  0.333788  0.749688  1
  Lu  Lu3  1  0.666192  0.996980  0.250323  1
  Ga  Ga4  1  0.119302  0.119398  0.244701  1
  Ga  Ga5  1  0.879728  0.880185  0.755240  1
  Ga  Ga6  1  0.998232  0.329321  0.080164  1
  Ga  Ga7  1  0.000876  0.669676  0.920364  1
  Ga  Ga8  1  0.000621  0.665838  0.580560  1
  Ga  Ga9  1  0.333225  0.998515  0.418280  1
  Ga  Ga10  1  0.998468  0.333200  0.418907  1
  Ga  Ga11  1  0.667670  0.001555  0.580544  1
  Ga  Ga12  1  0.671555  0.001810  0.920405  1
  Ga  Ga13  1  0.329384  0.998273  0.080800  1
  Ga  Ga14  1  0.331827  0.332621  0.565084  1
  Ga  Ga15  1  0.668124  0.668077  0.434326  1
  Ga  Ga16  1  0.673786  0.673791  0.065506  1
  Ga  Ga17  1  0.326191  0.327072  0.935081  1
  Ga  Ga18  1  0.338901  0.545858  0.249328  1
  Ga  Ga19  1  0.661715  0.454990  0.750682  1
  Ga  Ga20  1  0.545949  0.339018  0.249353  1
  Ga  Ga21  1  0.454296  0.660715  0.750673  1
  Ni  Ni22  1  0.999875  0.999964  0.000126  1
  Ir  Ir23  1  0.672336  0.328190  0.000343  1
  Ir  Ir24  1  0.327927  0.671982  0.000282  1
  Ir  Ir25  1  0.328208  0.671853  0.499715  1
  Ir  Ir26  1  0.672045  0.328230  0.499689  1
  Ir  Ir27  1  0.999817  0.999851  0.499701  1
