# generated using pymatgen
data_Y2Co9Tc3As7
_symmetry_space_group_name_H-M   'P 1'
_cell_length_a   3.81655900
_cell_length_b   9.33832006
_cell_length_c   9.33832100
_cell_angle_alpha   119.99999882
_cell_angle_beta   90.00000000
_cell_angle_gamma   90.00000000
_symmetry_Int_Tables_number   1
_chemical_formula_structural   Y2Co9Tc3As7
_chemical_formula_sum   'Y2 Co9 Tc3 As7'
_cell_volume   288.23065643
_cell_formula_units_Z   1
loop_
 _symmetry_equiv_pos_site_id
 _symmetry_equiv_pos_as_xyz
  1  'x, y, z'
loop_
 _atom_site_type_symbol
 _atom_site_label
 _atom_site_symmetry_multiplicity
 _atom_site_fract_x
 _atom_site_fract_y
 _atom_site_fract_z
 _atom_site_occupancy
  Y  Y0  1  0.000000  0.666667  0.333333  1
  Y  Y1  1  0.500000  0.333333  0.666667  1
  Co  Co2  1  0.000000  0.569100  0.940901  1
  Co  Co3  1  0.000000  0.371801  0.430900  1
  Co  Co4  1  0.000000  0.059099  0.628199  1
  Co  Co5  1  0.000000  0.875391  0.157219  1
  Co  Co6  1  0.000000  0.281827  0.124609  1
  Co  Co7  1  0.000000  0.842781  0.718173  1
  Co  Co8  1  0.500000  0.946827  0.380757  1
  Co  Co9  1  0.500000  0.433929  0.053173  1
  Co  Co10  1  0.500000  0.619243  0.566071  1
  Tc  Tc11  1  0.500000  0.782892  0.900354  1
  Tc  Tc12  1  0.500000  0.117462  0.217108  1
  Tc  Tc13  1  0.500000  0.099646  0.882538  1
  As  As14  1  0.000000  0.000000  0.000000  1
  As  As15  1  0.500000  0.706588  0.116574  1
  As  As16  1  0.500000  0.409987  0.293412  1
  As  As17  1  0.500000  0.883426  0.590013  1
  As  As18  1  0.000000  0.587664  0.701692  1
  As  As19  1  0.000000  0.114028  0.412336  1
  As  As20  1  0.000000  0.298308  0.885972  1
