# generated using pymatgen
data_La3NdErP12Ru19
_symmetry_space_group_name_H-M   'P 1'
_cell_length_a   12.65404500
_cell_length_b   12.65404488
_cell_length_c   4.02695800
_cell_angle_alpha   90.00000000
_cell_angle_beta   90.00000000
_cell_angle_gamma   120.00000294
_symmetry_Int_Tables_number   1
_chemical_formula_structural   La3NdErP12Ru19
_chemical_formula_sum   'La3 Nd1 Er1 P12 Ru19'
_cell_volume   558.42707136
_cell_formula_units_Z   1
loop_
 _symmetry_equiv_pos_site_id
 _symmetry_equiv_pos_as_xyz
  1  'x, y, z'
loop_
 _atom_site_type_symbol
 _atom_site_label
 _atom_site_symmetry_multiplicity
 _atom_site_fract_x
 _atom_site_fract_y
 _atom_site_fract_z
 _atom_site_occupancy
  La  La0  1  0.183015  0.183994  0.500000  1
  La  La1  1  0.816006  0.999022  0.500000  1
  La  La2  1  0.000978  0.816985  0.500000  1
  Nd  Nd3  1  0.333333  0.666667  0.000000  1
  Er  Er4  1  0.666667  0.333333  0.000000  1
  P  P5  1  0.811075  0.808760  0.000000  1
  P  P6  1  0.191240  0.002316  0.000000  1
  P  P7  1  0.997684  0.188925  0.000000  1
  P  P8  1  0.170697  0.476131  0.500000  1
  P  P9  1  0.523869  0.694566  0.500000  1
  P  P10  1  0.305434  0.829303  0.500000  1
  P  P11  1  0.697510  0.520171  0.500000  1
  P  P12  1  0.822661  0.302490  0.500000  1
  P  P13  1  0.479829  0.177339  0.500000  1
  P  P14  1  0.374824  0.376114  0.000000  1
  P  P15  1  0.623886  0.998710  0.000000  1
  P  P16  1  0.001290  0.625176  0.000000  1
  Ru  Ru17  1  0.554092  0.554148  0.000000  1
  Ru  Ru18  1  0.445852  0.999944  0.000000  1
  Ru  Ru19  1  0.000056  0.445908  0.000000  1
  Ru  Ru20  1  0.713144  0.710310  0.500000  1
  Ru  Ru21  1  0.289690  0.002835  0.500000  1
  Ru  Ru22  1  0.997165  0.286856  0.500000  1
  Ru  Ru23  1  0.183109  0.379291  0.000000  1
  Ru  Ru24  1  0.620709  0.803816  0.000000  1
  Ru  Ru25  1  0.196184  0.816891  0.000000  1
  Ru  Ru26  1  0.804670  0.616909  0.000000  1
  Ru  Ru27  1  0.812240  0.195330  0.000000  1
  Ru  Ru28  1  0.383091  0.187760  0.000000  1
  Ru  Ru29  1  0.366841  0.491269  0.500000  1
  Ru  Ru30  1  0.508731  0.875572  0.500000  1
  Ru  Ru31  1  0.124428  0.633159  0.500000  1
  Ru  Ru32  1  0.874031  0.503746  0.500000  1
  Ru  Ru33  1  0.629714  0.125969  0.500000  1
  Ru  Ru34  1  0.496254  0.370286  0.500000  1
  Ru  Ru35  1  0.000000  0.000000  0.000000  1
