# generated using pymatgen
data_Lu3(ReSi2)2
_symmetry_space_group_name_H-M   'P 1'
_cell_length_a   10.45063824
_cell_length_b   10.45063882
_cell_length_c   14.10052011
_cell_angle_alpha   55.35260300
_cell_angle_beta   55.35260122
_cell_angle_gamma   30.53421977
_symmetry_Int_Tables_number   1
_chemical_formula_structural   Lu3(ReSi2)2
_chemical_formula_sum   'Lu12 Re8 Si16'
_cell_volume   632.10059905
_cell_formula_units_Z   4
loop_
 _symmetry_equiv_pos_site_id
 _symmetry_equiv_pos_as_xyz
  1  'x, y, z'
loop_
 _atom_site_type_symbol
 _atom_site_label
 _atom_site_symmetry_multiplicity
 _atom_site_fract_x
 _atom_site_fract_y
 _atom_site_fract_z
 _atom_site_occupancy
  Lu  Lu0  1  0.751916  0.483279  0.047987  1
  Lu  Lu1  1  0.534747  0.306206  0.156138  1
  Lu  Lu2  1  0.516721  0.248084  0.452013  1
  Lu  Lu3  1  0.465253  0.693794  0.843862  1
  Lu  Lu4  1  0.293372  0.038373  0.137973  1
  Lu  Lu5  1  0.961627  0.706628  0.362027  1
  Lu  Lu6  1  0.706628  0.961627  0.862027  1
  Lu  Lu7  1  0.038373  0.293372  0.637973  1
  Lu  Lu8  1  0.248084  0.516721  0.952013  1
  Lu  Lu9  1  0.483279  0.751916  0.547987  1
  Lu  Lu10  1  0.306206  0.534747  0.656138  1
  Lu  Lu11  1  0.693794  0.465253  0.343862  1
  Re  Re12  1  0.643760  0.827705  0.282248  1
  Re  Re13  1  0.827705  0.643760  0.782248  1
  Re  Re14  1  0.356240  0.172295  0.717752  1
  Re  Re15  1  0.172295  0.356240  0.217752  1
  Re  Re16  1  0.136523  0.913367  0.076725  1
  Re  Re17  1  0.086633  0.863477  0.423275  1
  Re  Re18  1  0.863477  0.086633  0.923275  1
  Re  Re19  1  0.913367  0.136523  0.576725  1
  Si  Si20  1  0.900806  0.099194  0.250000  1
  Si  Si21  1  0.099194  0.900806  0.750000  1
  Si  Si22  1  0.347889  0.652111  0.250000  1
  Si  Si23  1  0.652111  0.347889  0.750000  1
  Si  Si24  1  0.001485  0.229160  0.875682  1
  Si  Si25  1  0.770840  0.998515  0.624318  1
  Si  Si26  1  0.998515  0.770840  0.124318  1
  Si  Si27  1  0.229160  0.001485  0.375682  1
  Si  Si28  1  0.606553  0.046306  0.074915  1
  Si  Si29  1  0.953694  0.393447  0.425085  1
  Si  Si30  1  0.393447  0.953694  0.925085  1
  Si  Si31  1  0.046306  0.606553  0.574915  1
  Si  Si32  1  0.387127  0.156448  0.383882  1
  Si  Si33  1  0.843552  0.612873  0.116118  1
  Si  Si34  1  0.612873  0.843552  0.616118  1
  Si  Si35  1  0.156448  0.387127  0.883882  1
