# generated using pymatgen
data_Nd16Ho4Si15Ag
_symmetry_space_group_name_H-M   'P 1'
_cell_length_a   7.69641326
_cell_length_b   7.92437191
_cell_length_c   15.17923800
_cell_angle_alpha   90.27195521
_cell_angle_beta   90.77840368
_cell_angle_gamma   90.25476651
_symmetry_Int_Tables_number   1
_chemical_formula_structural   Nd16Ho4Si15Ag
_chemical_formula_sum   'Nd16 Ho4 Si15 Ag1'
_cell_volume   925.66492296
_cell_formula_units_Z   1
loop_
 _symmetry_equiv_pos_site_id
 _symmetry_equiv_pos_as_xyz
  1  'x, y, z'
loop_
 _atom_site_type_symbol
 _atom_site_label
 _atom_site_symmetry_multiplicity
 _atom_site_fract_x
 _atom_site_fract_y
 _atom_site_fract_z
 _atom_site_occupancy
  Nd  Nd0  1  0.680209  0.174853  0.623898  1
  Nd  Nd1  1  0.187028  0.321109  0.877877  1
  Nd  Nd2  1  0.314315  0.820033  0.121885  1
  Nd  Nd3  1  0.822750  0.676584  0.375941  1
  Nd  Nd4  1  0.316099  0.825625  0.379085  1
  Nd  Nd5  1  0.813473  0.679873  0.121902  1
  Nd  Nd6  1  0.686397  0.178793  0.877810  1
  Nd  Nd7  1  0.179873  0.320054  0.623637  1
  Nd  Nd8  1  0.525897  0.678007  0.602778  1
  Nd  Nd9  1  0.033423  0.814145  0.899813  1
  Nd  Nd10  1  0.465635  0.316436  0.099858  1
  Nd  Nd11  1  0.976612  0.187331  0.396649  1
  Nd  Nd12  1  0.467847  0.320678  0.397750  1
  Nd  Nd13  1  0.966679  0.186394  0.099405  1
  Nd  Nd14  1  0.535397  0.686292  0.898433  1
  Nd  Nd15  1  0.028871  0.813600  0.602319  1
  Ho  Ho16  1  0.853230  0.510794  0.749955  1
  Ho  Ho17  1  0.352496  0.986270  0.749171  1
  Ho  Ho18  1  0.146720  0.487188  0.249690  1
  Ho  Ho19  1  0.649404  0.014534  0.246222  1
  Si  Si20  1  0.136679  0.525945  0.041469  1
  Si  Si21  1  0.361841  0.026158  0.958874  1
  Si  Si22  1  0.855978  0.471498  0.540611  1
  Si  Si23  1  0.346589  0.024569  0.546224  1
  Si  Si24  1  0.863116  0.474667  0.958065  1
  Si  Si25  1  0.636132  0.974698  0.040872  1
  Si  Si26  1  0.142312  0.528574  0.461177  1
  Si  Si27  1  0.481707  0.400152  0.751190  1
  Si  Si28  1  0.980254  0.096512  0.751867  1
  Si  Si29  1  0.518762  0.601238  0.248868  1
  Si  Si30  1  0.020991  0.903135  0.248375  1
  Si  Si31  1  0.739088  0.871366  0.751089  1
  Si  Si32  1  0.238414  0.626516  0.751809  1
  Si  Si33  1  0.263392  0.126828  0.247924  1
  Si  Si34  1  0.760480  0.374760  0.248384  1
  Ag  Ag35  1  0.651907  0.974792  0.459125  1
