# generated using pymatgen
data_Ba5Sr(LuBi3)2
_symmetry_space_group_name_H-M   'P 1'
_cell_length_a   8.71008859
_cell_length_b   9.98907467
_cell_length_c   8.83338798
_cell_angle_alpha   113.90572125
_cell_angle_beta   103.84027725
_cell_angle_gamma   113.21054358
_symmetry_Int_Tables_number   1
_chemical_formula_structural   Ba5Sr(LuBi3)2
_chemical_formula_sum   'Ba5 Sr1 Lu2 Bi6'
_cell_volume   568.33075014
_cell_formula_units_Z   1
loop_
 _symmetry_equiv_pos_site_id
 _symmetry_equiv_pos_as_xyz
  1  'x, y, z'
loop_
 _atom_site_type_symbol
 _atom_site_label
 _atom_site_symmetry_multiplicity
 _atom_site_fract_x
 _atom_site_fract_y
 _atom_site_fract_z
 _atom_site_occupancy
  Ba  Ba0  1  0.330523  0.331016  0.326846  1
  Ba  Ba1  1  0.998504  0.123210  0.573476  1
  Ba  Ba2  1  0.826416  0.830681  0.830683  1
  Ba  Ba3  1  0.075026  0.627869  0.500260  1
  Ba  Ba4  1  0.545685  0.014666  0.145783  1
  Sr  Sr5  1  0.640159  0.510651  0.031808  1
  Lu  Lu6  1  0.517093  0.066450  0.632181  1
  Lu  Lu7  1  0.131252  0.564251  0.016390  1
  Bi  Bi8  1  0.879179  0.251626  0.027813  1
  Bi  Bi9  1  0.122617  0.884073  0.255887  1
  Bi  Bi10  1  0.356803  0.574736  0.785852  1
  Bi  Bi11  1  0.290523  0.084314  0.860926  1
  Bi  Bi12  1  0.758071  0.389722  0.633722  1
  Bi  Bi13  1  0.528149  0.746734  0.378375  1
