# generated using pymatgen
data_YbEr3(Pt2O7)2
_symmetry_space_group_name_H-M   'P 1'
_cell_length_a   7.23562354
_cell_length_b   7.23562321
_cell_length_c   7.23562307
_cell_angle_alpha   59.98673514
_cell_angle_beta   59.98673248
_cell_angle_gamma   59.98673109
_symmetry_Int_Tables_number   1
_chemical_formula_structural   YbEr3(Pt2O7)2
_chemical_formula_sum   'Yb1 Er3 Pt4 O14'
_cell_volume   267.78249141
_cell_formula_units_Z   1
loop_
 _symmetry_equiv_pos_site_id
 _symmetry_equiv_pos_as_xyz
  1  'x, y, z'
loop_
 _atom_site_type_symbol
 _atom_site_label
 _atom_site_symmetry_multiplicity
 _atom_site_fract_x
 _atom_site_fract_y
 _atom_site_fract_z
 _atom_site_occupancy
  Yb  Yb0  1  0.625000  0.625000  0.625000  1
  Er  Er1  1  0.625000  0.625000  0.125000  1
  Er  Er2  1  0.625000  0.125000  0.625000  1
  Er  Er3  1  0.125000  0.625000  0.625000  1
  Pt  Pt4  1  0.625000  0.125000  0.125000  1
  Pt  Pt5  1  0.125000  0.125000  0.125000  1
  Pt  Pt6  1  0.125000  0.625000  0.125000  1
  Pt  Pt7  1  0.125000  0.125000  0.625000  1
  O  O8  1  0.043167  0.462881  0.462881  1
  O  O9  1  0.787119  0.787119  0.206833  1
  O  O10  1  0.785098  0.215655  0.215655  1
  O  O11  1  0.752786  0.752786  0.752786  1
  O  O12  1  0.034345  0.464902  0.034345  1
  O  O13  1  0.462881  0.043167  0.462881  1
  O  O14  1  0.034345  0.034345  0.464902  1
  O  O15  1  0.497214  0.497214  0.497214  1
  O  O16  1  0.215655  0.215655  0.785098  1
  O  O17  1  0.215655  0.785098  0.215655  1
  O  O18  1  0.787119  0.206833  0.787119  1
  O  O19  1  0.464902  0.034345  0.034345  1
  O  O20  1  0.462881  0.462881  0.043167  1
  O  O21  1  0.206833  0.787119  0.787119  1
