# generated using pymatgen
data_Ba5Tm(TiH9)3
_symmetry_space_group_name_H-M   'P 1'
_cell_length_a   9.48880900
_cell_length_b   9.33969129
_cell_length_c   5.42991400
_cell_angle_alpha   90.00000000
_cell_angle_beta   90.00000000
_cell_angle_gamma   119.48151335
_symmetry_Int_Tables_number   1
_chemical_formula_structural   Ba5Tm(TiH9)3
_chemical_formula_sum   'Ba5 Tm1 Ti3 H27'
_cell_volume   418.90274224
_cell_formula_units_Z   1
loop_
 _symmetry_equiv_pos_site_id
 _symmetry_equiv_pos_as_xyz
  1  'x, y, z'
loop_
 _atom_site_type_symbol
 _atom_site_label
 _atom_site_symmetry_multiplicity
 _atom_site_fract_x
 _atom_site_fract_y
 _atom_site_fract_z
 _atom_site_occupancy
  Ba  Ba0  1  0.736168  0.748439  0.500000  1
  Ba  Ba1  1  0.263832  0.012271  0.500000  1
  Ba  Ba2  1  0.000000  0.594272  0.000000  1
  Ba  Ba3  1  0.403242  0.384164  0.000000  1
  Ba  Ba4  1  0.596758  0.980922  0.000000  1
  Tm  Tm5  1  0.000000  0.253230  0.500000  1
  Ti  Ti6  1  0.686751  0.320122  0.500000  1
  Ti  Ti7  1  0.313249  0.633373  0.500000  1
  Ti  Ti8  1  0.000000  0.023780  0.000000  1
  H  H9  1  0.847433  0.335131  0.709157  1
  H  H10  1  0.724760  0.486705  0.723945  1
  H  H11  1  0.541242  0.188199  0.740038  1
  H  H12  1  0.152567  0.487699  0.290843  1
  H  H13  1  0.541242  0.188199  0.259962  1
  H  H14  1  0.847433  0.335131  0.290843  1
  H  H15  1  0.724760  0.486705  0.276055  1
  H  H16  1  0.275240  0.761946  0.723945  1
  H  H17  1  0.458758  0.646957  0.740038  1
  H  H18  1  0.206465  0.040536  0.000000  1
  H  H19  1  0.793535  0.834071  0.000000  1
  H  H20  1  0.000000  0.224697  0.000000  1
  H  H21  1  0.870599  0.032465  0.254745  1
  H  H22  1  0.129401  0.161866  0.745255  1
  H  H23  1  0.000000  0.870747  0.777671  1
  H  H24  1  0.000000  0.870747  0.222329  1
  H  H25  1  0.129401  0.161866  0.254745  1
  H  H26  1  0.870599  0.032465  0.745255  1
  H  H27  1  0.047041  0.648292  0.500000  1
  H  H28  1  0.487717  0.841727  0.500000  1
  H  H29  1  0.289422  0.425418  0.500000  1
  H  H30  1  0.512283  0.354011  0.500000  1
  H  H31  1  0.952959  0.601251  0.500000  1
  H  H32  1  0.710578  0.135996  0.500000  1
  H  H33  1  0.152567  0.487699  0.709157  1
  H  H34  1  0.275240  0.761946  0.276055  1
  H  H35  1  0.458758  0.646957  0.259962  1
