# generated using pymatgen
data_Sm2B(Pd2Pt)2
_symmetry_space_group_name_H-M   'P 1'
_cell_length_a   6.03644959
_cell_length_b   6.03644882
_cell_length_c   6.08311200
_cell_angle_alpha   59.74396566
_cell_angle_beta   59.74396993
_cell_angle_gamma   58.21015563
_symmetry_Int_Tables_number   1
_chemical_formula_structural   Sm2B(Pd2Pt)2
_chemical_formula_sum   'Sm2 B1 Pd4 Pt2'
_cell_volume   153.92377072
_cell_formula_units_Z   1
loop_
 _symmetry_equiv_pos_site_id
 _symmetry_equiv_pos_as_xyz
  1  'x, y, z'
loop_
 _atom_site_type_symbol
 _atom_site_label
 _atom_site_symmetry_multiplicity
 _atom_site_fract_x
 _atom_site_fract_y
 _atom_site_fract_z
 _atom_site_occupancy
  Sm  Sm0  1  0.247864  0.247864  0.254308  1
  Sm  Sm1  1  0.752136  0.752136  0.750036  1
  B  B2  1  0.500000  0.500000  0.489315  1
  Pd  Pd3  1  0.758881  0.758881  0.244564  1
  Pd  Pd4  1  0.241119  0.241119  0.762325  1
  Pd  Pd5  1  0.749290  0.250710  0.756696  1
  Pd  Pd6  1  0.250710  0.749290  0.756696  1
  Pt  Pt7  1  0.755842  0.244158  0.243029  1
  Pt  Pt8  1  0.244158  0.755842  0.243029  1
