# generated using pymatgen
data_Zr6Ti7Ga9Ir7
_symmetry_space_group_name_H-M   'P 1'
_cell_length_a   8.87320147
_cell_length_b   8.87320203
_cell_length_c   8.87320300
_cell_angle_alpha   59.46696344
_cell_angle_beta   59.46696133
_cell_angle_gamma   59.46696334
_symmetry_Int_Tables_number   1
_chemical_formula_structural   Zr6Ti7Ga9Ir7
_chemical_formula_sum   'Zr6 Ti7 Ga9 Ir7'
_cell_volume   488.00927001
_cell_formula_units_Z   1
loop_
 _symmetry_equiv_pos_site_id
 _symmetry_equiv_pos_as_xyz
  1  'x, y, z'
loop_
 _atom_site_type_symbol
 _atom_site_label
 _atom_site_symmetry_multiplicity
 _atom_site_fract_x
 _atom_site_fract_y
 _atom_site_fract_z
 _atom_site_occupancy
  Zr  Zr0  1  0.692191  0.692191  0.309250  1
  Zr  Zr1  1  0.306480  0.697507  0.306480  1
  Zr  Zr2  1  0.697507  0.306480  0.306480  1
  Zr  Zr3  1  0.306480  0.306480  0.697507  1
  Zr  Zr4  1  0.692191  0.309250  0.692191  1
  Zr  Zr5  1  0.309250  0.692191  0.692191  1
  Ti  Ti6  1  0.879940  0.879940  0.365176  1
  Ti  Ti7  1  0.879940  0.365176  0.879940  1
  Ti  Ti8  1  0.365176  0.879940  0.879940  1
  Ti  Ti9  1  0.875086  0.875086  0.875086  1
  Ti  Ti10  1  0.124301  0.124301  0.628167  1
  Ti  Ti11  1  0.124301  0.628167  0.124301  1
  Ti  Ti12  1  0.628167  0.124301  0.124301  1
  Ga  Ga13  1  0.116331  0.116331  0.116331  1
  Ga  Ga14  1  0.657148  0.657148  0.025458  1
  Ga  Ga15  1  0.657148  0.025458  0.657148  1
  Ga  Ga16  1  0.025458  0.657148  0.657148  1
  Ga  Ga17  1  0.659297  0.659297  0.659297  1
  Ga  Ga18  1  0.340447  0.340447  0.978803  1
  Ga  Ga19  1  0.340447  0.978803  0.340447  1
  Ga  Ga20  1  0.978803  0.340447  0.340447  1
  Ga  Ga21  1  0.345502  0.345502  0.345502  1
  Ir  Ir22  1  0.993724  0.993724  0.993724  1
  Ir  Ir23  1  0.999614  0.999614  0.505019  1
  Ir  Ir24  1  0.500366  0.999704  0.500366  1
  Ir  Ir25  1  0.999704  0.500366  0.500366  1
  Ir  Ir26  1  0.500366  0.500366  0.999704  1
  Ir  Ir27  1  0.999614  0.505019  0.999614  1
  Ir  Ir28  1  0.505019  0.999614  0.999614  1
