# generated using pymatgen
data_Dy5HoCuSi4Ni
_symmetry_space_group_name_H-M   'P 1'
_cell_length_a   4.14235400
_cell_length_b   11.26144800
_cell_length_c   11.26874200
_cell_angle_alpha   90.00000000
_cell_angle_beta   90.00000000
_cell_angle_gamma   90.00000000
_symmetry_Int_Tables_number   1
_chemical_formula_structural   Dy5HoCuSi4Ni
_chemical_formula_sum   'Dy10 Ho2 Cu2 Si8 Ni2'
_cell_volume   525.67446566
_cell_formula_units_Z   2
loop_
 _symmetry_equiv_pos_site_id
 _symmetry_equiv_pos_as_xyz
  1  'x, y, z'
loop_
 _atom_site_type_symbol
 _atom_site_label
 _atom_site_symmetry_multiplicity
 _atom_site_fract_x
 _atom_site_fract_y
 _atom_site_fract_z
 _atom_site_occupancy
  Dy  Dy0  1  0.750000  0.936450  0.117090  1
  Dy  Dy1  1  0.750000  0.563550  0.617090  1
  Dy  Dy2  1  0.250000  0.119644  0.557940  1
  Dy  Dy3  1  0.250000  0.380356  0.057940  1
  Dy  Dy4  1  0.750000  0.873896  0.440609  1
  Dy  Dy5  1  0.750000  0.626104  0.940609  1
  Dy  Dy6  1  0.250000  0.804270  0.714010  1
  Dy  Dy7  1  0.250000  0.695730  0.214010  1
  Dy  Dy8  1  0.750000  0.196533  0.290319  1
  Dy  Dy9  1  0.750000  0.303467  0.790319  1
  Ho  Ho10  1  0.250000  0.058835  0.877997  1
  Ho  Ho11  1  0.250000  0.441165  0.377997  1
  Cu  Cu12  1  0.250000  0.364816  0.630398  1
  Cu  Cu13  1  0.250000  0.135184  0.130398  1
  Si  Si14  1  0.250000  0.814975  0.975368  1
  Si  Si15  1  0.250000  0.685025  0.475368  1
  Si  Si16  1  0.750000  0.188105  0.024302  1
  Si  Si17  1  0.750000  0.311895  0.524302  1
  Si  Si18  1  0.250000  0.496226  0.805721  1
  Si  Si19  1  0.250000  0.003774  0.305721  1
  Si  Si20  1  0.750000  0.506927  0.195802  1
  Si  Si21  1  0.750000  0.993073  0.695802  1
  Ni  Ni22  1  0.750000  0.633579  0.370441  1
  Ni  Ni23  1  0.750000  0.866421  0.870441  1
