# generated using pymatgen
data_La9TbC4I15
_symmetry_space_group_name_H-M   'P 1'
_cell_length_a   9.89666530
_cell_length_b   10.82732746
_cell_length_c   11.90438051
_cell_angle_alpha   93.69899596
_cell_angle_beta   114.28257119
_cell_angle_gamma   109.42981921
_symmetry_Int_Tables_number   1
_chemical_formula_structural   La9TbC4I15
_chemical_formula_sum   'La9 Tb1 C4 I15'
_cell_volume   1066.03938307
_cell_formula_units_Z   1
loop_
 _symmetry_equiv_pos_site_id
 _symmetry_equiv_pos_as_xyz
  1  'x, y, z'
loop_
 _atom_site_type_symbol
 _atom_site_label
 _atom_site_symmetry_multiplicity
 _atom_site_fract_x
 _atom_site_fract_y
 _atom_site_fract_z
 _atom_site_occupancy
  La  La0  1  0.343569  0.746212  0.165594  1
  La  La1  1  0.779287  0.884465  0.259546  1
  La  La2  1  0.528961  0.187028  0.103759  1
  La  La3  1  0.220851  0.114506  0.741619  1
  La  La4  1  0.402780  0.459401  0.656984  1
  La  La5  1  0.471863  0.812368  0.898063  1
  La  La6  1  0.705573  0.567254  0.044724  1
  La  La7  1  0.294561  0.432420  0.955916  1
  La  La8  1  0.656807  0.254126  0.833192  1
  Tb  Tb9  1  0.594609  0.544581  0.334805  1
  C  C10  1  0.481988  0.300202  0.937249  1
  C  C11  1  0.518482  0.698375  0.063602  1
  C  C12  1  0.452517  0.361476  0.833587  1
  C  C13  1  0.547251  0.636908  0.166799  1
  I  I14  1  0.205504  0.906458  0.937309  1
  I  I15  1  0.102392  0.186753  0.465588  1
  I  I16  1  0.148789  0.554424  0.703170  1
  I  I17  1  0.404500  0.966894  0.645511  1
  I  I18  1  0.716557  0.734461  0.822232  1
  I  I19  1  0.295589  0.275448  0.186349  1
  I  I20  1  0.842127  0.449510  0.301943  1
  I  I21  1  0.884978  0.800194  0.528381  1
  I  I22  1  0.368488  0.626571  0.412194  1
  I  I23  1  0.057238  0.833804  0.221549  1
  I  I24  1  0.794983  0.094806  0.063117  1
  I  I25  1  0.641358  0.373507  0.582694  1
  I  I26  1  0.943578  0.165823  0.779090  1
  I  I27  1  0.594901  0.032111  0.355020  1
  I  I28  1  0.999919  0.499913  0.000414  1
