# generated using pymatgen
data_Dy8Cd3TcHg4
_symmetry_space_group_name_H-M   'P 1'
_cell_length_a   7.30781903
_cell_length_b   7.38193600
_cell_length_c   7.30790800
_cell_angle_alpha   90.00000000
_cell_angle_beta   90.00543336
_cell_angle_gamma   90.00000000
_symmetry_Int_Tables_number   1
_chemical_formula_structural   Dy8Cd3TcHg4
_chemical_formula_sum   'Dy8 Cd3 Tc1 Hg4'
_cell_volume   394.23132455
_cell_formula_units_Z   1
loop_
 _symmetry_equiv_pos_site_id
 _symmetry_equiv_pos_as_xyz
  1  'x, y, z'
loop_
 _atom_site_type_symbol
 _atom_site_label
 _atom_site_symmetry_multiplicity
 _atom_site_fract_x
 _atom_site_fract_y
 _atom_site_fract_z
 _atom_site_occupancy
  Dy  Dy0  1  0.260092  0.989763  0.260109  1
  Dy  Dy1  1  0.260092  0.510236  0.260109  1
  Dy  Dy2  1  0.739695  0.510473  0.260294  1
  Dy  Dy3  1  0.739695  0.989527  0.260294  1
  Dy  Dy4  1  0.260289  0.989668  0.739702  1
  Dy  Dy5  1  0.260289  0.510331  0.739702  1
  Dy  Dy6  1  0.739900  0.510345  0.739909  1
  Dy  Dy7  1  0.739900  0.989655  0.739909  1
  Cd  Cd8  1  0.999916  0.250000  0.000007  1
  Cd  Cd9  1  0.000093  0.750000  0.000001  1
  Cd  Cd10  1  0.500113  0.250000  0.499990  1
  Tc  Tc11  1  0.499955  0.750000  0.499969  1
  Hg  Hg12  1  0.500083  0.250000  0.000011  1
  Hg  Hg13  1  0.499894  0.750000  0.999995  1
  Hg  Hg14  1  0.999907  0.250000  0.499991  1
  Hg  Hg15  1  0.000085  0.750000  0.500010  1
