# generated using pymatgen
data_Pr17Lu3Si15Pt
_symmetry_space_group_name_H-M   'P 1'
_cell_length_a   7.89766475
_cell_length_b   7.86543520
_cell_length_c   15.23314700
_cell_angle_alpha   89.99348766
_cell_angle_beta   89.67538336
_cell_angle_gamma   90.17126296
_symmetry_Int_Tables_number   1
_chemical_formula_structural   Pr17Lu3Si15Pt
_chemical_formula_sum   'Pr17 Lu3 Si15 Pt1'
_cell_volume   946.24189185
_cell_formula_units_Z   1
loop_
 _symmetry_equiv_pos_site_id
 _symmetry_equiv_pos_as_xyz
  1  'x, y, z'
loop_
 _atom_site_type_symbol
 _atom_site_label
 _atom_site_symmetry_multiplicity
 _atom_site_fract_x
 _atom_site_fract_y
 _atom_site_fract_z
 _atom_site_occupancy
  Pr  Pr0  1  0.694638  0.687538  0.499455  1
  Pr  Pr1  1  0.374354  0.010512  0.447505  1
  Pr  Pr2  1  0.489724  0.875350  0.699614  1
  Pr  Pr3  1  0.510845  0.123995  0.196566  1
  Pr  Pr4  1  0.876789  0.487388  0.300502  1
  Pr  Pr5  1  0.122834  0.508958  0.801563  1
  Pr  Pr6  1  0.626415  0.988520  0.948693  1
  Pr  Pr7  1  0.003729  0.374070  0.552104  1
  Pr  Pr8  1  0.989318  0.625971  0.052662  1
  Pr  Pr9  1  0.134624  0.985178  0.875558  1
  Pr  Pr10  1  0.519229  0.631478  0.126010  1
  Pr  Pr11  1  0.473738  0.366057  0.629885  1
  Pr  Pr12  1  0.628049  0.518771  0.873972  1
  Pr  Pr13  1  0.372129  0.480365  0.371644  1
  Pr  Pr14  1  0.873468  0.021951  0.376702  1
  Pr  Pr15  1  0.981016  0.127068  0.122811  1
  Pr  Pr16  1  0.022461  0.876893  0.623093  1
  Lu  Lu17  1  0.311242  0.310307  0.999735  1
  Lu  Lu18  1  0.188415  0.810989  0.250142  1
  Lu  Lu19  1  0.816303  0.188273  0.750482  1
  Si  Si20  1  0.330076  0.689865  0.953790  1
  Si  Si21  1  0.662911  0.303321  0.453992  1
  Si  Si22  1  0.692173  0.331219  0.046249  1
  Si  Si23  1  0.307083  0.669550  0.545551  1
  Si  Si24  1  0.811247  0.830191  0.205023  1
  Si  Si25  1  0.170767  0.190662  0.294144  1
  Si  Si26  1  0.832284  0.809370  0.796430  1
  Si  Si27  1  0.286645  0.923944  0.062790  1
  Si  Si28  1  0.574337  0.788025  0.309259  1
  Si  Si29  1  0.433511  0.208175  0.816538  1
  Si  Si30  1  0.785612  0.576193  0.690960  1
  Si  Si31  1  0.213758  0.424419  0.185948  1
  Si  Si32  1  0.706734  0.077207  0.563200  1
  Si  Si33  1  0.921930  0.286449  0.938178  1
  Si  Si34  1  0.083046  0.716141  0.435704  1
  Pt  Pt35  1  0.178567  0.175635  0.703546  1
