# generated using pymatgen
data_La3Bi5(RuO6)4
_symmetry_space_group_name_H-M   'P 1'
_cell_length_a   5.47074281
_cell_length_b   9.33480309
_cell_length_c   10.11135010
_cell_angle_alpha   90.31154560
_cell_angle_beta   90.01862112
_cell_angle_gamma   90.11793849
_symmetry_Int_Tables_number   1
_chemical_formula_structural   La3Bi5(RuO6)4
_chemical_formula_sum   'La3 Bi5 Ru4 O24'
_cell_volume   516.36077374
_cell_formula_units_Z   1
loop_
 _symmetry_equiv_pos_site_id
 _symmetry_equiv_pos_as_xyz
  1  'x, y, z'
loop_
 _atom_site_type_symbol
 _atom_site_label
 _atom_site_symmetry_multiplicity
 _atom_site_fract_x
 _atom_site_fract_y
 _atom_site_fract_z
 _atom_site_occupancy
  La  La0  1  0.032627  0.278928  0.637853  1
  La  La1  1  0.470550  0.721037  0.140139  1
  La  La2  1  0.971865  0.779936  0.861357  1
  Bi  Bi3  1  0.522951  0.102388  0.958295  1
  Bi  Bi4  1  0.022194  0.399998  0.039665  1
  Bi  Bi5  1  0.478913  0.598847  0.539433  1
  Bi  Bi6  1  0.978267  0.896034  0.459348  1
  Bi  Bi7  1  0.527505  0.214935  0.361584  1
  Ru  Ru8  1  0.462938  0.995582  0.640885  1
  Ru  Ru9  1  0.959551  0.500500  0.356989  1
  Ru  Ru10  1  0.539381  0.496067  0.856987  1
  Ru  Ru11  1  0.036921  0.007604  0.145330  1
  O  O12  1  0.310840  0.139953  0.176642  1
  O  O13  1  0.811410  0.364380  0.830027  1
  O  O14  1  0.689198  0.633376  0.331533  1
  O  O15  1  0.185588  0.867311  0.668730  1
  O  O16  1  0.725998  0.110504  0.558705  1
  O  O17  1  0.231213  0.386945  0.435239  1
  O  O18  1  0.273481  0.612014  0.938613  1
  O  O19  1  0.775525  0.891137  0.062448  1
  O  O20  1  0.678793  0.636701  0.740182  1
  O  O21  1  0.173768  0.864447  0.259797  1
  O  O22  1  0.324114  0.137309  0.758209  1
  O  O23  1  0.814954  0.361543  0.242247  1
  O  O24  1  0.667682  0.952459  0.787366  1
  O  O25  1  0.162332  0.548677  0.211261  1
  O  O26  1  0.333047  0.451364  0.711344  1
  O  O27  1  0.826199  0.048753  0.290614  1
  O  O28  1  0.258027  0.080699  0.496412  1
  O  O29  1  0.753960  0.418202  0.499780  1
  O  O30  1  0.748347  0.581395  0.999598  1
  O  O31  1  0.250340  0.923320  0.003457  1
  O  O32  1  0.089877  0.654241  0.474220  1
  O  O33  1  0.586871  0.842132  0.525179  1
  O  O34  1  0.915343  0.157160  0.026756  1
  O  O35  1  0.409431  0.344127  0.973779  1
