# generated using pymatgen
data_Ti4V4Si3Se
_symmetry_space_group_name_H-M   'P 1'
_cell_length_a   3.34896400
_cell_length_b   6.58009470
_cell_length_c   7.92345675
_cell_angle_alpha   89.91379257
_cell_angle_beta   90.00000000
_cell_angle_gamma   90.00000000
_symmetry_Int_Tables_number   1
_chemical_formula_structural   Ti4V4Si3Se
_chemical_formula_sum   'Ti4 V4 Si3 Se1'
_cell_volume   174.60505919
_cell_formula_units_Z   1
loop_
 _symmetry_equiv_pos_site_id
 _symmetry_equiv_pos_as_xyz
  1  'x, y, z'
loop_
 _atom_site_type_symbol
 _atom_site_label
 _atom_site_symmetry_multiplicity
 _atom_site_fract_x
 _atom_site_fract_y
 _atom_site_fract_z
 _atom_site_occupancy
  Ti  Ti0  1  0.250000  0.550021  0.165972  1
  Ti  Ti1  1  0.750000  0.455602  0.837685  1
  Ti  Ti2  1  0.750000  0.942758  0.666157  1
  Ti  Ti3  1  0.250000  0.046718  0.328096  1
  V  V4  1  0.250000  0.630520  0.560375  1
  V  V5  1  0.750000  0.373905  0.437947  1
  V  V6  1  0.750000  0.874955  0.060676  1
  V  V7  1  0.250000  0.126630  0.941337  1
  Si  Si8  1  0.250000  0.750291  0.861544  1
  Si  Si9  1  0.750000  0.251509  0.140161  1
  Si  Si10  1  0.750000  0.748746  0.359180  1
  Se  Se11  1  0.250000  0.248344  0.640872  1
