# generated using pymatgen
data_P6Pb4SN12
_symmetry_space_group_name_H-M   'P 1'
_cell_length_a   7.72422085
_cell_length_b   7.72422133
_cell_length_c   7.72422200
_cell_angle_alpha   109.47122500
_cell_angle_beta   109.47122628
_cell_angle_gamma   109.47121742
_symmetry_Int_Tables_number   1
_chemical_formula_structural   P6Pb4SN12
_chemical_formula_sum   'P6 Pb4 S1 N12'
_cell_volume   354.76618047
_cell_formula_units_Z   1
loop_
 _symmetry_equiv_pos_site_id
 _symmetry_equiv_pos_as_xyz
  1  'x, y, z'
loop_
 _atom_site_type_symbol
 _atom_site_label
 _atom_site_symmetry_multiplicity
 _atom_site_fract_x
 _atom_site_fract_y
 _atom_site_fract_z
 _atom_site_occupancy
  P  P0  1  0.250000  0.750000  0.500000  1
  P  P1  1  0.750000  0.250000  0.500000  1
  P  P2  1  0.750000  0.500000  0.250000  1
  P  P3  1  0.250000  0.500000  0.750000  1
  P  P4  1  0.500000  0.750000  0.250000  1
  P  P5  1  0.500000  0.250000  0.750000  1
  Pb  Pb6  1  0.639081  0.000000  0.000000  1
  Pb  Pb7  1  0.000000  0.000000  0.639081  1
  Pb  Pb8  1  0.000000  0.639081  0.000000  1
  Pb  Pb9  1  0.360919  0.360919  0.360919  1
  S  S10  1  0.000000  0.000000  0.000000  1
  N  N11  1  0.698990  0.313828  0.313828  1
  N  N12  1  0.313828  0.698990  0.313828  1
  N  N13  1  0.301010  0.614838  0.614838  1
  N  N14  1  0.614838  0.614838  0.301010  1
  N  N15  1  0.385162  0.686172  0.000000  1
  N  N16  1  0.000000  0.686172  0.385162  1
  N  N17  1  0.614838  0.301010  0.614838  1
  N  N18  1  0.686172  0.000000  0.385162  1
  N  N19  1  0.385162  0.000000  0.686172  1
  N  N20  1  0.686172  0.385162  0.000000  1
  N  N21  1  0.313828  0.313828  0.698990  1
  N  N22  1  0.000000  0.385162  0.686172  1
