# generated using pymatgen
data_Y3Cd3C
_symmetry_space_group_name_H-M   'P 1'
_cell_length_a   9.58741455
_cell_length_b   9.58729914
_cell_length_c   9.58733042
_cell_angle_alpha   119.97996271
_cell_angle_beta   90.03626341
_cell_angle_gamma   119.97887829
_symmetry_Int_Tables_number   1
_chemical_formula_structural   Y3Cd3C
_chemical_formula_sum   'Y12 Cd12 C4'
_cell_volume   623.32296618
_cell_formula_units_Z   4
loop_
 _symmetry_equiv_pos_site_id
 _symmetry_equiv_pos_as_xyz
  1  'x, y, z'
loop_
 _atom_site_type_symbol
 _atom_site_label
 _atom_site_symmetry_multiplicity
 _atom_site_fract_x
 _atom_site_fract_y
 _atom_site_fract_z
 _atom_site_occupancy
  Y  Y0  1  0.935528  0.371064  0.185532  1
  Y  Y1  1  0.935670  0.750020  0.185657  1
  Y  Y2  1  0.314467  0.749998  0.185536  1
  Y  Y3  1  0.685648  0.249987  0.435650  1
  Y  Y4  1  0.685552  0.871099  0.435549  1
  Y  Y5  1  0.064459  0.250002  0.435537  1
  Y  Y6  1  0.314450  0.128903  0.564460  1
  Y  Y7  1  0.314347  0.750004  0.564348  1
  Y  Y8  1  0.935534  0.749983  0.564452  1
  Y  Y9  1  0.685540  0.250018  0.814483  1
  Y  Y10  1  0.064473  0.628942  0.814469  1
  Y  Y11  1  0.064342  0.249996  0.814348  1
  Cd  Cd12  1  0.000004  0.999998  0.999992  1
  Cd  Cd13  1  0.499994  0.999994  0.000000  1
  Cd  Cd14  1  0.499988  0.499995  0.999992  1
  Cd  Cd15  1  0.708110  0.916257  0.124348  1
  Cd  Cd16  1  0.291853  0.083725  0.208110  1
  Cd  Cd17  1  0.291905  0.416292  0.208172  1
  Cd  Cd18  1  0.624402  0.416310  0.208124  1
  Cd  Cd19  1  0.500002  0.500004  0.500004  1
  Cd  Cd20  1  0.375588  0.583691  0.791867  1
  Cd  Cd21  1  0.708100  0.583700  0.791819  1
  Cd  Cd22  1  0.708158  0.916288  0.791906  1
  Cd  Cd23  1  0.291880  0.083726  0.875641  1
  C  C24  1  0.000009  0.500005  0.000001  1
  C  C25  1  0.000004  0.000005  0.499996  1
  C  C26  1  0.500012  0.000011  0.500017  1
  C  C27  1  0.999990  0.499995  0.499997  1
