# generated using pymatgen
data_RbSr9(Tc2N7)2
_symmetry_space_group_name_H-M   'P 1'
_cell_length_a   6.49250179
_cell_length_b   9.24216786
_cell_length_c   9.44900587
_cell_angle_alpha   114.71184241
_cell_angle_beta   99.51286622
_cell_angle_gamma   89.98085905
_symmetry_Int_Tables_number   1
_chemical_formula_structural   RbSr9(Tc2N7)2
_chemical_formula_sum   'Rb1 Sr9 Tc4 N14'
_cell_volume   506.48110018
_cell_formula_units_Z   1
loop_
 _symmetry_equiv_pos_site_id
 _symmetry_equiv_pos_as_xyz
  1  'x, y, z'
loop_
 _atom_site_type_symbol
 _atom_site_label
 _atom_site_symmetry_multiplicity
 _atom_site_fract_x
 _atom_site_fract_y
 _atom_site_fract_z
 _atom_site_occupancy
  Rb  Rb0  1  0.869945  0.582391  0.336048  1
  Sr  Sr1  1  0.269385  0.984325  0.564008  1
  Sr  Sr2  1  0.701883  0.415820  0.856598  1
  Sr  Sr3  1  0.298459  0.592154  0.152560  1
  Sr  Sr4  1  0.397991  0.791802  0.908128  1
  Sr  Sr5  1  0.599645  0.216202  0.096174  1
  Sr  Sr6  1  0.136329  0.400756  0.668357  1
  Sr  Sr7  1  0.882717  0.841851  0.754556  1
  Sr  Sr8  1  0.114827  0.157237  0.238362  1
  Sr  Sr9  1  0.727209  0.004598  0.426410  1
  Tc  Tc10  1  0.575258  0.357755  0.479007  1
  Tc  Tc11  1  0.423887  0.638613  0.529112  1
  Tc  Tc12  1  0.124018  0.214120  0.908984  1
  Tc  Tc13  1  0.878928  0.788837  0.081927  1
  N  N14  1  0.571510  0.557380  0.674555  1
  N  N15  1  0.418166  0.437198  0.333026  1
  N  N16  1  0.187469  0.720821  0.608576  1
  N  N17  1  0.825609  0.279189  0.417585  1
  N  N18  1  0.418632  0.196146  0.490965  1
  N  N19  1  0.565332  0.802830  0.511784  1
  N  N20  1  0.963171  0.137089  0.707042  1
  N  N21  1  0.050967  0.875977  0.278133  1
  N  N22  1  0.233562  0.053974  0.960861  1
  N  N23  1  0.775108  0.950100  0.028847  1
  N  N24  1  0.355870  0.336755  0.912850  1
  N  N25  1  0.968416  0.331884  0.055884  1
  N  N26  1  0.022971  0.651083  0.930029  1
  N  N27  1  0.642735  0.683114  0.089631  1
