# generated using pymatgen
data_Dy4Lu4B24RuW3
_symmetry_space_group_name_H-M   'P 1'
_cell_length_a   3.58366900
_cell_length_b   9.20896159
_cell_length_c   11.61702352
_cell_angle_alpha   89.89888364
_cell_angle_beta   90.00000000
_cell_angle_gamma   90.00000000
_symmetry_Int_Tables_number   1
_chemical_formula_structural   Dy4Lu4B24RuW3
_chemical_formula_sum   'Dy4 Lu4 B24 Ru1 W3'
_cell_volume   383.38290485
_cell_formula_units_Z   1
loop_
 _symmetry_equiv_pos_site_id
 _symmetry_equiv_pos_as_xyz
  1  'x, y, z'
loop_
 _atom_site_type_symbol
 _atom_site_label
 _atom_site_symmetry_multiplicity
 _atom_site_fract_x
 _atom_site_fract_y
 _atom_site_fract_z
 _atom_site_occupancy
  Dy  Dy0  1  0.000000  0.321003  0.413595  1
  Dy  Dy1  1  0.000000  0.678605  0.585727  1
  Dy  Dy2  1  0.000000  0.821080  0.085318  1
  Dy  Dy3  1  0.000000  0.177990  0.913742  1
  Lu  Lu4  1  0.000000  0.944326  0.373048  1
  Lu  Lu5  1  0.000000  0.054197  0.629880  1
  Lu  Lu6  1  0.000000  0.445340  0.126728  1
  Lu  Lu7  1  0.000000  0.558876  0.871250  1
  B  B8  1  0.500000  0.551585  0.434622  1
  B  B9  1  0.500000  0.448008  0.565964  1
  B  B10  1  0.500000  0.050560  0.064035  1
  B  B11  1  0.500000  0.944630  0.931343  1
  B  B12  1  0.500000  0.752997  0.421522  1
  B  B13  1  0.500000  0.246495  0.579521  1
  B  B14  1  0.500000  0.253843  0.078308  1
  B  B15  1  0.500000  0.750738  0.917623  1
  B  B16  1  0.500000  0.795863  0.264764  1
  B  B17  1  0.500000  0.203441  0.736895  1
  B  B18  1  0.500000  0.295368  0.235449  1
  B  B19  1  0.500000  0.709078  0.765610  1
  B  B20  1  0.500000  0.631036  0.182182  1
  B  B21  1  0.500000  0.369999  0.818343  1
  B  B22  1  0.500000  0.129879  0.317170  1
  B  B23  1  0.500000  0.869334  0.685709  1
  B  B24  1  0.500000  0.978203  0.213501  1
  B  B25  1  0.500000  0.015709  0.787409  1
  B  B26  1  0.500000  0.478586  0.285903  1
  B  B27  1  0.500000  0.522607  0.713750  1
  B  B28  1  0.500000  0.601209  0.026417  1
  B  B29  1  0.500000  0.402028  0.972089  1
  B  B30  1  0.500000  0.098884  0.473397  1
  B  B31  1  0.500000  0.899788  0.529188  1
  Ru  Ru32  1  0.000000  0.860470  0.819789  1
  W  W33  1  0.000000  0.639409  0.319872  1
  W  W34  1  0.000000  0.359940  0.681305  1
  W  W35  1  0.000000  0.138896  0.179033  1
