# generated using pymatgen
data_Er4Ga2B4Ru3Rh7
_symmetry_space_group_name_H-M   'P 1'
_cell_length_a   9.55983730
_cell_length_b   9.56976129
_cell_length_c   3.10315200
_cell_angle_alpha   90.00000000
_cell_angle_beta   90.00000000
_cell_angle_gamma   89.97154019
_symmetry_Int_Tables_number   1
_chemical_formula_structural   Er4Ga2B4Ru3Rh7
_chemical_formula_sum   'Er4 Ga2 B4 Ru3 Rh7'
_cell_volume   283.89294572
_cell_formula_units_Z   1
loop_
 _symmetry_equiv_pos_site_id
 _symmetry_equiv_pos_as_xyz
  1  'x, y, z'
loop_
 _atom_site_type_symbol
 _atom_site_label
 _atom_site_symmetry_multiplicity
 _atom_site_fract_x
 _atom_site_fract_y
 _atom_site_fract_z
 _atom_site_occupancy
  Er  Er0  1  0.828153  0.323271  0.000000  1
  Er  Er1  1  0.322150  0.175796  0.000000  1
  Er  Er2  1  0.675224  0.824846  0.000000  1
  Er  Er3  1  0.175858  0.673837  0.000000  1
  Ga  Ga4  1  0.000562  0.003305  0.000000  1
  Ga  Ga5  1  0.499489  0.499936  0.000000  1
  B  B6  1  0.620727  0.120804  0.000000  1
  B  B7  1  0.118386  0.373567  0.000000  1
  B  B8  1  0.879975  0.620648  0.000000  1
  B  B9  1  0.378825  0.878898  0.000000  1
  Ru  Ru10  1  0.069730  0.217837  0.500000  1
  Ru  Ru11  1  0.499649  0.000054  0.500000  1
  Ru  Ru12  1  0.000140  0.501996  0.500000  1
  Rh  Rh13  1  0.217745  0.928679  0.500000  1
  Rh  Rh14  1  0.781481  0.069473  0.500000  1
  Rh  Rh15  1  0.929776  0.784140  0.500000  1
  Rh  Rh16  1  0.430563  0.717867  0.500000  1
  Rh  Rh17  1  0.570695  0.282369  0.500000  1
  Rh  Rh18  1  0.717642  0.571112  0.500000  1
  Rh  Rh19  1  0.283229  0.431563  0.500000  1
