# generated using pymatgen
data_SrHoTmS4
_symmetry_space_group_name_H-M   'P 1'
_cell_length_a   3.97705100
_cell_length_b   12.05717000
_cell_length_c   14.31028100
_cell_angle_alpha   90.00000000
_cell_angle_beta   90.00000000
_cell_angle_gamma   90.00000000
_symmetry_Int_Tables_number   1
_chemical_formula_structural   SrHoTmS4
_chemical_formula_sum   'Sr4 Ho4 Tm4 S16'
_cell_volume   686.20630839
_cell_formula_units_Z   4
loop_
 _symmetry_equiv_pos_site_id
 _symmetry_equiv_pos_as_xyz
  1  'x, y, z'
loop_
 _atom_site_type_symbol
 _atom_site_label
 _atom_site_symmetry_multiplicity
 _atom_site_fract_x
 _atom_site_fract_y
 _atom_site_fract_z
 _atom_site_occupancy
  Sr  Sr0  1  0.250000  0.760657  0.336052  1
  Sr  Sr1  1  0.250000  0.260657  0.163948  1
  Sr  Sr2  1  0.750000  0.239343  0.663948  1
  Sr  Sr3  1  0.750000  0.739343  0.836052  1
  Ho  Ho4  1  0.250000  0.436495  0.389187  1
  Ho  Ho5  1  0.250000  0.936495  0.110813  1
  Ho  Ho6  1  0.750000  0.563505  0.610813  1
  Ho  Ho7  1  0.750000  0.063505  0.889187  1
  Tm  Tm8  1  0.250000  0.418022  0.901109  1
  Tm  Tm9  1  0.250000  0.918022  0.598891  1
  Tm  Tm10  1  0.750000  0.581978  0.098891  1
  Tm  Tm11  1  0.750000  0.081978  0.401109  1
  S  S12  1  0.250000  0.206369  0.829401  1
  S  S13  1  0.250000  0.706369  0.670599  1
  S  S14  1  0.750000  0.793631  0.170599  1
  S  S15  1  0.750000  0.293631  0.329401  1
  S  S16  1  0.250000  0.126577  0.528378  1
  S  S17  1  0.250000  0.626577  0.971622  1
  S  S18  1  0.750000  0.873423  0.471622  1
  S  S19  1  0.750000  0.373423  0.028378  1
  S  S20  1  0.250000  0.026826  0.285660  1
  S  S21  1  0.250000  0.526826  0.214340  1
  S  S22  1  0.750000  0.973174  0.714340  1
  S  S23  1  0.750000  0.473174  0.785660  1
  S  S24  1  0.250000  0.411420  0.577761  1
  S  S25  1  0.250000  0.911420  0.922239  1
  S  S26  1  0.750000  0.588580  0.422239  1
  S  S27  1  0.750000  0.088580  0.077761  1
