# generated using pymatgen
data_La3GaSe6
_symmetry_space_group_name_H-M   'P 1'
_cell_length_a   9.33389597
_cell_length_b   9.33389544
_cell_length_c   7.03831700
_cell_angle_alpha   90.00000000
_cell_angle_beta   90.00000000
_cell_angle_gamma   102.19777636
_symmetry_Int_Tables_number   1
_chemical_formula_structural   La3GaSe6
_chemical_formula_sum   'La6 Ga2 Se12'
_cell_volume   599.34619355
_cell_formula_units_Z   2
loop_
 _symmetry_equiv_pos_site_id
 _symmetry_equiv_pos_as_xyz
  1  'x, y, z'
loop_
 _atom_site_type_symbol
 _atom_site_label
 _atom_site_symmetry_multiplicity
 _atom_site_fract_x
 _atom_site_fract_y
 _atom_site_fract_z
 _atom_site_occupancy
  La  La0  1  0.283536  0.084384  0.223934  1
  La  La1  1  0.915616  0.716464  0.223934  1
  La  La2  1  0.716464  0.915616  0.723934  1
  La  La3  1  0.084384  0.283536  0.723934  1
  La  La4  1  0.399802  0.600198  0.139847  1
  La  La5  1  0.600198  0.399802  0.639847  1
  Ga  Ga6  1  0.200374  0.799626  0.766568  1
  Ga  Ga7  1  0.799626  0.200374  0.266568  1
  Se  Se8  1  0.572025  0.100221  0.436044  1
  Se  Se9  1  0.899779  0.427975  0.436044  1
  Se  Se10  1  0.427975  0.899779  0.936044  1
  Se  Se11  1  0.100221  0.572025  0.936044  1
  Se  Se12  1  0.634376  0.689144  0.432181  1
  Se  Se13  1  0.310856  0.365624  0.432181  1
  Se  Se14  1  0.365624  0.310856  0.932181  1
  Se  Se15  1  0.689144  0.634376  0.932181  1
  Se  Se16  1  0.217765  0.782235  0.421666  1
  Se  Se17  1  0.782235  0.217765  0.921666  1
  Se  Se18  1  0.958149  0.041851  0.402603  1
  Se  Se19  1  0.041851  0.958149  0.902603  1
