# generated using pymatgen
data_DyY5ReB14Os
_symmetry_space_group_name_H-M   'P 1'
_cell_length_a   8.08123505
_cell_length_b   8.08123481
_cell_length_c   9.35263002
_cell_angle_alpha   90.00698776
_cell_angle_beta   89.99301265
_cell_angle_gamma   154.72828159
_symmetry_Int_Tables_number   1
_chemical_formula_structural   DyY5ReB14Os
_chemical_formula_sum   'Dy1 Y5 Re1 B14 Os1'
_cell_volume   260.75168298
_cell_formula_units_Z   1
loop_
 _symmetry_equiv_pos_site_id
 _symmetry_equiv_pos_as_xyz
  1  'x, y, z'
loop_
 _atom_site_type_symbol
 _atom_site_label
 _atom_site_symmetry_multiplicity
 _atom_site_fract_x
 _atom_site_fract_y
 _atom_site_fract_z
 _atom_site_occupancy
  Dy  Dy0  1  0.105480  0.894520  0.939233  1
  Y  Y1  1  0.894408  0.105592  0.439980  1
  Y  Y2  1  0.105648  0.894352  0.561391  1
  Y  Y3  1  0.894423  0.105577  0.060016  1
  Y  Y4  1  0.243696  0.756304  0.250009  1
  Y  Y5  1  0.756690  0.243310  0.750121  1
  Re  Re6  1  0.947295  0.052705  0.750040  1
  B  B7  1  0.726843  0.273157  0.465096  1
  B  B8  1  0.272525  0.727475  0.533585  1
  B  B9  1  0.726732  0.273268  0.034769  1
  B  B10  1  0.272402  0.727598  0.966352  1
  B  B11  1  0.631556  0.368444  0.151050  1
  B  B12  1  0.367902  0.632098  0.848972  1
  B  B13  1  0.631550  0.368450  0.348652  1
  B  B14  1  0.367917  0.632083  0.651040  1
  B  B15  1  0.520914  0.479086  0.096286  1
  B  B16  1  0.479429  0.520571  0.904258  1
  B  B17  1  0.520778  0.479222  0.403495  1
  B  B18  1  0.479289  0.520711  0.595747  1
  B  B19  1  0.457467  0.542533  0.249950  1
  B  B20  1  0.543171  0.456829  0.750200  1
  Os  Os21  1  0.053886  0.946114  0.249758  1
