# generated using pymatgen
data_PrTa8AlS16
_symmetry_space_group_name_H-M   'P 1'
_cell_length_a   6.70643800
_cell_length_b   6.70643791
_cell_length_c   13.42150900
_cell_angle_alpha   90.00000000
_cell_angle_beta   90.00000000
_cell_angle_gamma   120.00001029
_symmetry_Int_Tables_number   1
_chemical_formula_structural   PrTa8AlS16
_chemical_formula_sum   'Pr1 Ta8 Al1 S16'
_cell_volume   522.77613782
_cell_formula_units_Z   1
loop_
 _symmetry_equiv_pos_site_id
 _symmetry_equiv_pos_as_xyz
  1  'x, y, z'
loop_
 _atom_site_type_symbol
 _atom_site_label
 _atom_site_symmetry_multiplicity
 _atom_site_fract_x
 _atom_site_fract_y
 _atom_site_fract_z
 _atom_site_occupancy
  Pr  Pr0  1  0.000000  0.000000  0.000000  1
  Ta  Ta1  1  0.000000  0.000000  0.267623  1
  Ta  Ta2  1  0.000000  0.000000  0.732377  1
  Ta  Ta3  1  0.504778  0.009555  0.272466  1
  Ta  Ta4  1  0.495222  0.990445  0.727534  1
  Ta  Ta5  1  0.990445  0.495222  0.272466  1
  Ta  Ta6  1  0.009555  0.504778  0.727534  1
  Ta  Ta7  1  0.504778  0.495222  0.272466  1
  Ta  Ta8  1  0.495222  0.504778  0.727534  1
  Al  Al9  1  0.000000  0.000000  0.500000  1
  S  S10  1  0.333333  0.666667  0.609984  1
  S  S11  1  0.666667  0.333333  0.390016  1
  S  S12  1  0.666667  0.333333  0.152845  1
  S  S13  1  0.333333  0.666667  0.847155  1
  S  S14  1  0.169973  0.339945  0.154352  1
  S  S15  1  0.830027  0.660055  0.845648  1
  S  S16  1  0.660055  0.830027  0.154352  1
  S  S17  1  0.834390  0.668782  0.612155  1
  S  S18  1  0.339945  0.169973  0.845648  1
  S  S19  1  0.165610  0.331218  0.387845  1
  S  S20  1  0.169973  0.830027  0.154352  1
  S  S21  1  0.331218  0.165610  0.612155  1
  S  S22  1  0.830027  0.169973  0.845648  1
  S  S23  1  0.668782  0.834390  0.387845  1
  S  S24  1  0.834390  0.165610  0.612155  1
  S  S25  1  0.165610  0.834390  0.387845  1
