# generated using pymatgen
data_Lu12GaSi11Ir4
_symmetry_space_group_name_H-M   'P 1'
_cell_length_a   4.19105600
_cell_length_b   10.49376501
_cell_length_c   12.03634001
_cell_angle_alpha   90.00480085
_cell_angle_beta   90.00000000
_cell_angle_gamma   90.00000000
_symmetry_Int_Tables_number   1
_chemical_formula_structural   Lu12GaSi11Ir4
_chemical_formula_sum   'Lu12 Ga1 Si11 Ir4'
_cell_volume   529.35771189
_cell_formula_units_Z   1
loop_
 _symmetry_equiv_pos_site_id
 _symmetry_equiv_pos_as_xyz
  1  'x, y, z'
loop_
 _atom_site_type_symbol
 _atom_site_label
 _atom_site_symmetry_multiplicity
 _atom_site_fract_x
 _atom_site_fract_y
 _atom_site_fract_z
 _atom_site_occupancy
  Lu  Lu0  1  0.250000  0.878088  0.019674  1
  Lu  Lu1  1  0.250000  0.619811  0.520191  1
  Lu  Lu2  1  0.750000  0.121353  0.980348  1
  Lu  Lu3  1  0.750000  0.378425  0.479858  1
  Lu  Lu4  1  0.250000  0.918044  0.599036  1
  Lu  Lu5  1  0.250000  0.580721  0.104855  1
  Lu  Lu6  1  0.750000  0.081095  0.395694  1
  Lu  Lu7  1  0.750000  0.421652  0.898603  1
  Lu  Lu8  1  0.250000  0.659468  0.800304  1
  Lu  Lu9  1  0.250000  0.841941  0.300674  1
  Lu  Lu10  1  0.750000  0.340684  0.200019  1
  Lu  Lu11  1  0.750000  0.163462  0.700598  1
  Ga  Ga12  1  0.250000  0.015353  0.817531  1
  Si  Si13  1  0.250000  0.486768  0.321629  1
  Si  Si14  1  0.750000  0.987167  0.178216  1
  Si  Si15  1  0.750000  0.512430  0.679214  1
  Si  Si16  1  0.250000  0.254995  0.841899  1
  Si  Si17  1  0.250000  0.251477  0.340790  1
  Si  Si18  1  0.750000  0.751775  0.159643  1
  Si  Si19  1  0.750000  0.747868  0.658872  1
  Si  Si20  1  0.250000  0.194942  0.544711  1
  Si  Si21  1  0.250000  0.303886  0.044717  1
  Si  Si22  1  0.750000  0.801064  0.455162  1
  Si  Si23  1  0.750000  0.694989  0.957519  1
  Ir  Ir24  1  0.250000  0.392424  0.676793  1
  Ir  Ir25  1  0.250000  0.109920  0.176971  1
  Ir  Ir26  1  0.750000  0.608332  0.321427  1
  Ir  Ir27  1  0.750000  0.881865  0.825051  1
