# generated using pymatgen
data_Tm3Sn4IrRh
_symmetry_space_group_name_H-M   'P 1'
_cell_length_a   7.47696300
_cell_length_b   7.47696297
_cell_length_c   4.18325100
_cell_angle_alpha   90.00000000
_cell_angle_beta   90.00000000
_cell_angle_gamma   120.00001341
_symmetry_Int_Tables_number   1
_chemical_formula_structural   Tm3Sn4IrRh
_chemical_formula_sum   'Tm3 Sn4 Ir1 Rh1'
_cell_volume   202.53260928
_cell_formula_units_Z   1
loop_
 _symmetry_equiv_pos_site_id
 _symmetry_equiv_pos_as_xyz
  1  'x, y, z'
loop_
 _atom_site_type_symbol
 _atom_site_label
 _atom_site_symmetry_multiplicity
 _atom_site_fract_x
 _atom_site_fract_y
 _atom_site_fract_z
 _atom_site_occupancy
  Tm  Tm0  1  0.974071  0.392262  0.500000  1
  Tm  Tm1  1  0.607738  0.581811  0.500000  1
  Tm  Tm2  1  0.418189  0.025929  0.500000  1
  Sn  Sn3  1  0.981929  0.742951  0.000000  1
  Sn  Sn4  1  0.257049  0.238978  0.000000  1
  Sn  Sn5  1  0.761022  0.018071  0.000000  1
  Sn  Sn6  1  0.333333  0.666667  0.000000  1
  Ir  Ir7  1  0.666667  0.333333  0.000000  1
  Rh  Rh8  1  0.000000  0.000000  0.500000  1
