# generated using pymatgen
data_Tb8Al2OsPd
_symmetry_space_group_name_H-M   'P 1'
_cell_length_a   9.60977996
_cell_length_b   9.60978041
_cell_length_c   9.68242100
_cell_angle_alpha   59.74962934
_cell_angle_beta   59.74962778
_cell_angle_gamma   59.51677252
_symmetry_Int_Tables_number   1
_chemical_formula_structural   Tb8Al2OsPd
_chemical_formula_sum   'Tb16 Al4 Os2 Pd2'
_cell_volume   627.54195675
_cell_formula_units_Z   2
loop_
 _symmetry_equiv_pos_site_id
 _symmetry_equiv_pos_as_xyz
  1  'x, y, z'
loop_
 _atom_site_type_symbol
 _atom_site_label
 _atom_site_symmetry_multiplicity
 _atom_site_fract_x
 _atom_site_fract_y
 _atom_site_fract_z
 _atom_site_occupancy
  Tb  Tb0  1  0.352938  0.352938  0.356405  1
  Tb  Tb1  1  0.352938  0.352938  0.937720  1
  Tb  Tb2  1  0.350395  0.943850  0.352878  1
  Tb  Tb3  1  0.943850  0.350395  0.352878  1
  Tb  Tb4  1  0.812807  0.189513  0.195623  1
  Tb  Tb5  1  0.189513  0.812807  0.802058  1
  Tb  Tb6  1  0.189513  0.812807  0.195623  1
  Tb  Tb7  1  0.812807  0.189513  0.802058  1
  Tb  Tb8  1  0.192017  0.192017  0.807983  1
  Tb  Tb9  1  0.804530  0.804530  0.195470  1
  Tb  Tb10  1  0.937054  0.556529  0.567126  1
  Tb  Tb11  1  0.556529  0.937054  0.939292  1
  Tb  Tb12  1  0.556529  0.937054  0.567126  1
  Tb  Tb13  1  0.937054  0.556529  0.939292  1
  Tb  Tb14  1  0.563681  0.563681  0.936319  1
  Tb  Tb15  1  0.940069  0.940069  0.559931  1
  Al  Al16  1  0.576506  0.576506  0.577416  1
  Al  Al17  1  0.576506  0.576506  0.269570  1
  Al  Al18  1  0.577415  0.269110  0.576737  1
  Al  Al19  1  0.269110  0.577415  0.576737  1
  Os  Os20  1  0.145173  0.145173  0.138913  1
  Os  Os21  1  0.145173  0.145173  0.570742  1
  Pd  Pd22  1  0.147066  0.570829  0.141053  1
  Pd  Pd23  1  0.570829  0.147066  0.141053  1
