# generated using pymatgen
data_Eu10AgIr4Pd
_symmetry_space_group_name_H-M   'P 1'
_cell_length_a   9.14840161
_cell_length_b   9.14840137
_cell_length_c   9.14840100
_cell_angle_alpha   129.00983632
_cell_angle_beta   129.00983509
_cell_angle_gamma   74.99473916
_symmetry_Int_Tables_number   1
_chemical_formula_structural   Eu10AgIr4Pd
_chemical_formula_sum   'Eu10 Ag1 Ir4 Pd1'
_cell_volume   450.18388857
_cell_formula_units_Z   1
loop_
 _symmetry_equiv_pos_site_id
 _symmetry_equiv_pos_as_xyz
  1  'x, y, z'
loop_
 _atom_site_type_symbol
 _atom_site_label
 _atom_site_symmetry_multiplicity
 _atom_site_fract_x
 _atom_site_fract_y
 _atom_site_fract_z
 _atom_site_occupancy
  Eu  Eu0  1  0.500485  0.500485  0.000000  1
  Eu  Eu1  1  0.999515  0.999515  0.000000  1
  Eu  Eu2  1  0.535752  0.028146  0.833204  1
  Eu  Eu3  1  0.194941  0.702548  0.166796  1
  Eu  Eu4  1  0.028146  0.194941  0.492393  1
  Eu  Eu5  1  0.702548  0.535752  0.507607  1
  Eu  Eu6  1  0.471854  0.964248  0.166796  1
  Eu  Eu7  1  0.797452  0.305059  0.833204  1
  Eu  Eu8  1  0.964248  0.797452  0.492393  1
  Eu  Eu9  1  0.305059  0.471854  0.507607  1
  Ag  Ag10  1  0.250000  0.250000  0.000000  1
  Ir  Ir11  1  0.128377  0.628377  0.756753  1
  Ir  Ir12  1  0.871623  0.371623  0.243247  1
  Ir  Ir13  1  0.628377  0.871623  0.500000  1
  Ir  Ir14  1  0.371623  0.128377  0.500000  1
  Pd  Pd15  1  0.750000  0.750000  0.000000  1
