# generated using pymatgen
data_Pr6Nb4PW5N24
_symmetry_space_group_name_H-M   'P 1'
_cell_length_a   11.32303754
_cell_length_b   11.31491453
_cell_length_c   11.31286378
_cell_angle_alpha   109.62064157
_cell_angle_beta   109.64844710
_cell_angle_gamma   109.16810395
_symmetry_Int_Tables_number   1
_chemical_formula_structural   Pr6Nb4PW5N24
_chemical_formula_sum   'Pr12 Nb8 P2 W10 N48'
_cell_volume   1115.40221663
_cell_formula_units_Z   2
loop_
 _symmetry_equiv_pos_site_id
 _symmetry_equiv_pos_as_xyz
  1  'x, y, z'
loop_
 _atom_site_type_symbol
 _atom_site_label
 _atom_site_symmetry_multiplicity
 _atom_site_fract_x
 _atom_site_fract_y
 _atom_site_fract_z
 _atom_site_occupancy
  Pr  Pr0  1  0.367237  0.743087  0.122912  1
  Pr  Pr1  1  0.255676  0.379824  0.122909  1
  Pr  Pr2  1  0.373043  0.123037  0.246072  1
  Pr  Pr3  1  0.878239  0.628244  0.256476  1
  Pr  Pr4  1  0.743977  0.113955  0.369908  1
  Pr  Pr5  1  0.125923  0.255942  0.369903  1
  Pr  Pr6  1  0.882691  0.757391  0.629954  1
  Pr  Pr7  1  0.247263  0.872562  0.629957  1
  Pr  Pr8  1  0.124546  0.374551  0.749099  1
  Pr  Pr9  1  0.631250  0.881251  0.762500  1
  Pr  Pr10  1  0.622914  0.248384  0.881099  1
  Pr  Pr11  1  0.758185  0.632717  0.881100  1
  Nb  Nb12  1  0.002419  0.012892  0.014703  1
  Nb  Nb13  1  0.512291  0.001811  0.014708  1
  Nb  Nb14  1  0.980740  0.484079  0.000431  1
  Nb  Nb15  1  0.519691  0.516352  0.000433  1
  Nb  Nb16  1  0.991967  0.002744  0.483754  1
  Nb  Nb17  1  0.497411  0.995300  0.511478  1
  Nb  Nb18  1  0.991786  0.481004  0.483755  1
  Nb  Nb19  1  0.514041  0.516152  0.511463  1
  P  P20  1  0.868777  0.242546  0.119178  1
  P  P21  1  0.750404  0.876634  0.119182  1
  W  W22  1  0.627184  0.375520  0.251407  1
  W  W23  1  0.124254  0.875900  0.251419  1
  W  W24  1  0.247196  0.620888  0.372829  1
  W  W25  1  0.625626  0.751940  0.372826  1
  W  W26  1  0.371731  0.251470  0.623182  1
  W  W27  1  0.751436  0.371698  0.623174  1
  W  W28  1  0.877732  0.125833  0.753146  1
  W  W29  1  0.375411  0.627313  0.753147  1
  W  W30  1  0.252251  0.125467  0.876109  1
  W  W31  1  0.123859  0.750646  0.876110  1
  N  N32  1  0.195519  0.118726  0.017739  1
  N  N33  1  0.322221  0.899019  0.017738  1
  N  N34  1  0.889415  0.379095  0.083241  1
  N  N35  1  0.693822  0.704143  0.083240  1
  N  N36  1  0.618353  0.423423  0.104558  1
  N  N37  1  0.986218  0.681151  0.104567  1
  N  N38  1  0.619056  0.916633  0.108743  1
  N  N39  1  0.989688  0.192109  0.108742  1
  N  N40  1  0.201445  0.584241  0.185762  1
  N  N41  1  0.484308  0.601514  0.185758  1
  N  N42  1  0.587033  0.182715  0.203516  1
  N  N43  1  0.116496  0.020801  0.203517  1
  N  N44  1  0.488035  0.384103  0.300418  1
  N  N45  1  0.312408  0.916318  0.300417  1
  N  N46  1  0.912391  0.304335  0.294524  1
  N  N47  1  0.882138  0.990190  0.294526  1
  N  N48  1  0.297035  0.479884  0.379770  1
  N  N49  1  0.582733  0.899885  0.379775  1
  N  N50  1  0.814995  0.518788  0.401825  1
  N  N51  1  0.086835  0.883047  0.401825  1
  N  N52  1  0.097359  0.614578  0.412154  1
  N  N53  1  0.814796  0.797579  0.412156  1
  N  N54  1  0.602596  0.185890  0.486303  1
  N  N55  1  0.383702  0.300413  0.486314  1
  N  N56  1  0.616256  0.701446  0.516419  1
  N  N57  1  0.400166  0.814976  0.516421  1
  N  N58  1  0.177149  0.198203  0.573094  1
  N  N59  1  0.895938  0.374896  0.573090  1
  N  N60  1  0.914162  0.109935  0.598633  1
  N  N61  1  0.184468  0.488697  0.598627  1
  N  N62  1  0.416308  0.102011  0.614385  1
  N  N63  1  0.698078  0.512370  0.614394  1
  N  N64  1  0.081104  0.697554  0.684727  1
  N  N65  1  0.103620  0.987170  0.684725  1
  N  N66  1  0.685080  0.082376  0.700593  1
  N  N67  1  0.515515  0.618227  0.700600  1
  N  N68  1  0.417791  0.816117  0.800747  1
  N  N69  1  0.882955  0.984633  0.800746  1
  N  N70  1  0.515901  0.406455  0.814792  1
  N  N71  1  0.798888  0.408346  0.814795  1
  N  N72  1  0.402999  0.084172  0.885876  1
  N  N73  1  0.982873  0.801705  0.885871  1
  N  N74  1  0.024083  0.316239  0.902021  1
  N  N75  1  0.377934  0.585781  0.902019  1
  N  N76  1  0.302818  0.313080  0.912590  1
  N  N77  1  0.109770  0.599512  0.912588  1
  N  N78  1  0.700074  0.114592  0.000392  1
  N  N79  1  0.800326  0.885801  0.000400  1
