# generated using pymatgen
data_LaTbDy4IrBr10
_symmetry_space_group_name_H-M   'P 1'
_cell_length_a   7.44607037
_cell_length_b   9.34902288
_cell_length_c   9.35524470
_cell_angle_alpha   107.64051610
_cell_angle_beta   95.88017459
_cell_angle_gamma   105.87179868
_symmetry_Int_Tables_number   1
_chemical_formula_structural   LaTbDy4IrBr10
_chemical_formula_sum   'La1 Tb1 Dy4 Ir1 Br10'
_cell_volume   584.63814711
_cell_formula_units_Z   1
loop_
 _symmetry_equiv_pos_site_id
 _symmetry_equiv_pos_as_xyz
  1  'x, y, z'
loop_
 _atom_site_type_symbol
 _atom_site_label
 _atom_site_symmetry_multiplicity
 _atom_site_fract_x
 _atom_site_fract_y
 _atom_site_fract_z
 _atom_site_occupancy
  La  La0  1  0.130367  0.050456  0.753475  1
  Tb  Tb1  1  0.873964  0.952040  0.238396  1
  Dy  Dy2  1  0.973001  0.301364  0.099237  1
  Dy  Dy3  1  0.025346  0.699460  0.905720  1
  Dy  Dy4  1  0.638955  0.863948  0.822050  1
  Dy  Dy5  1  0.360410  0.134989  0.178374  1
  Ir  Ir6  1  0.000889  0.001170  0.998333  1
  Br  Br7  1  0.556938  0.178443  0.922860  1
  Br  Br8  1  0.454972  0.825936  0.084870  1
  Br  Br9  1  0.738443  0.912259  0.540496  1
  Br  Br10  1  0.247727  0.082078  0.446941  1
  Br  Br11  1  0.083487  0.381398  0.836721  1
  Br  Br12  1  0.912958  0.629454  0.170788  1
  Br  Br13  1  0.220998  0.735593  0.658167  1
  Br  Br14  1  0.781020  0.251916  0.343607  1
  Br  Br15  1  0.650503  0.550499  0.728490  1
  Br  Br16  1  0.350021  0.448996  0.271474  1
