# generated using pymatgen
data_Er4Lu8TlInFe2Re
_symmetry_space_group_name_H-M   'P 1'
_cell_length_a   8.24444450
_cell_length_b   8.24444417
_cell_length_c   8.24444366
_cell_angle_alpha   109.04444930
_cell_angle_beta   108.74122914
_cell_angle_gamma   110.63441553
_symmetry_Int_Tables_number   1
_chemical_formula_structural   Er4Lu8TlInFe2Re
_chemical_formula_sum   'Er4 Lu8 Tl1 In1 Fe2 Re1'
_cell_volume   431.24563491
_cell_formula_units_Z   1
loop_
 _symmetry_equiv_pos_site_id
 _symmetry_equiv_pos_as_xyz
  1  'x, y, z'
loop_
 _atom_site_type_symbol
 _atom_site_label
 _atom_site_symmetry_multiplicity
 _atom_site_fract_x
 _atom_site_fract_y
 _atom_site_fract_z
 _atom_site_occupancy
  Er  Er0  1  0.307422  0.306534  0.613956  1
  Er  Er1  1  0.692578  0.693466  0.386044  1
  Er  Er2  1  0.692578  0.306534  0.999114  1
  Er  Er3  1  0.307422  0.693466  0.000886  1
  Lu  Lu4  1  0.191708  0.429618  0.237910  1
  Lu  Lu5  1  0.808292  0.570382  0.762090  1
  Lu  Lu6  1  0.191708  0.953798  0.762090  1
  Lu  Lu7  1  0.954354  0.191263  0.763091  1
  Lu  Lu8  1  0.808292  0.046202  0.237910  1
  Lu  Lu9  1  0.045646  0.808737  0.236909  1
  Lu  Lu10  1  0.428172  0.191263  0.236909  1
  Lu  Lu11  1  0.571828  0.808737  0.763091  1
  Tl  Tl12  1  0.000000  0.500000  0.500000  1
  In  In13  1  0.500000  0.000000  0.500000  1
  Fe  Fe14  1  0.384407  0.384407  0.000000  1
  Fe  Fe15  1  0.615593  0.615593  0.000000  1
  Re  Re16  1  0.000000  0.000000  0.000000  1
