# generated using pymatgen
data_CsAg2(AsSe2)3
_symmetry_space_group_name_H-M   'P 1'
_cell_length_a   7.82250200
_cell_length_b   10.16758804
_cell_length_c   20.30996400
_cell_angle_alpha   60.24933137
_cell_angle_beta   90.00000000
_cell_angle_gamma   90.00000000
_symmetry_Int_Tables_number   1
_chemical_formula_structural   CsAg2(AsSe2)3
_chemical_formula_sum   'Cs4 Ag8 As12 Se24'
_cell_volume   1402.45543437
_cell_formula_units_Z   4
loop_
 _symmetry_equiv_pos_site_id
 _symmetry_equiv_pos_as_xyz
  1  'x, y, z'
loop_
 _atom_site_type_symbol
 _atom_site_label
 _atom_site_symmetry_multiplicity
 _atom_site_fract_x
 _atom_site_fract_y
 _atom_site_fract_z
 _atom_site_occupancy
  Cs  Cs0  1  0.177260  0.160773  0.832483  1
  Cs  Cs1  1  0.822740  0.839227  0.167517  1
  Cs  Cs2  1  0.322740  0.160773  0.332483  1
  Cs  Cs3  1  0.677260  0.839227  0.667517  1
  Ag  Ag4  1  0.461578  0.452434  0.080647  1
  Ag  Ag5  1  0.484557  0.350448  0.499251  1
  Ag  Ag6  1  0.984557  0.649552  0.000749  1
  Ag  Ag7  1  0.538422  0.547566  0.919353  1
  Ag  Ag8  1  0.961578  0.547566  0.419353  1
  Ag  Ag9  1  0.515443  0.649552  0.500749  1
  Ag  Ag10  1  0.015443  0.350448  0.999251  1
  Ag  Ag11  1  0.038422  0.452434  0.580647  1
  As  As12  1  0.849841  0.953305  0.353490  1
  As  As13  1  0.369803  0.653337  0.277046  1
  As  As14  1  0.618625  0.213981  0.918493  1
  As  As15  1  0.118625  0.786019  0.581507  1
  As  As16  1  0.150159  0.046695  0.646510  1
  As  As17  1  0.881375  0.213981  0.418493  1
  As  As18  1  0.650159  0.953305  0.853490  1
  As  As19  1  0.869803  0.346663  0.222954  1
  As  As20  1  0.381375  0.786019  0.081507  1
  As  As21  1  0.349841  0.046695  0.146510  1
  As  As22  1  0.130197  0.653337  0.777046  1
  As  As23  1  0.630197  0.346663  0.722954  1
  Se  Se24  1  0.250333  0.454823  0.892226  1
  Se  Se25  1  0.249667  0.454823  0.392226  1
  Se  Se26  1  0.800928  0.133757  0.735131  1
  Se  Se27  1  0.300928  0.866243  0.764869  1
  Se  Se28  1  0.720498  0.410090  0.310823  1
  Se  Se29  1  0.279502  0.589910  0.689177  1
  Se  Se30  1  0.303861  0.732073  0.983286  1
  Se  Se31  1  0.702134  0.731498  0.372707  1
  Se  Se32  1  0.779502  0.410090  0.810823  1
  Se  Se33  1  0.297866  0.268502  0.627293  1
  Se  Se34  1  0.202134  0.268502  0.127293  1
  Se  Se35  1  0.803861  0.267927  0.516714  1
  Se  Se36  1  0.797866  0.731498  0.872707  1
  Se  Se37  1  0.699072  0.133757  0.235131  1
  Se  Se38  1  0.205694  0.013290  0.048212  1
  Se  Se39  1  0.794306  0.986710  0.951788  1
  Se  Se40  1  0.294306  0.013290  0.548212  1
  Se  Se41  1  0.696139  0.267927  0.016714  1
  Se  Se42  1  0.220498  0.589910  0.189177  1
  Se  Se43  1  0.705694  0.986710  0.451788  1
  Se  Se44  1  0.196139  0.732073  0.483286  1
  Se  Se45  1  0.750333  0.545177  0.607774  1
  Se  Se46  1  0.199072  0.866243  0.264869  1
  Se  Se47  1  0.749667  0.545177  0.107774  1
