# generated using pymatgen
data_Yb12Ce(SmSb4)3
_symmetry_space_group_name_H-M   'P 1'
_cell_length_a   9.46717817
_cell_length_b   9.46717774
_cell_length_c   9.46717761
_cell_angle_alpha   90.00427791
_cell_angle_beta   90.00428240
_cell_angle_gamma   89.99571063
_symmetry_Int_Tables_number   1
_chemical_formula_structural   Yb12Ce(SmSb4)3
_chemical_formula_sum   'Yb12 Ce1 Sm3 Sb12'
_cell_volume   848.51906021
_cell_formula_units_Z   1
loop_
 _symmetry_equiv_pos_site_id
 _symmetry_equiv_pos_as_xyz
  1  'x, y, z'
loop_
 _atom_site_type_symbol
 _atom_site_label
 _atom_site_symmetry_multiplicity
 _atom_site_fract_x
 _atom_site_fract_y
 _atom_site_fract_z
 _atom_site_occupancy
  Yb  Yb0  1  0.822051  0.322051  0.177949  1
  Yb  Yb1  1  0.930281  0.930619  0.931204  1
  Yb  Yb2  1  0.825445  0.674696  0.325820  1
  Yb  Yb3  1  0.177417  0.822838  0.322632  1
  Yb  Yb4  1  0.174696  0.174180  0.174555  1
  Yb  Yb5  1  0.326089  0.826089  0.673911  1
  Yb  Yb6  1  0.068796  0.430281  0.569381  1
  Yb  Yb7  1  0.322838  0.177368  0.822583  1
  Yb  Yb8  1  0.674180  0.325445  0.825304  1
  Yb  Yb9  1  0.677368  0.677417  0.677162  1
  Yb  Yb10  1  0.568884  0.068884  0.431116  1
  Yb  Yb11  1  0.430619  0.568796  0.069719  1
  Ce  Ce12  1  0.071587  0.571587  0.928413  1
  Sm  Sm13  1  0.929591  0.070704  0.570073  1
  Sm  Sm14  1  0.429927  0.429591  0.429296  1
  Sm  Sm15  1  0.570704  0.929927  0.070409  1
  Sb  Sb16  1  0.747720  0.370409  0.500420  1
  Sb  Sb17  1  0.870409  0.999580  0.252280  1
  Sb  Sb18  1  0.999997  0.753440  0.627695  1
  Sb  Sb19  1  0.247312  0.129213  0.499677  1
  Sb  Sb20  1  0.130000  0.499329  0.250103  1
  Sb  Sb21  1  0.999329  0.249897  0.870000  1
  Sb  Sb22  1  0.253440  0.872305  0.000003  1
  Sb  Sb23  1  0.372305  0.499997  0.746560  1
  Sb  Sb24  1  0.499580  0.247720  0.129591  1
  Sb  Sb25  1  0.749897  0.630000  0.000671  1
  Sb  Sb26  1  0.629213  0.000323  0.752688  1
  Sb  Sb27  1  0.500323  0.747312  0.370787  1
