# generated using pymatgen
data_CuHg2Bi(Pt2O7)2
_symmetry_space_group_name_H-M   'P 1'
_cell_length_a   7.18695070
_cell_length_b   7.32581187
_cell_length_c   7.19665900
_cell_angle_alpha   60.58150116
_cell_angle_beta   59.95530964
_cell_angle_gamma   59.87334745
_symmetry_Int_Tables_number   1
_chemical_formula_structural   CuHg2Bi(Pt2O7)2
_chemical_formula_sum   'Cu1 Hg2 Bi1 Pt4 O14'
_cell_volume   268.73214204
_cell_formula_units_Z   1
loop_
 _symmetry_equiv_pos_site_id
 _symmetry_equiv_pos_as_xyz
  1  'x, y, z'
loop_
 _atom_site_type_symbol
 _atom_site_label
 _atom_site_symmetry_multiplicity
 _atom_site_fract_x
 _atom_site_fract_y
 _atom_site_fract_z
 _atom_site_occupancy
  Cu  Cu0  1  0.625000  0.125000  0.125000  1
  Hg  Hg1  1  0.125000  0.125000  0.625000  1
  Hg  Hg2  1  0.125000  0.125000  0.125000  1
  Bi  Bi3  1  0.125000  0.625000  0.125000  1
  Pt  Pt4  1  0.625000  0.625000  0.125000  1
  Pt  Pt5  1  0.625000  0.125000  0.625000  1
  Pt  Pt6  1  0.125000  0.625000  0.625000  1
  Pt  Pt7  1  0.625000  0.625000  0.625000  1
  O  O8  1  0.302814  0.246538  0.225325  1
  O  O9  1  0.947186  0.003462  0.024675  1
  O  O10  1  0.548177  0.956113  0.536863  1
  O  O11  1  0.289043  0.705829  0.290158  1
  O  O12  1  0.538100  0.549797  0.956052  1
  O  O13  1  0.960957  0.544171  0.535030  1
  O  O14  1  0.548177  0.956113  0.958845  1
  O  O15  1  0.960491  0.956856  0.541326  1
  O  O16  1  0.960957  0.544171  0.959842  1
  O  O17  1  0.701823  0.293887  0.291155  1
  O  O18  1  0.289043  0.705829  0.714970  1
  O  O19  1  0.701823  0.293887  0.713137  1
  O  O20  1  0.289509  0.293144  0.708674  1
  O  O21  1  0.711900  0.700203  0.293948  1
