# generated using pymatgen
data_Pr18Ho2Si15Br
_symmetry_space_group_name_H-M   'P 1'
_cell_length_a   7.96070228
_cell_length_b   7.90519100
_cell_length_c   15.35263133
_cell_angle_alpha   89.65902416
_cell_angle_beta   89.12285838
_cell_angle_gamma   90.20895784
_symmetry_Int_Tables_number   1
_chemical_formula_structural   Pr18Ho2Si15Br
_chemical_formula_sum   'Pr18 Ho2 Si15 Br1'
_cell_volume   966.01740597
_cell_formula_units_Z   1
loop_
 _symmetry_equiv_pos_site_id
 _symmetry_equiv_pos_as_xyz
  1  'x, y, z'
loop_
 _atom_site_type_symbol
 _atom_site_label
 _atom_site_symmetry_multiplicity
 _atom_site_fract_x
 _atom_site_fract_y
 _atom_site_fract_z
 _atom_site_occupancy
  Pr  Pr0  1  0.794806  0.189485  0.753066  1
  Pr  Pr1  1  0.687338  0.689729  0.496988  1
  Pr  Pr2  1  0.380574  0.004748  0.442210  1
  Pr  Pr3  1  0.496694  0.868903  0.699572  1
  Pr  Pr4  1  0.509516  0.122405  0.196446  1
  Pr  Pr5  1  0.875529  0.485562  0.299868  1
  Pr  Pr6  1  0.122615  0.516516  0.804919  1
  Pr  Pr7  1  0.632109  0.985792  0.952783  1
  Pr  Pr8  1  0.996528  0.383598  0.544720  1
  Pr  Pr9  1  0.992855  0.623257  0.053331  1
  Pr  Pr10  1  0.139150  0.987027  0.876009  1
  Pr  Pr11  1  0.519069  0.629985  0.125650  1
  Pr  Pr12  1  0.481983  0.372214  0.630994  1
  Pr  Pr13  1  0.634659  0.521680  0.877099  1
  Pr  Pr14  1  0.368468  0.476377  0.373994  1
  Pr  Pr15  1  0.870375  0.019480  0.376046  1
  Pr  Pr16  1  0.983641  0.128303  0.124188  1
  Pr  Pr17  1  0.013075  0.863055  0.620482  1
  Ho  Ho18  1  0.312219  0.311803  0.999478  1
  Ho  Ho19  1  0.186225  0.809585  0.249658  1
  Si  Si20  1  0.330380  0.693966  0.952413  1
  Si  Si21  1  0.661943  0.304288  0.453472  1
  Si  Si22  1  0.698353  0.333539  0.050082  1
  Si  Si23  1  0.304066  0.667773  0.548709  1
  Si  Si24  1  0.807260  0.830154  0.203036  1
  Si  Si25  1  0.168941  0.191043  0.295383  1
  Si  Si26  1  0.842572  0.805257  0.797769  1
  Si  Si27  1  0.286945  0.923983  0.061302  1
  Si  Si28  1  0.572522  0.786407  0.307340  1
  Si  Si29  1  0.448067  0.211882  0.829227  1
  Si  Si30  1  0.790620  0.576538  0.689154  1
  Si  Si31  1  0.212357  0.425086  0.188107  1
  Si  Si32  1  0.704330  0.075514  0.560938  1
  Si  Si33  1  0.932115  0.291168  0.941244  1
  Si  Si34  1  0.079550  0.712719  0.436616  1
  Br  Br35  1  0.162551  0.181177  0.687707  1
