# generated using pymatgen
data_Li2Pu3(PO5)4
_symmetry_space_group_name_H-M   'P 1'
_cell_length_a   5.26338379
_cell_length_b   6.66812653
_cell_length_c   12.48303400
_cell_angle_alpha   95.08897164
_cell_angle_beta   99.50459264
_cell_angle_gamma   110.57406252
_symmetry_Int_Tables_number   1
_chemical_formula_structural   Li2Pu3(PO5)4
_chemical_formula_sum   'Li2 Pu3 P4 O20'
_cell_volume   399.40122098
_cell_formula_units_Z   1
loop_
 _symmetry_equiv_pos_site_id
 _symmetry_equiv_pos_as_xyz
  1  'x, y, z'
loop_
 _atom_site_type_symbol
 _atom_site_label
 _atom_site_symmetry_multiplicity
 _atom_site_fract_x
 _atom_site_fract_y
 _atom_site_fract_z
 _atom_site_occupancy
  Li  Li0  1  0.382361  0.922019  0.184092  1
  Li  Li1  1  0.617665  0.078001  0.815935  1
  Pu  Pu2  1  0.000027  0.499994  0.000018  1
  Pu  Pu3  1  0.120036  0.154447  0.369079  1
  Pu  Pu4  1  0.879981  0.845524  0.630895  1
  P  P5  1  0.517737  0.424303  0.184397  1
  P  P6  1  0.013096  0.669781  0.357706  1
  P  P7  1  0.986937  0.330231  0.642302  1
  P  P8  1  0.482318  0.575717  0.815631  1
  O  O9  1  0.042238  0.774730  0.043021  1
  O  O10  1  0.717250  0.376723  0.119292  1
  O  O11  1  0.387544  0.576988  0.132911  1
  O  O12  1  0.304440  0.215334  0.205956  1
  O  O13  1  0.154058  0.825296  0.284048  1
  O  O14  1  0.772343  0.053945  0.289609  1
  O  O15  1  0.687339  0.558504  0.303857  1
  O  O16  1  0.125855  0.493048  0.375534  1
  O  O17  1  0.462436  0.245913  0.446356  1
  O  O18  1  0.023355  0.816516  0.461786  1
  O  O19  1  0.976607  0.183416  0.538225  1
  O  O20  1  0.537469  0.754052  0.553620  1
  O  O21  1  0.874143  0.506966  0.624469  1
  O  O22  1  0.312694  0.441530  0.696154  1
  O  O23  1  0.227544  0.946005  0.710357  1
  O  O24  1  0.845909  0.174715  0.715952  1
  O  O25  1  0.695564  0.784677  0.794019  1
  O  O26  1  0.612520  0.422990  0.867089  1
  O  O27  1  0.282734  0.623323  0.880700  1
  O  O28  1  0.957802  0.225308  0.956991  1
