# generated using pymatgen
data_Sc11Ti(Si3Os)4
_symmetry_space_group_name_H-M   'P 1'
_cell_length_a   4.00470000
_cell_length_b   10.28065665
_cell_length_c   11.60859142
_cell_angle_alpha   90.12031688
_cell_angle_beta   90.00000000
_cell_angle_gamma   90.00000000
_symmetry_Int_Tables_number   1
_chemical_formula_structural   Sc11Ti(Si3Os)4
_chemical_formula_sum   'Sc11 Ti1 Si12 Os4'
_cell_volume   477.93563298
_cell_formula_units_Z   1
loop_
 _symmetry_equiv_pos_site_id
 _symmetry_equiv_pos_as_xyz
  1  'x, y, z'
loop_
 _atom_site_type_symbol
 _atom_site_label
 _atom_site_symmetry_multiplicity
 _atom_site_fract_x
 _atom_site_fract_y
 _atom_site_fract_z
 _atom_site_occupancy
  Sc  Sc0  1  0.250000  0.623557  0.518481  1
  Sc  Sc1  1  0.750000  0.122712  0.981992  1
  Sc  Sc2  1  0.750000  0.377119  0.481206  1
  Sc  Sc3  1  0.250000  0.921770  0.606236  1
  Sc  Sc4  1  0.250000  0.581708  0.103939  1
  Sc  Sc5  1  0.750000  0.078001  0.393202  1
  Sc  Sc6  1  0.750000  0.421703  0.895433  1
  Sc  Sc7  1  0.250000  0.660108  0.799587  1
  Sc  Sc8  1  0.250000  0.840979  0.296997  1
  Sc  Sc9  1  0.750000  0.340947  0.201612  1
  Sc  Sc10  1  0.750000  0.157186  0.702587  1
  Ti  Ti11  1  0.250000  0.875275  0.018746  1
  Si  Si12  1  0.250000  0.012606  0.828255  1
  Si  Si13  1  0.250000  0.485111  0.321048  1
  Si  Si14  1  0.750000  0.981834  0.173968  1
  Si  Si15  1  0.750000  0.516230  0.678067  1
  Si  Si16  1  0.250000  0.251022  0.842445  1
  Si  Si17  1  0.250000  0.247149  0.340601  1
  Si  Si18  1  0.750000  0.751034  0.156346  1
  Si  Si19  1  0.750000  0.752739  0.658537  1
  Si  Si20  1  0.250000  0.193769  0.545960  1
  Si  Si21  1  0.250000  0.306496  0.046276  1
  Si  Si22  1  0.750000  0.805672  0.453940  1
  Si  Si23  1  0.750000  0.698701  0.955925  1
  Os  Os24  1  0.250000  0.390343  0.676392  1
  Os  Os25  1  0.250000  0.106398  0.173444  1
  Os  Os26  1  0.750000  0.610391  0.321745  1
  Os  Os27  1  0.750000  0.889439  0.827034  1
