# generated using pymatgen
data_Pr12MgNb8Mo11N48
_symmetry_space_group_name_H-M   'P 1'
_cell_length_a   11.39167748
_cell_length_b   11.39167774
_cell_length_c   11.39167674
_cell_angle_alpha   109.51101020
_cell_angle_beta   109.39167125
_cell_angle_gamma   109.51100925
_symmetry_Int_Tables_number   1
_chemical_formula_structural   Pr12MgNb8Mo11N48
_chemical_formula_sum   'Pr12 Mg1 Nb8 Mo11 N48'
_cell_volume   1137.99540431
_cell_formula_units_Z   1
loop_
 _symmetry_equiv_pos_site_id
 _symmetry_equiv_pos_as_xyz
  1  'x, y, z'
loop_
 _atom_site_type_symbol
 _atom_site_label
 _atom_site_symmetry_multiplicity
 _atom_site_fract_x
 _atom_site_fract_y
 _atom_site_fract_z
 _atom_site_occupancy
  Pr  Pr0  1  0.370728  0.750000  0.120729  1
  Pr  Pr1  1  0.248384  0.371662  0.125632  1
  Pr  Pr2  1  0.374440  0.118329  0.242297  1
  Pr  Pr3  1  0.874369  0.622752  0.246030  1
  Pr  Pr4  1  0.753970  0.128339  0.376722  1
  Pr  Pr5  1  0.124183  0.250000  0.374183  1
  Pr  Pr6  1  0.879272  0.750000  0.629272  1
  Pr  Pr7  1  0.243889  0.867858  0.625560  1
  Pr  Pr8  1  0.123969  0.381671  0.756111  1
  Pr  Pr9  1  0.623278  0.877248  0.751616  1
  Pr  Pr10  1  0.625817  0.250000  0.875818  1
  Pr  Pr11  1  0.757703  0.632143  0.876032  1
  Mg  Mg12  1  0.875000  0.250000  0.125000  1
  Nb  Nb13  1  0.004050  0.017427  0.011525  1
  Nb  Nb14  1  0.513378  0.007474  0.995950  1
  Nb  Nb15  1  0.988475  0.492527  0.005902  1
  Nb  Nb16  1  0.498761  0.498323  0.000053  1
  Nb  Nb17  1  0.999947  0.998709  0.498272  1
  Nb  Nb18  1  0.499563  0.501292  0.501240  1
  Nb  Nb19  1  0.501729  0.001677  0.500438  1
  Nb  Nb20  1  0.994098  0.482573  0.486623  1
  Mo  Mo21  1  0.750530  0.875594  0.125282  1
  Mo  Mo22  1  0.625064  0.374752  0.249470  1
  Mo  Mo23  1  0.127547  0.875504  0.252413  1
  Mo  Mo24  1  0.249688  0.624406  0.374936  1
  Mo  Mo25  1  0.625000  0.750000  0.375000  1
  Mo  Mo26  1  0.375000  0.250000  0.625000  1
  Mo  Mo27  1  0.747587  0.375134  0.623090  1
  Mo  Mo28  1  0.874718  0.125248  0.750312  1
  Mo  Mo29  1  0.376910  0.624496  0.752044  1
  Mo  Mo30  1  0.247956  0.124866  0.872453  1
  Mo  Mo31  1  0.125000  0.750000  0.875000  1
  N  N32  1  0.198489  0.111920  0.009341  1
  N  N33  1  0.312313  0.899357  0.021304  1
  N  N34  1  0.875526  0.411359  0.076908  1
  N  N35  1  0.699696  0.684418  0.080464  1
  N  N36  1  0.990659  0.689148  0.102579  1
  N  N37  1  0.613861  0.417277  0.101240  1
  N  N38  1  0.035832  0.201382  0.124474  1
  N  N39  1  0.604506  0.918698  0.117943  1
  N  N40  1  0.199246  0.581302  0.185810  1
  N  N41  1  0.488716  0.602971  0.184966  1
  N  N42  1  0.586756  0.186718  0.198848  1
  N  N43  1  0.116449  0.010721  0.199732  1
  N  N44  1  0.316627  0.916991  0.303044  1
  N  N45  1  0.484722  0.380769  0.300304  1
  N  N46  1  0.923092  0.298618  0.334450  1
  N  N47  1  0.898760  0.012621  0.316038  1
  N  N48  1  0.581995  0.897030  0.385745  1
  N  N49  1  0.303417  0.487379  0.386140  1
  N  N50  1  0.814191  0.513437  0.395494  1
  N  N51  1  0.080664  0.881933  0.399249  1
  N  N52  1  0.099962  0.612093  0.413244  1
  N  N53  1  0.815034  0.803750  0.418005  1
  N  N54  1  0.600751  0.181415  0.482683  1
  N  N55  1  0.384670  0.302112  0.487273  1
  N  N56  1  0.614255  0.696249  0.511283  1
  N  N57  1  0.396047  0.815583  0.515278  1
  N  N58  1  0.185160  0.197887  0.582557  1
  N  N59  1  0.897422  0.388081  0.586570  1
  N  N60  1  0.919536  0.119231  0.603953  1
  N  N61  1  0.189011  0.489279  0.605729  1
  N  N62  1  0.417443  0.102603  0.615331  1
  N  N63  1  0.696955  0.513583  0.613946  1
  N  N64  1  0.087044  0.708991  0.687687  1
  N  N65  1  0.100363  0.986416  0.683373  1
  N  N66  1  0.683962  0.082723  0.696583  1
  N  N67  1  0.517316  0.618066  0.698731  1
  N  N68  1  0.882057  0.986564  0.800754  1
  N  N69  1  0.413430  0.810852  0.801511  1
  N  N70  1  0.512727  0.397398  0.814841  1
  N  N71  1  0.800268  0.416718  0.810989  1
  N  N72  1  0.394271  0.083282  0.883551  1
  N  N73  1  0.978697  0.791010  0.878054  1
  N  N74  1  0.012131  0.313282  0.900038  1
  N  N75  1  0.386054  0.583009  0.899638  1
  N  N76  1  0.301268  0.318585  0.919336  1
  N  N77  1  0.121946  0.600642  0.912956  1
  N  N78  1  0.665550  0.088641  0.964168  1
  N  N79  1  0.801152  0.887908  0.987870  1
