# generated using pymatgen
data_Ce4Sn2IrRh3
_symmetry_space_group_name_H-M   'P 1'
_cell_length_a   7.65537098
_cell_length_b   7.65537098
_cell_length_c   3.75579900
_cell_angle_alpha   90.00000000
_cell_angle_beta   90.00000000
_cell_angle_gamma   90.08237320
_symmetry_Int_Tables_number   1
_chemical_formula_structural   Ce4Sn2IrRh3
_chemical_formula_sum   'Ce4 Sn2 Ir1 Rh3'
_cell_volume   220.10726424
_cell_formula_units_Z   1
loop_
 _symmetry_equiv_pos_site_id
 _symmetry_equiv_pos_as_xyz
  1  'x, y, z'
loop_
 _atom_site_type_symbol
 _atom_site_label
 _atom_site_symmetry_multiplicity
 _atom_site_fract_x
 _atom_site_fract_y
 _atom_site_fract_z
 _atom_site_occupancy
  Ce  Ce0  1  0.329087  0.174078  0.499999  1
  Ce  Ce1  1  0.826485  0.326484  0.499999  1
  Ce  Ce2  1  0.173184  0.673185  0.499999  1
  Ce  Ce3  1  0.674079  0.829088  0.499999  1
  Sn  Sn4  1  0.001192  0.999978  0.000000  1
  Sn  Sn5  1  0.499978  0.501192  0.000000  1
  Ir  Ir6  1  0.631961  0.131960  0.000000  1
  Rh  Rh7  1  0.135319  0.365550  0.000000  1
  Rh  Rh8  1  0.865549  0.635320  0.000000  1
  Rh  Rh9  1  0.363164  0.863163  0.000000  1
