# generated using pymatgen
data_HoTmCdNi2
_symmetry_space_group_name_H-M   'P 1'
_cell_length_a   7.29028131
_cell_length_b   7.29028252
_cell_length_c   3.59705000
_cell_angle_alpha   90.00000000
_cell_angle_beta   90.00000000
_cell_angle_gamma   148.78183905
_symmetry_Int_Tables_number   1
_chemical_formula_structural   HoTmCdNi2
_chemical_formula_sum   'Ho1 Tm1 Cd1 Ni2'
_cell_volume   99.08655797
_cell_formula_units_Z   1
loop_
 _symmetry_equiv_pos_site_id
 _symmetry_equiv_pos_as_xyz
  1  'x, y, z'
loop_
 _atom_site_type_symbol
 _atom_site_label
 _atom_site_symmetry_multiplicity
 _atom_site_fract_x
 _atom_site_fract_y
 _atom_site_fract_z
 _atom_site_occupancy
  Ho  Ho0  1  0.361207  0.638793  0.500000  1
  Tm  Tm1  1  0.639932  0.360068  0.500000  1
  Cd  Cd2  1  0.001143  0.998857  0.000000  1
  Ni  Ni3  1  0.799955  0.200045  0.000000  1
  Ni  Ni4  1  0.197763  0.802237  0.000000  1
