# generated using pymatgen
data_GdHo2TaO7
_symmetry_space_group_name_H-M   'P 1'
_cell_length_a   6.49455300
_cell_length_b   6.49455312
_cell_length_c   7.49472600
_cell_angle_alpha   90.00000000
_cell_angle_beta   90.00000000
_cell_angle_gamma   108.54626350
_symmetry_Int_Tables_number   1
_chemical_formula_structural   GdHo2TaO7
_chemical_formula_sum   'Gd2 Ho4 Ta2 O14'
_cell_volume   299.70458851
_cell_formula_units_Z   2
loop_
 _symmetry_equiv_pos_site_id
 _symmetry_equiv_pos_as_xyz
  1  'x, y, z'
loop_
 _atom_site_type_symbol
 _atom_site_label
 _atom_site_symmetry_multiplicity
 _atom_site_fract_x
 _atom_site_fract_y
 _atom_site_fract_z
 _atom_site_occupancy
  Gd  Gd0  1  0.531886  0.531886  0.500000  1
  Gd  Gd1  1  0.468114  0.468114  0.000000  1
  Ho  Ho2  1  0.000423  0.534894  0.241540  1
  Ho  Ho3  1  0.999577  0.465106  0.741540  1
  Ho  Ho4  1  0.534894  0.000423  0.758460  1
  Ho  Ho5  1  0.465106  0.999577  0.258460  1
  Ta  Ta6  1  0.002040  0.002040  0.500000  1
  Ta  Ta7  1  0.997960  0.997960  0.000000  1
  O  O8  1  0.931600  0.068400  0.750000  1
  O  O9  1  0.068400  0.931600  0.250000  1
  O  O10  1  0.357873  0.642127  0.250000  1
  O  O11  1  0.642127  0.357873  0.750000  1
  O  O12  1  0.368136  0.631864  0.750000  1
  O  O13  1  0.631864  0.368136  0.250000  1
  O  O14  1  0.327565  0.079288  0.975058  1
  O  O15  1  0.672435  0.920712  0.475058  1
  O  O16  1  0.308405  0.050290  0.544943  1
  O  O17  1  0.691595  0.949710  0.044943  1
  O  O18  1  0.050290  0.308405  0.455057  1
  O  O19  1  0.949710  0.691595  0.955057  1
  O  O20  1  0.920712  0.672435  0.524942  1
  O  O21  1  0.079288  0.327565  0.024942  1
