# generated using pymatgen
data_Y4HoTm3(ReB6)4
_symmetry_space_group_name_H-M   'P 1'
_cell_length_a   3.66852700
_cell_length_b   9.15737901
_cell_length_c   11.55085401
_cell_angle_alpha   90.00519577
_cell_angle_beta   90.00000000
_cell_angle_gamma   90.00000000
_symmetry_Int_Tables_number   1
_chemical_formula_structural   Y4HoTm3(ReB6)4
_chemical_formula_sum   'Y4 Ho1 Tm3 Re4 B24'
_cell_volume   388.04045244
_cell_formula_units_Z   1
loop_
 _symmetry_equiv_pos_site_id
 _symmetry_equiv_pos_as_xyz
  1  'x, y, z'
loop_
 _atom_site_type_symbol
 _atom_site_label
 _atom_site_symmetry_multiplicity
 _atom_site_fract_x
 _atom_site_fract_y
 _atom_site_fract_z
 _atom_site_occupancy
  Y  Y0  1  0.000000  0.323206  0.414141  1
  Y  Y1  1  0.000000  0.676786  0.585974  1
  Y  Y2  1  0.000000  0.823060  0.085779  1
  Y  Y3  1  0.000000  0.176901  0.914076  1
  Ho  Ho4  1  0.000000  0.943284  0.370312  1
  Tm  Tm5  1  0.000000  0.056873  0.630123  1
  Tm  Tm6  1  0.000000  0.443239  0.129808  1
  Tm  Tm7  1  0.000000  0.556776  0.870136  1
  Re  Re8  1  0.000000  0.638547  0.320011  1
  Re  Re9  1  0.000000  0.360943  0.679976  1
  Re  Re10  1  0.000000  0.139437  0.179540  1
  Re  Re11  1  0.000000  0.860911  0.820160  1
  B  B12  1  0.500000  0.553455  0.432525  1
  B  B13  1  0.500000  0.446410  0.567525  1
  B  B14  1  0.500000  0.053582  0.067411  1
  B  B15  1  0.500000  0.946438  0.932480  1
  B  B16  1  0.500000  0.749676  0.418206  1
  B  B17  1  0.500000  0.249775  0.581817  1
  B  B18  1  0.500000  0.250302  0.081777  1
  B  B19  1  0.500000  0.749736  0.918181  1
  B  B20  1  0.500000  0.792167  0.265321  1
  B  B21  1  0.500000  0.207388  0.734529  1
  B  B22  1  0.500000  0.292776  0.234491  1
  B  B23  1  0.500000  0.707359  0.765473  1
  B  B24  1  0.500000  0.630134  0.185143  1
  B  B25  1  0.500000  0.369772  0.814779  1
  B  B26  1  0.500000  0.130690  0.314529  1
  B  B27  1  0.500000  0.869746  0.685244  1
  B  B28  1  0.500000  0.982252  0.212237  1
  B  B29  1  0.500000  0.017989  0.787421  1
  B  B30  1  0.500000  0.481935  0.287389  1
  B  B31  1  0.500000  0.518008  0.712583  1
  B  B32  1  0.500000  0.598503  0.027396  1
  B  B33  1  0.500000  0.401499  0.972585  1
  B  B34  1  0.500000  0.099084  0.472970  1
  B  B35  1  0.500000  0.901361  0.527956  1
