# generated using pymatgen
data_Ta6Be15CoCu2Ni5
_symmetry_space_group_name_H-M   'P 1'
_cell_length_a   7.57579140
_cell_length_b   7.57579131
_cell_length_c   7.58471452
_cell_angle_alpha   59.94836499
_cell_angle_beta   59.94836554
_cell_angle_gamma   59.91551035
_symmetry_Int_Tables_number   1
_chemical_formula_structural   Ta6Be15CoCu2Ni5
_chemical_formula_sum   'Ta6 Be15 Co1 Cu2 Ni5'
_cell_volume   307.37123109
_cell_formula_units_Z   1
loop_
 _symmetry_equiv_pos_site_id
 _symmetry_equiv_pos_as_xyz
  1  'x, y, z'
loop_
 _atom_site_type_symbol
 _atom_site_label
 _atom_site_symmetry_multiplicity
 _atom_site_fract_x
 _atom_site_fract_y
 _atom_site_fract_z
 _atom_site_occupancy
  Ta  Ta0  1  0.696211  0.299130  0.299098  1
  Ta  Ta1  1  0.302169  0.706861  0.698655  1
  Ta  Ta2  1  0.299130  0.696211  0.299098  1
  Ta  Ta3  1  0.706861  0.302169  0.698655  1
  Ta  Ta4  1  0.297593  0.297593  0.693765  1
  Ta  Ta5  1  0.700727  0.700727  0.304023  1
  Be  Be6  1  0.324804  0.324804  0.327677  1
  Be  Be7  1  0.673891  0.673891  0.674198  1
  Be  Be8  1  0.328983  0.328983  0.017944  1
  Be  Be9  1  0.327332  0.020135  0.329802  1
  Be  Be10  1  0.671758  0.671758  0.980687  1
  Be  Be11  1  0.671372  0.980188  0.671941  1
  Be  Be12  1  0.020135  0.327332  0.329802  1
  Be  Be13  1  0.980188  0.671372  0.671941  1
  Be  Be14  1  0.499805  0.000436  0.999879  1
  Be  Be15  1  0.000554  0.498813  0.500266  1
  Be  Be16  1  0.000436  0.499805  0.999879  1
  Be  Be17  1  0.498813  0.000554  0.500266  1
  Be  Be18  1  0.000352  0.000352  0.500231  1
  Be  Be19  1  0.500105  0.500105  0.999665  1
  Be  Be20  1  0.999875  0.999875  0.999841  1
  Co  Co21  1  0.121568  0.121568  0.633809  1
  Cu  Cu22  1  0.122836  0.122836  0.121633  1
  Cu  Cu23  1  0.876793  0.876794  0.878298  1
  Ni  Ni24  1  0.122743  0.632232  0.121926  1
  Ni  Ni25  1  0.877610  0.877611  0.368034  1
  Ni  Ni26  1  0.877231  0.367896  0.878531  1
  Ni  Ni27  1  0.632232  0.122743  0.121927  1
  Ni  Ni28  1  0.367896  0.877231  0.878531  1
