# generated using pymatgen
data_Ho5Tm4LuPb6
_symmetry_space_group_name_H-M   'P 1'
_cell_length_a   6.53873100
_cell_length_b   8.99545682
_cell_length_c   8.99970100
_cell_angle_alpha   120.01954989
_cell_angle_beta   90.00093712
_cell_angle_gamma   89.99861227
_symmetry_Int_Tables_number   1
_chemical_formula_structural   Ho5Tm4LuPb6
_chemical_formula_sum   'Ho5 Tm4 Lu1 Pb6'
_cell_volume   458.34217156
_cell_formula_units_Z   1
loop_
 _symmetry_equiv_pos_site_id
 _symmetry_equiv_pos_as_xyz
  1  'x, y, z'
loop_
 _atom_site_type_symbol
 _atom_site_label
 _atom_site_symmetry_multiplicity
 _atom_site_fract_x
 _atom_site_fract_y
 _atom_site_fract_z
 _atom_site_occupancy
  Ho  Ho0  1  0.750074  0.236947  0.999683  1
  Ho  Ho1  1  0.750074  0.763016  0.762788  1
  Ho  Ho2  1  0.750077  0.000077  0.237720  1
  Ho  Ho3  1  0.249950  0.762807  0.999826  1
  Ho  Ho4  1  0.249925  0.237118  0.237066  1
  Tm  Tm5  1  0.249919  0.000029  0.762877  1
  Tm  Tm6  1  0.499894  0.333355  0.666699  1
  Tm  Tm7  1  0.499901  0.666623  0.333310  1
  Tm  Tm8  1  0.000098  0.666650  0.333299  1
  Lu  Lu9  1  0.000089  0.333378  0.666693  1
  Pb  Pb10  1  0.750315  0.604421  0.999579  1
  Pb  Pb11  1  0.750339  0.395250  0.395538  1
  Pb  Pb12  1  0.750352  0.000361  0.604681  1
  Pb  Pb13  1  0.249653  0.394202  0.999003  1
  Pb  Pb14  1  0.249703  0.605393  0.605103  1
  Pb  Pb15  1  0.249640  0.000376  0.396132  1
