# generated using pymatgen
data_Tb3Lu6ThPb8
_symmetry_space_group_name_H-M   'P 1'
_cell_length_a   8.17790200
_cell_length_b   8.23679188
_cell_length_c   15.47425639
_cell_angle_alpha   89.78899892
_cell_angle_beta   90.00000000
_cell_angle_gamma   90.00000000
_symmetry_Int_Tables_number   1
_chemical_formula_structural   Tb3Lu6ThPb8
_chemical_formula_sum   'Tb6 Lu12 Th2 Pb16'
_cell_volume   1042.33384087
_cell_formula_units_Z   2
loop_
 _symmetry_equiv_pos_site_id
 _symmetry_equiv_pos_as_xyz
  1  'x, y, z'
loop_
 _atom_site_type_symbol
 _atom_site_label
 _atom_site_symmetry_multiplicity
 _atom_site_fract_x
 _atom_site_fract_y
 _atom_site_fract_z
 _atom_site_occupancy
  Tb  Tb0  1  0.464766  0.675342  0.399961  1
  Tb  Tb1  1  0.964766  0.824658  0.100039  1
  Tb  Tb2  1  0.463482  0.676360  0.100586  1
  Tb  Tb3  1  0.963482  0.823640  0.399414  1
  Tb  Tb4  1  0.538385  0.324751  0.599962  1
  Tb  Tb5  1  0.038385  0.175249  0.900038  1
  Lu  Lu6  1  0.374039  0.842027  0.877905  1
  Lu  Lu7  1  0.874039  0.657973  0.622095  1
  Lu  Lu8  1  0.627124  0.157231  0.377174  1
  Lu  Lu9  1  0.127124  0.342769  0.122826  1
  Lu  Lu10  1  0.625991  0.157111  0.122921  1
  Lu  Lu11  1  0.125991  0.342889  0.377079  1
  Lu  Lu12  1  0.373472  0.840701  0.621847  1
  Lu  Lu13  1  0.873472  0.659299  0.878153  1
  Lu  Lu14  1  0.205654  0.504719  0.749620  1
  Lu  Lu15  1  0.705654  0.995281  0.750380  1
  Lu  Lu16  1  0.794426  0.496013  0.250164  1
  Lu  Lu17  1  0.294426  0.003987  0.249836  1
  Th  Th18  1  0.532444  0.322751  0.902784  1
  Th  Th19  1  0.032444  0.177249  0.597216  1
  Pb  Pb20  1  0.285298  0.036771  0.042536  1
  Pb  Pb21  1  0.785298  0.463229  0.457464  1
  Pb  Pb22  1  0.712102  0.962041  0.542906  1
  Pb  Pb23  1  0.212102  0.537959  0.957094  1
  Pb  Pb24  1  0.717874  0.964908  0.956241  1
  Pb  Pb25  1  0.217874  0.535092  0.543759  1
  Pb  Pb26  1  0.286398  0.033055  0.455075  1
  Pb  Pb27  1  0.786398  0.466945  0.044925  1
  Pb  Pb28  1  0.567913  0.631579  0.750463  1
  Pb  Pb29  1  0.067913  0.868421  0.749537  1
  Pb  Pb30  1  0.431623  0.369666  0.250309  1
  Pb  Pb31  1  0.931623  0.130334  0.249691  1
  Pb  Pb32  1  0.346333  0.150276  0.747544  1
  Pb  Pb33  1  0.846333  0.349724  0.752456  1
  Pb  Pb34  1  0.652673  0.845486  0.249941  1
  Pb  Pb35  1  0.152673  0.654514  0.250059  1
