# generated using pymatgen
data_PrDyAl6Si4Pd
_symmetry_space_group_name_H-M   'P 1'
_cell_length_a   4.18778752
_cell_length_b   4.18789249
_cell_length_c   17.29218090
_cell_angle_alpha   96.80446968
_cell_angle_beta   83.20103381
_cell_angle_gamma   120.02361472
_symmetry_Int_Tables_number   1
_chemical_formula_structural   PrDyAl6Si4Pd
_chemical_formula_sum   'Pr1 Dy1 Al6 Si4 Pd1'
_cell_volume   260.11092686
_cell_formula_units_Z   1
loop_
 _symmetry_equiv_pos_site_id
 _symmetry_equiv_pos_as_xyz
  1  'x, y, z'
loop_
 _atom_site_type_symbol
 _atom_site_label
 _atom_site_symmetry_multiplicity
 _atom_site_fract_x
 _atom_site_fract_y
 _atom_site_fract_z
 _atom_site_occupancy
  Pr  Pr0  1  0.565925  0.434035  0.302548  1
  Dy  Dy1  1  0.433592  0.566444  0.699113  1
  Al  Al2  1  0.319390  0.680688  0.043551  1
  Al  Al3  1  0.949537  0.050366  0.146378  1
  Al  Al4  1  0.184228  0.815761  0.449863  1
  Al  Al5  1  0.812586  0.187404  0.560096  1
  Al  Al6  1  0.052142  0.947938  0.847756  1
  Al  Al7  1  0.682774  0.317196  0.950332  1
  Si  Si8  1  0.267136  0.732720  0.195419  1
  Si  Si9  1  0.862915  0.137079  0.412281  1
  Si  Si10  1  0.133718  0.866275  0.598294  1
  Si  Si11  1  0.734946  0.265185  0.797586  1
  Pd  Pd12  1  0.001110  0.998911  0.996783  1
