# generated using pymatgen
data_La4Sc6SiSn7
_symmetry_space_group_name_H-M   'P 1'
_cell_length_a   7.77313900
_cell_length_b   8.05042333
_cell_length_c   15.10668800
_cell_angle_alpha   90.00000000
_cell_angle_beta   90.00000000
_cell_angle_gamma   89.29216367
_symmetry_Int_Tables_number   1
_chemical_formula_structural   La4Sc6SiSn7
_chemical_formula_sum   'La8 Sc12 Si2 Sn14'
_cell_volume   945.25997607
_cell_formula_units_Z   2
loop_
 _symmetry_equiv_pos_site_id
 _symmetry_equiv_pos_as_xyz
  1  'x, y, z'
loop_
 _atom_site_type_symbol
 _atom_site_label
 _atom_site_symmetry_multiplicity
 _atom_site_fract_x
 _atom_site_fract_y
 _atom_site_fract_z
 _atom_site_occupancy
  La  La0  1  0.993305  0.165272  0.098099  1
  La  La1  1  0.006695  0.834728  0.901901  1
  La  La2  1  0.504754  0.671361  0.905118  1
  La  La3  1  0.006695  0.834728  0.598099  1
  La  La4  1  0.495246  0.328639  0.094882  1
  La  La5  1  0.993305  0.165272  0.401901  1
  La  La6  1  0.495246  0.328639  0.405118  1
  La  La7  1  0.504754  0.671361  0.594882  1
  Sc  Sc8  1  0.167252  0.484784  0.750000  1
  Sc  Sc9  1  0.832748  0.515216  0.250000  1
  Sc  Sc10  1  0.320363  0.992986  0.250000  1
  Sc  Sc11  1  0.679637  0.007014  0.750000  1
  Sc  Sc12  1  0.322694  0.160593  0.628842  1
  Sc  Sc13  1  0.677306  0.839407  0.371158  1
  Sc  Sc14  1  0.148289  0.674764  0.366843  1
  Sc  Sc15  1  0.677306  0.839407  0.128842  1
  Sc  Sc16  1  0.851711  0.325236  0.633157  1
  Sc  Sc17  1  0.322694  0.160593  0.871158  1
  Sc  Sc18  1  0.851711  0.325236  0.866843  1
  Sc  Sc19  1  0.148289  0.674764  0.133157  1
  Si  Si20  1  0.036213  0.137663  0.750000  1
  Si  Si21  1  0.963787  0.862337  0.250000  1
  Sn  Sn22  1  0.469713  0.637538  0.250000  1
  Sn  Sn23  1  0.530287  0.362462  0.750000  1
  Sn  Sn24  1  0.311948  0.862514  0.750000  1
  Sn  Sn25  1  0.688052  0.137486  0.250000  1
  Sn  Sn26  1  0.188572  0.362964  0.250000  1
  Sn  Sn27  1  0.811428  0.637036  0.750000  1
  Sn  Sn28  1  0.170229  0.456774  0.540774  1
  Sn  Sn29  1  0.829771  0.543226  0.459226  1
  Sn  Sn30  1  0.329396  0.952712  0.455599  1
  Sn  Sn31  1  0.829771  0.543226  0.040774  1
  Sn  Sn32  1  0.670604  0.047288  0.544401  1
  Sn  Sn33  1  0.170229  0.456774  0.959226  1
  Sn  Sn34  1  0.670604  0.047288  0.955599  1
  Sn  Sn35  1  0.329396  0.952712  0.044401  1
