# generated using pymatgen
data_K4Si11GeP12
_symmetry_space_group_name_H-M   'P 1'
_cell_length_a   3.56988400
_cell_length_b   9.96744927
_cell_length_c   19.94631900
_cell_angle_alpha   90.28379419
_cell_angle_beta   90.00000000
_cell_angle_gamma   90.00000000
_symmetry_Int_Tables_number   1
_chemical_formula_structural   K4Si11GeP12
_chemical_formula_sum   'K4 Si11 Ge1 P12'
_cell_volume   709.73393546
_cell_formula_units_Z   1
loop_
 _symmetry_equiv_pos_site_id
 _symmetry_equiv_pos_as_xyz
  1  'x, y, z'
loop_
 _atom_site_type_symbol
 _atom_site_label
 _atom_site_symmetry_multiplicity
 _atom_site_fract_x
 _atom_site_fract_y
 _atom_site_fract_z
 _atom_site_occupancy
  K  K0  1  0.000000  0.303406  0.307750  1
  K  K1  1  0.000000  0.696257  0.691911  1
  K  K2  1  0.000000  0.196359  0.807452  1
  K  K3  1  0.000000  0.803624  0.192483  1
  Si  Si4  1  0.500000  0.599899  0.963602  1
  Si  Si5  1  0.500000  0.096140  0.534709  1
  Si  Si6  1  0.500000  0.903830  0.465326  1
  Si  Si7  1  0.000000  0.113134  0.015725  1
  Si  Si8  1  0.000000  0.886535  0.984280  1
  Si  Si9  1  0.000000  0.386290  0.515856  1
  Si  Si10  1  0.000000  0.613721  0.484153  1
  Si  Si11  1  0.000000  0.179247  0.130063  1
  Si  Si12  1  0.000000  0.821071  0.870110  1
  Si  Si13  1  0.000000  0.320326  0.629647  1
  Si  Si14  1  0.000000  0.679727  0.370366  1
  Ge  Ge15  1  0.500000  0.406591  0.034993  1
  P  P16  1  0.500000  0.112307  0.189626  1
  P  P17  1  0.500000  0.886160  0.810235  1
  P  P18  1  0.500000  0.385934  0.689802  1
  P  P19  1  0.500000  0.614108  0.310236  1
  P  P20  1  0.500000  0.281999  0.465271  1
  P  P21  1  0.500000  0.717965  0.534772  1
  P  P22  1  0.500000  0.211989  0.963626  1
  P  P23  1  0.500000  0.783191  0.034534  1
  P  P24  1  0.000000  0.408381  0.111127  1
  P  P25  1  0.000000  0.591783  0.892293  1
  P  P26  1  0.000000  0.091206  0.606277  1
  P  P27  1  0.000000  0.908820  0.393776  1
