# generated using pymatgen
data_YHo2(SiIr)2
_symmetry_space_group_name_H-M   'P 1'
_cell_length_a   5.56736561
_cell_length_b   5.56736486
_cell_length_c   13.23757674
_cell_angle_alpha   89.88472947
_cell_angle_beta   90.11527237
_cell_angle_gamma   136.93697241
_symmetry_Int_Tables_number   1
_chemical_formula_structural   YHo2(SiIr)2
_chemical_formula_sum   'Y2 Ho4 Si4 Ir4'
_cell_volume   280.15732467
_cell_formula_units_Z   2
loop_
 _symmetry_equiv_pos_site_id
 _symmetry_equiv_pos_as_xyz
  1  'x, y, z'
loop_
 _atom_site_type_symbol
 _atom_site_label
 _atom_site_symmetry_multiplicity
 _atom_site_fract_x
 _atom_site_fract_y
 _atom_site_fract_z
 _atom_site_occupancy
  Y  Y0  1  0.774945  0.225055  0.604324  1
  Y  Y1  1  0.225055  0.774945  0.395676  1
  Ho  Ho2  1  0.517457  0.482543  0.249802  1
  Ho  Ho3  1  0.774200  0.225800  0.895739  1
  Ho  Ho4  1  0.482543  0.517457  0.750198  1
  Ho  Ho5  1  0.225800  0.774200  0.104261  1
  Si  Si6  1  0.061924  0.938076  0.590344  1
  Si  Si7  1  0.061737  0.938263  0.909897  1
  Si  Si8  1  0.938076  0.061924  0.409656  1
  Si  Si9  1  0.938263  0.061737  0.090103  1
  Ir  Ir10  1  0.812138  0.187862  0.248970  1
  Ir  Ir11  1  0.187862  0.812138  0.751030  1
  Ir  Ir12  1  0.500000  0.500000  0.000000  1
  Ir  Ir13  1  0.500000  0.500000  0.500000  1
