# generated using pymatgen
data_YbTh2Ni9
_symmetry_space_group_name_H-M   'P 1'
_cell_length_a   8.68434036
_cell_length_b   8.68434034
_cell_length_c   8.68434096
_cell_angle_alpha   33.19246927
_cell_angle_beta   33.19246934
_cell_angle_gamma   33.19247106
_symmetry_Int_Tables_number   1
_chemical_formula_structural   YbTh2Ni9
_chemical_formula_sum   'Yb1 Th2 Ni9'
_cell_volume   174.73836601
_cell_formula_units_Z   1
loop_
 _symmetry_equiv_pos_site_id
 _symmetry_equiv_pos_as_xyz
  1  'x, y, z'
loop_
 _atom_site_type_symbol
 _atom_site_label
 _atom_site_symmetry_multiplicity
 _atom_site_fract_x
 _atom_site_fract_y
 _atom_site_fract_z
 _atom_site_occupancy
  Yb  Yb0  1  0.138158  0.138158  0.138158  1
  Th  Th1  1  0.858515  0.858515  0.858515  1
  Th  Th2  1  0.003013  0.003013  0.003013  1
  Ni  Ni3  1  0.416522  0.918800  0.416522  1
  Ni  Ni4  1  0.416522  0.416522  0.918800  1
  Ni  Ni5  1  0.918800  0.416522  0.416522  1
  Ni  Ni6  1  0.583143  0.082874  0.583143  1
  Ni  Ni7  1  0.583143  0.583143  0.082874  1
  Ni  Ni8  1  0.082874  0.583143  0.583143  1
  Ni  Ni9  1  0.667015  0.667015  0.667015  1
  Ni  Ni10  1  0.333165  0.333165  0.333165  1
  Ni  Ni11  1  0.499130  0.499130  0.499130  1
