# generated using pymatgen
data_Ho5V2Co17(SiP)6
_symmetry_space_group_name_H-M   'P 1'
_cell_length_a   12.12089267
_cell_length_b   12.10058797
_cell_length_c   3.68860800
_cell_angle_alpha   90.00000000
_cell_angle_beta   90.00000000
_cell_angle_gamma   119.94460006
_symmetry_Int_Tables_number   1
_chemical_formula_structural   Ho5V2Co17(SiP)6
_chemical_formula_sum   'Ho5 V2 Co17 Si6 P6'
_cell_volume   468.78789325
_cell_formula_units_Z   1
loop_
 _symmetry_equiv_pos_site_id
 _symmetry_equiv_pos_as_xyz
  1  'x, y, z'
loop_
 _atom_site_type_symbol
 _atom_site_label
 _atom_site_symmetry_multiplicity
 _atom_site_fract_x
 _atom_site_fract_y
 _atom_site_fract_z
 _atom_site_occupancy
  Ho  Ho0  1  0.666503  0.333542  0.000000  1
  Ho  Ho1  1  0.333497  0.667040  0.000000  1
  Ho  Ho2  1  0.813975  0.815637  0.500000  1
  Ho  Ho3  1  0.186025  0.001662  0.500000  1
  Ho  Ho4  1  0.000000  0.185971  0.500000  1
  V  V5  1  0.440055  0.439924  0.000000  1
  V  V6  1  0.559945  0.999869  0.000000  1
  Co  Co7  1  0.879892  0.356925  0.500000  1
  Co  Co8  1  0.647196  0.523838  0.500000  1
  Co  Co9  1  0.475588  0.121148  0.500000  1
  Co  Co10  1  0.352804  0.876641  0.500000  1
  Co  Co11  1  0.524412  0.645559  0.500000  1
  Co  Co12  1  0.120108  0.477032  0.500000  1
  Co  Co13  1  0.000000  0.552548  0.000000  1
  Co  Co14  1  0.805841  0.180097  0.000000  1
  Co  Co15  1  0.823472  0.627370  0.000000  1
  Co  Co16  1  0.371931  0.194080  0.000000  1
  Co  Co17  1  0.176528  0.803898  0.000000  1
  Co  Co18  1  0.628069  0.822149  0.000000  1
  Co  Co19  1  0.194159  0.374257  0.000000  1
  Co  Co20  1  0.276929  0.278486  0.500000  1
  Co  Co21  1  0.723071  0.001558  0.500000  1
  Co  Co22  1  0.000000  0.721513  0.500000  1
  Co  Co23  1  0.000000  0.998574  0.000000  1
  Si  Si24  1  0.683564  0.164419  0.500000  1
  Si  Si25  1  0.840096  0.521947  0.500000  1
  Si  Si26  1  0.478915  0.315122  0.500000  1
  Si  Si27  1  0.159904  0.681851  0.500000  1
  Si  Si28  1  0.521085  0.836207  0.500000  1
  Si  Si29  1  0.316436  0.480854  0.500000  1
  P  P30  1  0.179862  0.180615  0.000000  1
  P  P31  1  0.820138  0.000752  0.000000  1
  P  P32  1  0.000000  0.818433  0.000000  1
  P  P33  1  0.636385  0.634830  0.000000  1
  P  P34  1  0.363615  0.998445  0.000000  1
  P  P35  1  0.000000  0.367208  0.000000  1
