# generated using pymatgen
data_Y3Lu5(ReB6)4
_symmetry_space_group_name_H-M   'P 1'
_cell_length_a   3.64291600
_cell_length_b   9.10633200
_cell_length_c   11.48809401
_cell_angle_alpha   89.99560915
_cell_angle_beta   90.00000000
_cell_angle_gamma   90.00000000
_symmetry_Int_Tables_number   1
_chemical_formula_structural   Y3Lu5(ReB6)4
_chemical_formula_sum   'Y3 Lu5 Re4 B24'
_cell_volume   381.10146383
_cell_formula_units_Z   1
loop_
 _symmetry_equiv_pos_site_id
 _symmetry_equiv_pos_as_xyz
  1  'x, y, z'
loop_
 _atom_site_type_symbol
 _atom_site_label
 _atom_site_symmetry_multiplicity
 _atom_site_fract_x
 _atom_site_fract_y
 _atom_site_fract_z
 _atom_site_occupancy
  Y  Y0  1  0.000000  0.322663  0.414036  1
  Y  Y1  1  0.000000  0.677140  0.586200  1
  Y  Y2  1  0.000000  0.822834  0.085777  1
  Lu  Lu3  1  0.000000  0.176767  0.914073  1
  Lu  Lu4  1  0.000000  0.943425  0.370126  1
  Lu  Lu5  1  0.000000  0.056811  0.629894  1
  Lu  Lu6  1  0.000000  0.443039  0.129029  1
  Lu  Lu7  1  0.000000  0.556634  0.870736  1
  Re  Re8  1  0.000000  0.639256  0.319812  1
  Re  Re9  1  0.000000  0.360115  0.681061  1
  Re  Re10  1  0.000000  0.139342  0.178996  1
  Re  Re11  1  0.000000  0.861730  0.820377  1
  B  B12  1  0.500000  0.553244  0.432520  1
  B  B13  1  0.500000  0.446271  0.567969  1
  B  B14  1  0.500000  0.053915  0.066254  1
  B  B15  1  0.500000  0.947847  0.932704  1
  B  B16  1  0.500000  0.750791  0.418258  1
  B  B17  1  0.500000  0.249156  0.582293  1
  B  B18  1  0.500000  0.250466  0.080036  1
  B  B19  1  0.500000  0.749788  0.918411  1
  B  B20  1  0.500000  0.793064  0.265345  1
  B  B21  1  0.500000  0.206450  0.735666  1
  B  B22  1  0.500000  0.292902  0.233620  1
  B  B23  1  0.500000  0.707228  0.765930  1
  B  B24  1  0.500000  0.629949  0.184507  1
  B  B25  1  0.500000  0.368935  0.816324  1
  B  B26  1  0.500000  0.130182  0.314768  1
  B  B27  1  0.500000  0.870418  0.685191  1
  B  B28  1  0.500000  0.981719  0.212391  1
  B  B29  1  0.500000  0.019696  0.787864  1
  B  B30  1  0.500000  0.481261  0.286657  1
  B  B31  1  0.500000  0.518183  0.713585  1
  B  B32  1  0.500000  0.598268  0.027257  1
  B  B33  1  0.500000  0.400274  0.972245  1
  B  B34  1  0.500000  0.098131  0.472768  1
  B  B35  1  0.500000  0.902106  0.527321  1
