# generated using pymatgen
data_Dy13Ho3MgNi2Ag3Rh2
_symmetry_space_group_name_H-M   'P 1'
_cell_length_a   9.53310915
_cell_length_b   9.55652557
_cell_length_c   9.55190200
_cell_angle_alpha   60.23610286
_cell_angle_beta   60.23632759
_cell_angle_gamma   60.23615521
_symmetry_Int_Tables_number   1
_chemical_formula_structural   Dy13Ho3MgNi2Ag3Rh2
_chemical_formula_sum   'Dy13 Ho3 Mg1 Ni2 Ag3 Rh2'
_cell_volume   618.62217474
_cell_formula_units_Z   1
loop_
 _symmetry_equiv_pos_site_id
 _symmetry_equiv_pos_as_xyz
  1  'x, y, z'
loop_
 _atom_site_type_symbol
 _atom_site_label
 _atom_site_symmetry_multiplicity
 _atom_site_fract_x
 _atom_site_fract_y
 _atom_site_fract_z
 _atom_site_occupancy
  Dy  Dy0  1  0.435782  0.064558  0.065763  1
  Dy  Dy1  1  0.435210  0.433605  0.063923  1
  Dy  Dy2  1  0.190972  0.189288  0.810663  1
  Dy  Dy3  1  0.813528  0.191098  0.185422  1
  Dy  Dy4  1  0.064898  0.435436  0.064699  1
  Dy  Dy5  1  0.438015  0.063245  0.433069  1
  Dy  Dy6  1  0.058954  0.639921  0.649044  1
  Dy  Dy7  1  0.194211  0.809432  0.810621  1
  Dy  Dy8  1  0.648968  0.651109  0.040758  1
  Dy  Dy9  1  0.193129  0.812032  0.187008  1
  Dy  Dy10  1  0.063442  0.060998  0.436248  1
  Dy  Dy11  1  0.813469  0.190346  0.812634  1
  Dy  Dy12  1  0.653706  0.652329  0.655811  1
  Ho  Ho13  1  0.067075  0.434233  0.432683  1
  Ho  Ho14  1  0.644321  0.045746  0.655809  1
  Ho  Ho15  1  0.815141  0.813508  0.187116  1
  Mg  Mg16  1  0.710805  0.432491  0.430714  1
  Ni  Ni17  1  0.859968  0.426264  0.855644  1
  Ni  Ni18  1  0.426950  0.857775  0.856908  1
  Ag  Ag19  1  0.416143  0.412756  0.754108  1
  Ag  Ag20  1  0.417015  0.415394  0.415375  1
  Ag  Ag21  1  0.416962  0.753617  0.413177  1
  Rh  Rh22  1  0.861076  0.859336  0.427482  1
  Rh  Rh23  1  0.860266  0.855484  0.855318  1
