# generated using pymatgen
data_NdDy15(LuSn4)4
_symmetry_space_group_name_H-M   'P 1'
_cell_length_a   8.02297733
_cell_length_b   8.17097954
_cell_length_c   15.46298800
_cell_angle_alpha   89.98969220
_cell_angle_beta   89.77780717
_cell_angle_gamma   90.10377354
_symmetry_Int_Tables_number   1
_chemical_formula_structural   NdDy15(LuSn4)4
_chemical_formula_sum   'Nd1 Dy15 Lu4 Sn16'
_cell_volume   1013.67590044
_cell_formula_units_Z   1
loop_
 _symmetry_equiv_pos_site_id
 _symmetry_equiv_pos_as_xyz
  1  'x, y, z'
loop_
 _atom_site_type_symbol
 _atom_site_label
 _atom_site_symmetry_multiplicity
 _atom_site_fract_x
 _atom_site_fract_y
 _atom_site_fract_z
 _atom_site_occupancy
  Nd  Nd0  1  0.517029  0.319941  0.404038  1
  Dy  Dy1  1  0.019351  0.178523  0.402921  1
  Dy  Dy2  1  0.366816  0.837575  0.121442  1
  Dy  Dy3  1  0.134786  0.337135  0.623070  1
  Dy  Dy4  1  0.479911  0.679422  0.902764  1
  Dy  Dy5  1  0.867476  0.662403  0.121890  1
  Dy  Dy6  1  0.132867  0.337907  0.877698  1
  Dy  Dy7  1  0.481470  0.680622  0.597243  1
  Dy  Dy8  1  0.634845  0.162212  0.622810  1
  Dy  Dy9  1  0.865531  0.662749  0.377036  1
  Dy  Dy10  1  0.020053  0.179006  0.096324  1
  Dy  Dy11  1  0.979854  0.820607  0.902648  1
  Dy  Dy12  1  0.632952  0.162151  0.877802  1
  Dy  Dy13  1  0.520729  0.320424  0.097570  1
  Dy  Dy14  1  0.366017  0.837756  0.377492  1
  Dy  Dy15  1  0.980857  0.820323  0.597298  1
  Lu  Lu16  1  0.197519  0.503448  0.249240  1
  Lu  Lu17  1  0.697898  0.996810  0.249334  1
  Lu  Lu18  1  0.302369  0.003103  0.750283  1
  Lu  Lu19  1  0.802563  0.497015  0.750367  1
  Sn  Sn20  1  0.797766  0.465494  0.544255  1
  Sn  Sn21  1  0.707294  0.960545  0.458160  1
  Sn  Sn22  1  0.671112  0.850413  0.750001  1
  Sn  Sn23  1  0.200971  0.541009  0.458844  1
  Sn  Sn24  1  0.292696  0.036483  0.956981  1
  Sn  Sn25  1  0.830741  0.350543  0.249335  1
  Sn  Sn26  1  0.792847  0.463683  0.957179  1
  Sn  Sn27  1  0.562935  0.620219  0.249249  1
  Sn  Sn28  1  0.207518  0.535384  0.042804  1
  Sn  Sn29  1  0.437542  0.381773  0.750194  1
  Sn  Sn30  1  0.171323  0.649466  0.749880  1
  Sn  Sn31  1  0.937230  0.117726  0.750265  1
  Sn  Sn32  1  0.293370  0.035943  0.543065  1
  Sn  Sn33  1  0.706968  0.963385  0.042550  1
  Sn  Sn34  1  0.326141  0.147521  0.248169  1
  Sn  Sn35  1  0.062650  0.881279  0.249800  1
