# generated using pymatgen
data_Sr11Ho(GeAu)12
_symmetry_space_group_name_H-M   'P 1'
_cell_length_a   4.64264800
_cell_length_b   7.96650096
_cell_length_c   23.45444035
_cell_angle_alpha   89.96205581
_cell_angle_beta   90.00000000
_cell_angle_gamma   90.00000000
_symmetry_Int_Tables_number   1
_chemical_formula_structural   Sr11Ho(GeAu)12
_chemical_formula_sum   'Sr11 Ho1 Ge12 Au12'
_cell_volume   867.47775981
_cell_formula_units_Z   1
loop_
 _symmetry_equiv_pos_site_id
 _symmetry_equiv_pos_as_xyz
  1  'x, y, z'
loop_
 _atom_site_type_symbol
 _atom_site_label
 _atom_site_symmetry_multiplicity
 _atom_site_fract_x
 _atom_site_fract_y
 _atom_site_fract_z
 _atom_site_occupancy
  Sr  Sr0  1  0.250000  0.793848  0.167645  1
  Sr  Sr1  1  0.250000  0.781633  0.502231  1
  Sr  Sr2  1  0.250000  0.706454  0.332801  1
  Sr  Sr3  1  0.750000  0.220327  0.499137  1
  Sr  Sr4  1  0.750000  0.287964  0.668229  1
  Sr  Sr5  1  0.750000  0.270247  0.998386  1
  Sr  Sr6  1  0.250000  0.785938  0.829867  1
  Sr  Sr7  1  0.250000  0.736406  0.998925  1
  Sr  Sr8  1  0.750000  0.211415  0.168436  1
  Sr  Sr9  1  0.750000  0.296101  0.333504  1
  Sr  Sr10  1  0.250000  0.707979  0.668290  1
  Ho  Ho11  1  0.750000  0.210836  0.833241  1
  Ge  Ge12  1  0.250000  0.410516  0.892633  1
  Ge  Ge13  1  0.750000  0.918297  0.730898  1
  Ge  Ge14  1  0.750000  0.583347  0.225155  1
  Ge  Ge15  1  0.250000  0.091120  0.072496  1
  Ge  Ge16  1  0.750000  0.916496  0.912095  1
  Ge  Ge17  1  0.750000  0.916550  0.607260  1
  Ge  Ge18  1  0.250000  0.408992  0.572394  1
  Ge  Ge19  1  0.250000  0.083686  0.393672  1
  Ge  Ge20  1  0.250000  0.082655  0.275592  1
  Ge  Ge21  1  0.750000  0.591354  0.431558  1
  Ge  Ge22  1  0.250000  0.407037  0.776496  1
  Ge  Ge23  1  0.750000  0.583645  0.105164  1
  Au  Au24  1  0.750000  0.578286  0.902587  1
  Au  Au25  1  0.250000  0.418719  0.428860  1
  Au  Au26  1  0.750000  0.582731  0.572759  1
  Au  Au27  1  0.750000  0.916657  0.404985  1
  Au  Au28  1  0.250000  0.419831  0.092576  1
  Au  Au29  1  0.250000  0.416586  0.238436  1
  Au  Au30  1  0.750000  0.916679  0.262851  1
  Au  Au31  1  0.250000  0.085882  0.745047  1
  Au  Au32  1  0.250000  0.086038  0.919228  1
  Au  Au33  1  0.750000  0.917810  0.076714  1
  Au  Au34  1  0.250000  0.083697  0.595714  1
  Au  Au35  1  0.750000  0.574245  0.764135  1
