# generated using pymatgen
data_TbPr7Hf12Si15Ge
_symmetry_space_group_name_H-M   'P 1'
_cell_length_a   7.39734978
_cell_length_b   7.40986354
_cell_length_c   13.61883641
_cell_angle_alpha   89.94382348
_cell_angle_beta   90.09313365
_cell_angle_gamma   89.92667349
_symmetry_Int_Tables_number   1
_chemical_formula_structural   TbPr7Hf12Si15Ge
_chemical_formula_sum   'Tb1 Pr7 Hf12 Si15 Ge1'
_cell_volume   746.49212285
_cell_formula_units_Z   1
loop_
 _symmetry_equiv_pos_site_id
 _symmetry_equiv_pos_as_xyz
  1  'x, y, z'
loop_
 _atom_site_type_symbol
 _atom_site_label
 _atom_site_symmetry_multiplicity
 _atom_site_fract_x
 _atom_site_fract_y
 _atom_site_fract_z
 _atom_site_occupancy
  Tb  Tb0  1  0.656446  0.001369  0.284876  1
  Pr  Pr1  1  0.993313  0.342532  0.215264  1
  Pr  Pr2  1  0.006473  0.657821  0.715295  1
  Pr  Pr3  1  0.155774  0.495195  0.465393  1
  Pr  Pr4  1  0.507457  0.842388  0.034685  1
  Pr  Pr5  1  0.842223  0.506359  0.965546  1
  Pr  Pr6  1  0.494186  0.156879  0.534970  1
  Pr  Pr7  1  0.342208  0.993869  0.784785  1
  Hf  Hf8  1  0.174961  0.174775  0.000398  1
  Hf  Hf9  1  0.824728  0.825810  0.499714  1
  Hf  Hf10  1  0.325812  0.678392  0.249389  1
  Hf  Hf11  1  0.674836  0.325159  0.750038  1
  Hf  Hf12  1  0.148883  0.992747  0.373342  1
  Hf  Hf13  1  0.848550  0.006050  0.874198  1
  Hf  Hf14  1  0.506124  0.651895  0.623079  1
  Hf  Hf15  1  0.348505  0.493364  0.876635  1
  Hf  Hf16  1  0.495048  0.348209  0.123435  1
  Hf  Hf17  1  0.654112  0.508151  0.376793  1
  Hf  Hf18  1  0.993399  0.151627  0.625629  1
  Hf  Hf19  1  0.005536  0.849267  0.126283  1
  Si  Si20  1  0.633584  0.703417  0.814041  1
  Si  Si21  1  0.203002  0.867092  0.563955  1
  Si  Si22  1  0.133670  0.796781  0.935842  1
  Si  Si23  1  0.795625  0.133913  0.065456  1
  Si  Si24  1  0.863533  0.200440  0.433376  1
  Si  Si25  1  0.296738  0.366495  0.685908  1
  Si  Si26  1  0.702243  0.636719  0.186730  1
  Si  Si27  1  0.294171  0.045375  0.184321  1
  Si  Si28  1  0.709082  0.950038  0.685373  1
  Si  Si29  1  0.452494  0.792924  0.433897  1
  Si  Si30  1  0.209414  0.549542  0.064892  1
  Si  Si31  1  0.549574  0.208748  0.935325  1
  Si  Si32  1  0.790421  0.449982  0.564891  1
  Si  Si33  1  0.049353  0.291094  0.814845  1
  Si  Si34  1  0.948008  0.710588  0.314353  1
  Ge  Ge35  1  0.370515  0.294994  0.317046  1
