# generated using pymatgen
data_Pr3NdGa4Pd3Rh
_symmetry_space_group_name_H-M   'P 1'
_cell_length_a   4.55644800
_cell_length_b   7.16004109
_cell_length_c   7.83982252
_cell_angle_alpha   89.86926451
_cell_angle_beta   90.00000000
_cell_angle_gamma   90.00000000
_symmetry_Int_Tables_number   1
_chemical_formula_structural   Pr3NdGa4Pd3Rh
_chemical_formula_sum   'Pr3 Nd1 Ga4 Pd3 Rh1'
_cell_volume   255.76848659
_cell_formula_units_Z   1
loop_
 _symmetry_equiv_pos_site_id
 _symmetry_equiv_pos_as_xyz
  1  'x, y, z'
loop_
 _atom_site_type_symbol
 _atom_site_label
 _atom_site_symmetry_multiplicity
 _atom_site_fract_x
 _atom_site_fract_y
 _atom_site_fract_z
 _atom_site_occupancy
  Pr  Pr0  1  0.250000  0.032698  0.689107  1
  Pr  Pr1  1  0.250000  0.528390  0.807443  1
  Pr  Pr2  1  0.750000  0.977805  0.305587  1
  Nd  Nd3  1  0.750000  0.470764  0.198362  1
  Ga  Ga4  1  0.250000  0.170548  0.076129  1
  Ga  Ga5  1  0.250000  0.659163  0.426030  1
  Ga  Ga6  1  0.750000  0.833040  0.926811  1
  Ga  Ga7  1  0.750000  0.331794  0.570879  1
  Pd  Pd8  1  0.250000  0.784566  0.101793  1
  Pd  Pd9  1  0.750000  0.715380  0.600543  1
  Pd  Pd10  1  0.750000  0.215510  0.899207  1
  Rh  Rh11  1  0.250000  0.280342  0.398110  1
