# generated using pymatgen
data_PrSmZn2(InCu4)2
_symmetry_space_group_name_H-M   'P 1'
_cell_length_a   5.12656200
_cell_length_b   8.38335849
_cell_length_c   10.69016268
_cell_angle_alpha   89.84629259
_cell_angle_beta   90.00000000
_cell_angle_gamma   90.00000000
_symmetry_Int_Tables_number   1
_chemical_formula_structural   PrSmZn2(InCu4)2
_chemical_formula_sum   'Pr2 Sm2 Zn4 In4 Cu16'
_cell_volume   459.43809605
_cell_formula_units_Z   2
loop_
 _symmetry_equiv_pos_site_id
 _symmetry_equiv_pos_as_xyz
  1  'x, y, z'
loop_
 _atom_site_type_symbol
 _atom_site_label
 _atom_site_symmetry_multiplicity
 _atom_site_fract_x
 _atom_site_fract_y
 _atom_site_fract_z
 _atom_site_occupancy
  Pr  Pr0  1  0.750000  0.744628  0.557614  1
  Pr  Pr1  1  0.250000  0.255372  0.442386  1
  Sm  Sm2  1  0.250000  0.753530  0.057329  1
  Sm  Sm3  1  0.750000  0.246470  0.942671  1
  Zn  Zn4  1  0.250000  0.814513  0.741972  1
  Zn  Zn5  1  0.750000  0.185487  0.258028  1
  Zn  Zn6  1  0.750000  0.686273  0.239139  1
  Zn  Zn7  1  0.250000  0.313727  0.760861  1
  In  In8  1  0.250000  0.638754  0.361797  1
  In  In9  1  0.750000  0.361246  0.638203  1
  In  In10  1  0.750000  0.862712  0.863676  1
  In  In11  1  0.250000  0.137288  0.136324  1
  Cu  Cu12  1  0.502447  0.565622  0.812699  1
  Cu  Cu13  1  0.497553  0.434378  0.187301  1
  Cu  Cu14  1  0.497005  0.933839  0.310700  1
  Cu  Cu15  1  0.002447  0.434378  0.187301  1
  Cu  Cu16  1  0.502995  0.066161  0.689300  1
  Cu  Cu17  1  0.997553  0.565622  0.812699  1
  Cu  Cu18  1  0.997005  0.066161  0.689300  1
  Cu  Cu19  1  0.002995  0.933839  0.310700  1
  Cu  Cu20  1  0.250000  0.556905  0.605848  1
  Cu  Cu21  1  0.750000  0.443095  0.394152  1
  Cu  Cu22  1  0.750000  0.942993  0.103930  1
  Cu  Cu23  1  0.250000  0.057007  0.896070  1
  Cu  Cu24  1  0.250000  0.918375  0.514489  1
  Cu  Cu25  1  0.750000  0.081625  0.485511  1
  Cu  Cu26  1  0.750000  0.582119  0.014173  1
  Cu  Cu27  1  0.250000  0.417881  0.985827  1
