# generated using pymatgen
data_Mg2Co5SiB2
_symmetry_space_group_name_H-M   'P 1'
_cell_length_a   8.71941200
_cell_length_b   8.71941200
_cell_length_c   2.74800800
_cell_angle_alpha   90.00000000
_cell_angle_beta   90.00000000
_cell_angle_gamma   90.00000000
_symmetry_Int_Tables_number   1
_chemical_formula_structural   Mg2Co5SiB2
_chemical_formula_sum   'Mg4 Co10 Si2 B4'
_cell_volume   208.92595240
_cell_formula_units_Z   2
loop_
 _symmetry_equiv_pos_site_id
 _symmetry_equiv_pos_as_xyz
  1  'x, y, z'
loop_
 _atom_site_type_symbol
 _atom_site_label
 _atom_site_symmetry_multiplicity
 _atom_site_fract_x
 _atom_site_fract_y
 _atom_site_fract_z
 _atom_site_occupancy
  Mg  Mg0  1  0.674934  0.825066  0.000000  1
  Mg  Mg1  1  0.825066  0.325066  0.000000  1
  Mg  Mg2  1  0.174934  0.674934  0.000000  1
  Mg  Mg3  1  0.325066  0.174934  0.000000  1
  Co  Co4  1  0.500000  0.000000  0.500000  1
  Co  Co5  1  0.569321  0.287020  0.500000  1
  Co  Co6  1  0.712980  0.569321  0.500000  1
  Co  Co7  1  0.287020  0.430679  0.500000  1
  Co  Co8  1  0.212980  0.930679  0.500000  1
  Co  Co9  1  0.000000  0.500000  0.500000  1
  Co  Co10  1  0.069321  0.212980  0.500000  1
  Co  Co11  1  0.787020  0.069321  0.500000  1
  Co  Co12  1  0.930679  0.787020  0.500000  1
  Co  Co13  1  0.430679  0.712980  0.500000  1
  Si  Si14  1  0.500000  0.500000  0.000000  1
  Si  Si15  1  0.000000  0.000000  0.000000  1
  B  B16  1  0.376627  0.876627  0.000000  1
  B  B17  1  0.123373  0.376627  0.000000  1
  B  B18  1  0.876627  0.623373  0.000000  1
  B  B19  1  0.623373  0.123373  0.000000  1
