# generated using pymatgen
data_Nd2UO6
_symmetry_space_group_name_H-M   'P 1'
_cell_length_a   6.60952277
_cell_length_b   6.60952322
_cell_length_c   6.95114239
_cell_angle_alpha   80.98950621
_cell_angle_beta   80.98950289
_cell_angle_gamma   120.10895862
_symmetry_Int_Tables_number   1
_chemical_formula_structural   Nd2UO6
_chemical_formula_sum   'Nd4 U2 O12'
_cell_volume   249.42907528
_cell_formula_units_Z   2
loop_
 _symmetry_equiv_pos_site_id
 _symmetry_equiv_pos_as_xyz
  1  'x, y, z'
loop_
 _atom_site_type_symbol
 _atom_site_label
 _atom_site_symmetry_multiplicity
 _atom_site_fract_x
 _atom_site_fract_y
 _atom_site_fract_z
 _atom_site_occupancy
  Nd  Nd0  1  0.915445  0.084555  0.750000  1
  Nd  Nd1  1  0.249697  0.750303  0.750000  1
  Nd  Nd2  1  0.084555  0.915445  0.250000  1
  Nd  Nd3  1  0.750303  0.249697  0.250000  1
  U  U4  1  0.581947  0.418053  0.750000  1
  U  U5  1  0.418053  0.581947  0.250000  1
  O  O6  1  0.927726  0.763385  0.623467  1
  O  O7  1  0.624440  0.156254  0.623374  1
  O  O8  1  0.683045  0.541153  0.373342  1
  O  O9  1  0.458847  0.316955  0.126658  1
  O  O10  1  0.316955  0.458847  0.626658  1
  O  O11  1  0.156254  0.624440  0.123374  1
  O  O12  1  0.375560  0.843746  0.376626  1
  O  O13  1  0.236615  0.072274  0.876533  1
  O  O14  1  0.072274  0.236615  0.376533  1
  O  O15  1  0.763385  0.927726  0.123467  1
  O  O16  1  0.843746  0.375560  0.876626  1
  O  O17  1  0.541153  0.683045  0.873342  1
