# generated using pymatgen
data_Ca3AcOs6O19
_symmetry_space_group_name_H-M   'P 1'
_cell_length_a   7.89954254
_cell_length_b   7.92462059
_cell_length_c   7.92462200
_cell_angle_alpha   109.53523456
_cell_angle_beta   109.40712851
_cell_angle_gamma   109.40712512
_symmetry_Int_Tables_number   1
_chemical_formula_structural   Ca3AcOs6O19
_chemical_formula_sum   'Ca3 Ac1 Os6 O19'
_cell_volume   382.19061935
_cell_formula_units_Z   1
loop_
 _symmetry_equiv_pos_site_id
 _symmetry_equiv_pos_as_xyz
  1  'x, y, z'
loop_
 _atom_site_type_symbol
 _atom_site_label
 _atom_site_symmetry_multiplicity
 _atom_site_fract_x
 _atom_site_fract_y
 _atom_site_fract_z
 _atom_site_occupancy
  Ca  Ca0  1  0.002538  0.715226  0.999954  1
  Ca  Ca1  1  0.287313  0.284729  0.284775  1
  Ca  Ca2  1  0.002584  0.000046  0.715272  1
  Ac  Ac3  1  0.688744  0.000000  0.000000  1
  Os  Os4  1  0.499692  0.633135  0.139128  1
  Os  Os5  1  0.866558  0.505992  0.366864  1
  Os  Os6  1  0.360565  0.860873  0.494006  1
  Os  Os7  1  0.637728  0.138450  0.500831  1
  Os  Os8  1  0.136897  0.499169  0.637618  1
  Os  Os9  1  0.499278  0.362381  0.861550  1
  O  O10  1  0.993500  0.000000  0.000000  1
  O  O11  1  0.325632  0.324292  0.997338  1
  O  O12  1  0.674668  0.670466  0.002264  1
  O  O13  1  0.714631  0.353228  0.065535  1
  O  O14  1  0.649095  0.934465  0.287692  1
  O  O15  1  0.348085  0.630678  0.286031  1
  O  O16  1  0.004200  0.331797  0.329533  1
  O  O17  1  0.328293  0.002662  0.326956  1
  O  O18  1  0.062055  0.713970  0.344646  1
  O  O19  1  0.636092  0.285036  0.346123  1
  O  O20  1  0.717408  0.655353  0.369322  1
  O  O21  1  0.292606  0.353876  0.635665  1
  O  O22  1  0.938729  0.281789  0.646123  1
  O  O23  1  0.361404  0.712308  0.646771  1
  O  O24  1  0.001338  0.673044  0.675708  1
  O  O25  1  0.672404  0.997736  0.668204  1
  O  O26  1  0.351056  0.061087  0.714964  1
  O  O27  1  0.656939  0.364334  0.718210  1
  O  O28  1  0.289970  0.653877  0.938911  1
