# generated using pymatgen
data_Ho4SiRh7Au5
_symmetry_space_group_name_H-M   'P 1'
_cell_length_a   7.30575307
_cell_length_b   7.30661763
_cell_length_c   7.30661787
_cell_angle_alpha   108.58830997
_cell_angle_beta   109.91766653
_cell_angle_gamma   109.91768576
_symmetry_Int_Tables_number   1
_chemical_formula_structural   Ho4SiRh7Au5
_chemical_formula_sum   'Ho4 Si1 Rh7 Au5'
_cell_volume   300.16774728
_cell_formula_units_Z   1
loop_
 _symmetry_equiv_pos_site_id
 _symmetry_equiv_pos_as_xyz
  1  'x, y, z'
loop_
 _atom_site_type_symbol
 _atom_site_label
 _atom_site_symmetry_multiplicity
 _atom_site_fract_x
 _atom_site_fract_y
 _atom_site_fract_z
 _atom_site_occupancy
  Ho  Ho0  1  0.987476  0.993743  0.493743  1
  Ho  Ho1  1  0.012524  0.506257  0.006257  1
  Ho  Ho2  1  0.500000  0.993734  0.006266  1
  Ho  Ho3  1  0.500000  0.506271  0.493729  1
  Si  Si4  1  0.000000  0.000001  0.999999  1
  Rh  Rh5  1  0.500000  0.750013  0.249987  1
  Rh  Rh6  1  0.728477  0.727384  0.998946  1
  Rh  Rh7  1  0.271523  0.001054  0.272616  1
  Rh  Rh8  1  0.999991  0.269586  0.269592  1
  Rh  Rh9  1  0.271526  0.270452  0.998898  1
  Rh  Rh10  1  0.728474  0.001102  0.729548  1
  Rh  Rh11  1  0.000009  0.730408  0.730414  1
  Au  Au12  1  0.748441  0.248087  0.499666  1
  Au  Au13  1  0.748443  0.500357  0.248779  1
  Au  Au14  1  0.500000  0.249998  0.750002  1
  Au  Au15  1  0.251559  0.500334  0.751913  1
  Au  Au16  1  0.251557  0.751221  0.499643  1
