# generated using pymatgen
data_Pr9Tm(Sn3Cl)2
_symmetry_space_group_name_H-M   'P 1'
_cell_length_a   9.49137100
_cell_length_b   9.49137177
_cell_length_c   6.78628200
_cell_angle_alpha   90.00000000
_cell_angle_beta   90.00000000
_cell_angle_gamma   120.00000081
_symmetry_Int_Tables_number   1
_chemical_formula_structural   Pr9Tm(Sn3Cl)2
_chemical_formula_sum   'Pr9 Tm1 Sn6 Cl2'
_cell_volume   529.44452885
_cell_formula_units_Z   1
loop_
 _symmetry_equiv_pos_site_id
 _symmetry_equiv_pos_as_xyz
  1  'x, y, z'
loop_
 _atom_site_type_symbol
 _atom_site_label
 _atom_site_symmetry_multiplicity
 _atom_site_fract_x
 _atom_site_fract_y
 _atom_site_fract_z
 _atom_site_occupancy
  Pr  Pr0  1  0.333333  0.666667  0.500000  1
  Pr  Pr1  1  0.666667  0.333333  0.500000  1
  Pr  Pr2  1  0.333333  0.666667  0.000000  1
  Pr  Pr3  1  0.739512  0.000565  0.750904  1
  Pr  Pr4  1  0.739512  0.738947  0.249096  1
  Pr  Pr5  1  0.999435  0.260488  0.249096  1
  Pr  Pr6  1  0.999435  0.738947  0.750904  1
  Pr  Pr7  1  0.261053  0.260488  0.750904  1
  Pr  Pr8  1  0.261053  0.000565  0.249096  1
  Tm  Tm9  1  0.666667  0.333333  0.000000  1
  Sn  Sn10  1  0.612152  0.608962  0.752200  1
  Sn  Sn11  1  0.996810  0.608962  0.247800  1
  Sn  Sn12  1  0.612152  0.003190  0.247800  1
  Sn  Sn13  1  0.391038  0.003190  0.752200  1
  Sn  Sn14  1  0.996810  0.387848  0.752200  1
  Sn  Sn15  1  0.391038  0.387848  0.247800  1
  Cl  Cl16  1  0.000000  0.000000  0.500000  1
  Cl  Cl17  1  0.000000  0.000000  0.000000  1
