# generated using pymatgen
data_Er3Tm5(TcB6)4
_symmetry_space_group_name_H-M   'P 1'
_cell_length_a   3.64914400
_cell_length_b   9.10496100
_cell_length_c   11.47320800
_cell_angle_alpha   89.99974445
_cell_angle_beta   89.99977370
_cell_angle_gamma   90.00043926
_symmetry_Int_Tables_number   1
_chemical_formula_structural   Er3Tm5(TcB6)4
_chemical_formula_sum   'Er3 Tm5 Tc4 B24'
_cell_volume   381.20093619
_cell_formula_units_Z   1
loop_
 _symmetry_equiv_pos_site_id
 _symmetry_equiv_pos_as_xyz
  1  'x, y, z'
loop_
 _atom_site_type_symbol
 _atom_site_label
 _atom_site_symmetry_multiplicity
 _atom_site_fract_x
 _atom_site_fract_y
 _atom_site_fract_z
 _atom_site_occupancy
  Er  Er0  1  0.999993  0.323449  0.414170  1
  Er  Er1  1  0.999995  0.676436  0.585856  1
  Er  Er2  1  0.000003  0.823544  0.085853  1
  Tm  Tm3  1  0.999997  0.176377  0.914124  1
  Tm  Tm4  1  0.999998  0.942998  0.369439  1
  Tm  Tm5  1  0.000001  0.057138  0.630562  1
  Tm  Tm6  1  0.000001  0.442837  0.130385  1
  Tm  Tm7  1  0.999996  0.557019  0.869570  1
  Tc  Tc8  1  0.000010  0.639074  0.320323  1
  Tc  Tc9  1  0.999998  0.360810  0.679820  1
  Tc  Tc10  1  0.000010  0.139105  0.179467  1
  Tc  Tc11  1  0.000003  0.861093  0.820429  1
  B  B12  1  0.499996  0.553321  0.433171  1
  B  B13  1  0.500001  0.446593  0.566920  1
  B  B14  1  0.499993  0.053462  0.066634  1
  B  B15  1  0.499999  0.946896  0.933204  1
  B  B16  1  0.499995  0.749912  0.418992  1
  B  B17  1  0.499995  0.250104  0.581133  1
  B  B18  1  0.500005  0.249826  0.080723  1
  B  B19  1  0.500000  0.750184  0.919001  1
  B  B20  1  0.499995  0.792706  0.265047  1
  B  B21  1  0.499999  0.207205  0.735150  1
  B  B22  1  0.499992  0.292651  0.234770  1
  B  B23  1  0.500006  0.707318  0.765125  1
  B  B24  1  0.499994  0.630674  0.184917  1
  B  B25  1  0.500005  0.369129  0.815236  1
  B  B26  1  0.500004  0.130727  0.314956  1
  B  B27  1  0.500003  0.869391  0.685001  1
  B  B28  1  0.499998  0.981701  0.211826  1
  B  B29  1  0.499997  0.018661  0.788223  1
  B  B30  1  0.499998  0.481575  0.288015  1
  B  B31  1  0.500006  0.518319  0.712026  1
  B  B32  1  0.500000  0.599545  0.027725  1
  B  B33  1  0.500006  0.400163  0.972181  1
  B  B34  1  0.500003  0.099508  0.472283  1
  B  B35  1  0.500005  0.900547  0.527743  1
