# generated using pymatgen
data_TmZr(NbSe2)8
_symmetry_space_group_name_H-M   'P 1'
_cell_length_a   7.01685300
_cell_length_b   7.01685329
_cell_length_c   13.86582500
_cell_angle_alpha   90.00000000
_cell_angle_beta   90.00000000
_cell_angle_gamma   120.00000334
_symmetry_Int_Tables_number   1
_chemical_formula_structural   TmZr(NbSe2)8
_chemical_formula_sum   'Tm1 Zr1 Nb8 Se16'
_cell_volume   591.23632174
_cell_formula_units_Z   1
loop_
 _symmetry_equiv_pos_site_id
 _symmetry_equiv_pos_as_xyz
  1  'x, y, z'
loop_
 _atom_site_type_symbol
 _atom_site_label
 _atom_site_symmetry_multiplicity
 _atom_site_fract_x
 _atom_site_fract_y
 _atom_site_fract_z
 _atom_site_occupancy
  Tm  Tm0  1  0.000000  0.000000  0.500000  1
  Zr  Zr1  1  0.000000  0.000000  0.000000  1
  Nb  Nb2  1  0.000000  0.000000  0.242143  1
  Nb  Nb3  1  0.000000  0.000000  0.757857  1
  Nb  Nb4  1  0.506734  0.013469  0.242679  1
  Nb  Nb5  1  0.986531  0.493266  0.242679  1
  Nb  Nb6  1  0.506734  0.493266  0.242679  1
  Nb  Nb7  1  0.493266  0.986531  0.757321  1
  Nb  Nb8  1  0.013469  0.506734  0.757321  1
  Nb  Nb9  1  0.493266  0.506734  0.757321  1
  Se  Se10  1  0.333333  0.666667  0.881670  1
  Se  Se11  1  0.666667  0.333333  0.118330  1
  Se  Se12  1  0.666667  0.333333  0.367461  1
  Se  Se13  1  0.333333  0.666667  0.632539  1
  Se  Se14  1  0.169143  0.830857  0.362907  1
  Se  Se15  1  0.169143  0.338286  0.362907  1
  Se  Se16  1  0.661714  0.830857  0.362907  1
  Se  Se17  1  0.830857  0.169143  0.637093  1
  Se  Se18  1  0.830857  0.661714  0.637093  1
  Se  Se19  1  0.338286  0.169143  0.637093  1
  Se  Se20  1  0.829740  0.170260  0.877865  1
  Se  Se21  1  0.829740  0.659481  0.877865  1
  Se  Se22  1  0.340519  0.170260  0.877865  1
  Se  Se23  1  0.170260  0.829740  0.122135  1
  Se  Se24  1  0.170260  0.340519  0.122135  1
  Se  Se25  1  0.659481  0.829740  0.122135  1
