# generated using pymatgen
data_Pr6Zn18PIr5
_symmetry_space_group_name_H-M   'P 1'
_cell_length_a   9.18009596
_cell_length_b   9.19036362
_cell_length_c   9.18022800
_cell_angle_alpha   59.96073589
_cell_angle_beta   60.03589063
_cell_angle_gamma   59.96321562
_symmetry_Int_Tables_number   1
_chemical_formula_structural   Pr6Zn18PIr5
_chemical_formula_sum   'Pr6 Zn18 P1 Ir5'
_cell_volume   547.50244920
_cell_formula_units_Z   1
loop_
 _symmetry_equiv_pos_site_id
 _symmetry_equiv_pos_as_xyz
  1  'x, y, z'
loop_
 _atom_site_type_symbol
 _atom_site_label
 _atom_site_symmetry_multiplicity
 _atom_site_fract_x
 _atom_site_fract_y
 _atom_site_fract_z
 _atom_site_occupancy
  Pr  Pr0  1  0.717243  0.274956  0.282763  1
  Pr  Pr1  1  0.718612  0.281399  0.718593  1
  Pr  Pr2  1  0.717250  0.725050  0.282752  1
  Pr  Pr3  1  0.282757  0.725044  0.717237  1
  Pr  Pr4  1  0.281388  0.718601  0.281407  1
  Pr  Pr5  1  0.282750  0.274950  0.717248  1
  Zn  Zn6  1  0.612673  0.129586  0.128163  1
  Zn  Zn7  1  0.129934  0.616343  0.129923  1
  Zn  Zn8  1  0.128171  0.129585  0.612660  1
  Zn  Zn9  1  0.129930  0.123803  0.129932  1
  Zn  Zn10  1  0.387327  0.870414  0.871837  1
  Zn  Zn11  1  0.870066  0.383657  0.870077  1
  Zn  Zn12  1  0.871829  0.870415  0.387340  1
  Zn  Zn13  1  0.870070  0.876197  0.870068  1
  Zn  Zn14  1  0.000000  0.500000  0.000000  1
  Zn  Zn15  1  0.000000  0.000000  0.000000  1
  Zn  Zn16  1  0.011934  0.328409  0.331257  1
  Zn  Zn17  1  0.327130  0.017491  0.327120  1
  Zn  Zn18  1  0.331273  0.328403  0.011924  1
  Zn  Zn19  1  0.327125  0.328261  0.327121  1
  Zn  Zn20  1  0.988066  0.671591  0.668743  1
  Zn  Zn21  1  0.672870  0.982509  0.672880  1
  Zn  Zn22  1  0.668727  0.671597  0.988076  1
  Zn  Zn23  1  0.672875  0.671739  0.672879  1
  P  P24  1  0.500000  0.500000  0.500000  1
  Ir  Ir25  1  0.500000  0.000000  0.000000  1
  Ir  Ir26  1  0.500000  0.000000  0.500000  1
  Ir  Ir27  1  0.500000  0.500000  0.000000  1
  Ir  Ir28  1  0.000000  0.500000  0.500000  1
  Ir  Ir29  1  0.000000  0.000000  0.500000  1
