# generated using pymatgen
data_Pr2Pa(ZnIr)3
_symmetry_space_group_name_H-M   'P 1'
_cell_length_a   7.40421500
_cell_length_b   7.31488037
_cell_length_c   3.94750700
_cell_angle_alpha   90.00000000
_cell_angle_beta   90.00000000
_cell_angle_gamma   120.40481826
_symmetry_Int_Tables_number   1
_chemical_formula_structural   Pr2Pa(ZnIr)3
_chemical_formula_sum   'Pr2 Pa1 Zn3 Ir3'
_cell_volume   184.39694215
_cell_formula_units_Z   1
loop_
 _symmetry_equiv_pos_site_id
 _symmetry_equiv_pos_as_xyz
  1  'x, y, z'
loop_
 _atom_site_type_symbol
 _atom_site_label
 _atom_site_symmetry_multiplicity
 _atom_site_fract_x
 _atom_site_fract_y
 _atom_site_fract_z
 _atom_site_occupancy
  Pr  Pr0  1  0.000459  0.593432  0.000000  1
  Pr  Pr1  1  0.407027  0.406568  0.000000  1
  Pa  Pa2  1  0.595116  0.000000  0.000000  1
  Zn  Zn3  1  0.232130  0.000000  0.500000  1
  Zn  Zn4  1  0.003500  0.249060  0.500000  1
  Zn  Zn5  1  0.754440  0.750940  0.500000  1
  Ir  Ir6  1  0.366997  0.704874  0.500000  1
  Ir  Ir7  1  0.662124  0.295126  0.500000  1
  Ir  Ir8  1  0.978206  0.000000  0.000000  1
