# generated using pymatgen
data_ZrFe4MoP3
_symmetry_space_group_name_H-M   'P 1'
_cell_length_a   3.63914400
_cell_length_b   10.27634100
_cell_length_c   11.76528400
_cell_angle_alpha   90.00000000
_cell_angle_beta   90.00000000
_cell_angle_gamma   90.00000000
_symmetry_Int_Tables_number   1
_chemical_formula_structural   ZrFe4MoP3
_chemical_formula_sum   'Zr4 Fe16 Mo4 P12'
_cell_volume   439.98732217
_cell_formula_units_Z   4
loop_
 _symmetry_equiv_pos_site_id
 _symmetry_equiv_pos_as_xyz
  1  'x, y, z'
loop_
 _atom_site_type_symbol
 _atom_site_label
 _atom_site_symmetry_multiplicity
 _atom_site_fract_x
 _atom_site_fract_y
 _atom_site_fract_z
 _atom_site_occupancy
  Zr  Zr0  1  0.250000  0.580607  0.705700  1
  Zr  Zr1  1  0.250000  0.919393  0.205700  1
  Zr  Zr2  1  0.750000  0.419393  0.294300  1
  Zr  Zr3  1  0.750000  0.080607  0.794300  1
  Fe  Fe4  1  0.250000  0.407093  0.487440  1
  Fe  Fe5  1  0.250000  0.092907  0.987440  1
  Fe  Fe6  1  0.750000  0.592907  0.512560  1
  Fe  Fe7  1  0.750000  0.907093  0.012560  1
  Fe  Fe8  1  0.250000  0.220514  0.176406  1
  Fe  Fe9  1  0.250000  0.279486  0.676406  1
  Fe  Fe10  1  0.750000  0.779486  0.823594  1
  Fe  Fe11  1  0.750000  0.720514  0.323594  1
  Fe  Fe12  1  0.250000  0.880803  0.702958  1
  Fe  Fe13  1  0.250000  0.619197  0.202958  1
  Fe  Fe14  1  0.750000  0.119197  0.297042  1
  Fe  Fe15  1  0.750000  0.380803  0.797042  1
  Fe  Fe16  1  0.250000  0.463265  0.931421  1
  Fe  Fe17  1  0.250000  0.036735  0.431421  1
  Fe  Fe18  1  0.750000  0.536735  0.068579  1
  Fe  Fe19  1  0.750000  0.963265  0.568579  1
  Mo  Mo20  1  0.250000  0.704561  0.989731  1
  Mo  Mo21  1  0.250000  0.795439  0.489731  1
  Mo  Mo22  1  0.750000  0.295439  0.010269  1
  Mo  Mo23  1  0.750000  0.204561  0.510269  1
  P  P24  1  0.250000  0.425031  0.117362  1
  P  P25  1  0.250000  0.074969  0.617362  1
  P  P26  1  0.750000  0.574969  0.882638  1
  P  P27  1  0.750000  0.925031  0.382638  1
  P  P28  1  0.250000  0.263351  0.863381  1
  P  P29  1  0.250000  0.236649  0.363381  1
  P  P30  1  0.750000  0.736649  0.136619  1
  P  P31  1  0.750000  0.763351  0.636619  1
  P  P32  1  0.250000  0.592394  0.390199  1
  P  P33  1  0.250000  0.907606  0.890199  1
  P  P34  1  0.750000  0.407606  0.609801  1
  P  P35  1  0.750000  0.092394  0.109801  1
