# generated using pymatgen
data_Zr3VFe5(CoP2)3
_symmetry_space_group_name_H-M   'P 1'
_cell_length_a   11.99364592
_cell_length_b   11.95265165
_cell_length_c   3.64305800
_cell_angle_alpha   90.00000000
_cell_angle_beta   90.00000000
_cell_angle_gamma   119.88434858
_symmetry_Int_Tables_number   1
_chemical_formula_structural   Zr3VFe5(CoP2)3
_chemical_formula_sum   'Zr6 V2 Fe10 Co6 P12'
_cell_volume   452.81118146
_cell_formula_units_Z   2
loop_
 _symmetry_equiv_pos_site_id
 _symmetry_equiv_pos_as_xyz
  1  'x, y, z'
loop_
 _atom_site_type_symbol
 _atom_site_label
 _atom_site_symmetry_multiplicity
 _atom_site_fract_x
 _atom_site_fract_y
 _atom_site_fract_z
 _atom_site_occupancy
  Zr  Zr0  1  0.999708  0.557689  0.000000  1
  Zr  Zr1  1  0.663952  0.334265  0.000000  1
  Zr  Zr2  1  0.336324  0.668853  0.000000  1
  Zr  Zr3  1  0.810618  0.812172  0.500000  1
  Zr  Zr4  1  0.189679  0.002129  0.500000  1
  Zr  Zr5  1  0.000076  0.177128  0.500000  1
  V  V6  1  0.438831  0.439994  0.000000  1
  V  V7  1  0.560129  0.001315  0.000000  1
  Fe  Fe8  1  0.200031  0.374595  0.000000  1
  Fe  Fe9  1  0.182460  0.809108  0.000000  1
  Fe  Fe10  1  0.817115  0.627286  0.000000  1
  Fe  Fe11  1  0.799089  0.173058  0.000000  1
  Fe  Fe12  1  0.376108  0.197893  0.000000  1
  Fe  Fe13  1  0.125025  0.475366  0.500000  1
  Fe  Fe14  1  0.361262  0.880903  0.500000  1
  Fe  Fe15  1  0.516489  0.645923  0.500000  1
  Fe  Fe16  1  0.637969  0.519012  0.500000  1
  Fe  Fe17  1  0.874676  0.350459  0.500000  1
  Co  Co18  1  0.485498  0.128980  0.500000  1
  Co  Co19  1  0.000104  0.000296  0.000000  1
  Co  Co20  1  0.717949  0.997444  0.500000  1
  Co  Co21  1  0.999900  0.725292  0.500000  1
  Co  Co22  1  0.625996  0.823221  0.000000  1
  Co  Co23  1  0.280738  0.279909  0.500000  1
  P  P24  1  0.636406  0.639076  0.000000  1
  P  P25  1  0.362224  0.002226  0.000000  1
  P  P26  1  0.999200  0.343507  0.000000  1
  P  P27  1  0.480769  0.314862  0.500000  1
  P  P28  1  0.684615  0.166358  0.500000  1
  P  P29  1  0.822079  0.519087  0.500000  1
  P  P30  1  0.517232  0.834130  0.500000  1
  P  P31  1  0.178111  0.696715  0.500000  1
  P  P32  1  0.822174  0.998531  0.000000  1
  P  P33  1  0.000595  0.823791  0.000000  1
  P  P34  1  0.317196  0.482956  0.500000  1
  P  P35  1  0.179674  0.176467  0.000000  1
