# generated using pymatgen
data_YLu9(ZnIn3)2
_symmetry_space_group_name_H-M   'P 1'
_cell_length_a   8.96384500
_cell_length_b   8.97054300
_cell_length_c   6.60159300
_cell_angle_alpha   90.00000000
_cell_angle_beta   90.00000000
_cell_angle_gamma   119.97529986
_symmetry_Int_Tables_number   1
_chemical_formula_structural   YLu9(ZnIn3)2
_chemical_formula_sum   'Y1 Lu9 Zn2 In6'
_cell_volume   459.83337362
_cell_formula_units_Z   1
loop_
 _symmetry_equiv_pos_site_id
 _symmetry_equiv_pos_as_xyz
  1  'x, y, z'
loop_
 _atom_site_type_symbol
 _atom_site_label
 _atom_site_symmetry_multiplicity
 _atom_site_fract_x
 _atom_site_fract_y
 _atom_site_fract_z
 _atom_site_occupancy
  Y  Y0  1  0.262462  0.000000  0.750000  1
  Lu  Lu1  1  0.334675  0.663859  0.500947  1
  Lu  Lu2  1  0.670817  0.336141  0.500947  1
  Lu  Lu3  1  0.670817  0.336141  0.999053  1
  Lu  Lu4  1  0.334675  0.663859  0.999053  1
  Lu  Lu5  1  0.710898  0.000000  0.250000  1
  Lu  Lu6  1  0.003451  0.266383  0.750000  1
  Lu  Lu7  1  0.001937  0.720301  0.250000  1
  Lu  Lu8  1  0.737067  0.733617  0.750000  1
  Lu  Lu9  1  0.281635  0.279699  0.250000  1
  Zn  Zn10  1  0.990004  0.000000  0.471639  1
  Zn  Zn11  1  0.990004  0.000000  0.028361  1
  In  In12  1  0.620297  0.000000  0.750000  1
  In  In13  1  0.376061  0.000000  0.250000  1
  In  In14  1  0.000175  0.612398  0.750000  1
  In  In15  1  0.000491  0.373733  0.250000  1
  In  In16  1  0.387777  0.387602  0.750000  1
  In  In17  1  0.626758  0.626267  0.250000  1
