# generated using pymatgen
data_Zr10Al12Ir7
_symmetry_space_group_name_H-M   'P 1'
_cell_length_a   8.95561293
_cell_length_b   8.95561352
_cell_length_c   8.95561300
_cell_angle_alpha   59.99999822
_cell_angle_beta   59.99999606
_cell_angle_gamma   60.00000379
_symmetry_Int_Tables_number   1
_chemical_formula_structural   Zr10Al12Ir7
_chemical_formula_sum   'Zr10 Al12 Ir7'
_cell_volume   507.89153203
_cell_formula_units_Z   1
loop_
 _symmetry_equiv_pos_site_id
 _symmetry_equiv_pos_as_xyz
  1  'x, y, z'
loop_
 _atom_site_type_symbol
 _atom_site_label
 _atom_site_symmetry_multiplicity
 _atom_site_fract_x
 _atom_site_fract_y
 _atom_site_fract_z
 _atom_site_occupancy
  Zr  Zr0  1  0.686498  0.686498  0.313502  1
  Zr  Zr1  1  0.313502  0.686498  0.313502  1
  Zr  Zr2  1  0.686498  0.313502  0.313502  1
  Zr  Zr3  1  0.313502  0.313502  0.686498  1
  Zr  Zr4  1  0.686498  0.313502  0.686498  1
  Zr  Zr5  1  0.313502  0.686498  0.686498  1
  Zr  Zr6  1  0.879811  0.879811  0.360566  1
  Zr  Zr7  1  0.879811  0.360566  0.879811  1
  Zr  Zr8  1  0.360566  0.879811  0.879811  1
  Zr  Zr9  1  0.879811  0.879811  0.879811  1
  Al  Al10  1  0.122355  0.122355  0.632936  1
  Al  Al11  1  0.122355  0.632936  0.122355  1
  Al  Al12  1  0.632936  0.122355  0.122355  1
  Al  Al13  1  0.122355  0.122355  0.122355  1
  Al  Al14  1  0.659568  0.659568  0.021297  1
  Al  Al15  1  0.659568  0.021297  0.659568  1
  Al  Al16  1  0.021297  0.659568  0.659568  1
  Al  Al17  1  0.659568  0.659568  0.659568  1
  Al  Al18  1  0.336920  0.336920  0.989239  1
  Al  Al19  1  0.336920  0.989239  0.336920  1
  Al  Al20  1  0.989239  0.336920  0.336920  1
  Al  Al21  1  0.336920  0.336920  0.336920  1
  Ir  Ir22  1  0.000000  0.000000  0.000000  1
  Ir  Ir23  1  0.000084  0.000084  0.499916  1
  Ir  Ir24  1  0.499916  0.000084  0.499916  1
  Ir  Ir25  1  0.000084  0.499916  0.499916  1
  Ir  Ir26  1  0.499916  0.499916  0.000084  1
  Ir  Ir27  1  0.000084  0.499916  0.000084  1
  Ir  Ir28  1  0.499916  0.000084  0.000084  1
