# generated using pymatgen
data_Tb8Dy9Lu3Pt16
_symmetry_space_group_name_H-M   'P 1'
_cell_length_a   7.47217100
_cell_length_b   7.57108900
_cell_length_c   14.73355300
_cell_angle_alpha   90.00000000
_cell_angle_beta   90.00000000
_cell_angle_gamma   89.99866808
_symmetry_Int_Tables_number   1
_chemical_formula_structural   Tb8Dy9Lu3Pt16
_chemical_formula_sum   'Tb8 Dy9 Lu3 Pt16'
_cell_volume   833.51350961
_cell_formula_units_Z   1
loop_
 _symmetry_equiv_pos_site_id
 _symmetry_equiv_pos_as_xyz
  1  'x, y, z'
loop_
 _atom_site_type_symbol
 _atom_site_label
 _atom_site_symmetry_multiplicity
 _atom_site_fract_x
 _atom_site_fract_y
 _atom_site_fract_z
 _atom_site_occupancy
  Tb  Tb0  1  0.998692  0.820056  0.406760  1
  Tb  Tb1  1  0.497239  0.678679  0.093350  1
  Tb  Tb2  1  0.502114  0.320467  0.594353  1
  Tb  Tb3  1  0.001681  0.179240  0.905629  1
  Tb  Tb4  1  0.001681  0.179240  0.594371  1
  Tb  Tb5  1  0.502114  0.320467  0.905647  1
  Tb  Tb6  1  0.497239  0.678679  0.406650  1
  Tb  Tb7  1  0.998692  0.820056  0.093240  1
  Dy  Dy8  1  0.681121  0.987892  0.250000  1
  Dy  Dy9  1  0.656500  0.832502  0.622813  1
  Dy  Dy10  1  0.156420  0.667697  0.877193  1
  Dy  Dy11  1  0.843987  0.333125  0.377983  1
  Dy  Dy12  1  0.342977  0.168177  0.122004  1
  Dy  Dy13  1  0.342977  0.168177  0.377996  1
  Dy  Dy14  1  0.843987  0.333125  0.122017  1
  Dy  Dy15  1  0.156420  0.667697  0.622807  1
  Dy  Dy16  1  0.656500  0.832502  0.877187  1
  Lu  Lu17  1  0.181468  0.511772  0.250000  1
  Lu  Lu18  1  0.818667  0.488156  0.750000  1
  Lu  Lu19  1  0.318459  0.011875  0.750000  1
  Pt  Pt20  1  0.819712  0.641495  0.250000  1
  Pt  Pt21  1  0.314751  0.854354  0.250000  1
  Pt  Pt22  1  0.681851  0.144655  0.750000  1
  Pt  Pt23  1  0.182234  0.355714  0.750000  1
  Pt  Pt24  1  0.544533  0.387843  0.250000  1
  Pt  Pt25  1  0.047827  0.115567  0.250000  1
  Pt  Pt26  1  0.954822  0.886779  0.750000  1
  Pt  Pt27  1  0.454894  0.613717  0.750000  1
  Pt  Pt28  1  0.817287  0.532009  0.543413  1
  Pt  Pt29  1  0.317151  0.967964  0.956763  1
  Pt  Pt30  1  0.682983  0.032351  0.458271  1
  Pt  Pt31  1  0.182801  0.467827  0.042157  1
  Pt  Pt32  1  0.182801  0.467827  0.457843  1
  Pt  Pt33  1  0.682983  0.032351  0.041729  1
  Pt  Pt34  1  0.317151  0.967964  0.543237  1
  Pt  Pt35  1  0.817287  0.532009  0.956587  1
