# generated using pymatgen
data_Th4In2GaRu3
_symmetry_space_group_name_H-M   'P 1'
_cell_length_a   7.80880095
_cell_length_b   7.80880095
_cell_length_c   3.84945200
_cell_angle_alpha   90.00000000
_cell_angle_beta   90.00000000
_cell_angle_gamma   89.74753681
_symmetry_Int_Tables_number   1
_chemical_formula_structural   Th4In2GaRu3
_chemical_formula_sum   'Th4 In2 Ga1 Ru3'
_cell_volume   234.72718906
_cell_formula_units_Z   1
loop_
 _symmetry_equiv_pos_site_id
 _symmetry_equiv_pos_as_xyz
  1  'x, y, z'
loop_
 _atom_site_type_symbol
 _atom_site_label
 _atom_site_symmetry_multiplicity
 _atom_site_fract_x
 _atom_site_fract_y
 _atom_site_fract_z
 _atom_site_occupancy
  Th  Th0  1  0.674741  0.174741  0.500000  1
  Th  Th1  1  0.163266  0.303670  0.500000  1
  Th  Th2  1  0.803670  0.663266  0.500000  1
  Th  Th3  1  0.346408  0.846408  0.500000  1
  In  In4  1  0.995815  0.987988  0.000000  1
  In  In5  1  0.487988  0.495815  0.000000  1
  Ga  Ga6  1  0.126869  0.626869  0.000000  1
  Ru  Ru7  1  0.890417  0.390417  0.000000  1
  Ru  Ru8  1  0.369880  0.140947  0.000000  1
  Ru  Ru9  1  0.640947  0.869880  0.000000  1
