# generated using pymatgen
data_Ga4Hg11(AsCl4)4
_symmetry_space_group_name_H-M   'P 1'
_cell_length_a   7.85974759
_cell_length_b   7.85974815
_cell_length_c   23.29603196
_cell_angle_alpha   80.79472777
_cell_angle_beta   80.79472644
_cell_angle_gamma   59.94850162
_symmetry_Int_Tables_number   1
_chemical_formula_structural   Ga4Hg11(AsCl4)4
_chemical_formula_sum   'Ga4 Hg11 As4 Cl16'
_cell_volume   1224.24816121
_cell_formula_units_Z   1
loop_
 _symmetry_equiv_pos_site_id
 _symmetry_equiv_pos_as_xyz
  1  'x, y, z'
loop_
 _atom_site_type_symbol
 _atom_site_label
 _atom_site_symmetry_multiplicity
 _atom_site_fract_x
 _atom_site_fract_y
 _atom_site_fract_z
 _atom_site_occupancy
  Ga  Ga0  1  0.630451  0.630451  0.613972  1
  Ga  Ga1  1  0.369549  0.369549  0.386028  1
  Ga  Ga2  1  0.212164  0.212164  0.883687  1
  Ga  Ga3  1  0.787836  0.787836  0.116313  1
  Hg  Hg4  1  0.520879  0.520879  0.942164  1
  Hg  Hg5  1  0.479121  0.479121  0.057836  1
  Hg  Hg6  1  0.962173  0.962173  0.616639  1
  Hg  Hg7  1  0.037827  0.037827  0.383361  1
  Hg  Hg8  1  0.000000  0.000000  0.500000  1
  Hg  Hg9  1  0.744676  0.744676  0.780773  1
  Hg  Hg10  1  0.255324  0.255324  0.219227  1
  Hg  Hg11  1  0.243838  0.744405  0.779986  1
  Hg  Hg12  1  0.744405  0.243838  0.779986  1
  Hg  Hg13  1  0.756162  0.255595  0.220014  1
  Hg  Hg14  1  0.255595  0.756162  0.220014  1
  As  As15  1  0.562072  0.562072  0.828954  1
  As  As16  1  0.437928  0.437928  0.171046  1
  As  As17  1  0.926002  0.926002  0.731508  1
  As  As18  1  0.073998  0.073998  0.268492  1
  Cl  Cl19  1  0.242507  0.242507  0.786751  1
  Cl  Cl20  1  0.757493  0.757493  0.213249  1
  Cl  Cl21  1  0.048979  0.048979  0.913346  1
  Cl  Cl22  1  0.951021  0.951021  0.086654  1
  Cl  Cl23  1  0.467917  0.920152  0.651224  1
  Cl  Cl24  1  0.920152  0.467917  0.651224  1
  Cl  Cl25  1  0.532083  0.079848  0.348776  1
  Cl  Cl26  1  0.079848  0.532083  0.348776  1
  Cl  Cl27  1  0.468052  0.468052  0.651356  1
  Cl  Cl28  1  0.531948  0.531948  0.348644  1
  Cl  Cl29  1  0.049273  0.511572  0.912837  1
  Cl  Cl30  1  0.511572  0.049273  0.912837  1
  Cl  Cl31  1  0.950727  0.488428  0.087163  1
  Cl  Cl32  1  0.488428  0.950727  0.087163  1
  Cl  Cl33  1  0.659761  0.659761  0.519247  1
  Cl  Cl34  1  0.340239  0.340239  0.480753  1
