# generated using pymatgen
data_Ho5Tm5Si5Pb
_symmetry_space_group_name_H-M   'P 1'
_cell_length_a   8.47782988
_cell_length_b   8.48477046
_cell_length_c   6.32040900
_cell_angle_alpha   90.00000000
_cell_angle_beta   90.00000000
_cell_angle_gamma   120.22362129
_symmetry_Int_Tables_number   1
_chemical_formula_structural   Ho5Tm5Si5Pb
_chemical_formula_sum   'Ho5 Tm5 Si5 Pb1'
_cell_volume   392.84169176
_cell_formula_units_Z   1
loop_
 _symmetry_equiv_pos_site_id
 _symmetry_equiv_pos_as_xyz
  1  'x, y, z'
loop_
 _atom_site_type_symbol
 _atom_site_label
 _atom_site_symmetry_multiplicity
 _atom_site_fract_x
 _atom_site_fract_y
 _atom_site_fract_z
 _atom_site_occupancy
  Ho  Ho0  1  0.767122  0.767249  0.250000  1
  Ho  Ho1  1  0.239993  0.987590  0.250000  1
  Ho  Ho2  1  0.239855  0.240019  0.750000  1
  Ho  Ho3  1  0.756210  0.998573  0.750000  1
  Ho  Ho4  1  0.998438  0.755807  0.750000  1
  Tm  Tm5  1  0.675303  0.331210  0.503735  1
  Tm  Tm6  1  0.331184  0.675066  0.503792  1
  Tm  Tm7  1  0.331184  0.675066  0.996208  1
  Tm  Tm8  1  0.675303  0.331210  0.996265  1
  Tm  Tm9  1  0.987290  0.240067  0.250000  1
  Si  Si10  1  0.603999  0.998751  0.250000  1
  Si  Si11  1  0.998312  0.603004  0.250000  1
  Si  Si12  1  0.605465  0.605497  0.750000  1
  Si  Si13  1  0.394179  0.001650  0.750000  1
  Si  Si14  1  0.001596  0.394264  0.750000  1
  Pb  Pb15  1  0.394566  0.394977  0.250000  1
