# generated using pymatgen
data_SmMnHgPt3
_symmetry_space_group_name_H-M   'P 1'
_cell_length_a   5.29801819
_cell_length_b   5.52617598
_cell_length_c   5.52617600
_cell_angle_alpha   59.99999989
_cell_angle_beta   58.56490372
_cell_angle_gamma   58.56491279
_symmetry_Int_Tables_number   1
_chemical_formula_structural   SmMnHgPt3
_chemical_formula_sum   'Sm1 Mn1 Hg1 Pt3'
_cell_volume   111.86098999
_cell_formula_units_Z   1
loop_
 _symmetry_equiv_pos_site_id
 _symmetry_equiv_pos_as_xyz
  1  'x, y, z'
loop_
 _atom_site_type_symbol
 _atom_site_label
 _atom_site_symmetry_multiplicity
 _atom_site_fract_x
 _atom_site_fract_y
 _atom_site_fract_z
 _atom_site_occupancy
  Sm  Sm0  1  0.739356  0.753548  0.753548  1
  Mn  Mn1  1  0.879808  0.373398  0.373398  1
  Hg  Hg2  1  0.995666  0.001445  0.001445  1
  Pt  Pt3  1  0.378390  0.875196  0.373208  1
  Pt  Pt4  1  0.378390  0.373208  0.373208  1
  Pt  Pt5  1  0.378390  0.373208  0.875196  1
