# generated using pymatgen
data_Tm2Fe3P6Ir6Ru
_symmetry_space_group_name_H-M   'P 1'
_cell_length_a   3.86191700
_cell_length_b   10.57672700
_cell_length_c   12.32802300
_cell_angle_alpha   90.00000000
_cell_angle_beta   90.00000000
_cell_angle_gamma   90.00000000
_symmetry_Int_Tables_number   1
_chemical_formula_structural   Tm2Fe3P6Ir6Ru
_chemical_formula_sum   'Tm4 Fe6 P12 Ir12 Ru2'
_cell_volume   503.55587405
_cell_formula_units_Z   2
loop_
 _symmetry_equiv_pos_site_id
 _symmetry_equiv_pos_as_xyz
  1  'x, y, z'
loop_
 _atom_site_type_symbol
 _atom_site_label
 _atom_site_symmetry_multiplicity
 _atom_site_fract_x
 _atom_site_fract_y
 _atom_site_fract_z
 _atom_site_occupancy
  Tm  Tm0  1  0.250000  0.578871  0.713065  1
  Tm  Tm1  1  0.250000  0.921129  0.213065  1
  Tm  Tm2  1  0.750000  0.416309  0.290199  1
  Tm  Tm3  1  0.750000  0.083691  0.790199  1
  Fe  Fe4  1  0.750000  0.122360  0.302441  1
  Fe  Fe5  1  0.750000  0.377640  0.802441  1
  Fe  Fe6  1  0.250000  0.457818  0.934572  1
  Fe  Fe7  1  0.250000  0.042182  0.434572  1
  Fe  Fe8  1  0.750000  0.541138  0.064654  1
  Fe  Fe9  1  0.750000  0.958862  0.564654  1
  P  P10  1  0.250000  0.430207  0.106761  1
  P  P11  1  0.250000  0.069793  0.606761  1
  P  P12  1  0.750000  0.559390  0.889135  1
  P  P13  1  0.750000  0.940610  0.389135  1
  P  P14  1  0.250000  0.272877  0.863173  1
  P  P15  1  0.250000  0.227123  0.363173  1
  P  P16  1  0.750000  0.732553  0.130106  1
  P  P17  1  0.750000  0.767447  0.630106  1
  P  P18  1  0.250000  0.599645  0.388746  1
  P  P19  1  0.250000  0.900355  0.888746  1
  P  P20  1  0.750000  0.401721  0.623610  1
  P  P21  1  0.750000  0.098279  0.123610  1
  Ir  Ir22  1  0.750000  0.280206  0.010523  1
  Ir  Ir23  1  0.750000  0.219794  0.510523  1
  Ir  Ir24  1  0.250000  0.405516  0.475180  1
  Ir  Ir25  1  0.250000  0.094484  0.975180  1
  Ir  Ir26  1  0.750000  0.589366  0.520612  1
  Ir  Ir27  1  0.750000  0.910634  0.020612  1
  Ir  Ir28  1  0.250000  0.229518  0.175244  1
  Ir  Ir29  1  0.250000  0.270482  0.675244  1
  Ir  Ir30  1  0.750000  0.761996  0.823403  1
  Ir  Ir31  1  0.750000  0.738004  0.323403  1
  Ir  Ir32  1  0.250000  0.883029  0.701677  1
  Ir  Ir33  1  0.250000  0.616971  0.201677  1
  Ru  Ru34  1  0.250000  0.714905  0.986900  1
  Ru  Ru35  1  0.250000  0.785095  0.486900  1
