# generated using pymatgen
data_Ce2Nd2Zn5Cu3Ru2
_symmetry_space_group_name_H-M   'P 1'
_cell_length_a   7.15350345
_cell_length_b   7.15350345
_cell_length_c   5.08478030
_cell_angle_alpha   90.07726259
_cell_angle_beta   89.92273741
_cell_angle_gamma   90.29575201
_symmetry_Int_Tables_number   1
_chemical_formula_structural   Ce2Nd2Zn5Cu3Ru2
_chemical_formula_sum   'Ce2 Nd2 Zn5 Cu3 Ru2'
_cell_volume   260.19754999
_cell_formula_units_Z   1
loop_
 _symmetry_equiv_pos_site_id
 _symmetry_equiv_pos_as_xyz
  1  'x, y, z'
loop_
 _atom_site_type_symbol
 _atom_site_label
 _atom_site_symmetry_multiplicity
 _atom_site_fract_x
 _atom_site_fract_y
 _atom_site_fract_z
 _atom_site_occupancy
  Ce  Ce0  1  0.996220  0.995718  0.017128  1
  Ce  Ce1  1  0.504282  0.503780  0.017128  1
  Nd  Nd2  1  0.995912  0.504088  0.757918  1
  Nd  Nd3  1  0.502385  0.997615  0.234992  1
  Zn  Zn4  1  0.312968  0.187032  0.715966  1
  Zn  Zn5  1  0.180787  0.319213  0.289364  1
  Zn  Zn6  1  0.691411  0.191465  0.706783  1
  Zn  Zn7  1  0.689213  0.810787  0.701710  1
  Zn  Zn8  1  0.308535  0.808589  0.706783  1
  Cu  Cu9  1  0.181227  0.683108  0.279270  1
  Cu  Cu10  1  0.820390  0.679610  0.282708  1
  Cu  Cu11  1  0.816892  0.318773  0.279270  1
  Ru  Ru12  1  0.497580  0.497802  0.505489  1
  Ru  Ru13  1  0.002198  0.002420  0.505489  1
