# generated using pymatgen
data_Nb3GeMo3P2
_symmetry_space_group_name_H-M   'P 1'
_cell_length_a   6.93846100
_cell_length_b   6.93846169
_cell_length_c   3.33806000
_cell_angle_alpha   90.00000000
_cell_angle_beta   90.00000000
_cell_angle_gamma   120.00000147
_symmetry_Int_Tables_number   1
_chemical_formula_structural   Nb3GeMo3P2
_chemical_formula_sum   'Nb3 Ge1 Mo3 P2'
_cell_volume   139.17175707
_cell_formula_units_Z   1
loop_
 _symmetry_equiv_pos_site_id
 _symmetry_equiv_pos_as_xyz
  1  'x, y, z'
loop_
 _atom_site_type_symbol
 _atom_site_label
 _atom_site_symmetry_multiplicity
 _atom_site_fract_x
 _atom_site_fract_y
 _atom_site_fract_z
 _atom_site_occupancy
  Nb  Nb0  1  0.982826  0.590523  0.500000  1
  Nb  Nb1  1  0.607697  0.017174  0.500000  1
  Nb  Nb2  1  0.409477  0.392303  0.500000  1
  Ge  Ge3  1  0.333333  0.666667  0.000000  1
  Mo  Mo4  1  0.254173  0.004735  0.000000  1
  Mo  Mo5  1  0.750562  0.745827  0.000000  1
  Mo  Mo6  1  0.995265  0.249438  0.000000  1
  P  P7  1  0.666667  0.333333  0.000000  1
  P  P8  1  0.000000  0.000000  0.500000  1
