# generated using pymatgen
data_Dy13Lu7(Bi2Ir)4
_symmetry_space_group_name_H-M   'P 1'
_cell_length_a   7.91776437
_cell_length_b   9.00165188
_cell_length_c   12.50868782
_cell_angle_alpha   89.98177053
_cell_angle_beta   90.10973675
_cell_angle_gamma   90.04769317
_symmetry_Int_Tables_number   1
_chemical_formula_structural   Dy13Lu7(Bi2Ir)4
_chemical_formula_sum   'Dy13 Lu7 Bi8 Ir4'
_cell_volume   891.52919994
_cell_formula_units_Z   1
loop_
 _symmetry_equiv_pos_site_id
 _symmetry_equiv_pos_as_xyz
  1  'x, y, z'
loop_
 _atom_site_type_symbol
 _atom_site_label
 _atom_site_symmetry_multiplicity
 _atom_site_fract_x
 _atom_site_fract_y
 _atom_site_fract_z
 _atom_site_occupancy
  Dy  Dy0  1  0.841905  0.750548  0.792953  1
  Dy  Dy1  1  0.157658  0.249792  0.207372  1
  Dy  Dy2  1  0.342879  0.249832  0.706720  1
  Dy  Dy3  1  0.657429  0.750015  0.292928  1
  Dy  Dy4  1  0.376151  0.750004  0.692039  1
  Dy  Dy5  1  0.623849  0.250024  0.307792  1
  Dy  Dy6  1  0.875132  0.249568  0.807373  1
  Dy  Dy7  1  0.123226  0.750697  0.192801  1
  Dy  Dy8  1  0.944220  0.750134  0.501685  1
  Dy  Dy9  1  0.055560  0.249948  0.498244  1
  Dy  Dy10  1  0.446185  0.249064  0.998542  1
  Dy  Dy11  1  0.555858  0.750708  0.001768  1
  Dy  Dy12  1  0.176582  0.541965  0.934025  1
  Lu  Lu13  1  0.671970  0.042244  0.565235  1
  Lu  Lu14  1  0.328018  0.957889  0.434579  1
  Lu  Lu15  1  0.171915  0.957957  0.934682  1
  Lu  Lu16  1  0.327953  0.542091  0.434666  1
  Lu  Lu17  1  0.827862  0.042780  0.065656  1
  Lu  Lu18  1  0.672089  0.457882  0.565169  1
  Lu  Lu19  1  0.827646  0.457620  0.065692  1
  Bi  Bi20  1  0.568273  0.491208  0.827036  1
  Bi  Bi21  1  0.432673  0.508437  0.172290  1
  Bi  Bi22  1  0.066332  0.508336  0.672041  1
  Bi  Bi23  1  0.433041  0.991492  0.172523  1
  Bi  Bi24  1  0.933197  0.491462  0.327541  1
  Bi  Bi25  1  0.566537  0.008509  0.827478  1
  Bi  Bi26  1  0.933068  0.008561  0.327732  1
  Bi  Bi27  1  0.066620  0.991615  0.672529  1
  Ir  Ir28  1  0.569374  0.750038  0.508114  1
  Ir  Ir29  1  0.430538  0.249980  0.491713  1
  Ir  Ir30  1  0.068200  0.248484  0.992092  1
  Ir  Ir31  1  0.928060  0.751116  0.008992  1
