# generated using pymatgen
data_Nd3Sn3Pt2Rh
_symmetry_space_group_name_H-M   'P 1'
_cell_length_a   7.65569700
_cell_length_b   7.65569718
_cell_length_c   4.10089500
_cell_angle_alpha   90.00000000
_cell_angle_beta   90.00000000
_cell_angle_gamma   120.00000356
_symmetry_Int_Tables_number   1
_chemical_formula_structural   Nd3Sn3Pt2Rh
_chemical_formula_sum   'Nd3 Sn3 Pt2 Rh1'
_cell_volume   208.15111837
_cell_formula_units_Z   1
loop_
 _symmetry_equiv_pos_site_id
 _symmetry_equiv_pos_as_xyz
  1  'x, y, z'
loop_
 _atom_site_type_symbol
 _atom_site_label
 _atom_site_symmetry_multiplicity
 _atom_site_fract_x
 _atom_site_fract_y
 _atom_site_fract_z
 _atom_site_occupancy
  Nd  Nd0  1  0.000000  0.588424  0.000000  1
  Nd  Nd1  1  0.411576  0.411576  0.000000  1
  Nd  Nd2  1  0.588424  0.000000  0.000000  1
  Sn  Sn3  1  0.751241  0.751241  0.500000  1
  Sn  Sn4  1  0.000000  0.248759  0.500000  1
  Sn  Sn5  1  0.248759  0.000000  0.500000  1
  Pt  Pt6  1  0.666667  0.333333  0.500000  1
  Pt  Pt7  1  0.333333  0.666667  0.500000  1
  Rh  Rh8  1  0.000000  0.000000  0.000000  1
