# generated using pymatgen
data_Ba3Sr7Au8
_symmetry_space_group_name_H-M   'P 1'
_cell_length_a   8.65046037
_cell_length_b   8.49097960
_cell_length_c   8.64790084
_cell_angle_alpha   70.82247769
_cell_angle_beta   89.97430403
_cell_angle_gamma   90.11955009
_symmetry_Int_Tables_number   1
_chemical_formula_structural   Ba3Sr7Au8
_chemical_formula_sum   'Ba3 Sr7 Au8'
_cell_volume   599.94421138
_cell_formula_units_Z   1
loop_
 _symmetry_equiv_pos_site_id
 _symmetry_equiv_pos_as_xyz
  1  'x, y, z'
loop_
 _atom_site_type_symbol
 _atom_site_label
 _atom_site_symmetry_multiplicity
 _atom_site_fract_x
 _atom_site_fract_y
 _atom_site_fract_z
 _atom_site_occupancy
  Ba  Ba0  1  0.322733  0.066425  0.307545  1
  Ba  Ba1  1  0.179274  0.567639  0.305790  1
  Ba  Ba2  1  0.820928  0.432795  0.693774  1
  Sr  Sr3  1  0.333635  0.251848  0.745038  1
  Sr  Sr4  1  0.998938  0.999909  0.998962  1
  Sr  Sr5  1  0.681386  0.928517  0.697558  1
  Sr  Sr6  1  0.830005  0.244770  0.255182  1
  Sr  Sr7  1  0.168368  0.753965  0.746150  1
  Sr  Sr8  1  0.667366  0.747554  0.255119  1
  Sr  Sr9  1  0.500811  0.502277  0.998312  1
  Au  Au10  1  0.869894  0.628260  0.991149  1
  Au  Au11  1  0.960905  0.865045  0.417355  1
  Au  Au12  1  0.126372  0.375909  0.004737  1
  Au  Au13  1  0.538084  0.363002  0.415946  1
  Au  Au14  1  0.374955  0.875098  0.003066  1
  Au  Au15  1  0.464936  0.640928  0.586717  1
  Au  Au16  1  0.033538  0.132816  0.586581  1
  Au  Au17  1  0.627871  0.123244  0.991021  1
