# generated using pymatgen
data_Ta16GaNi7C4
_symmetry_space_group_name_H-M   'P 1'
_cell_length_a   8.27520439
_cell_length_b   8.26568979
_cell_length_c   8.26569000
_cell_angle_alpha   60.00000715
_cell_angle_beta   60.03803401
_cell_angle_gamma   60.03803645
_symmetry_Int_Tables_number   1
_chemical_formula_structural   Ta16GaNi7C4
_chemical_formula_sum   'Ta16 Ga1 Ni7 C4'
_cell_volume   400.01051527
_cell_formula_units_Z   1
loop_
 _symmetry_equiv_pos_site_id
 _symmetry_equiv_pos_as_xyz
  1  'x, y, z'
loop_
 _atom_site_type_symbol
 _atom_site_label
 _atom_site_symmetry_multiplicity
 _atom_site_fract_x
 _atom_site_fract_y
 _atom_site_fract_z
 _atom_site_occupancy
  Ta  Ta0  1  0.126721  0.624427  0.624427  1
  Ta  Ta1  1  0.618255  0.119079  0.631333  1
  Ta  Ta2  1  0.618255  0.631333  0.119079  1
  Ta  Ta3  1  0.618255  0.631333  0.631333  1
  Ta  Ta4  1  0.814823  0.814303  0.185438  1
  Ta  Ta5  1  0.181297  0.182728  0.817987  1
  Ta  Ta6  1  0.814823  0.185438  0.814303  1
  Ta  Ta7  1  0.181297  0.817987  0.182728  1
  Ta  Ta8  1  0.181297  0.817987  0.817987  1
  Ta  Ta9  1  0.814823  0.185438  0.185438  1
  Ta  Ta10  1  0.431503  0.432356  0.068070  1
  Ta  Ta11  1  0.068438  0.059043  0.436259  1
  Ta  Ta12  1  0.431503  0.068070  0.432356  1
  Ta  Ta13  1  0.068438  0.436259  0.059043  1
  Ta  Ta14  1  0.068438  0.436259  0.436259  1
  Ta  Ta15  1  0.431503  0.068070  0.068070  1
  Ga  Ga16  1  0.763411  0.412197  0.412197  1
  Ni  Ni17  1  0.422329  0.740986  0.418342  1
  Ni  Ni18  1  0.422329  0.418342  0.740986  1
  Ni  Ni19  1  0.422329  0.418342  0.418342  1
  Ni  Ni20  1  0.507474  0.830842  0.830842  1
  Ni  Ni21  1  0.830792  0.507498  0.830855  1
  Ni  Ni22  1  0.830792  0.830855  0.507498  1
  Ni  Ni23  1  0.830792  0.830855  0.830855  1
  C  C24  1  0.626105  0.124632  0.124632  1
  C  C25  1  0.124659  0.623856  0.125742  1
  C  C26  1  0.124659  0.125742  0.623856  1
  C  C27  1  0.124659  0.125742  0.125742  1
