# generated using pymatgen
data_YEr6Co6Sn23
_symmetry_space_group_name_H-M   'P 1'
_cell_length_a   9.68038900
_cell_length_b   9.68038943
_cell_length_c   9.95487900
_cell_angle_alpha   90.00000000
_cell_angle_beta   90.00000000
_cell_angle_gamma   120.00000195
_symmetry_Int_Tables_number   1
_chemical_formula_structural   YEr6Co6Sn23
_chemical_formula_sum   'Y1 Er6 Co6 Sn23'
_cell_volume   807.89002706
_cell_formula_units_Z   1
loop_
 _symmetry_equiv_pos_site_id
 _symmetry_equiv_pos_as_xyz
  1  'x, y, z'
loop_
 _atom_site_type_symbol
 _atom_site_label
 _atom_site_symmetry_multiplicity
 _atom_site_fract_x
 _atom_site_fract_y
 _atom_site_fract_z
 _atom_site_occupancy
  Y  Y0  1  0.000000  0.000000  0.000000  1
  Er  Er1  1  0.479069  0.520931  0.305895  1
  Er  Er2  1  0.520931  0.479069  0.694105  1
  Er  Er3  1  0.479069  0.958139  0.305895  1
  Er  Er4  1  0.520931  0.041861  0.694105  1
  Er  Er5  1  0.041861  0.520931  0.305895  1
  Er  Er6  1  0.958139  0.479069  0.694105  1
  Co  Co7  1  0.832211  0.167789  0.197474  1
  Co  Co8  1  0.167789  0.832211  0.802526  1
  Co  Co9  1  0.832211  0.664422  0.197474  1
  Co  Co10  1  0.167789  0.335578  0.802526  1
  Co  Co11  1  0.335578  0.167789  0.197474  1
  Co  Co12  1  0.664422  0.832211  0.802526  1
  Sn  Sn13  1  0.118435  0.881565  0.274954  1
  Sn  Sn14  1  0.881565  0.118435  0.725046  1
  Sn  Sn15  1  0.118435  0.236871  0.274954  1
  Sn  Sn16  1  0.881565  0.763129  0.725046  1
  Sn  Sn17  1  0.763129  0.881565  0.274954  1
  Sn  Sn18  1  0.236871  0.118435  0.725046  1
  Sn  Sn19  1  0.780884  0.219116  0.452240  1
  Sn  Sn20  1  0.219116  0.780884  0.547760  1
  Sn  Sn21  1  0.780884  0.561767  0.452240  1
  Sn  Sn22  1  0.219116  0.438233  0.547760  1
  Sn  Sn23  1  0.438233  0.219116  0.452240  1
  Sn  Sn24  1  0.561767  0.780884  0.547760  1
  Sn  Sn25  1  0.346078  0.000000  0.000000  1
  Sn  Sn26  1  0.653922  0.000000  0.000000  1
  Sn  Sn27  1  0.000000  0.346078  0.000000  1
  Sn  Sn28  1  0.000000  0.653922  0.000000  1
  Sn  Sn29  1  0.653922  0.653922  0.000000  1
  Sn  Sn30  1  0.346078  0.346078  0.000000  1
  Sn  Sn31  1  0.333333  0.666667  0.118871  1
  Sn  Sn32  1  0.666667  0.333333  0.881129  1
  Sn  Sn33  1  0.333333  0.666667  0.817727  1
  Sn  Sn34  1  0.666667  0.333333  0.182273  1
  Sn  Sn35  1  0.000000  0.000000  0.500000  1
