# generated using pymatgen
data_Be6ZnCo7Si6(SO12)2
_symmetry_space_group_name_H-M   'P 1'
_cell_length_a   8.19780300
_cell_length_b   8.19780300
_cell_length_c   8.19780300
_cell_angle_alpha   90.00000000
_cell_angle_beta   90.00000000
_cell_angle_gamma   90.00000000
_symmetry_Int_Tables_number   1
_chemical_formula_structural   Be6ZnCo7Si6(SO12)2
_chemical_formula_sum   'Be6 Zn1 Co7 Si6 S2 O24'
_cell_volume   550.92493989
_cell_formula_units_Z   1
loop_
 _symmetry_equiv_pos_site_id
 _symmetry_equiv_pos_as_xyz
  1  'x, y, z'
loop_
 _atom_site_type_symbol
 _atom_site_label
 _atom_site_symmetry_multiplicity
 _atom_site_fract_x
 _atom_site_fract_y
 _atom_site_fract_z
 _atom_site_occupancy
  Be  Be0  1  0.500006  0.749996  0.000051  1
  Be  Be1  1  0.499640  0.250120  0.000061  1
  Be  Be2  1  0.000061  0.499640  0.250120  1
  Be  Be3  1  0.000051  0.500006  0.749996  1
  Be  Be4  1  0.250120  0.000061  0.499640  1
  Be  Be5  1  0.749996  0.000051  0.500006  1
  Zn  Zn6  1  0.164826  0.164826  0.164826  1
  Co  Co7  1  0.667032  0.667032  0.667032  1
  Co  Co8  1  0.832865  0.167674  0.832710  1
  Co  Co9  1  0.167674  0.832710  0.832865  1
  Co  Co10  1  0.832710  0.832865  0.167674  1
  Co  Co11  1  0.667031  0.332840  0.332931  1
  Co  Co12  1  0.332840  0.332931  0.667031  1
  Co  Co13  1  0.332931  0.667031  0.332840  1
  Si  Si14  1  0.499730  0.000142  0.249974  1
  Si  Si15  1  0.500100  0.000086  0.750003  1
  Si  Si16  1  0.000142  0.249974  0.499730  1
  Si  Si17  1  0.249974  0.499730  0.000142  1
  Si  Si18  1  0.000086  0.750003  0.500100  1
  Si  Si19  1  0.750003  0.500100  0.000086  1
  S  S20  1  0.000755  0.000755  0.000755  1
  S  S21  1  0.500001  0.500001  0.500001  1
  O  O22  1  0.361471  0.638942  0.092099  1
  O  O23  1  0.138769  0.861780  0.592328  1
  O  O24  1  0.138949  0.138461  0.407446  1
  O  O25  1  0.361647  0.907546  0.362196  1
  O  O26  1  0.361081  0.092088  0.638522  1
  O  O27  1  0.092099  0.361471  0.638942  1
  O  O28  1  0.907546  0.362196  0.361647  1
  O  O29  1  0.638522  0.361081  0.092088  1
  O  O30  1  0.407996  0.861137  0.861623  1
  O  O31  1  0.407446  0.138949  0.138461  1
  O  O32  1  0.138461  0.407446  0.138949  1
  O  O33  1  0.861780  0.592328  0.138769  1
  O  O34  1  0.639069  0.907884  0.638515  1
  O  O35  1  0.861623  0.407996  0.861137  1
  O  O36  1  0.592226  0.861359  0.138294  1
  O  O37  1  0.592328  0.138769  0.861780  1
  O  O38  1  0.907884  0.638515  0.639069  1
  O  O39  1  0.138294  0.592226  0.861359  1
  O  O40  1  0.861359  0.138294  0.592226  1
  O  O41  1  0.861137  0.861623  0.407996  1
  O  O42  1  0.362196  0.361647  0.907546  1
  O  O43  1  0.638515  0.639069  0.907884  1
  O  O44  1  0.092088  0.638522  0.361081  1
  O  O45  1  0.638942  0.092099  0.361471  1
