# generated using pymatgen
data_Th10AlSn3Bi4
_symmetry_space_group_name_H-M   'P 1'
_cell_length_a   9.74173123
_cell_length_b   9.74682154
_cell_length_c   6.58181318
_cell_angle_alpha   89.95337447
_cell_angle_beta   90.09329394
_cell_angle_gamma   119.98272548
_symmetry_Int_Tables_number   1
_chemical_formula_structural   Th10AlSn3Bi4
_chemical_formula_sum   'Th10 Al1 Sn3 Bi4'
_cell_volume   541.31534206
_cell_formula_units_Z   1
loop_
 _symmetry_equiv_pos_site_id
 _symmetry_equiv_pos_as_xyz
  1  'x, y, z'
loop_
 _atom_site_type_symbol
 _atom_site_label
 _atom_site_symmetry_multiplicity
 _atom_site_fract_x
 _atom_site_fract_y
 _atom_site_fract_z
 _atom_site_occupancy
  Th  Th0  1  0.000165  0.725782  0.756991  1
  Th  Th1  1  0.274382  0.274218  0.756991  1
  Th  Th2  1  0.330681  0.664039  0.497360  1
  Th  Th3  1  0.666643  0.335961  0.497360  1
  Th  Th4  1  0.726698  0.722695  0.243229  1
  Th  Th5  1  0.726890  0.000000  0.757064  1
  Th  Th6  1  0.004004  0.277305  0.243229  1
  Th  Th7  1  0.272903  0.000000  0.243307  1
  Th  Th8  1  0.331082  0.664294  0.002503  1
  Th  Th9  1  0.666789  0.335706  0.002503  1
  Al  Al10  1  0.000029  0.000000  0.000362  1
  Sn  Sn11  1  0.381447  0.381333  0.251461  1
  Sn  Sn12  1  0.000113  0.618667  0.251461  1
  Sn  Sn13  1  0.999735  0.000000  0.500111  1
  Bi  Bi14  1  0.617288  0.617195  0.747971  1
  Bi  Bi15  1  0.000093  0.382805  0.747971  1
  Bi  Bi16  1  0.382699  0.000000  0.748296  1
  Bi  Bi17  1  0.618360  0.000000  0.251831  1
