# generated using pymatgen
data_La2MgTe2PdO12
_symmetry_space_group_name_H-M   'P 1'
_cell_length_a   5.28777353
_cell_length_b   5.28686882
_cell_length_c   10.53163100
_cell_angle_alpha   89.96287395
_cell_angle_beta   89.99938923
_cell_angle_gamma   119.94592951
_symmetry_Int_Tables_number   1
_chemical_formula_structural   La2MgTe2PdO12
_chemical_formula_sum   'La2 Mg1 Te2 Pd1 O12'
_cell_volume   255.11376467
_cell_formula_units_Z   1
loop_
 _symmetry_equiv_pos_site_id
 _symmetry_equiv_pos_as_xyz
  1  'x, y, z'
loop_
 _atom_site_type_symbol
 _atom_site_label
 _atom_site_symmetry_multiplicity
 _atom_site_fract_x
 _atom_site_fract_y
 _atom_site_fract_z
 _atom_site_occupancy
  La  La0  1  0.002030  0.999476  0.022903  1
  La  La1  1  0.003699  0.002150  0.476951  1
  Mg  Mg2  1  0.335136  0.667872  0.249945  1
  Te  Te3  1  0.668141  0.334731  0.249978  1
  Te  Te4  1  0.331612  0.665054  0.750010  1
  Pd  Pd5  1  0.665573  0.331898  0.750014  1
  O  O6  1  0.642373  0.622211  0.142789  1
  O  O7  1  0.377172  0.020505  0.144986  1
  O  O8  1  0.980431  0.355965  0.143915  1
  O  O9  1  0.981990  0.627120  0.354677  1
  O  O10  1  0.380049  0.360844  0.356417  1
  O  O11  1  0.644851  0.022935  0.357186  1
  O  O12  1  0.008921  0.373621  0.645302  1
  O  O13  1  0.360669  0.988948  0.646442  1
  O  O14  1  0.625806  0.636419  0.646022  1
  O  O15  1  0.623698  0.987161  0.854607  1
  O  O16  1  0.359840  0.369435  0.853461  1
  O  O17  1  0.008015  0.633658  0.854395  1
