# generated using pymatgen
data_KHoTe3O8
_symmetry_space_group_name_H-M   'P 1'
_cell_length_a   6.03212657
_cell_length_b   7.68682953
_cell_length_c   11.49997487
_cell_angle_alpha   100.99748800
_cell_angle_beta   89.42444407
_cell_angle_gamma   108.50911545
_symmetry_Int_Tables_number   1
_chemical_formula_structural   KHoTe3O8
_chemical_formula_sum   'K2 Ho2 Te6 O16'
_cell_volume   495.63037045
_cell_formula_units_Z   2
loop_
 _symmetry_equiv_pos_site_id
 _symmetry_equiv_pos_as_xyz
  1  'x, y, z'
loop_
 _atom_site_type_symbol
 _atom_site_label
 _atom_site_symmetry_multiplicity
 _atom_site_fract_x
 _atom_site_fract_y
 _atom_site_fract_z
 _atom_site_occupancy
  K  K0  1  0.840518  0.120208  0.171591  1
  K  K1  1  0.159482  0.879792  0.828409  1
  Ho  Ho2  1  0.500000  0.500000  0.000000  1
  Ho  Ho3  1  0.000000  0.500000  0.500000  1
  Te  Te4  1  0.218226  0.996107  0.419113  1
  Te  Te5  1  0.781774  0.003893  0.580887  1
  Te  Te6  1  0.071243  0.686836  0.149468  1
  Te  Te7  1  0.928757  0.313164  0.850532  1
  Te  Te8  1  0.513505  0.520834  0.335220  1
  Te  Te9  1  0.486495  0.479166  0.664780  1
  O  O10  1  0.184146  0.742682  0.418049  1
  O  O11  1  0.815854  0.257318  0.581951  1
  O  O12  1  0.237198  0.940401  0.232393  1
  O  O13  1  0.762802  0.059599  0.767607  1
  O  O14  1  0.892550  0.969228  0.396467  1
  O  O15  1  0.107450  0.030772  0.603533  1
  O  O16  1  0.262846  0.684811  0.018279  1
  O  O17  1  0.737154  0.315189  0.981721  1
  O  O18  1  0.824223  0.742189  0.081551  1
  O  O19  1  0.175777  0.257811  0.918449  1
  O  O20  1  0.392644  0.432020  0.176429  1
  O  O21  1  0.607356  0.567980  0.823571  1
  O  O22  1  0.257562  0.366579  0.407190  1
  O  O23  1  0.742438  0.633421  0.592810  1
  O  O24  1  0.731615  0.390712  0.340045  1
  O  O25  1  0.268385  0.609288  0.659955  1
