# generated using pymatgen
data_Nd3TmIr3RhO14
_symmetry_space_group_name_H-M   'P 1'
_cell_length_a   7.33498669
_cell_length_b   7.36763787
_cell_length_c   7.36763700
_cell_angle_alpha   59.99999941
_cell_angle_beta   59.85263771
_cell_angle_gamma   59.85264438
_symmetry_Int_Tables_number   1
_chemical_formula_structural   Nd3TmIr3RhO14
_chemical_formula_sum   'Nd3 Tm1 Ir3 Rh1 O14'
_cell_volume   280.91175005
_cell_formula_units_Z   1
loop_
 _symmetry_equiv_pos_site_id
 _symmetry_equiv_pos_as_xyz
  1  'x, y, z'
loop_
 _atom_site_type_symbol
 _atom_site_label
 _atom_site_symmetry_multiplicity
 _atom_site_fract_x
 _atom_site_fract_y
 _atom_site_fract_z
 _atom_site_occupancy
  Nd  Nd0  1  0.125000  0.625000  0.125000  1
  Nd  Nd1  1  0.125000  0.125000  0.625000  1
  Nd  Nd2  1  0.125000  0.125000  0.125000  1
  Tm  Tm3  1  0.625000  0.125000  0.125000  1
  Ir  Ir4  1  0.625000  0.125000  0.625000  1
  Ir  Ir5  1  0.625000  0.625000  0.125000  1
  Ir  Ir6  1  0.625000  0.625000  0.625000  1
  Rh  Rh7  1  0.125000  0.625000  0.625000  1
  O  O8  1  0.695403  0.719503  0.292547  1
  O  O9  1  0.293239  0.286351  0.710205  1
  O  O10  1  0.695403  0.292547  0.719503  1
  O  O11  1  0.293239  0.710205  0.286351  1
  O  O12  1  0.293239  0.710205  0.710205  1
  O  O13  1  0.695403  0.292547  0.292547  1
  O  O14  1  0.554597  0.530497  0.957453  1
  O  O15  1  0.956761  0.963649  0.539795  1
  O  O16  1  0.554597  0.957453  0.530497  1
  O  O17  1  0.956761  0.539795  0.963649  1
  O  O18  1  0.956761  0.539795  0.539795  1
  O  O19  1  0.554597  0.957453  0.957453  1
  O  O20  1  0.266603  0.244466  0.244466  1
  O  O21  1  0.983397  0.005534  0.005534  1
