# generated using pymatgen
data_Ho4Er16Ir7Au5
_symmetry_space_group_name_H-M   'P 1'
_cell_length_a   11.07812656
_cell_length_b   11.07771589
_cell_length_c   6.32906702
_cell_angle_alpha   89.89172557
_cell_angle_beta   89.89001098
_cell_angle_gamma   89.58001174
_symmetry_Int_Tables_number   1
_chemical_formula_structural   Ho4Er16Ir7Au5
_chemical_formula_sum   'Ho4 Er16 Ir7 Au5'
_cell_volume   776.68158424
_cell_formula_units_Z   1
loop_
 _symmetry_equiv_pos_site_id
 _symmetry_equiv_pos_as_xyz
  1  'x, y, z'
loop_
 _atom_site_type_symbol
 _atom_site_label
 _atom_site_symmetry_multiplicity
 _atom_site_fract_x
 _atom_site_fract_y
 _atom_site_fract_z
 _atom_site_occupancy
  Ho  Ho0  1  0.300048  0.090817  0.364606  1
  Ho  Ho1  1  0.301767  0.907632  0.862646  1
  Ho  Ho2  1  0.697320  0.080492  0.859993  1
  Ho  Ho3  1  0.697732  0.905994  0.361462  1
  Er  Er4  1  0.580811  0.785527  0.876347  1
  Er  Er5  1  0.575434  0.206294  0.363458  1
  Er  Er6  1  0.418221  0.789289  0.376128  1
  Er  Er7  1  0.411478  0.207711  0.878472  1
  Er  Er8  1  0.214087  0.419252  0.623699  1
  Er  Er9  1  0.210414  0.581738  0.123999  1
  Er  Er10  1  0.794027  0.424599  0.136605  1
  Er  Er11  1  0.792611  0.588497  0.621589  1
  Er  Er12  1  0.909429  0.699470  0.135025  1
  Er  Er13  1  0.919774  0.303001  0.639645  1
  Er  Er14  1  0.092136  0.697822  0.636921  1
  Er  Er15  1  0.093759  0.302759  0.138073  1
  Er  Er16  1  0.998742  0.000204  0.499322  1
  Er  Er17  1  0.999758  0.001232  0.000886  1
  Er  Er18  1  0.495908  0.502147  0.001693  1
  Er  Er19  1  0.497791  0.504116  0.498561  1
  Ir  Ir20  1  0.653038  0.651252  0.250327  1
  Ir  Ir21  1  0.348609  0.347108  0.249610  1
  Ir  Ir22  1  0.345556  0.654269  0.749964  1
  Ir  Ir23  1  0.499505  0.999498  0.112551  1
  Ir  Ir24  1  0.499300  0.000283  0.614344  1
  Ir  Ir25  1  0.999757  0.500719  0.885757  1
  Ir  Ir26  1  0.000565  0.500512  0.387526  1
  Au  Au27  1  0.842038  0.158194  0.250230  1
  Au  Au28  1  0.843883  0.845264  0.750553  1
  Au  Au29  1  0.154509  0.156353  0.749811  1
  Au  Au30  1  0.156132  0.843662  0.250193  1
  Au  Au31  1  0.655859  0.344294  0.750005  1
