# generated using pymatgen
data_CaCe3Mg3AlIr4
_symmetry_space_group_name_H-M   'P 1'
_cell_length_a   7.16342654
_cell_length_b   4.08248600
_cell_length_c   8.55773721
_cell_angle_alpha   90.00000000
_cell_angle_beta   90.79470251
_cell_angle_gamma   90.00000000
_symmetry_Int_Tables_number   1
_chemical_formula_structural   CaCe3Mg3AlIr4
_chemical_formula_sum   'Ca1 Ce3 Mg3 Al1 Ir4'
_cell_volume   250.24343046
_cell_formula_units_Z   1
loop_
 _symmetry_equiv_pos_site_id
 _symmetry_equiv_pos_as_xyz
  1  'x, y, z'
loop_
 _atom_site_type_symbol
 _atom_site_label
 _atom_site_symmetry_multiplicity
 _atom_site_fract_x
 _atom_site_fract_y
 _atom_site_fract_z
 _atom_site_occupancy
  Ca  Ca0  1  0.039397  0.750000  0.821204  1
  Ce  Ce1  1  0.957777  0.250000  0.171154  1
  Ce  Ce2  1  0.468064  0.250000  0.313098  1
  Ce  Ce3  1  0.535751  0.750000  0.688950  1
  Mg  Mg4  1  0.867634  0.250000  0.563747  1
  Mg  Mg5  1  0.356768  0.250000  0.942852  1
  Mg  Mg6  1  0.134395  0.750000  0.441559  1
  Al  Al7  1  0.629950  0.750000  0.054919  1
  Ir  Ir8  1  0.729590  0.250000  0.887138  1
  Ir  Ir9  1  0.272137  0.250000  0.621245  1
  Ir  Ir10  1  0.260770  0.750000  0.140591  1
  Ir  Ir11  1  0.747768  0.750000  0.353541  1
