# generated using pymatgen
data_CaHo2Tm3(Si3Ru)8
_symmetry_space_group_name_H-M   'P 1'
_cell_length_a   10.11583183
_cell_length_b   10.11583197
_cell_length_c   8.12148702
_cell_angle_alpha   89.92007296
_cell_angle_beta   90.07992116
_cell_angle_gamma   132.64990683
_symmetry_Int_Tables_number   1
_chemical_formula_structural   CaHo2Tm3(Si3Ru)8
_chemical_formula_sum   'Ca1 Ho2 Tm3 Si24 Ru8'
_cell_volume   611.25890662
_cell_formula_units_Z   1
loop_
 _symmetry_equiv_pos_site_id
 _symmetry_equiv_pos_as_xyz
  1  'x, y, z'
loop_
 _atom_site_type_symbol
 _atom_site_label
 _atom_site_symmetry_multiplicity
 _atom_site_fract_x
 _atom_site_fract_y
 _atom_site_fract_z
 _atom_site_occupancy
  Ca  Ca0  1  0.501734  0.001734  0.750000  1
  Ho  Ho1  1  0.497017  0.997017  0.250000  1
  Ho  Ho2  1  0.002750  0.502750  0.750000  1
  Tm  Tm3  1  0.500220  0.500387  0.500536  1
  Tm  Tm4  1  0.000387  0.000220  0.999464  1
  Tm  Tm5  1  0.998850  0.498850  0.250000  1
  Si  Si6  1  0.794197  0.204655  0.499873  1
  Si  Si7  1  0.294928  0.705820  0.999159  1
  Si  Si8  1  0.205820  0.794928  0.500841  1
  Si  Si9  1  0.704655  0.294197  0.000127  1
  Si  Si10  1  0.332439  0.333910  0.832800  1
  Si  Si11  1  0.666570  0.669007  0.167164  1
  Si  Si12  1  0.169007  0.166570  0.332836  1
  Si  Si13  1  0.833910  0.832439  0.667200  1
  Si  Si14  1  0.119681  0.885395  0.728251  1
  Si  Si15  1  0.111583  0.877920  0.272342  1
  Si  Si16  1  0.611456  0.378236  0.228487  1
  Si  Si17  1  0.624605  0.390863  0.771595  1
  Si  Si18  1  0.878236  0.111456  0.271513  1
  Si  Si19  1  0.890863  0.124605  0.728405  1
  Si  Si20  1  0.385395  0.619681  0.771749  1
  Si  Si21  1  0.377920  0.611583  0.227658  1
  Si  Si22  1  0.345012  0.111539  0.501829  1
  Si  Si23  1  0.888512  0.655411  0.495294  1
  Si  Si24  1  0.387907  0.154220  0.007163  1
  Si  Si25  1  0.844168  0.611749  0.995323  1
  Si  Si26  1  0.654220  0.887907  0.492837  1
  Si  Si27  1  0.111749  0.344168  0.504677  1
  Si  Si28  1  0.611539  0.845012  0.998171  1
  Si  Si29  1  0.155411  0.388512  0.004706  1
  Ru  Ru30  1  0.671008  0.331918  0.498773  1
  Ru  Ru31  1  0.166744  0.828482  0.002231  1
  Ru  Ru32  1  0.328482  0.666744  0.497769  1
  Ru  Ru33  1  0.831918  0.171008  0.001227  1
  Ru  Ru34  1  0.127323  0.126719  0.627197  1
  Ru  Ru35  1  0.873321  0.873739  0.373086  1
  Ru  Ru36  1  0.373739  0.373321  0.126914  1
  Ru  Ru37  1  0.626719  0.627323  0.872803  1
