# generated using pymatgen
data_CeTaCo2P3Ru2
_symmetry_space_group_name_H-M   'P 1'
_cell_length_a   3.74967100
_cell_length_b   10.88509200
_cell_length_c   12.46559500
_cell_angle_alpha   90.00000000
_cell_angle_beta   90.00000000
_cell_angle_gamma   90.00000000
_symmetry_Int_Tables_number   1
_chemical_formula_structural   CeTaCo2P3Ru2
_chemical_formula_sum   'Ce4 Ta4 Co8 P12 Ru8'
_cell_volume   508.78966481
_cell_formula_units_Z   4
loop_
 _symmetry_equiv_pos_site_id
 _symmetry_equiv_pos_as_xyz
  1  'x, y, z'
loop_
 _atom_site_type_symbol
 _atom_site_label
 _atom_site_symmetry_multiplicity
 _atom_site_fract_x
 _atom_site_fract_y
 _atom_site_fract_z
 _atom_site_occupancy
  Ce  Ce0  1  0.250000  0.582465  0.707062  1
  Ce  Ce1  1  0.250000  0.917535  0.207062  1
  Ce  Ce2  1  0.750000  0.417535  0.292938  1
  Ce  Ce3  1  0.750000  0.082465  0.792938  1
  Ta  Ta4  1  0.250000  0.697860  0.989984  1
  Ta  Ta5  1  0.250000  0.802140  0.489984  1
  Ta  Ta6  1  0.750000  0.302140  0.010016  1
  Ta  Ta7  1  0.750000  0.197860  0.510016  1
  Co  Co8  1  0.250000  0.889038  0.693466  1
  Co  Co9  1  0.250000  0.610962  0.193466  1
  Co  Co10  1  0.750000  0.110962  0.306534  1
  Co  Co11  1  0.750000  0.389038  0.806534  1
  Co  Co12  1  0.250000  0.464414  0.935797  1
  Co  Co13  1  0.250000  0.035586  0.435797  1
  Co  Co14  1  0.750000  0.535586  0.064203  1
  Co  Co15  1  0.750000  0.964414  0.564203  1
  P  P16  1  0.250000  0.426715  0.113661  1
  P  P17  1  0.250000  0.073285  0.613661  1
  P  P18  1  0.750000  0.573285  0.886339  1
  P  P19  1  0.750000  0.926715  0.386339  1
  P  P20  1  0.250000  0.273950  0.865305  1
  P  P21  1  0.250000  0.226050  0.365305  1
  P  P22  1  0.750000  0.726050  0.134695  1
  P  P23  1  0.750000  0.773950  0.634695  1
  P  P24  1  0.250000  0.597121  0.385470  1
  P  P25  1  0.250000  0.902879  0.885470  1
  P  P26  1  0.750000  0.402879  0.614530  1
  P  P27  1  0.750000  0.097121  0.114530  1
  Ru  Ru28  1  0.250000  0.402561  0.483922  1
  Ru  Ru29  1  0.250000  0.097439  0.983922  1
  Ru  Ru30  1  0.750000  0.597439  0.516078  1
  Ru  Ru31  1  0.750000  0.902561  0.016078  1
  Ru  Ru32  1  0.250000  0.222987  0.178916  1
  Ru  Ru33  1  0.250000  0.277013  0.678916  1
  Ru  Ru34  1  0.750000  0.777013  0.821084  1
  Ru  Ru35  1  0.750000  0.722987  0.321084  1
