# generated using pymatgen
data_Dy4Lu2Si24Os3Ru5
_symmetry_space_group_name_H-M   'P 1'
_cell_length_a   10.09411971
_cell_length_b   10.09426536
_cell_length_c   8.13309400
_cell_angle_alpha   89.99905678
_cell_angle_beta   89.99971536
_cell_angle_gamma   132.47369708
_symmetry_Int_Tables_number   1
_chemical_formula_structural   Dy4Lu2Si24Os3Ru5
_chemical_formula_sum   'Dy4 Lu2 Si24 Os3 Ru5'
_cell_volume   611.24096321
_cell_formula_units_Z   1
loop_
 _symmetry_equiv_pos_site_id
 _symmetry_equiv_pos_as_xyz
  1  'x, y, z'
loop_
 _atom_site_type_symbol
 _atom_site_label
 _atom_site_symmetry_multiplicity
 _atom_site_fract_x
 _atom_site_fract_y
 _atom_site_fract_z
 _atom_site_occupancy
  Dy  Dy0  1  0.502193  0.002250  0.750234  1
  Dy  Dy1  1  0.997746  0.497809  0.249767  1
  Dy  Dy2  1  0.497938  0.997664  0.249611  1
  Dy  Dy3  1  0.002336  0.502063  0.750381  1
  Lu  Lu4  1  0.500016  0.499993  0.499985  1
  Lu  Lu5  1  0.000033  0.999964  0.000003  1
  Si  Si6  1  0.795867  0.204134  0.499997  1
  Si  Si7  1  0.295763  0.704233  0.000000  1
  Si  Si8  1  0.204232  0.795765  0.500004  1
  Si  Si9  1  0.704845  0.295153  0.000000  1
  Si  Si10  1  0.332114  0.331877  0.833340  1
  Si  Si11  1  0.668128  0.667889  0.166661  1
  Si  Si12  1  0.167033  0.167201  0.332259  1
  Si  Si13  1  0.832794  0.832963  0.667743  1
  Si  Si14  1  0.121160  0.888406  0.728549  1
  Si  Si15  1  0.111594  0.878838  0.271451  1
  Si  Si16  1  0.612509  0.379102  0.227458  1
  Si  Si17  1  0.620901  0.387496  0.772541  1
  Si  Si18  1  0.878238  0.111493  0.270255  1
  Si  Si19  1  0.888502  0.121758  0.729748  1
  Si  Si20  1  0.388324  0.621619  0.772142  1
  Si  Si21  1  0.378380  0.611678  0.227862  1
  Si  Si22  1  0.344789  0.112099  0.505357  1
  Si  Si23  1  0.887897  0.655206  0.494646  1
  Si  Si24  1  0.388009  0.155575  0.004140  1
  Si  Si25  1  0.844421  0.611987  0.995858  1
  Si  Si26  1  0.655413  0.888072  0.494388  1
  Si  Si27  1  0.111924  0.344586  0.505613  1
  Si  Si28  1  0.613514  0.846334  0.995004  1
  Si  Si29  1  0.153667  0.386490  0.004991  1
  Os  Os30  1  0.669172  0.330838  0.500002  1
  Os  Os31  1  0.169180  0.830829  0.000003  1
  Os  Os32  1  0.330822  0.669181  0.499997  1
  Ru  Ru33  1  0.830726  0.169261  0.000007  1
  Ru  Ru34  1  0.127623  0.127518  0.626877  1
  Ru  Ru35  1  0.872495  0.872396  0.373124  1
  Ru  Ru36  1  0.373743  0.374021  0.128079  1
  Ru  Ru37  1  0.625964  0.626253  0.871924  1
