# generated using pymatgen
data_Er12Fe4AgPb
_symmetry_space_group_name_H-M   'P 1'
_cell_length_a   8.30539455
_cell_length_b   8.30539361
_cell_length_c   8.30539500
_cell_angle_alpha   106.81925706
_cell_angle_beta   110.29828274
_cell_angle_gamma   111.32999779
_symmetry_Int_Tables_number   1
_chemical_formula_structural   Er12Fe4AgPb
_chemical_formula_sum   'Er12 Fe4 Ag1 Pb1'
_cell_volume   440.27859527
_cell_formula_units_Z   1
loop_
 _symmetry_equiv_pos_site_id
 _symmetry_equiv_pos_as_xyz
  1  'x, y, z'
loop_
 _atom_site_type_symbol
 _atom_site_label
 _atom_site_symmetry_multiplicity
 _atom_site_fract_x
 _atom_site_fract_y
 _atom_site_fract_z
 _atom_site_occupancy
  Er  Er0  1  0.710098  0.280418  0.990517  1
  Er  Er1  1  0.289902  0.719582  0.009483  1
  Er  Er2  1  0.710098  0.719582  0.429682  1
  Er  Er3  1  0.289902  0.280418  0.570318  1
  Er  Er4  1  0.800571  0.111252  0.310680  1
  Er  Er5  1  0.800571  0.489892  0.689320  1
  Er  Er6  1  0.199429  0.888748  0.689320  1
  Er  Er7  1  0.199429  0.510108  0.310680  1
  Er  Er8  1  0.603388  0.791154  0.812234  1
  Er  Er9  1  0.978920  0.791154  0.187766  1
  Er  Er10  1  0.021080  0.208846  0.812234  1
  Er  Er11  1  0.396612  0.208846  0.187766  1
  Fe  Fe12  1  0.886538  0.500000  0.386538  1
  Fe  Fe13  1  0.113462  0.500000  0.613462  1
  Fe  Fe14  1  0.000000  0.108051  0.108051  1
  Fe  Fe15  1  0.000000  0.891949  0.891949  1
  Ag  Ag16  1  0.500000  0.500000  0.000000  1
  Pb  Pb17  1  0.500000  0.000000  0.500000  1
