# generated using pymatgen
data_Sc5Nb3Fe2(Co7P6)2
_symmetry_space_group_name_H-M   'P 1'
_cell_length_a   12.02156764
_cell_length_b   12.02156779
_cell_length_c   3.63567500
_cell_angle_alpha   90.00000000
_cell_angle_beta   90.00000000
_cell_angle_gamma   119.79818446
_symmetry_Int_Tables_number   1
_chemical_formula_structural   Sc5Nb3Fe2(Co7P6)2
_chemical_formula_sum   'Sc5 Nb3 Fe2 Co14 P12'
_cell_volume   455.95029974
_cell_formula_units_Z   1
loop_
 _symmetry_equiv_pos_site_id
 _symmetry_equiv_pos_as_xyz
  1  'x, y, z'
loop_
 _atom_site_type_symbol
 _atom_site_label
 _atom_site_symmetry_multiplicity
 _atom_site_fract_x
 _atom_site_fract_y
 _atom_site_fract_z
 _atom_site_occupancy
  Sc  Sc0  1  0.819095  0.001577  0.500000  1
  Sc  Sc1  1  0.001577  0.819095  0.500000  1
  Sc  Sc2  1  0.182225  0.182225  0.500000  1
  Sc  Sc3  1  0.332341  0.666357  0.000000  1
  Sc  Sc4  1  0.666357  0.332341  0.000000  1
  Nb  Nb5  1  0.444291  0.999398  0.000000  1
  Nb  Nb6  1  0.999398  0.444291  0.000000  1
  Nb  Nb7  1  0.554794  0.554794  0.000000  1
  Fe  Fe8  1  0.278563  0.000353  0.500000  1
  Fe  Fe9  1  0.000353  0.278563  0.500000  1
  Co  Co10  1  0.722901  0.722901  0.500000  1
  Co  Co11  1  0.627656  0.804674  0.000000  1
  Co  Co12  1  0.194397  0.821180  0.000000  1
  Co  Co13  1  0.178986  0.373653  0.000000  1
  Co  Co14  1  0.373653  0.178986  0.000000  1
  Co  Co15  1  0.804674  0.627656  0.000000  1
  Co  Co16  1  0.821180  0.194397  0.000000  1
  Co  Co17  1  0.518502  0.871808  0.500000  1
  Co  Co18  1  0.127042  0.645782  0.500000  1
  Co  Co19  1  0.354068  0.481950  0.500000  1
  Co  Co20  1  0.481950  0.354068  0.500000  1
  Co  Co21  1  0.871808  0.518502  0.500000  1
  Co  Co22  1  0.645782  0.127042  0.500000  1
  Co  Co23  1  0.999752  0.999752  0.000000  1
  P  P24  1  0.177546  0.000784  0.000000  1
  P  P25  1  0.000784  0.177546  0.000000  1
  P  P26  1  0.824327  0.824327  0.000000  1
  P  P27  1  0.516488  0.687663  0.500000  1
  P  P28  1  0.310594  0.829397  0.500000  1
  P  P29  1  0.169921  0.481108  0.500000  1
  P  P30  1  0.481108  0.169921  0.500000  1
  P  P31  1  0.687663  0.516488  0.500000  1
  P  P32  1  0.829397  0.310594  0.500000  1
  P  P33  1  0.649713  0.000184  0.000000  1
  P  P34  1  0.000184  0.649713  0.000000  1
  P  P35  1  0.350929  0.350929  0.000000  1
