# generated using pymatgen
data_Tb2Er2Ni13Ir
_symmetry_space_group_name_H-M   'P 1'
_cell_length_a   4.93697712
_cell_length_b   4.93697680
_cell_length_c   12.53597869
_cell_angle_alpha   78.64355574
_cell_angle_beta   78.64355730
_cell_angle_gamma   60.00000534
_symmetry_Int_Tables_number   1
_chemical_formula_structural   Tb2Er2Ni13Ir
_chemical_formula_sum   'Tb2 Er2 Ni13 Ir1'
_cell_volume   257.68205174
_cell_formula_units_Z   1
loop_
 _symmetry_equiv_pos_site_id
 _symmetry_equiv_pos_as_xyz
  1  'x, y, z'
loop_
 _atom_site_type_symbol
 _atom_site_label
 _atom_site_symmetry_multiplicity
 _atom_site_fract_x
 _atom_site_fract_y
 _atom_site_fract_z
 _atom_site_occupancy
  Tb  Tb0  1  0.949574  0.949574  0.151280  1
  Tb  Tb1  1  0.050426  0.050426  0.848720  1
  Er  Er2  1  0.853289  0.853289  0.440134  1
  Er  Er3  1  0.146711  0.146711  0.559866  1
  Ni  Ni4  1  0.720869  0.720869  0.837396  1
  Ni  Ni5  1  0.279131  0.279131  0.162604  1
  Ni  Ni6  1  0.612618  0.612618  0.162144  1
  Ni  Ni7  1  0.387382  0.387382  0.837856  1
  Ni  Ni8  1  0.000000  0.500000  0.000000  1
  Ni  Ni9  1  0.500000  0.000000  0.000000  1
  Ni  Ni10  1  0.500000  0.500000  0.000000  1
  Ni  Ni11  1  0.390573  0.390573  0.324577  1
  Ni  Ni12  1  0.894275  0.390573  0.324577  1
  Ni  Ni13  1  0.390573  0.894275  0.324577  1
  Ni  Ni14  1  0.609427  0.609427  0.675423  1
  Ni  Ni15  1  0.105725  0.609427  0.675423  1
  Ni  Ni16  1  0.609427  0.105725  0.675423  1
  Ir  Ir17  1  0.500000  0.500000  0.500000  1
