# generated using pymatgen
data_TbY5FeBr10
_symmetry_space_group_name_H-M   'P 1'
_cell_length_a   7.43796719
_cell_length_b   9.31910043
_cell_length_c   9.10813200
_cell_angle_alpha   106.93133478
_cell_angle_beta   94.94574620
_cell_angle_gamma   105.59469149
_symmetry_Int_Tables_number   1
_chemical_formula_structural   TbY5FeBr10
_chemical_formula_sum   'Tb1 Y5 Fe1 Br10'
_cell_volume   572.38705558
_cell_formula_units_Z   1
loop_
 _symmetry_equiv_pos_site_id
 _symmetry_equiv_pos_as_xyz
  1  'x, y, z'
loop_
 _atom_site_type_symbol
 _atom_site_label
 _atom_site_symmetry_multiplicity
 _atom_site_fract_x
 _atom_site_fract_y
 _atom_site_fract_z
 _atom_site_occupancy
  Tb  Tb0  1  0.883594  0.955697  0.228246  1
  Y  Y1  1  0.117724  0.044943  0.775089  1
  Y  Y2  1  0.031034  0.703536  0.907026  1
  Y  Y3  1  0.967317  0.295459  0.091460  1
  Y  Y4  1  0.644402  0.868369  0.825111  1
  Y  Y5  1  0.355078  0.131888  0.176580  1
  Fe  Fe6  1  0.999230  0.999706  0.002514  1
  Br  Br7  1  0.660620  0.555758  0.728251  1
  Br  Br8  1  0.338506  0.444650  0.267542  1
  Br  Br9  1  0.764384  0.922691  0.552297  1
  Br  Br10  1  0.240885  0.078742  0.450372  1
  Br  Br11  1  0.911051  0.630992  0.172332  1
  Br  Br12  1  0.088850  0.366802  0.824693  1
  Br  Br13  1  0.538164  0.173723  0.909596  1
  Br  Br14  1  0.461237  0.825428  0.090631  1
  Br  Br15  1  0.223848  0.753838  0.658756  1
  Br  Br16  1  0.774076  0.247781  0.339505  1
