# generated using pymatgen
data_Dy3Zr(Ta3Ge4)2
_symmetry_space_group_name_H-M   'P 1'
_cell_length_a   6.98437400
_cell_length_b   7.11952312
_cell_length_c   13.49608815
_cell_angle_alpha   90.23714188
_cell_angle_beta   90.00000000
_cell_angle_gamma   90.00000000
_symmetry_Int_Tables_number   1
_chemical_formula_structural   Dy3Zr(Ta3Ge4)2
_chemical_formula_sum   'Dy6 Zr2 Ta12 Ge16'
_cell_volume   671.09279722
_cell_formula_units_Z   2
loop_
 _symmetry_equiv_pos_site_id
 _symmetry_equiv_pos_as_xyz
  1  'x, y, z'
loop_
 _atom_site_type_symbol
 _atom_site_label
 _atom_site_symmetry_multiplicity
 _atom_site_fract_x
 _atom_site_fract_y
 _atom_site_fract_z
 _atom_site_occupancy
  Dy  Dy0  1  0.492150  0.675278  0.593126  1
  Dy  Dy1  1  0.992150  0.824722  0.906874  1
  Dy  Dy2  1  0.506581  0.327493  0.092745  1
  Dy  Dy3  1  0.006581  0.172507  0.407255  1
  Dy  Dy4  1  0.506287  0.325865  0.407139  1
  Dy  Dy5  1  0.006287  0.174135  0.092861  1
  Zr  Zr6  1  0.489167  0.677045  0.903522  1
  Zr  Zr7  1  0.989167  0.822955  0.596478  1
  Ta  Ta8  1  0.661168  0.164354  0.627303  1
  Ta  Ta9  1  0.161168  0.335646  0.872697  1
  Ta  Ta10  1  0.343597  0.830395  0.124701  1
  Ta  Ta11  1  0.843597  0.669605  0.375299  1
  Ta  Ta12  1  0.341560  0.832616  0.373521  1
  Ta  Ta13  1  0.841560  0.667384  0.126479  1
  Ta  Ta14  1  0.659363  0.165889  0.873594  1
  Ta  Ta15  1  0.159363  0.334111  0.626406  1
  Ta  Ta16  1  0.836257  0.488475  0.749453  1
  Ta  Ta17  1  0.336257  0.011525  0.750547  1
  Ta  Ta18  1  0.165168  0.514199  0.249902  1
  Ta  Ta19  1  0.665168  0.985801  0.250098  1
  Ge  Ge20  1  0.679780  0.959424  0.459619  1
  Ge  Ge21  1  0.179780  0.540576  0.040381  1
  Ge  Ge22  1  0.325064  0.038796  0.956752  1
  Ge  Ge23  1  0.825064  0.461204  0.543248  1
  Ge  Ge24  1  0.315340  0.037177  0.543205  1
  Ge  Ge25  1  0.815340  0.462823  0.956795  1
  Ge  Ge26  1  0.675925  0.956723  0.040567  1
  Ge  Ge27  1  0.175925  0.543277  0.459433  1
  Ge  Ge28  1  0.461327  0.382976  0.750338  1
  Ge  Ge29  1  0.961327  0.117024  0.749662  1
  Ge  Ge30  1  0.541099  0.619412  0.250559  1
  Ge  Ge31  1  0.041099  0.880588  0.249441  1
  Ge  Ge32  1  0.693565  0.853920  0.750984  1
  Ge  Ge33  1  0.193565  0.646080  0.749016  1
  Ge  Ge34  1  0.306601  0.143039  0.249531  1
  Ge  Ge35  1  0.806601  0.356961  0.250469  1
