# generated using pymatgen
data_Er9Tm(Zn2Bi)2
_symmetry_space_group_name_H-M   'P 1'
_cell_length_a   8.55149123
_cell_length_b   8.55149098
_cell_length_c   8.55149058
_cell_angle_alpha   123.57568332
_cell_angle_beta   123.57567952
_cell_angle_gamma   83.91083939
_symmetry_Int_Tables_number   1
_chemical_formula_structural   Er9Tm(Zn2Bi)2
_chemical_formula_sum   'Er9 Tm1 Zn4 Bi2'
_cell_volume   415.72258442
_cell_formula_units_Z   1
loop_
 _symmetry_equiv_pos_site_id
 _symmetry_equiv_pos_as_xyz
  1  'x, y, z'
loop_
 _atom_site_type_symbol
 _atom_site_label
 _atom_site_symmetry_multiplicity
 _atom_site_fract_x
 _atom_site_fract_y
 _atom_site_fract_z
 _atom_site_occupancy
  Er  Er0  1  0.500000  0.500000  0.000000  1
  Er  Er1  1  0.510260  0.010166  0.804553  1
  Er  Er2  1  0.205612  0.705705  0.195447  1
  Er  Er3  1  0.010166  0.205612  0.499906  1
  Er  Er4  1  0.705705  0.510260  0.500094  1
  Er  Er5  1  0.489740  0.989834  0.195447  1
  Er  Er6  1  0.794388  0.294295  0.804553  1
  Er  Er7  1  0.989834  0.794388  0.500094  1
  Er  Er8  1  0.294295  0.489740  0.499906  1
  Tm  Tm9  1  0.000000  0.000000  0.000000  1
  Zn  Zn10  1  0.138990  0.639173  0.778165  1
  Zn  Zn11  1  0.861010  0.360827  0.221835  1
  Zn  Zn12  1  0.639173  0.861010  0.500183  1
  Zn  Zn13  1  0.360827  0.138990  0.499817  1
  Bi  Bi14  1  0.249891  0.249891  0.000000  1
  Bi  Bi15  1  0.750109  0.750109  0.000000  1
