# generated using pymatgen
data_TlBr19
_symmetry_space_group_name_H-M   'P 1'
_cell_length_a   9.23618702
_cell_length_b   10.84053810
_cell_length_c   9.58768900
_cell_angle_alpha   68.87545149
_cell_angle_beta   81.54272680
_cell_angle_gamma   89.45251674
_symmetry_Int_Tables_number   1
_chemical_formula_structural   TlBr19
_chemical_formula_sum   'Tl1 Br19'
_cell_volume   884.73890517
_cell_formula_units_Z   1
loop_
 _symmetry_equiv_pos_site_id
 _symmetry_equiv_pos_as_xyz
  1  'x, y, z'
loop_
 _atom_site_type_symbol
 _atom_site_label
 _atom_site_symmetry_multiplicity
 _atom_site_fract_x
 _atom_site_fract_y
 _atom_site_fract_z
 _atom_site_occupancy
  Tl  Tl0  1  0.860375  0.658272  0.249739  1
  Br  Br1  1  0.355443  0.504083  0.556507  1
  Br  Br2  1  0.882510  0.477991  0.037457  1
  Br  Br3  1  0.600561  0.417863  0.538699  1
  Br  Br4  1  0.124166  0.570409  0.032882  1
  Br  Br5  1  0.075980  0.637282  0.544553  1
  Br  Br6  1  0.575158  0.331970  0.047422  1
  Br  Br7  1  0.897796  0.300487  0.505308  1
  Br  Br8  1  0.397334  0.687569  0.035994  1
  Br  Br9  1  0.168512  0.858712  0.542536  1
  Br  Br10  1  0.709309  0.125490  0.982905  1
  Br  Br11  1  0.816655  0.147303  0.403427  1
  Br  Br12  1  0.289913  0.896892  0.037461  1
  Br  Br13  1  0.257676  0.078577  0.557031  1
  Br  Br14  1  0.823803  0.948587  0.909641  1
  Br  Br15  1  0.692150  0.955812  0.301315  1
  Br  Br16  1  0.157363  0.113361  0.052351  1
  Br  Br17  1  0.661083  0.784695  0.545108  1
  Br  Br18  1  0.243447  0.296272  0.816502  1
  Br  Br19  1  0.410765  0.208374  0.303165  1
