# generated using pymatgen
data_NaEu21(Ga4Sb3)2
_symmetry_space_group_name_H-M   'P 1'
_cell_length_a   11.75702534
_cell_length_b   11.75702615
_cell_length_c   11.75702600
_cell_angle_alpha   60.00000606
_cell_angle_beta   60.00000376
_cell_angle_gamma   59.99999993
_symmetry_Int_Tables_number   1
_chemical_formula_structural   NaEu21(Ga4Sb3)2
_chemical_formula_sum   'Na1 Eu21 Ga8 Sb6'
_cell_volume   1149.15193103
_cell_formula_units_Z   1
loop_
 _symmetry_equiv_pos_site_id
 _symmetry_equiv_pos_as_xyz
  1  'x, y, z'
loop_
 _atom_site_type_symbol
 _atom_site_label
 _atom_site_symmetry_multiplicity
 _atom_site_fract_x
 _atom_site_fract_y
 _atom_site_fract_z
 _atom_site_occupancy
  Na  Na0  1  0.500000  0.500000  0.500000  1
  Eu  Eu1  1  0.869003  0.869003  0.392990  1
  Eu  Eu2  1  0.607010  0.130997  0.130997  1
  Eu  Eu3  1  0.869003  0.392990  0.869003  1
  Eu  Eu4  1  0.130997  0.130997  0.130997  1
  Eu  Eu5  1  0.392990  0.869003  0.869003  1
  Eu  Eu6  1  0.869003  0.869003  0.869003  1
  Eu  Eu7  1  0.167392  0.832608  0.500000  1
  Eu  Eu8  1  0.832608  0.500000  0.500000  1
  Eu  Eu9  1  0.130997  0.130997  0.607010  1
  Eu  Eu10  1  0.832608  0.167392  0.500000  1
  Eu  Eu11  1  0.167392  0.500000  0.500000  1
  Eu  Eu12  1  0.130997  0.607010  0.130997  1
  Eu  Eu13  1  0.500000  0.500000  0.167392  1
  Eu  Eu14  1  0.500000  0.167392  0.832608  1
  Eu  Eu15  1  0.500000  0.832608  0.167392  1
  Eu  Eu16  1  0.500000  0.500000  0.832608  1
  Eu  Eu17  1  0.500000  0.167392  0.500000  1
  Eu  Eu18  1  0.167392  0.500000  0.832608  1
  Eu  Eu19  1  0.000000  0.000000  0.000000  1
  Eu  Eu20  1  0.500000  0.832608  0.500000  1
  Eu  Eu21  1  0.832608  0.500000  0.167392  1
  Ga  Ga22  1  0.691939  0.924184  0.691939  1
  Ga  Ga23  1  0.691939  0.691939  0.924184  1
  Ga  Ga24  1  0.691939  0.691939  0.691939  1
  Ga  Ga25  1  0.308061  0.075816  0.308061  1
  Ga  Ga26  1  0.924184  0.691939  0.691939  1
  Ga  Ga27  1  0.308061  0.308061  0.075816  1
  Ga  Ga28  1  0.075816  0.308061  0.308061  1
  Ga  Ga29  1  0.308061  0.308061  0.308061  1
  Sb  Sb30  1  0.787269  0.212731  0.787269  1
  Sb  Sb31  1  0.787269  0.212731  0.212731  1
  Sb  Sb32  1  0.212731  0.787269  0.212731  1
  Sb  Sb33  1  0.212731  0.787269  0.787269  1
  Sb  Sb34  1  0.787269  0.787269  0.212731  1
  Sb  Sb35  1  0.212731  0.212731  0.787269  1
