# generated using pymatgen
data_CeEr2(InRh)3
_symmetry_space_group_name_H-M   'P 1'
_cell_length_a   7.54487518
_cell_length_b   7.54487417
_cell_length_c   3.86262900
_cell_angle_alpha   90.00000000
_cell_angle_beta   90.00000000
_cell_angle_gamma   118.24664934
_symmetry_Int_Tables_number   1
_chemical_formula_structural   CeEr2(InRh)3
_chemical_formula_sum   'Ce1 Er2 In3 Rh3'
_cell_volume   193.69693403
_cell_formula_units_Z   1
loop_
 _symmetry_equiv_pos_site_id
 _symmetry_equiv_pos_as_xyz
  1  'x, y, z'
loop_
 _atom_site_type_symbol
 _atom_site_label
 _atom_site_symmetry_multiplicity
 _atom_site_fract_x
 _atom_site_fract_y
 _atom_site_fract_z
 _atom_site_occupancy
  Ce  Ce0  1  0.584413  0.584413  0.500000  1
  Er  Er1  1  0.406222  0.001301  0.500000  1
  Er  Er2  1  0.001301  0.406222  0.500000  1
  In  In3  1  0.741830  0.009727  0.000000  1
  In  In4  1  0.009727  0.741830  0.000000  1
  In  In5  1  0.247056  0.247056  0.000000  1
  Rh  Rh6  1  0.348956  0.665091  0.000000  1
  Rh  Rh7  1  0.665091  0.348956  0.000000  1
  Rh  Rh8  1  0.995405  0.995405  0.500000  1
