# generated using pymatgen
data_Nd2Sm4CoBr10
_symmetry_space_group_name_H-M   'P 1'
_cell_length_a   7.52301964
_cell_length_b   9.29774855
_cell_length_c   9.43155653
_cell_angle_alpha   108.48849622
_cell_angle_beta   97.10722951
_cell_angle_gamma   105.09269395
_symmetry_Int_Tables_number   1
_chemical_formula_structural   Nd2Sm4CoBr10
_chemical_formula_sum   'Nd2 Sm4 Co1 Br10'
_cell_volume   588.54876686
_cell_formula_units_Z   1
loop_
 _symmetry_equiv_pos_site_id
 _symmetry_equiv_pos_as_xyz
  1  'x, y, z'
loop_
 _atom_site_type_symbol
 _atom_site_label
 _atom_site_symmetry_multiplicity
 _atom_site_fract_x
 _atom_site_fract_y
 _atom_site_fract_z
 _atom_site_occupancy
  Nd  Nd0  1  0.030752  0.711262  0.409941  1
  Nd  Nd1  1  0.969248  0.288738  0.590059  1
  Sm  Sm2  1  0.876000  0.954315  0.746351  1
  Sm  Sm3  1  0.124000  0.045685  0.253649  1
  Sm  Sm4  1  0.360265  0.134587  0.680046  1
  Sm  Sm5  1  0.639735  0.865413  0.319954  1
  Co  Co6  1  0.000000  0.000000  0.500000  1
  Br  Br7  1  0.455518  0.822023  0.584290  1
  Br  Br8  1  0.544482  0.177977  0.415710  1
  Br  Br9  1  0.911959  0.632715  0.675817  1
  Br  Br10  1  0.088041  0.367285  0.324183  1
  Br  Br11  1  0.251789  0.085063  0.956760  1
  Br  Br12  1  0.748211  0.914937  0.043240  1
  Br  Br13  1  0.357003  0.454330  0.773084  1
  Br  Br14  1  0.642997  0.545670  0.226916  1
  Br  Br15  1  0.784538  0.255150  0.849492  1
  Br  Br16  1  0.215462  0.744850  0.150508  1
