# generated using pymatgen
data_Zr16Re3Ni4Ir
_symmetry_space_group_name_H-M   'P 1'
_cell_length_a   8.77515031
_cell_length_b   8.77514859
_cell_length_c   8.77134130
_cell_angle_alpha   59.98563464
_cell_angle_beta   59.98563182
_cell_angle_gamma   60.00000063
_symmetry_Int_Tables_number   1
_chemical_formula_structural   Zr16Re3Ni4Ir
_chemical_formula_sum   'Zr16 Re3 Ni4 Ir1'
_cell_volume   477.49157746
_cell_formula_units_Z   1
loop_
 _symmetry_equiv_pos_site_id
 _symmetry_equiv_pos_as_xyz
  1  'x, y, z'
loop_
 _atom_site_type_symbol
 _atom_site_label
 _atom_site_symmetry_multiplicity
 _atom_site_fract_x
 _atom_site_fract_y
 _atom_site_fract_z
 _atom_site_occupancy
  Zr  Zr0  1  0.190826  0.603024  0.603126  1
  Zr  Zr1  1  0.603024  0.190826  0.603126  1
  Zr  Zr2  1  0.603024  0.603024  0.603126  1
  Zr  Zr3  1  0.602294  0.602294  0.193118  1
  Zr  Zr4  1  0.455199  0.455199  0.045299  1
  Zr  Zr5  1  0.044547  0.044547  0.455859  1
  Zr  Zr6  1  0.455199  0.044303  0.045299  1
  Zr  Zr7  1  0.044547  0.455046  0.455859  1
  Zr  Zr8  1  0.044303  0.455199  0.045299  1
  Zr  Zr9  1  0.455046  0.044547  0.455859  1
  Zr  Zr10  1  0.816081  0.816081  0.179400  1
  Zr  Zr11  1  0.184721  0.184721  0.814432  1
  Zr  Zr12  1  0.816081  0.188437  0.179400  1
  Zr  Zr13  1  0.184721  0.816125  0.814432  1
  Zr  Zr14  1  0.188437  0.816081  0.179400  1
  Zr  Zr15  1  0.816125  0.184721  0.814432  1
  Re  Re16  1  0.504106  0.830900  0.834095  1
  Re  Re17  1  0.830900  0.504106  0.834095  1
  Re  Re18  1  0.830900  0.830900  0.834095  1
  Ni  Ni19  1  0.828171  0.389683  0.392463  1
  Ni  Ni20  1  0.389683  0.828171  0.392463  1
  Ni  Ni21  1  0.389683  0.389683  0.392463  1
  Ni  Ni22  1  0.390899  0.390899  0.827304  1
  Ir  Ir23  1  0.831480  0.831480  0.505560  1
