# generated using pymatgen
data_Sm2UTc3
_symmetry_space_group_name_H-M   'P 1'
_cell_length_a   5.86517700
_cell_length_b   5.86517687
_cell_length_c   8.23715500
_cell_angle_alpha   90.00000000
_cell_angle_beta   90.00000000
_cell_angle_gamma   119.99998379
_symmetry_Int_Tables_number   1
_chemical_formula_structural   Sm2UTc3
_chemical_formula_sum   'Sm4 U2 Tc6'
_cell_volume   245.39752441
_cell_formula_units_Z   2
loop_
 _symmetry_equiv_pos_site_id
 _symmetry_equiv_pos_as_xyz
  1  'x, y, z'
loop_
 _atom_site_type_symbol
 _atom_site_label
 _atom_site_symmetry_multiplicity
 _atom_site_fract_x
 _atom_site_fract_y
 _atom_site_fract_z
 _atom_site_occupancy
  Sm  Sm0  1  0.333333  0.666667  0.439636  1
  Sm  Sm1  1  0.666667  0.333333  0.560364  1
  Sm  Sm2  1  0.666667  0.333333  0.939636  1
  Sm  Sm3  1  0.333333  0.666667  0.060364  1
  U  U4  1  0.000000  0.000000  0.500000  1
  U  U5  1  0.000000  0.000000  0.000000  1
  Tc  Tc6  1  0.837662  0.162338  0.250000  1
  Tc  Tc7  1  0.837662  0.675324  0.250000  1
  Tc  Tc8  1  0.324676  0.162338  0.250000  1
  Tc  Tc9  1  0.162338  0.837662  0.750000  1
  Tc  Tc10  1  0.162338  0.324676  0.750000  1
  Tc  Tc11  1  0.675324  0.837662  0.750000  1
