# generated using pymatgen
data_CsGd10(C2Br9)2
_symmetry_space_group_name_H-M   'P 1'
_cell_length_a   10.75474293
_cell_length_b   10.81700336
_cell_length_c   10.98680000
_cell_angle_alpha   113.01344879
_cell_angle_beta   87.83782604
_cell_angle_gamma   118.65525852
_symmetry_Int_Tables_number   1
_chemical_formula_structural   CsGd10(C2Br9)2
_chemical_formula_sum   'Cs1 Gd10 C4 Br18'
_cell_volume   1014.43202366
_cell_formula_units_Z   1
loop_
 _symmetry_equiv_pos_site_id
 _symmetry_equiv_pos_as_xyz
  1  'x, y, z'
loop_
 _atom_site_type_symbol
 _atom_site_label
 _atom_site_symmetry_multiplicity
 _atom_site_fract_x
 _atom_site_fract_y
 _atom_site_fract_z
 _atom_site_occupancy
  Cs  Cs0  1  0.500000  0.000000  0.500000  1
  Gd  Gd1  1  0.657440  0.714156  0.698646  1
  Gd  Gd2  1  0.281852  0.367670  0.012894  1
  Gd  Gd3  1  0.093392  0.411105  0.304284  1
  Gd  Gd4  1  0.960963  0.035803  0.333484  1
  Gd  Gd5  1  0.906608  0.588895  0.695716  1
  Gd  Gd6  1  0.114005  0.942677  0.000650  1
  Gd  Gd7  1  0.039037  0.964197  0.666516  1
  Gd  Gd8  1  0.342560  0.285844  0.301354  1
  Gd  Gd9  1  0.718148  0.632330  0.987106  1
  Gd  Gd10  1  0.885995  0.057323  0.999350  1
  C  C11  1  0.158013  0.230916  0.126825  1
  C  C12  1  0.841987  0.769084  0.873175  1
  C  C13  1  0.919163  0.847760  0.794149  1
  C  C14  1  0.080837  0.152240  0.205851  1
  Br  Br15  1  0.449850  0.529446  0.832354  1
  Br  Br16  1  0.385047  0.038478  0.161259  1
  Br  Br17  1  0.774514  0.857104  0.499909  1
  Br  Br18  1  0.836492  0.312509  0.155201  1
  Br  Br19  1  0.550150  0.470554  0.167646  1
  Br  Br20  1  0.225486  0.142896  0.500091  1
  Br  Br21  1  0.313316  0.100497  0.832523  1
  Br  Br22  1  0.686684  0.899503  0.167477  1
  Br  Br23  1  0.978262  0.761621  0.171145  1
  Br  Br24  1  0.930262  0.299782  0.500867  1
  Br  Br25  1  0.021738  0.238379  0.828855  1
  Br  Br26  1  0.069738  0.700218  0.499133  1
  Br  Br27  1  0.263853  0.628922  0.191948  1
  Br  Br28  1  0.736147  0.371078  0.808052  1
  Br  Br29  1  0.636785  0.428671  0.495117  1
  Br  Br30  1  0.163508  0.687491  0.844799  1
  Br  Br31  1  0.614953  0.961522  0.838741  1
  Br  Br32  1  0.363215  0.571329  0.504883  1
