# generated using pymatgen
data_Ba2Cu21Ni5
_symmetry_space_group_name_H-M   'P 1'
_cell_length_a   8.22148900
_cell_length_b   8.22148977
_cell_length_c   8.21394273
_cell_angle_alpha   120.03039504
_cell_angle_beta   90.00000000
_cell_angle_gamma   120.00000094
_symmetry_Int_Tables_number   1
_chemical_formula_structural   Ba2Cu21Ni5
_chemical_formula_sum   'Ba2 Cu21 Ni5'
_cell_volume   392.40812448
_cell_formula_units_Z   1
loop_
 _symmetry_equiv_pos_site_id
 _symmetry_equiv_pos_as_xyz
  1  'x, y, z'
loop_
 _atom_site_type_symbol
 _atom_site_label
 _atom_site_symmetry_multiplicity
 _atom_site_fract_x
 _atom_site_fract_y
 _atom_site_fract_z
 _atom_site_occupancy
  Ba  Ba0  1  0.749093  0.498185  0.247275  1
  Ba  Ba1  1  0.251074  0.502149  0.753224  1
  Cu  Cu2  1  0.562383  0.998052  0.203575  1
  Cu  Cu3  1  0.205523  0.767905  0.203575  1
  Cu  Cu4  1  0.435669  0.641192  0.203575  1
  Cu  Cu5  1  0.936159  0.229456  0.291719  1
  Cu  Cu6  1  0.062263  0.998423  0.291719  1
  Cu  Cu7  1  0.293296  0.355559  0.291719  1
  Cu  Cu8  1  0.435822  0.229060  0.434116  1
  Cu  Cu9  1  0.205055  0.640878  0.434116  1
  Cu  Cu10  1  0.793239  0.998294  0.434116  1
  Cu  Cu11  1  0.793995  0.357551  0.563479  1
  Cu  Cu12  1  0.205928  0.999923  0.563479  1
  Cu  Cu13  1  0.563557  0.769485  0.563479  1
  Cu  Cu14  1  0.937494  0.002306  0.708531  1
  Cu  Cu15  1  0.706225  0.643719  0.708531  1
  Cu  Cu16  1  0.064811  0.771036  0.708531  1
  Cu  Cu17  1  0.435106  0.000166  0.795852  1
  Cu  Cu18  1  0.795687  0.230792  0.795852  1
  Cu  Cu19  1  0.565059  0.360746  0.795852  1
  Cu  Cu20  1  0.706964  0.000448  0.937742  1
  Cu  Cu21  1  0.293484  0.230779  0.937742  1
  Cu  Cu22  1  0.937294  0.644259  0.937742  1
  Ni  Ni23  1  0.000075  0.000151  0.000226  1
  Ni  Ni24  1  0.710023  0.774022  0.064547  1
  Ni  Ni25  1  0.290525  0.000549  0.064547  1
  Ni  Ni26  1  0.063999  0.354524  0.064547  1
  Ni  Ni27  1  0.500196  0.000391  0.500587  1
