# generated using pymatgen
data_CeSmCuSi4Pt3
_symmetry_space_group_name_H-M   'P 1'
_cell_length_a   4.20537700
_cell_length_b   4.22180700
_cell_length_c   9.89140300
_cell_angle_alpha   90.00000000
_cell_angle_beta   90.00000000
_cell_angle_gamma   90.00000000
_symmetry_Int_Tables_number   1
_chemical_formula_structural   CeSmCuSi4Pt3
_chemical_formula_sum   'Ce1 Sm1 Cu1 Si4 Pt3'
_cell_volume   175.61483793
_cell_formula_units_Z   1
loop_
 _symmetry_equiv_pos_site_id
 _symmetry_equiv_pos_as_xyz
  1  'x, y, z'
loop_
 _atom_site_type_symbol
 _atom_site_label
 _atom_site_symmetry_multiplicity
 _atom_site_fract_x
 _atom_site_fract_y
 _atom_site_fract_z
 _atom_site_occupancy
  Ce  Ce0  1  0.000000  0.500000  0.750602  1
  Sm  Sm1  1  0.500000  0.000000  0.247527  1
  Cu  Cu2  1  0.000000  0.000000  0.999661  1
  Si  Si3  1  0.000000  0.500000  0.132096  1
  Si  Si4  1  0.500000  0.500000  0.500574  1
  Si  Si5  1  0.500000  0.000000  0.869561  1
  Si  Si6  1  0.000000  0.000000  0.499967  1
  Pt  Pt7  1  0.500000  0.000000  0.623719  1
  Pt  Pt8  1  0.500000  0.500000  0.999017  1
  Pt  Pt9  1  0.000000  0.500000  0.377275  1
