# generated using pymatgen
data_Cs2SrCe(SiSe4)2
_symmetry_space_group_name_H-M   'P 1'
_cell_length_a   6.82665704
_cell_length_b   7.15087117
_cell_length_c   18.69440200
_cell_angle_alpha   90.00000000
_cell_angle_beta   90.00000000
_cell_angle_gamma   90.86054581
_symmetry_Int_Tables_number   1
_chemical_formula_structural   Cs2SrCe(SiSe4)2
_chemical_formula_sum   'Cs4 Sr2 Ce2 Si4 Se16'
_cell_volume   912.49318600
_cell_formula_units_Z   2
loop_
 _symmetry_equiv_pos_site_id
 _symmetry_equiv_pos_as_xyz
  1  'x, y, z'
loop_
 _atom_site_type_symbol
 _atom_site_label
 _atom_site_symmetry_multiplicity
 _atom_site_fract_x
 _atom_site_fract_y
 _atom_site_fract_z
 _atom_site_occupancy
  Cs  Cs0  1  0.500783  0.994721  0.532057  1
  Cs  Cs1  1  0.999216  0.005279  0.032056  1
  Cs  Cs2  1  0.000680  0.505546  0.465578  1
  Cs  Cs3  1  0.499320  0.494454  0.965579  1
  Sr  Sr4  1  0.707937  0.986639  0.274007  1
  Sr  Sr5  1  0.792064  0.013361  0.774008  1
  Ce  Ce6  1  0.208183  0.529754  0.727644  1
  Ce  Ce7  1  0.291818  0.470247  0.227643  1
  Si  Si8  1  0.210424  0.017719  0.336789  1
  Si  Si9  1  0.289576  0.982281  0.836789  1
  Si  Si10  1  0.714225  0.485325  0.663019  1
  Si  Si11  1  0.785774  0.514676  0.163019  1
  Se  Se12  1  0.381022  0.742119  0.348501  1
  Se  Se13  1  0.118977  0.257881  0.848501  1
  Se  Se14  1  0.906541  0.746538  0.647183  1
  Se  Se15  1  0.593458  0.253462  0.147183  1
  Se  Se16  1  0.423138  0.264754  0.359319  1
  Se  Se17  1  0.076862  0.735246  0.859319  1
  Se  Se18  1  0.938284  0.257157  0.641905  1
  Se  Se19  1  0.561715  0.742843  0.141904  1
  Se  Se20  1  0.365833  0.925585  0.718796  1
  Se  Se21  1  0.134166  0.074415  0.218797  1
  Se  Se22  1  0.896534  0.553783  0.277576  1
  Se  Se23  1  0.603467  0.446216  0.777576  1
  Se  Se24  1  0.956761  0.010495  0.413912  1
  Se  Se25  1  0.543240  0.989504  0.913912  1
  Se  Se26  1  0.438790  0.488306  0.593712  1
  Se  Se27  1  0.061211  0.511694  0.093712  1
