# generated using pymatgen
data_Sm2DyHo3(Si3Ru)8
_symmetry_space_group_name_H-M   'P 1'
_cell_length_a   10.13072161
_cell_length_b   10.13072068
_cell_length_c   8.16090615
_cell_angle_alpha   90.07019627
_cell_angle_beta   89.92980206
_cell_angle_gamma   132.51807636
_symmetry_Int_Tables_number   1
_chemical_formula_structural   Sm2DyHo3(Si3Ru)8
_chemical_formula_sum   'Sm2 Dy1 Ho3 Si24 Ru8'
_cell_volume   617.33941947
_cell_formula_units_Z   1
loop_
 _symmetry_equiv_pos_site_id
 _symmetry_equiv_pos_as_xyz
  1  'x, y, z'
loop_
 _atom_site_type_symbol
 _atom_site_label
 _atom_site_symmetry_multiplicity
 _atom_site_fract_x
 _atom_site_fract_y
 _atom_site_fract_z
 _atom_site_occupancy
  Sm  Sm0  1  0.997463  0.497463  0.250000  1
  Sm  Sm1  1  0.496865  0.996865  0.250000  1
  Dy  Dy2  1  0.502367  0.002367  0.750000  1
  Ho  Ho3  1  0.499977  0.499991  0.500135  1
  Ho  Ho4  1  0.999991  0.999977  0.999865  1
  Ho  Ho5  1  0.002437  0.502437  0.750000  1
  Si  Si6  1  0.794291  0.205180  0.502256  1
  Si  Si7  1  0.294616  0.705409  0.998021  1
  Si  Si8  1  0.205409  0.794616  0.501979  1
  Si  Si9  1  0.705180  0.294291  0.997744  1
  Si  Si10  1  0.332337  0.332000  0.833066  1
  Si  Si11  1  0.667711  0.667885  0.167168  1
  Si  Si12  1  0.167885  0.167711  0.332832  1
  Si  Si13  1  0.832000  0.832337  0.666934  1
  Si  Si14  1  0.121657  0.888122  0.727567  1
  Si  Si15  1  0.113507  0.879659  0.271043  1
  Si  Si16  1  0.611358  0.377328  0.228463  1
  Si  Si17  1  0.621044  0.387483  0.771759  1
  Si  Si18  1  0.877328  0.111358  0.271537  1
  Si  Si19  1  0.887483  0.121044  0.728241  1
  Si  Si20  1  0.388122  0.621657  0.772433  1
  Si  Si21  1  0.379659  0.613507  0.228957  1
  Si  Si22  1  0.346008  0.112219  0.505318  1
  Si  Si23  1  0.888507  0.656456  0.496773  1
  Si  Si24  1  0.387594  0.154049  0.004469  1
  Si  Si25  1  0.844022  0.611510  0.994271  1
  Si  Si26  1  0.654049  0.887594  0.495531  1
  Si  Si27  1  0.111510  0.344022  0.505729  1
  Si  Si28  1  0.612219  0.846008  0.994682  1
  Si  Si29  1  0.156456  0.388507  0.003227  1
  Ru  Ru30  1  0.670521  0.333812  0.501814  1
  Ru  Ru31  1  0.166350  0.829658  0.997031  1
  Ru  Ru32  1  0.329658  0.666350  0.502969  1
  Ru  Ru33  1  0.833812  0.170521  0.998186  1
  Ru  Ru34  1  0.126197  0.125838  0.626622  1
  Ru  Ru35  1  0.874261  0.874306  0.372900  1
  Ru  Ru36  1  0.374306  0.374261  0.127100  1
  Ru  Ru37  1  0.625838  0.626197  0.873378  1
