# generated using pymatgen
data_Ti10BeSiSn6
_symmetry_space_group_name_H-M   'P 1'
_cell_length_a   8.20776400
_cell_length_b   8.20776389
_cell_length_c   5.48286600
_cell_angle_alpha   90.00000000
_cell_angle_beta   90.00000000
_cell_angle_gamma   120.00000046
_symmetry_Int_Tables_number   1
_chemical_formula_structural   Ti10BeSiSn6
_chemical_formula_sum   'Ti10 Be1 Si1 Sn6'
_cell_volume   319.88065505
_cell_formula_units_Z   1
loop_
 _symmetry_equiv_pos_site_id
 _symmetry_equiv_pos_as_xyz
  1  'x, y, z'
loop_
 _atom_site_type_symbol
 _atom_site_label
 _atom_site_symmetry_multiplicity
 _atom_site_fract_x
 _atom_site_fract_y
 _atom_site_fract_z
 _atom_site_occupancy
  Ti  Ti0  1  0.666667  0.333333  0.000000  1
  Ti  Ti1  1  0.333333  0.666667  0.000000  1
  Ti  Ti2  1  0.333333  0.666667  0.500000  1
  Ti  Ti3  1  0.666667  0.333333  0.500000  1
  Ti  Ti4  1  0.744326  0.744326  0.756894  1
  Ti  Ti5  1  0.255674  0.000000  0.756894  1
  Ti  Ti6  1  0.000000  0.255674  0.756894  1
  Ti  Ti7  1  0.255674  0.255674  0.243106  1
  Ti  Ti8  1  0.744326  0.000000  0.243106  1
  Ti  Ti9  1  0.000000  0.744326  0.243106  1
  Be  Be10  1  0.000000  0.000000  0.000000  1
  Si  Si11  1  0.000000  0.000000  0.500000  1
  Sn  Sn12  1  0.390849  0.390849  0.749878  1
  Sn  Sn13  1  0.609151  0.000000  0.749878  1
  Sn  Sn14  1  0.000000  0.609151  0.749878  1
  Sn  Sn15  1  0.609151  0.609151  0.250122  1
  Sn  Sn16  1  0.390849  0.000000  0.250122  1
  Sn  Sn17  1  0.000000  0.390849  0.250122  1
