# generated using pymatgen
data_Dy5TmAl12(Si3Ru2)4
_symmetry_space_group_name_H-M   'P 1'
_cell_length_a   8.53831000
_cell_length_b   8.74274291
_cell_length_c   9.22851600
_cell_angle_alpha   90.00000000
_cell_angle_beta   90.00000000
_cell_angle_gamma   119.23053667
_symmetry_Int_Tables_number   1
_chemical_formula_structural   Dy5TmAl12(Si3Ru2)4
_chemical_formula_sum   'Dy5 Tm1 Al12 Si12 Ru8'
_cell_volume   601.17032067
_cell_formula_units_Z   1
loop_
 _symmetry_equiv_pos_site_id
 _symmetry_equiv_pos_as_xyz
  1  'x, y, z'
loop_
 _atom_site_type_symbol
 _atom_site_label
 _atom_site_symmetry_multiplicity
 _atom_site_fract_x
 _atom_site_fract_y
 _atom_site_fract_z
 _atom_site_occupancy
  Dy  Dy0  1  0.812035  0.190939  0.750000  1
  Dy  Dy1  1  0.179481  0.811656  0.250000  1
  Dy  Dy2  1  0.378819  0.190884  0.750000  1
  Dy  Dy3  1  0.632188  0.811670  0.250000  1
  Dy  Dy4  1  0.803744  0.607467  0.750000  1
  Tm  Tm5  1  0.208081  0.416254  0.250000  1
  Al  Al6  1  0.841507  0.165964  0.412738  1
  Al  Al7  1  0.163776  0.829821  0.581377  1
  Al  Al8  1  0.324566  0.166072  0.412736  1
  Al  Al9  1  0.163776  0.829821  0.918623  1
  Al  Al10  1  0.666197  0.829924  0.581382  1
  Al  Al11  1  0.841507  0.165964  0.087262  1
  Al  Al12  1  0.832129  0.664213  0.419185  1
  Al  Al13  1  0.666197  0.829924  0.918618  1
  Al  Al14  1  0.162770  0.325528  0.578442  1
  Al  Al15  1  0.324566  0.166072  0.087264  1
  Al  Al16  1  0.162770  0.325528  0.921558  1
  Al  Al17  1  0.832129  0.664213  0.080815  1
  Si  Si18  1  0.665075  0.330208  0.959270  1
  Si  Si19  1  0.337538  0.675082  0.041405  1
  Si  Si20  1  0.337538  0.675082  0.458595  1
  Si  Si21  1  0.665075  0.330208  0.540730  1
  Si  Si22  1  0.431810  0.561085  0.750000  1
  Si  Si23  1  0.564056  0.435636  0.250000  1
  Si  Si24  1  0.129210  0.561034  0.750000  1
  Si  Si25  1  0.871281  0.435392  0.250000  1
  Si  Si26  1  0.439988  0.879882  0.750000  1
  Si  Si27  1  0.559429  0.118812  0.250000  1
  Si  Si28  1  0.992790  0.985707  0.750000  1
  Si  Si29  1  0.029731  0.059417  0.250000  1
  Ru  Ru30  1  0.496345  0.496922  0.999894  1
  Ru  Ru31  1  0.000439  0.496712  0.999881  1
  Ru  Ru32  1  0.496345  0.496922  0.500106  1
  Ru  Ru33  1  0.501062  0.002239  0.998638  1
  Ru  Ru34  1  0.000439  0.496712  0.500119  1
  Ru  Ru35  1  0.501062  0.002239  0.501362  1
  Ru  Ru36  1  0.992273  0.984397  0.997070  1
  Ru  Ru37  1  0.992273  0.984397  0.502930  1
