# generated using pymatgen
data_DyYRh2O7
_symmetry_space_group_name_H-M   'P 1'
_cell_length_a   7.23683031
_cell_length_b   7.23683064
_cell_length_c   7.24198600
_cell_angle_alpha   59.97643192
_cell_angle_beta   59.97643040
_cell_angle_gamma   59.95693879
_symmetry_Int_Tables_number   1
_chemical_formula_structural   DyYRh2O7
_chemical_formula_sum   'Dy2 Y2 Rh4 O14'
_cell_volume   268.00521321
_cell_formula_units_Z   2
loop_
 _symmetry_equiv_pos_site_id
 _symmetry_equiv_pos_as_xyz
  1  'x, y, z'
loop_
 _atom_site_type_symbol
 _atom_site_label
 _atom_site_symmetry_multiplicity
 _atom_site_fract_x
 _atom_site_fract_y
 _atom_site_fract_z
 _atom_site_occupancy
  Dy  Dy0  1  0.125000  0.125000  0.625000  1
  Dy  Dy1  1  0.125000  0.125000  0.125000  1
  Y  Y2  1  0.625000  0.125000  0.125000  1
  Y  Y3  1  0.125000  0.625000  0.125000  1
  Rh  Rh4  1  0.125000  0.625000  0.625000  1
  Rh  Rh5  1  0.625000  0.125000  0.625000  1
  Rh  Rh6  1  0.625000  0.625000  0.125000  1
  Rh  Rh7  1  0.625000  0.625000  0.625000  1
  O  O8  1  0.711194  0.711194  0.288806  1
  O  O9  1  0.287572  0.287572  0.712428  1
  O  O10  1  0.712090  0.288035  0.711659  1
  O  O11  1  0.288035  0.712090  0.288215  1
  O  O12  1  0.288035  0.712090  0.711659  1
  O  O13  1  0.712090  0.288035  0.288215  1
  O  O14  1  0.538806  0.538806  0.961194  1
  O  O15  1  0.962428  0.962428  0.537572  1
  O  O16  1  0.537910  0.961965  0.538341  1
  O  O17  1  0.961965  0.537910  0.961785  1
  O  O18  1  0.961965  0.537910  0.538341  1
  O  O19  1  0.537910  0.961965  0.961785  1
  O  O20  1  0.249646  0.249646  0.250354  1
  O  O21  1  0.000354  0.000354  0.999646  1
