# generated using pymatgen
data_Dy4Lu12AlCd3Ni4
_symmetry_space_group_name_H-M   'P 1'
_cell_length_a   9.37017043
_cell_length_b   9.37017178
_cell_length_c   9.37017131
_cell_angle_alpha   60.10393692
_cell_angle_beta   60.10394197
_cell_angle_gamma   60.10394266
_symmetry_Int_Tables_number   1
_chemical_formula_structural   Dy4Lu12AlCd3Ni4
_chemical_formula_sum   'Dy4 Lu12 Al1 Cd3 Ni4'
_cell_volume   583.10820899
_cell_formula_units_Z   1
loop_
 _symmetry_equiv_pos_site_id
 _symmetry_equiv_pos_as_xyz
  1  'x, y, z'
loop_
 _atom_site_type_symbol
 _atom_site_label
 _atom_site_symmetry_multiplicity
 _atom_site_fract_x
 _atom_site_fract_y
 _atom_site_fract_z
 _atom_site_occupancy
  Dy  Dy0  1  0.350245  0.350245  0.350245  1
  Dy  Dy1  1  0.351508  0.351508  0.947408  1
  Dy  Dy2  1  0.351508  0.947408  0.351508  1
  Dy  Dy3  1  0.947408  0.351508  0.351508  1
  Lu  Lu4  1  0.812205  0.187631  0.187631  1
  Lu  Lu5  1  0.190623  0.810403  0.810403  1
  Lu  Lu6  1  0.187631  0.812205  0.187631  1
  Lu  Lu7  1  0.810403  0.190623  0.810403  1
  Lu  Lu8  1  0.187631  0.187631  0.812205  1
  Lu  Lu9  1  0.810403  0.810403  0.190623  1
  Lu  Lu10  1  0.933324  0.565003  0.565003  1
  Lu  Lu11  1  0.564459  0.935699  0.935699  1
  Lu  Lu12  1  0.565003  0.933324  0.565003  1
  Lu  Lu13  1  0.935699  0.564459  0.935699  1
  Lu  Lu14  1  0.565003  0.565003  0.933324  1
  Lu  Lu15  1  0.935699  0.935699  0.564459  1
  Al  Al16  1  0.581604  0.581604  0.581604  1
  Cd  Cd17  1  0.582685  0.582685  0.254279  1
  Cd  Cd18  1  0.582685  0.254279  0.582685  1
  Cd  Cd19  1  0.254279  0.582685  0.582685  1
  Ni  Ni20  1  0.141852  0.141852  0.141852  1
  Ni  Ni21  1  0.141362  0.141362  0.575418  1
  Ni  Ni22  1  0.141362  0.575418  0.141362  1
  Ni  Ni23  1  0.575418  0.141362  0.141362  1
