# generated using pymatgen
data_Sm4Y5Er11Pb16
_symmetry_space_group_name_H-M   'P 1'
_cell_length_a   8.18472422
_cell_length_b   8.29273848
_cell_length_c   15.61896071
_cell_angle_alpha   90.11953973
_cell_angle_beta   90.20265107
_cell_angle_gamma   90.19469700
_symmetry_Int_Tables_number   1
_chemical_formula_structural   Sm4Y5Er11Pb16
_chemical_formula_sum   'Sm4 Y5 Er11 Pb16'
_cell_volume   1060.10277876
_cell_formula_units_Z   1
loop_
 _symmetry_equiv_pos_site_id
 _symmetry_equiv_pos_as_xyz
  1  'x, y, z'
loop_
 _atom_site_type_symbol
 _atom_site_label
 _atom_site_symmetry_multiplicity
 _atom_site_fract_x
 _atom_site_fract_y
 _atom_site_fract_z
 _atom_site_occupancy
  Sm  Sm0  1  0.525671  0.322466  0.403135  1
  Sm  Sm1  1  0.025763  0.177435  0.096714  1
  Sm  Sm2  1  0.474450  0.678127  0.903766  1
  Sm  Sm3  1  0.973843  0.822331  0.596585  1
  Y  Y4  1  0.130812  0.342280  0.621874  1
  Y  Y5  1  0.470318  0.678029  0.598367  1
  Y  Y6  1  0.971439  0.822793  0.902221  1
  Y  Y7  1  0.529250  0.322799  0.098185  1
  Y  Y8  1  0.030305  0.176033  0.400676  1
  Er  Er9  1  0.631783  0.158374  0.622596  1
  Er  Er10  1  0.131941  0.342183  0.877824  1
  Er  Er11  1  0.367618  0.842080  0.122436  1
  Er  Er12  1  0.867834  0.657579  0.377585  1
  Er  Er13  1  0.369257  0.842648  0.376750  1
  Er  Er14  1  0.868535  0.657185  0.122686  1
  Er  Er15  1  0.631598  0.157332  0.877844  1
  Er  Er16  1  0.798592  0.495151  0.750346  1
  Er  Er17  1  0.299172  0.004896  0.750144  1
  Er  Er18  1  0.201064  0.505002  0.249886  1
  Er  Er19  1  0.701215  0.995038  0.249991  1
  Pb  Pb20  1  0.711780  0.963055  0.456390  1
  Pb  Pb21  1  0.210807  0.537200  0.043609  1
  Pb  Pb22  1  0.289277  0.037958  0.956692  1
  Pb  Pb23  1  0.786270  0.464019  0.543616  1
  Pb  Pb24  1  0.291945  0.038788  0.541775  1
  Pb  Pb25  1  0.791016  0.459629  0.958034  1
  Pb  Pb26  1  0.709024  0.959163  0.042321  1
  Pb  Pb27  1  0.209082  0.541238  0.457046  1
  Pb  Pb28  1  0.436736  0.373698  0.750556  1
  Pb  Pb29  1  0.936011  0.125476  0.750657  1
  Pb  Pb30  1  0.563422  0.626082  0.249701  1
  Pb  Pb31  1  0.063226  0.873233  0.249951  1
  Pb  Pb32  1  0.660718  0.845993  0.749351  1
  Pb  Pb33  1  0.160348  0.654771  0.751236  1
  Pb  Pb34  1  0.339968  0.154414  0.248740  1
  Pb  Pb35  1  0.839913  0.345520  0.250717  1
