# generated using pymatgen
data_Pr2YPa(Al3Rh)6
_symmetry_space_group_name_H-M   'P 1'
_cell_length_a   7.63193132
_cell_length_b   7.62550565
_cell_length_c   9.52370000
_cell_angle_alpha   90.00000000
_cell_angle_beta   90.00000000
_cell_angle_gamma   119.43662842
_symmetry_Int_Tables_number   1
_chemical_formula_structural   Pr2YPa(Al3Rh)6
_chemical_formula_sum   'Pr2 Y1 Pa1 Al18 Rh6'
_cell_volume   482.69966894
_cell_formula_units_Z   1
loop_
 _symmetry_equiv_pos_site_id
 _symmetry_equiv_pos_as_xyz
  1  'x, y, z'
loop_
 _atom_site_type_symbol
 _atom_site_label
 _atom_site_symmetry_multiplicity
 _atom_site_fract_x
 _atom_site_fract_y
 _atom_site_fract_z
 _atom_site_occupancy
  Pr  Pr0  1  0.005443  0.329160  0.750000  1
  Pr  Pr1  1  0.672294  0.994481  0.250000  1
  Y  Y2  1  0.328253  0.004288  0.750000  1
  Pa  Pa3  1  0.995861  0.672171  0.250000  1
  Al  Al4  1  0.134580  0.129945  0.250000  1
  Al  Al5  1  0.872613  0.870986  0.750000  1
  Al  Al6  1  0.003088  0.335632  0.075840  1
  Al  Al7  1  0.999183  0.666605  0.923892  1
  Al  Al8  1  0.999183  0.666605  0.576108  1
  Al  Al9  1  0.336289  0.002823  0.426480  1
  Al  Al10  1  0.003088  0.335632  0.424160  1
  Al  Al11  1  0.662315  0.997625  0.576801  1
  Al  Al12  1  0.662315  0.997625  0.923199  1
  Al  Al13  1  0.336289  0.002823  0.073520  1
  Al  Al14  1  0.334037  0.332192  0.550963  1
  Al  Al15  1  0.664276  0.664670  0.453247  1
  Al  Al16  1  0.664276  0.664670  0.046753  1
  Al  Al17  1  0.334037  0.332192  0.949037  1
  Al  Al18  1  0.336786  0.546453  0.250000  1
  Al  Al19  1  0.656571  0.448851  0.750000  1
  Al  Al20  1  0.549008  0.345606  0.250000  1
  Al  Al21  1  0.451786  0.661680  0.750000  1
  Rh  Rh22  1  0.672576  0.330473  0.002069  1
  Rh  Rh23  1  0.326580  0.671816  0.002128  1
  Rh  Rh24  1  0.326580  0.671816  0.497872  1
  Rh  Rh25  1  0.672576  0.330473  0.497931  1
  Rh  Rh26  1  0.000059  0.996353  0.002942  1
  Rh  Rh27  1  0.000059  0.996353  0.497058  1
