# generated using pymatgen
data_Ti8V12Si15Ge
_symmetry_space_group_name_H-M   'P 1'
_cell_length_a   6.32866810
_cell_length_b   6.45945534
_cell_length_c   12.31191315
_cell_angle_alpha   90.05668476
_cell_angle_beta   90.06434714
_cell_angle_gamma   89.96032536
_symmetry_Int_Tables_number   1
_chemical_formula_structural   Ti8V12Si15Ge
_chemical_formula_sum   'Ti8 V12 Si15 Ge1'
_cell_volume   503.30723482
_cell_formula_units_Z   1
loop_
 _symmetry_equiv_pos_site_id
 _symmetry_equiv_pos_as_xyz
  1  'x, y, z'
loop_
 _atom_site_type_symbol
 _atom_site_label
 _atom_site_symmetry_multiplicity
 _atom_site_fract_x
 _atom_site_fract_y
 _atom_site_fract_z
 _atom_site_occupancy
  Ti  Ti0  1  0.007673  0.172822  0.092393  1
  Ti  Ti1  1  0.505262  0.324442  0.404726  1
  Ti  Ti2  1  0.492540  0.672016  0.907857  1
  Ti  Ti3  1  0.992859  0.829591  0.592726  1
  Ti  Ti4  1  0.992513  0.826968  0.908072  1
  Ti  Ti5  1  0.486923  0.676537  0.594138  1
  Ti  Ti6  1  0.508085  0.327773  0.092622  1
  Ti  Ti7  1  0.009849  0.171129  0.405917  1
  V  V8  1  0.663168  0.992745  0.250015  1
  V  V9  1  0.162524  0.507553  0.250057  1
  V  V10  1  0.837573  0.491718  0.752191  1
  V  V11  1  0.337705  0.007330  0.749806  1
  V  V12  1  0.838086  0.668347  0.124805  1
  V  V13  1  0.337769  0.833295  0.374399  1
  V  V14  1  0.662070  0.167709  0.875404  1
  V  V15  1  0.164439  0.332469  0.625520  1
  V  V16  1  0.162240  0.331756  0.875267  1
  V  V17  1  0.658816  0.162345  0.627056  1
  V  V18  1  0.339118  0.831593  0.124787  1
  V  V19  1  0.841395  0.671111  0.372916  1
  Si  Si20  1  0.802715  0.354789  0.249642  1
  Si  Si21  1  0.302391  0.145136  0.248672  1
  Si  Si22  1  0.698377  0.853046  0.751007  1
  Si  Si23  1  0.196498  0.645666  0.750659  1
  Si  Si24  1  0.037422  0.885903  0.248683  1
  Si  Si25  1  0.536929  0.615191  0.250034  1
  Si  Si26  1  0.463757  0.385657  0.750679  1
  Si  Si27  1  0.963814  0.114811  0.750097  1
  Si  Si28  1  0.825743  0.460994  0.961105  1
  Si  Si29  1  0.324816  0.039770  0.538688  1
  Si  Si30  1  0.674599  0.961455  0.039383  1
  Si  Si31  1  0.178525  0.539283  0.460134  1
  Si  Si32  1  0.174334  0.538359  0.039636  1
  Si  Si33  1  0.674597  0.961077  0.460578  1
  Si  Si34  1  0.325932  0.038497  0.960735  1
  Ge  Ge35  1  0.818937  0.461115  0.539597  1
