# generated using pymatgen
data_Tb12Tm8Si15Rh
_symmetry_space_group_name_H-M   'P 1'
_cell_length_a   7.34627164
_cell_length_b   7.73120312
_cell_length_c   14.48669900
_cell_angle_alpha   90.00441694
_cell_angle_beta   90.11042256
_cell_angle_gamma   90.00895875
_symmetry_Int_Tables_number   1
_chemical_formula_structural   Tb12Tm8Si15Rh
_chemical_formula_sum   'Tb12 Tm8 Si15 Rh1'
_cell_volume   822.77803661
_cell_formula_units_Z   1
loop_
 _symmetry_equiv_pos_site_id
 _symmetry_equiv_pos_as_xyz
  1  'x, y, z'
loop_
 _atom_site_type_symbol
 _atom_site_label
 _atom_site_symmetry_multiplicity
 _atom_site_fract_x
 _atom_site_fract_y
 _atom_site_fract_z
 _atom_site_occupancy
  Tb  Tb0  1  0.319437  0.820119  0.376642  1
  Tb  Tb1  1  0.817152  0.676161  0.123303  1
  Tb  Tb2  1  0.673016  0.182861  0.874881  1
  Tb  Tb3  1  0.191907  0.326086  0.626063  1
  Tb  Tb4  1  0.522620  0.677314  0.594911  1
  Tb  Tb5  1  0.023641  0.818768  0.904287  1
  Tb  Tb6  1  0.474305  0.315676  0.097940  1
  Tb  Tb7  1  0.975693  0.181407  0.402670  1
  Tb  Tb8  1  0.476593  0.316187  0.403143  1
  Tb  Tb9  1  0.975627  0.181738  0.096849  1
  Tb  Tb10  1  0.519905  0.676067  0.905591  1
  Tb  Tb11  1  0.022790  0.818352  0.595201  1
  Tm  Tm12  1  0.673951  0.183366  0.625818  1
  Tm  Tm13  1  0.191106  0.326446  0.873105  1
  Tm  Tm14  1  0.318062  0.820113  0.124812  1
  Tm  Tm15  1  0.817931  0.676092  0.375434  1
  Tm  Tm16  1  0.841117  0.512799  0.749591  1
  Tm  Tm17  1  0.352288  0.982026  0.749905  1
  Tm  Tm18  1  0.150717  0.485389  0.249804  1
  Tm  Tm19  1  0.650149  0.012459  0.250569  1
  Si  Si20  1  0.653031  0.969707  0.461857  1
  Si  Si21  1  0.153524  0.529169  0.038597  1
  Si  Si22  1  0.344895  0.027742  0.961935  1
  Si  Si23  1  0.850918  0.469458  0.538529  1
  Si  Si24  1  0.352406  0.026513  0.540602  1
  Si  Si25  1  0.858408  0.470094  0.958653  1
  Si  Si26  1  0.643288  0.969985  0.040181  1
  Si  Si27  1  0.146143  0.528371  0.459429  1
  Si  Si28  1  0.979962  0.103571  0.749753  1
  Si  Si29  1  0.521330  0.603414  0.250266  1
  Si  Si30  1  0.019358  0.894091  0.249649  1
  Si  Si31  1  0.737517  0.876166  0.749144  1
  Si  Si32  1  0.225721  0.634172  0.751164  1
  Si  Si33  1  0.269574  0.128472  0.249684  1
  Si  Si34  1  0.771719  0.369474  0.250641  1
  Rh  Rh35  1  0.484200  0.410179  0.749393  1
