# generated using pymatgen
data_V3GaH2
_symmetry_space_group_name_H-M   'P 1'
_cell_length_a   4.93921395
_cell_length_b   4.93921390
_cell_length_c   4.94014200
_cell_angle_alpha   90.00000000
_cell_angle_beta   90.00000000
_cell_angle_gamma   90.06346470
_symmetry_Int_Tables_number   1
_chemical_formula_structural   V3GaH2
_chemical_formula_sum   'V6 Ga2 H4'
_cell_volume   120.51881131
_cell_formula_units_Z   2
loop_
 _symmetry_equiv_pos_site_id
 _symmetry_equiv_pos_as_xyz
  1  'x, y, z'
loop_
 _atom_site_type_symbol
 _atom_site_label
 _atom_site_symmetry_multiplicity
 _atom_site_fract_x
 _atom_site_fract_y
 _atom_site_fract_z
 _atom_site_occupancy
  V  V0  1  0.740524  0.986939  0.750000  1
  V  V1  1  0.986939  0.740524  0.250000  1
  V  V2  1  0.511345  0.511345  0.500000  1
  V  V3  1  0.257603  0.989382  0.750000  1
  V  V4  1  0.989382  0.257603  0.250000  1
  V  V5  1  0.511345  0.511345  0.000000  1
  Ga  Ga6  1  0.498871  0.001476  0.250000  1
  Ga  Ga7  1  0.001476  0.498871  0.750000  1
  H  H8  1  0.000334  0.000334  0.500000  1
  H  H9  1  0.252329  0.499516  0.250000  1
  H  H10  1  0.499516  0.252329  0.750000  1
  H  H11  1  0.000334  0.000334  0.000000  1
