# generated using pymatgen
data_Lu4Zr2FeTe2
_symmetry_space_group_name_H-M   'P 1'
_cell_length_a   8.08732782
_cell_length_b   8.08732860
_cell_length_c   3.82034800
_cell_angle_alpha   90.00000000
_cell_angle_beta   90.00000000
_cell_angle_gamma   120.98177209
_symmetry_Int_Tables_number   1
_chemical_formula_structural   Lu4Zr2FeTe2
_chemical_formula_sum   'Lu4 Zr2 Fe1 Te2'
_cell_volume   214.22080418
_cell_formula_units_Z   1
loop_
 _symmetry_equiv_pos_site_id
 _symmetry_equiv_pos_as_xyz
  1  'x, y, z'
loop_
 _atom_site_type_symbol
 _atom_site_label
 _atom_site_symmetry_multiplicity
 _atom_site_fract_x
 _atom_site_fract_y
 _atom_site_fract_z
 _atom_site_occupancy
  Lu  Lu0  1  0.765823  0.765823  0.500000  1
  Lu  Lu1  1  0.003834  0.603952  0.000000  1
  Lu  Lu2  1  0.603952  0.003834  0.000000  1
  Lu  Lu3  1  0.378264  0.378264  0.000000  1
  Zr  Zr4  1  0.226775  0.991323  0.500000  1
  Zr  Zr5  1  0.991323  0.226775  0.500000  1
  Fe  Fe6  1  0.035458  0.035458  0.000000  1
  Te  Te7  1  0.663895  0.330676  0.500000  1
  Te  Te8  1  0.330676  0.663895  0.500000  1
