# generated using pymatgen
data_La6CdSn5Pd6
_symmetry_space_group_name_H-M   'P 1'
_cell_length_a   7.70544900
_cell_length_b   7.64854958
_cell_length_c   8.42209000
_cell_angle_alpha   89.96753372
_cell_angle_beta   90.00000000
_cell_angle_gamma   120.24639047
_symmetry_Int_Tables_number   1
_chemical_formula_structural   La6CdSn5Pd6
_chemical_formula_sum   'La6 Cd1 Sn5 Pd6'
_cell_volume   428.78918836
_cell_formula_units_Z   1
loop_
 _symmetry_equiv_pos_site_id
 _symmetry_equiv_pos_as_xyz
  1  'x, y, z'
loop_
 _atom_site_type_symbol
 _atom_site_label
 _atom_site_symmetry_multiplicity
 _atom_site_fract_x
 _atom_site_fract_y
 _atom_site_fract_z
 _atom_site_occupancy
  La  La0  1  0.414114  0.000284  0.247942  1
  La  La1  1  0.586775  0.586691  0.248972  1
  La  La2  1  0.998970  0.412831  0.249037  1
  La  La3  1  0.413830  0.999716  0.752058  1
  La  La4  1  0.586139  0.587169  0.750963  1
  La  La5  1  0.000084  0.413309  0.751028  1
  Cd  Cd6  1  0.750575  0.000000  0.000000  1
  Sn  Sn7  1  0.254796  0.253211  0.499911  1
  Sn  Sn8  1  0.001585  0.746789  0.500089  1
  Sn  Sn9  1  0.995929  0.756280  0.999904  1
  Sn  Sn10  1  0.239650  0.243720  0.000096  1
  Sn  Sn11  1  0.750071  0.000000  0.500000  1
  Pd  Pd12  1  0.323589  0.660767  0.000796  1
  Pd  Pd13  1  0.335760  0.666641  0.499030  1
  Pd  Pd14  1  0.662823  0.339233  0.999204  1
  Pd  Pd15  1  0.669119  0.333359  0.500970  1
  Pd  Pd16  1  0.008016  0.999839  0.256868  1
  Pd  Pd17  1  0.008177  0.000161  0.743132  1
