# generated using pymatgen
data_Hf6Tl4BCl18
_symmetry_space_group_name_H-M   'P 1'
_cell_length_a   10.30452124
_cell_length_b   10.30451989
_cell_length_c   9.99014300
_cell_angle_alpha   77.27735170
_cell_angle_beta   77.27734771
_cell_angle_gamma   117.54576143
_symmetry_Int_Tables_number   1
_chemical_formula_structural   Hf6Tl4BCl18
_chemical_formula_sum   'Hf6 Tl4 B1 Cl18'
_cell_volume   851.45360472
_cell_formula_units_Z   1
loop_
 _symmetry_equiv_pos_site_id
 _symmetry_equiv_pos_as_xyz
  1  'x, y, z'
loop_
 _atom_site_type_symbol
 _atom_site_label
 _atom_site_symmetry_multiplicity
 _atom_site_fract_x
 _atom_site_fract_y
 _atom_site_fract_z
 _atom_site_occupancy
  Hf  Hf0  1  0.123828  0.123828  0.142445  1
  Hf  Hf1  1  0.876172  0.876172  0.857555  1
  Hf  Hf2  1  0.945713  0.763189  0.151710  1
  Hf  Hf3  1  0.236811  0.054287  0.848290  1
  Hf  Hf4  1  0.054287  0.236811  0.848290  1
  Hf  Hf5  1  0.763189  0.945713  0.151710  1
  Tl  Tl6  1  0.771623  0.448186  0.678220  1
  Tl  Tl7  1  0.551814  0.228377  0.321780  1
  Tl  Tl8  1  0.228377  0.551814  0.321780  1
  Tl  Tl9  1  0.448186  0.771623  0.678220  1
  B  B10  1  0.000000  0.000000  0.000000  1
  Cl  Cl11  1  0.809910  0.604802  0.009021  1
  Cl  Cl12  1  0.395199  0.190090  0.990979  1
  Cl  Cl13  1  0.190090  0.395199  0.990979  1
  Cl  Cl14  1  0.604801  0.809910  0.009021  1
  Cl  Cl15  1  0.201925  0.798075  0.000000  1
  Cl  Cl16  1  0.798075  0.201925  0.000000  1
  Cl  Cl17  1  0.320436  0.320436  0.671006  1
  Cl  Cl18  1  0.679564  0.679564  0.328994  1
  Cl  Cl19  1  0.887774  0.494009  0.327760  1
  Cl  Cl20  1  0.505991  0.112226  0.672240  1
  Cl  Cl21  1  0.112226  0.505991  0.672240  1
  Cl  Cl22  1  0.494009  0.887774  0.327760  1
  Cl  Cl23  1  0.265316  0.265316  0.298594  1
  Cl  Cl24  1  0.734684  0.734684  0.701406  1
  Cl  Cl25  1  0.079407  0.875801  0.317375  1
  Cl  Cl26  1  0.124199  0.920593  0.682625  1
  Cl  Cl27  1  0.920593  0.124199  0.682625  1
  Cl  Cl28  1  0.875801  0.079407  0.317375  1
