# generated using pymatgen
data_HoEr3(B6Ir)2
_symmetry_space_group_name_H-M   'P 1'
_cell_length_a   3.62434400
_cell_length_b   9.15017301
_cell_length_c   11.49290500
_cell_angle_alpha   90.00214223
_cell_angle_beta   90.00000000
_cell_angle_gamma   90.00000000
_symmetry_Int_Tables_number   1
_chemical_formula_structural   HoEr3(B6Ir)2
_chemical_formula_sum   'Ho2 Er6 B24 Ir4'
_cell_volume   381.14351393
_cell_formula_units_Z   2
loop_
 _symmetry_equiv_pos_site_id
 _symmetry_equiv_pos_as_xyz
  1  'x, y, z'
loop_
 _atom_site_type_symbol
 _atom_site_label
 _atom_site_symmetry_multiplicity
 _atom_site_fract_x
 _atom_site_fract_y
 _atom_site_fract_z
 _atom_site_occupancy
  Ho  Ho0  1  0.500000  0.322142  0.413192  1
  Ho  Ho1  1  0.500000  0.677858  0.586808  1
  Er  Er2  1  0.500000  0.177977  0.913233  1
  Er  Er3  1  0.500000  0.822023  0.086767  1
  Er  Er4  1  0.500000  0.444512  0.125312  1
  Er  Er5  1  0.500000  0.555488  0.874688  1
  Er  Er6  1  0.500000  0.055520  0.625550  1
  Er  Er7  1  0.500000  0.944480  0.374450  1
  B  B8  1  0.000000  0.109734  0.470073  1
  B  B9  1  0.000000  0.890266  0.529927  1
  B  B10  1  0.000000  0.389526  0.969878  1
  B  B11  1  0.000000  0.610474  0.030122  1
  B  B12  1  0.000000  0.132393  0.315876  1
  B  B13  1  0.000000  0.867607  0.684124  1
  B  B14  1  0.000000  0.367392  0.816161  1
  B  B15  1  0.000000  0.632608  0.183839  1
  B  B16  1  0.000000  0.053425  0.065894  1
  B  B17  1  0.000000  0.946575  0.934106  1
  B  B18  1  0.000000  0.446443  0.566250  1
  B  B19  1  0.000000  0.553557  0.433750  1
  B  B20  1  0.000000  0.482141  0.286731  1
  B  B21  1  0.000000  0.517859  0.713269  1
  B  B22  1  0.000000  0.018057  0.787086  1
  B  B23  1  0.000000  0.981943  0.212914  1
  B  B24  1  0.000000  0.249796  0.079093  1
  B  B25  1  0.000000  0.750204  0.920907  1
  B  B26  1  0.000000  0.250001  0.579456  1
  B  B27  1  0.000000  0.749999  0.420544  1
  B  B28  1  0.000000  0.293736  0.234641  1
  B  B29  1  0.000000  0.706264  0.765359  1
  B  B30  1  0.000000  0.206057  0.735097  1
  B  B31  1  0.000000  0.793943  0.264903  1
  Ir  Ir32  1  0.500000  0.138715  0.178725  1
  Ir  Ir33  1  0.500000  0.861285  0.821275  1
  Ir  Ir34  1  0.500000  0.360869  0.679324  1
  Ir  Ir35  1  0.500000  0.639131  0.320676  1
