# generated using pymatgen
data_Cs(Ti3Te4)4
_symmetry_space_group_name_H-M   'P 1'
_cell_length_a   7.64663701
_cell_length_b   10.73608239
_cell_length_c   11.38580322
_cell_angle_alpha   118.06182043
_cell_angle_beta   109.59303532
_cell_angle_gamma   90.02285210
_symmetry_Int_Tables_number   1
_chemical_formula_structural   Cs(Ti3Te4)4
_chemical_formula_sum   'Cs1 Ti12 Te16'
_cell_volume   762.88248067
_cell_formula_units_Z   1
loop_
 _symmetry_equiv_pos_site_id
 _symmetry_equiv_pos_as_xyz
  1  'x, y, z'
loop_
 _atom_site_type_symbol
 _atom_site_label
 _atom_site_symmetry_multiplicity
 _atom_site_fract_x
 _atom_site_fract_y
 _atom_site_fract_z
 _atom_site_occupancy
  Cs  Cs0  1  0.500000  0.000000  0.000000  1
  Ti  Ti1  1  0.123219  0.129849  0.491223  1
  Ti  Ti2  1  0.619717  0.127949  0.493971  1
  Ti  Ti3  1  0.309444  0.363093  0.870972  1
  Ti  Ti4  1  0.812204  0.365506  0.870990  1
  Ti  Ti5  1  0.190143  0.506129  0.633746  1
  Ti  Ti6  1  0.696515  0.508925  0.638462  1
  Ti  Ti7  1  0.380283  0.872051  0.506029  1
  Ti  Ti8  1  0.876781  0.870151  0.508777  1
  Ti  Ti9  1  0.187796  0.634494  0.129010  1
  Ti  Ti10  1  0.690556  0.636907  0.129028  1
  Ti  Ti11  1  0.303485  0.491075  0.361538  1
  Ti  Ti12  1  0.809857  0.493871  0.366254  1
  Te  Te13  1  0.726735  0.053000  0.704902  1
  Te  Te14  1  0.223197  0.053392  0.699173  1
  Te  Te15  1  0.849827  0.652426  0.948008  1
  Te  Te16  1  0.345895  0.646107  0.945980  1
  Te  Te17  1  0.550762  0.300240  0.354275  1
  Te  Te18  1  0.048470  0.295186  0.347208  1
  Te  Te19  1  0.776803  0.946608  0.300827  1
  Te  Te20  1  0.273265  0.947000  0.295098  1
  Te  Te21  1  0.654105  0.353893  0.054020  1
  Te  Te22  1  0.150173  0.347574  0.051992  1
  Te  Te23  1  0.951530  0.704814  0.652792  1
  Te  Te24  1  0.449238  0.699760  0.645725  1
  Te  Te25  1  0.957918  0.332150  0.665478  1
  Te  Te26  1  0.458772  0.334412  0.667329  1
  Te  Te27  1  0.541228  0.665588  0.332671  1
  Te  Te28  1  0.042082  0.667850  0.334522  1
