# generated using pymatgen
data_KLa2TbB24
_symmetry_space_group_name_H-M   'P 1'
_cell_length_a   7.17948115
_cell_length_b   7.17948649
_cell_length_c   5.89754100
_cell_angle_alpha   90.00000000
_cell_angle_beta   90.00000000
_cell_angle_gamma   109.25970505
_symmetry_Int_Tables_number   1
_chemical_formula_structural   KLa2TbB24
_chemical_formula_sum   'K1 La2 Tb1 B24'
_cell_volume   286.97539487
_cell_formula_units_Z   1
loop_
 _symmetry_equiv_pos_site_id
 _symmetry_equiv_pos_as_xyz
  1  'x, y, z'
loop_
 _atom_site_type_symbol
 _atom_site_label
 _atom_site_symmetry_multiplicity
 _atom_site_fract_x
 _atom_site_fract_y
 _atom_site_fract_z
 _atom_site_occupancy
  K  K0  1  0.000000  0.000000  0.000000  1
  La  La1  1  0.751444  0.248554  0.500000  1
  La  La2  1  0.248556  0.751446  0.500000  1
  Tb  Tb3  1  0.500000  0.500000  0.000000  1
  B  B4  1  0.176365  0.325983  0.649653  1
  B  B5  1  0.924141  0.574740  0.148569  1
  B  B6  1  0.674018  0.823636  0.649653  1
  B  B7  1  0.425260  0.075859  0.148569  1
  B  B8  1  0.176365  0.325983  0.350347  1
  B  B9  1  0.924141  0.574740  0.851431  1
  B  B10  1  0.674018  0.823636  0.350347  1
  B  B11  1  0.425260  0.075859  0.851431  1
  B  B12  1  0.400373  0.400373  0.500000  1
  B  B13  1  0.148774  0.650517  0.000000  1
  B  B14  1  0.898767  0.898768  0.500000  1
  B  B15  1  0.650517  0.148775  0.000000  1
  B  B16  1  0.325982  0.176364  0.649653  1
  B  B17  1  0.075859  0.425260  0.148569  1
  B  B18  1  0.823635  0.674017  0.649653  1
  B  B19  1  0.574740  0.924141  0.148569  1
  B  B20  1  0.101233  0.101232  0.500000  1
  B  B21  1  0.851226  0.349483  0.000000  1
  B  B22  1  0.599627  0.599627  0.500000  1
  B  B23  1  0.349483  0.851225  0.000000  1
  B  B24  1  0.325982  0.176364  0.350347  1
  B  B25  1  0.075859  0.425260  0.851431  1
  B  B26  1  0.823635  0.674017  0.350347  1
  B  B27  1  0.574740  0.924141  0.851431  1
