# generated using pymatgen
data_NdAg3Ru2(PtO7)2
_symmetry_space_group_name_H-M   'P 1'
_cell_length_a   7.24376049
_cell_length_b   7.19079219
_cell_length_c   7.28980242
_cell_angle_alpha   60.44827720
_cell_angle_beta   60.48536801
_cell_angle_gamma   60.24159001
_symmetry_Int_Tables_number   1
_chemical_formula_structural   NdAg3Ru2(PtO7)2
_chemical_formula_sum   'Nd1 Ag3 Ru2 Pt2 O14'
_cell_volume   270.87431156
_cell_formula_units_Z   1
loop_
 _symmetry_equiv_pos_site_id
 _symmetry_equiv_pos_as_xyz
  1  'x, y, z'
loop_
 _atom_site_type_symbol
 _atom_site_label
 _atom_site_symmetry_multiplicity
 _atom_site_fract_x
 _atom_site_fract_y
 _atom_site_fract_z
 _atom_site_occupancy
  Nd  Nd0  1  0.125000  0.125000  0.625000  1
  Ag  Ag1  1  0.625000  0.125000  0.125000  1
  Ag  Ag2  1  0.125000  0.625000  0.125000  1
  Ag  Ag3  1  0.125000  0.125000  0.125000  1
  Ru  Ru4  1  0.125000  0.625000  0.625000  1
  Ru  Ru5  1  0.625000  0.625000  0.125000  1
  Pt  Pt6  1  0.625000  0.125000  0.625000  1
  Pt  Pt7  1  0.625000  0.625000  0.625000  1
  O  O8  1  0.710461  0.687815  0.297257  1
  O  O9  1  0.291285  0.296961  0.708428  1
  O  O10  1  0.712438  0.286466  0.714630  1
  O  O11  1  0.322661  0.675813  0.325711  1
  O  O12  1  0.291285  0.703325  0.708428  1
  O  O13  1  0.710461  0.304466  0.297257  1
  O  O14  1  0.539539  0.562185  0.952743  1
  O  O15  1  0.958715  0.953039  0.541572  1
  O  O16  1  0.537562  0.963534  0.535370  1
  O  O17  1  0.927339  0.574187  0.924289  1
  O  O18  1  0.958715  0.546675  0.541572  1
  O  O19  1  0.539539  0.945534  0.952743  1
  O  O20  1  0.258993  0.260128  0.220751  1
  O  O21  1  0.991007  0.989872  0.029249  1
