# generated using pymatgen
data_Nd3LuIr3RhO14
_symmetry_space_group_name_H-M   'P 1'
_cell_length_a   7.35094014
_cell_length_b   7.35093890
_cell_length_c   7.31231243
_cell_angle_alpha   59.82509595
_cell_angle_beta   59.82510334
_cell_angle_gamma   60.00000669
_symmetry_Int_Tables_number   1
_chemical_formula_structural   Nd3LuIr3RhO14
_chemical_formula_sum   'Nd3 Lu1 Ir3 Rh1 O14'
_cell_volume   278.65849078
_cell_formula_units_Z   1
loop_
 _symmetry_equiv_pos_site_id
 _symmetry_equiv_pos_as_xyz
  1  'x, y, z'
loop_
 _atom_site_type_symbol
 _atom_site_label
 _atom_site_symmetry_multiplicity
 _atom_site_fract_x
 _atom_site_fract_y
 _atom_site_fract_z
 _atom_site_occupancy
  Nd  Nd0  1  0.625000  0.125000  0.125000  1
  Nd  Nd1  1  0.125000  0.625000  0.125000  1
  Nd  Nd2  1  0.125000  0.125000  0.125000  1
  Lu  Lu3  1  0.125000  0.125000  0.625000  1
  Ir  Ir4  1  0.125000  0.625000  0.625000  1
  Ir  Ir5  1  0.625000  0.125000  0.625000  1
  Ir  Ir6  1  0.625000  0.625000  0.625000  1
  Rh  Rh7  1  0.625000  0.625000  0.125000  1
  O  O8  1  0.710572  0.710572  0.292844  1
  O  O9  1  0.292459  0.292459  0.693393  1
  O  O10  1  0.721689  0.292459  0.693393  1
  O  O11  1  0.286013  0.710572  0.292844  1
  O  O12  1  0.292459  0.721689  0.693393  1
  O  O13  1  0.710572  0.286013  0.292844  1
  O  O14  1  0.539428  0.539428  0.957156  1
  O  O15  1  0.957541  0.957541  0.556607  1
  O  O16  1  0.528311  0.957541  0.556607  1
  O  O17  1  0.963987  0.539428  0.957156  1
  O  O18  1  0.957541  0.528311  0.556607  1
  O  O19  1  0.539428  0.963987  0.957156  1
  O  O20  1  0.243707  0.243707  0.268880  1
  O  O21  1  0.006293  0.006293  0.981120  1
