# generated using pymatgen
data_DyTh7(AlRu)8
_symmetry_space_group_name_H-M   'P 1'
_cell_length_a   4.14393200
_cell_length_b   7.25662473
_cell_length_c   16.11508776
_cell_angle_alpha   89.60332697
_cell_angle_beta   90.00000000
_cell_angle_gamma   90.00000000
_symmetry_Int_Tables_number   1
_chemical_formula_structural   DyTh7(AlRu)8
_chemical_formula_sum   'Dy1 Th7 Al8 Ru8'
_cell_volume   484.58453670
_cell_formula_units_Z   1
loop_
 _symmetry_equiv_pos_site_id
 _symmetry_equiv_pos_as_xyz
  1  'x, y, z'
loop_
 _atom_site_type_symbol
 _atom_site_label
 _atom_site_symmetry_multiplicity
 _atom_site_fract_x
 _atom_site_fract_y
 _atom_site_fract_z
 _atom_site_occupancy
  Dy  Dy0  1  0.250000  0.541637  0.716481  1
  Th  Th1  1  0.750000  0.958844  0.217946  1
  Th  Th2  1  0.250000  0.166930  0.563188  1
  Th  Th3  1  0.750000  0.833407  0.439565  1
  Th  Th4  1  0.750000  0.458998  0.282514  1
  Th  Th5  1  0.750000  0.333881  0.060677  1
  Th  Th6  1  0.250000  0.665459  0.936132  1
  Th  Th7  1  0.250000  0.039573  0.780588  1
  Al  Al8  1  0.750000  0.503846  0.566278  1
  Al  Al9  1  0.750000  0.368876  0.845840  1
  Al  Al10  1  0.750000  0.004857  0.937300  1
  Al  Al11  1  0.750000  0.857841  0.650534  1
  Al  Al12  1  0.250000  0.496767  0.439402  1
  Al  Al13  1  0.250000  0.995818  0.060984  1
  Al  Al14  1  0.250000  0.635510  0.148901  1
  Al  Al15  1  0.250000  0.136148  0.351869  1
  Ru  Ru16  1  0.750000  0.749935  0.818749  1
  Ru  Ru17  1  0.250000  0.240593  0.934563  1
  Ru  Ru18  1  0.750000  0.261774  0.436567  1
  Ru  Ru19  1  0.250000  0.756057  0.315604  1
  Ru  Ru20  1  0.750000  0.760824  0.064117  1
  Ru  Ru21  1  0.750000  0.237170  0.685485  1
  Ru  Ru22  1  0.250000  0.253334  0.183419  1
  Ru  Ru23  1  0.250000  0.741921  0.563298  1
