# generated using pymatgen
data_Zr3AlP
_symmetry_space_group_name_H-M   'P 1'
_cell_length_a   7.20392600
_cell_length_b   7.22023400
_cell_length_c   3.66672700
_cell_angle_alpha   90.00000000
_cell_angle_beta   90.00000000
_cell_angle_gamma   90.00000000
_symmetry_Int_Tables_number   1
_chemical_formula_structural   Zr3AlP
_chemical_formula_sum   'Zr6 Al2 P2'
_cell_volume   190.72125346
_cell_formula_units_Z   2
loop_
 _symmetry_equiv_pos_site_id
 _symmetry_equiv_pos_as_xyz
  1  'x, y, z'
loop_
 _atom_site_type_symbol
 _atom_site_label
 _atom_site_symmetry_multiplicity
 _atom_site_fract_x
 _atom_site_fract_y
 _atom_site_fract_z
 _atom_site_occupancy
  Zr  Zr0  1  0.003306  0.007400  0.000000  1
  Zr  Zr1  1  0.503306  0.492600  0.000000  1
  Zr  Zr2  1  0.671522  0.183437  0.500000  1
  Zr  Zr3  1  0.171522  0.316563  0.500000  1
  Zr  Zr4  1  0.822896  0.659388  0.500000  1
  Zr  Zr5  1  0.322896  0.840612  0.500000  1
  Al  Al6  1  0.624508  0.876281  0.000000  1
  Al  Al7  1  0.124508  0.623719  0.000000  1
  P  P8  1  0.877768  0.376171  0.000000  1
  P  P9  1  0.377768  0.123829  0.000000  1
