# generated using pymatgen
data_Sr8Cd15PbAu12
_symmetry_space_group_name_H-M   'P 1'
_cell_length_a   15.35428800
_cell_length_b   15.35428896
_cell_length_c   4.58436000
_cell_angle_alpha   90.00000000
_cell_angle_beta   90.00000000
_cell_angle_gamma   120.00000223
_symmetry_Int_Tables_number   1
_chemical_formula_structural   Sr8Cd15PbAu12
_chemical_formula_sum   'Sr8 Cd15 Pb1 Au12'
_cell_volume   935.98465441
_cell_formula_units_Z   1
loop_
 _symmetry_equiv_pos_site_id
 _symmetry_equiv_pos_as_xyz
  1  'x, y, z'
loop_
 _atom_site_type_symbol
 _atom_site_label
 _atom_site_symmetry_multiplicity
 _atom_site_fract_x
 _atom_site_fract_y
 _atom_site_fract_z
 _atom_site_occupancy
  Sr  Sr0  1  0.450079  0.000000  0.000000  1
  Sr  Sr1  1  0.000000  0.450079  0.000000  1
  Sr  Sr2  1  0.549921  0.549921  0.000000  1
  Sr  Sr3  1  0.333333  0.666667  0.000000  1
  Sr  Sr4  1  0.666667  0.333333  0.000000  1
  Sr  Sr5  1  0.818639  0.000000  0.500000  1
  Sr  Sr6  1  0.000000  0.818639  0.500000  1
  Sr  Sr7  1  0.181361  0.181361  0.500000  1
  Cd  Cd8  1  0.181106  0.378512  0.000000  1
  Cd  Cd9  1  0.621488  0.802594  0.000000  1
  Cd  Cd10  1  0.378512  0.181106  0.000000  1
  Cd  Cd11  1  0.197406  0.818894  0.000000  1
  Cd  Cd12  1  0.802594  0.621488  0.000000  1
  Cd  Cd13  1  0.818894  0.197406  0.000000  1
  Cd  Cd14  1  0.281598  0.000000  0.500000  1
  Cd  Cd15  1  0.000000  0.281598  0.500000  1
  Cd  Cd16  1  0.718402  0.718402  0.500000  1
  Cd  Cd17  1  0.347352  0.471486  0.500000  1
  Cd  Cd18  1  0.528514  0.875866  0.500000  1
  Cd  Cd19  1  0.471486  0.347352  0.500000  1
  Cd  Cd20  1  0.124134  0.652648  0.500000  1
  Cd  Cd21  1  0.875866  0.528514  0.500000  1
  Cd  Cd22  1  0.652648  0.124134  0.500000  1
  Pb  Pb23  1  0.000000  0.000000  0.000000  1
  Au  Au24  1  0.170369  0.493315  0.500000  1
  Au  Au25  1  0.506685  0.677055  0.500000  1
  Au  Au26  1  0.493315  0.170369  0.500000  1
  Au  Au27  1  0.322945  0.829631  0.500000  1
  Au  Au28  1  0.677055  0.506685  0.500000  1
  Au  Au29  1  0.829631  0.322945  0.500000  1
  Au  Au30  1  0.180360  0.000000  0.000000  1
  Au  Au31  1  0.000000  0.180360  0.000000  1
  Au  Au32  1  0.819640  0.819640  0.000000  1
  Au  Au33  1  0.654928  0.000000  0.000000  1
  Au  Au34  1  0.000000  0.654928  0.000000  1
  Au  Au35  1  0.345072  0.345072  0.000000  1
