# generated using pymatgen
data_La5NdIrI10
_symmetry_space_group_name_H-M   'P 1'
_cell_length_a   8.15410988
_cell_length_b   10.10875081
_cell_length_c   10.21198725
_cell_angle_alpha   107.65338727
_cell_angle_beta   105.12176354
_cell_angle_gamma   96.59546238
_symmetry_Int_Tables_number   1
_chemical_formula_structural   La5NdIrI10
_chemical_formula_sum   'La5 Nd1 Ir1 I10'
_cell_volume   756.92919386
_cell_formula_units_Z   1
loop_
 _symmetry_equiv_pos_site_id
 _symmetry_equiv_pos_as_xyz
  1  'x, y, z'
loop_
 _atom_site_type_symbol
 _atom_site_label
 _atom_site_symmetry_multiplicity
 _atom_site_fract_x
 _atom_site_fract_y
 _atom_site_fract_z
 _atom_site_occupancy
  La  La0  1  0.357515  0.174527  0.130534  1
  La  La1  1  0.030202  0.908544  0.706565  1
  La  La2  1  0.967763  0.089584  0.292483  1
  La  La3  1  0.114665  0.763592  0.040604  1
  La  La4  1  0.882806  0.235386  0.957205  1
  Nd  Nd5  1  0.648370  0.829273  0.872791  1
  Ir  Ir6  1  0.000625  0.000672  0.000184  1
  I  I7  1  0.642151  0.728447  0.550595  1
  I  I8  1  0.354189  0.271457  0.454401  1
  I  I9  1  0.223821  0.651861  0.744325  1
  I  I10  1  0.783200  0.351498  0.257427  1
  I  I11  1  0.453902  0.086453  0.818800  1
  I  I12  1  0.547026  0.907388  0.176974  1
  I  I13  1  0.255210  0.462199  0.085265  1
  I  I14  1  0.739676  0.540269  0.912882  1
  I  I15  1  0.084352  0.818380  0.368738  1
  I  I16  1  0.914527  0.180472  0.630228  1
