# generated using pymatgen
data_Dy3Tm4ScAu4
_symmetry_space_group_name_H-M   'P 1'
_cell_length_a   4.85809600
_cell_length_b   7.07931705
_cell_length_c   8.78058611
_cell_angle_alpha   89.80669147
_cell_angle_beta   90.00000000
_cell_angle_gamma   90.00000000
_symmetry_Int_Tables_number   1
_chemical_formula_structural   Dy3Tm4ScAu4
_chemical_formula_sum   'Dy3 Tm4 Sc1 Au4'
_cell_volume   301.98021470
_cell_formula_units_Z   1
loop_
 _symmetry_equiv_pos_site_id
 _symmetry_equiv_pos_as_xyz
  1  'x, y, z'
loop_
 _atom_site_type_symbol
 _atom_site_label
 _atom_site_symmetry_multiplicity
 _atom_site_fract_x
 _atom_site_fract_y
 _atom_site_fract_z
 _atom_site_occupancy
  Dy  Dy0  1  0.250000  0.978091  0.322384  1
  Dy  Dy1  1  0.750000  0.516973  0.820375  1
  Dy  Dy2  1  0.750000  0.012843  0.673178  1
  Tm  Tm3  1  0.250000  0.851465  0.921683  1
  Tm  Tm4  1  0.250000  0.352157  0.575581  1
  Tm  Tm5  1  0.750000  0.149547  0.079181  1
  Tm  Tm6  1  0.250000  0.486203  0.181372  1
  Sc  Sc7  1  0.750000  0.646282  0.421060  1
  Au  Au8  1  0.250000  0.255682  0.901482  1
  Au  Au9  1  0.250000  0.749811  0.598141  1
  Au  Au10  1  0.750000  0.745558  0.107437  1
  Au  Au11  1  0.750000  0.255388  0.398127  1
