# generated using pymatgen
data_YbScMnB6
_symmetry_space_group_name_H-M   'P 1'
_cell_length_a   3.40372500
_cell_length_b   8.98973100
_cell_length_c   11.34754000
_cell_angle_alpha   90.00000000
_cell_angle_beta   90.00000000
_cell_angle_gamma   90.00000000
_symmetry_Int_Tables_number   1
_chemical_formula_structural   YbScMnB6
_chemical_formula_sum   'Yb4 Sc4 Mn4 B24'
_cell_volume   347.21852139
_cell_formula_units_Z   4
loop_
 _symmetry_equiv_pos_site_id
 _symmetry_equiv_pos_as_xyz
  1  'x, y, z'
loop_
 _atom_site_type_symbol
 _atom_site_label
 _atom_site_symmetry_multiplicity
 _atom_site_fract_x
 _atom_site_fract_y
 _atom_site_fract_z
 _atom_site_occupancy
  Yb  Yb0  1  0.500000  0.323333  0.414891  1
  Yb  Yb1  1  0.500000  0.676667  0.585109  1
  Yb  Yb2  1  0.500000  0.176667  0.914891  1
  Yb  Yb3  1  0.500000  0.823333  0.085109  1
  Sc  Sc4  1  0.500000  0.442960  0.131020  1
  Sc  Sc5  1  0.500000  0.557040  0.868980  1
  Sc  Sc6  1  0.500000  0.057040  0.631020  1
  Sc  Sc7  1  0.500000  0.942960  0.368980  1
  Mn  Mn8  1  0.500000  0.141338  0.182026  1
  Mn  Mn9  1  0.500000  0.858662  0.817974  1
  Mn  Mn10  1  0.500000  0.358662  0.682026  1
  Mn  Mn11  1  0.500000  0.641338  0.317974  1
  B  B12  1  0.000000  0.095326  0.474160  1
  B  B13  1  0.000000  0.904674  0.525840  1
  B  B14  1  0.000000  0.404674  0.974160  1
  B  B15  1  0.000000  0.595326  0.025840  1
  B  B16  1  0.000000  0.130256  0.316271  1
  B  B17  1  0.000000  0.869744  0.683729  1
  B  B18  1  0.000000  0.369744  0.816271  1
  B  B19  1  0.000000  0.630256  0.183729  1
  B  B20  1  0.000000  0.055584  0.068618  1
  B  B21  1  0.000000  0.944416  0.931382  1
  B  B22  1  0.000000  0.444416  0.568618  1
  B  B23  1  0.000000  0.555584  0.431382  1
  B  B24  1  0.000000  0.483694  0.286408  1
  B  B25  1  0.000000  0.516306  0.713592  1
  B  B26  1  0.000000  0.016306  0.786408  1
  B  B27  1  0.000000  0.983694  0.213592  1
  B  B28  1  0.000000  0.251689  0.082911  1
  B  B29  1  0.000000  0.748311  0.917089  1
  B  B30  1  0.000000  0.248311  0.582911  1
  B  B31  1  0.000000  0.751689  0.417089  1
  B  B32  1  0.000000  0.293528  0.235048  1
  B  B33  1  0.000000  0.706472  0.764952  1
  B  B34  1  0.000000  0.206472  0.735048  1
  B  B35  1  0.000000  0.793528  0.264952  1
