# generated using pymatgen
data_Tb3TmNb2(B2Ru5)2
_symmetry_space_group_name_H-M   'P 1'
_cell_length_a   9.68717538
_cell_length_b   9.68717538
_cell_length_c   3.13631600
_cell_angle_alpha   90.00000000
_cell_angle_beta   90.00000000
_cell_angle_gamma   90.22324085
_symmetry_Int_Tables_number   1
_chemical_formula_structural   Tb3TmNb2(B2Ru5)2
_chemical_formula_sum   'Tb3 Tm1 Nb2 B4 Ru10'
_cell_volume   294.31394644
_cell_formula_units_Z   1
loop_
 _symmetry_equiv_pos_site_id
 _symmetry_equiv_pos_as_xyz
  1  'x, y, z'
loop_
 _atom_site_type_symbol
 _atom_site_label
 _atom_site_symmetry_multiplicity
 _atom_site_fract_x
 _atom_site_fract_y
 _atom_site_fract_z
 _atom_site_occupancy
  Tb  Tb0  1  0.825032  0.674828  0.000000  1
  Tb  Tb1  1  0.174828  0.325032  0.000000  1
  Tb  Tb2  1  0.325785  0.825785  0.000000  1
  Tm  Tm3  1  0.674896  0.174896  0.000000  1
  Nb  Nb4  1  0.500175  0.499453  0.000000  1
  Nb  Nb5  1  0.999453  0.000175  0.000000  1
  B  B6  1  0.620441  0.880406  0.000000  1
  B  B7  1  0.380406  0.120441  0.000000  1
  B  B8  1  0.120001  0.620001  0.000000  1
  B  B9  1  0.878823  0.378823  0.000000  1
  Ru  Ru10  1  0.570848  0.718721  0.500000  1
  Ru  Ru11  1  0.431032  0.281278  0.500000  1
  Ru  Ru12  1  0.071545  0.781681  0.500000  1
  Ru  Ru13  1  0.926357  0.217652  0.500000  1
  Ru  Ru14  1  0.281681  0.571545  0.500000  1
  Ru  Ru15  1  0.717652  0.426357  0.500000  1
  Ru  Ru16  1  0.218721  0.070848  0.500000  1
  Ru  Ru17  1  0.781278  0.931032  0.500000  1
  Ru  Ru18  1  0.501557  0.001557  0.500000  1
  Ru  Ru19  1  0.999488  0.499488  0.500000  1
