# generated using pymatgen
data_Tb8Sc12Ga4Si11Ge
_symmetry_space_group_name_H-M   'P 1'
_cell_length_a   7.15960976
_cell_length_b   7.43815670
_cell_length_c   14.19495600
_cell_angle_alpha   89.99696748
_cell_angle_beta   89.83704333
_cell_angle_gamma   90.21674393
_symmetry_Int_Tables_number   1
_chemical_formula_structural   Tb8Sc12Ga4Si11Ge
_chemical_formula_sum   'Tb8 Sc12 Ga4 Si11 Ge1'
_cell_volume   755.93396769
_cell_formula_units_Z   1
loop_
 _symmetry_equiv_pos_site_id
 _symmetry_equiv_pos_as_xyz
  1  'x, y, z'
loop_
 _atom_site_type_symbol
 _atom_site_label
 _atom_site_symmetry_multiplicity
 _atom_site_fract_x
 _atom_site_fract_y
 _atom_site_fract_z
 _atom_site_occupancy
  Tb  Tb0  1  0.013910  0.174357  0.097228  1
  Tb  Tb1  1  0.987923  0.824127  0.901988  1
  Tb  Tb2  1  0.486831  0.676517  0.901398  1
  Tb  Tb3  1  0.987864  0.826912  0.600233  1
  Tb  Tb4  1  0.511176  0.321560  0.097623  1
  Tb  Tb5  1  0.009828  0.174089  0.400133  1
  Tb  Tb6  1  0.511161  0.324788  0.399989  1
  Tb  Tb7  1  0.490300  0.675417  0.601060  1
  Sc  Sc8  1  0.163169  0.502030  0.751685  1
  Sc  Sc9  1  0.836462  0.498980  0.250006  1
  Sc  Sc10  1  0.335831  0.001203  0.248203  1
  Sc  Sc11  1  0.661067  0.998530  0.750031  1
  Sc  Sc12  1  0.335116  0.174863  0.627640  1
  Sc  Sc13  1  0.669131  0.826586  0.373483  1
  Sc  Sc14  1  0.170171  0.673612  0.372760  1
  Sc  Sc15  1  0.668875  0.826327  0.125425  1
  Sc  Sc16  1  0.827285  0.326105  0.626063  1
  Sc  Sc17  1  0.331780  0.175771  0.875093  1
  Sc  Sc18  1  0.827486  0.324980  0.875290  1
  Sc  Sc19  1  0.173434  0.675067  0.124268  1
  Ga  Ga20  1  0.161057  0.460413  0.539845  1
  Ga  Ga21  1  0.840058  0.539043  0.461297  1
  Ga  Ga22  1  0.340140  0.960939  0.461664  1
  Ga  Ga23  1  0.840587  0.538816  0.038861  1
  Si  Si24  1  0.966681  0.882297  0.248929  1
  Si  Si25  1  0.466923  0.615998  0.248259  1
  Si  Si26  1  0.533607  0.383396  0.751450  1
  Si  Si27  1  0.289402  0.870399  0.751207  1
  Si  Si28  1  0.714491  0.126154  0.248515  1
  Si  Si29  1  0.213672  0.373695  0.248604  1
  Si  Si30  1  0.787781  0.627042  0.751656  1
  Si  Si31  1  0.657425  0.036973  0.539261  1
  Si  Si32  1  0.157050  0.463033  0.960564  1
  Si  Si33  1  0.655764  0.036322  0.961174  1
  Si  Si34  1  0.345555  0.963588  0.037687  1
  Ge  Ge35  1  0.031005  0.120069  0.751425  1
