# generated using pymatgen
data_Pr2ScMoO6
_symmetry_space_group_name_H-M   'P 1'
_cell_length_a   5.66395809
_cell_length_b   5.88298000
_cell_length_c   8.14329312
_cell_angle_alpha   90.00000000
_cell_angle_beta   89.97978883
_cell_angle_gamma   90.00000000
_symmetry_Int_Tables_number   1
_chemical_formula_structural   Pr2ScMoO6
_chemical_formula_sum   'Pr4 Sc2 Mo2 O12'
_cell_volume   271.34226377
_cell_formula_units_Z   2
loop_
 _symmetry_equiv_pos_site_id
 _symmetry_equiv_pos_as_xyz
  1  'x, y, z'
loop_
 _atom_site_type_symbol
 _atom_site_label
 _atom_site_symmetry_multiplicity
 _atom_site_fract_x
 _atom_site_fract_y
 _atom_site_fract_z
 _atom_site_occupancy
  Pr  Pr0  1  0.984640  0.055436  0.750053  1
  Pr  Pr1  1  0.515360  0.555436  0.749947  1
  Pr  Pr2  1  0.484640  0.444564  0.250053  1
  Pr  Pr3  1  0.015360  0.944564  0.249947  1
  Sc  Sc4  1  0.500000  0.000000  0.500000  1
  Sc  Sc5  1  0.000000  0.500000  0.000000  1
  Mo  Mo6  1  0.000000  0.500000  0.500000  1
  Mo  Mo7  1  0.500000  0.000000  0.000000  1
  O  O8  1  0.694922  0.296342  0.558145  1
  O  O9  1  0.890945  0.540998  0.247192  1
  O  O10  1  0.805078  0.796342  0.941855  1
  O  O11  1  0.109055  0.459002  0.752808  1
  O  O12  1  0.298548  0.697474  0.056976  1
  O  O13  1  0.201452  0.197474  0.443024  1
  O  O14  1  0.798548  0.802526  0.556976  1
  O  O15  1  0.390945  0.959002  0.747192  1
  O  O16  1  0.305078  0.703658  0.441855  1
  O  O17  1  0.194922  0.203658  0.058145  1
  O  O18  1  0.701452  0.302526  0.943024  1
  O  O19  1  0.609055  0.040998  0.252808  1
