# generated using pymatgen
data_Ti10SnGe2Sb5
_symmetry_space_group_name_H-M   'P 1'
_cell_length_a   8.25358216
_cell_length_b   8.25358341
_cell_length_c   5.54471300
_cell_angle_alpha   90.00000000
_cell_angle_beta   90.00000000
_cell_angle_gamma   120.17068785
_symmetry_Int_Tables_number   1
_chemical_formula_structural   Ti10SnGe2Sb5
_chemical_formula_sum   'Ti10 Sn1 Ge2 Sb5'
_cell_volume   326.54661263
_cell_formula_units_Z   1
loop_
 _symmetry_equiv_pos_site_id
 _symmetry_equiv_pos_as_xyz
  1  'x, y, z'
loop_
 _atom_site_type_symbol
 _atom_site_label
 _atom_site_symmetry_multiplicity
 _atom_site_fract_x
 _atom_site_fract_y
 _atom_site_fract_z
 _atom_site_occupancy
  Ti  Ti0  1  0.667139  0.333433  0.499516  1
  Ti  Ti1  1  0.333433  0.667139  0.499516  1
  Ti  Ti2  1  0.333433  0.667139  0.000484  1
  Ti  Ti3  1  0.667139  0.333433  0.000484  1
  Ti  Ti4  1  0.734699  0.734699  0.250000  1
  Ti  Ti5  1  0.266809  0.998956  0.250000  1
  Ti  Ti6  1  0.998956  0.266809  0.250000  1
  Ti  Ti7  1  0.265543  0.265543  0.750000  1
  Ti  Ti8  1  0.733580  0.000090  0.750000  1
  Ti  Ti9  1  0.000090  0.733580  0.750000  1
  Sn  Sn10  1  0.391242  0.391242  0.250000  1
  Ge  Ge11  1  0.000864  0.000864  0.000544  1
  Ge  Ge12  1  0.000864  0.000864  0.499456  1
  Sb  Sb13  1  0.607107  0.000109  0.250000  1
  Sb  Sb14  1  0.000109  0.607107  0.250000  1
  Sb  Sb15  1  0.605436  0.605436  0.750000  1
  Sb  Sb16  1  0.393047  0.000509  0.750000  1
  Sb  Sb17  1  0.000509  0.393047  0.750000  1
