# generated using pymatgen
data_Tm10Ga2Bi3Pb
_symmetry_space_group_name_H-M   'P 1'
_cell_length_a   8.76378900
_cell_length_b   8.86035386
_cell_length_c   6.39874800
_cell_angle_alpha   90.00000000
_cell_angle_beta   90.00000000
_cell_angle_gamma   119.88628483
_symmetry_Int_Tables_number   1
_chemical_formula_structural   Tm10Ga2Bi3Pb
_chemical_formula_sum   'Tm10 Ga2 Bi3 Pb1'
_cell_volume   430.78951383
_cell_formula_units_Z   1
loop_
 _symmetry_equiv_pos_site_id
 _symmetry_equiv_pos_as_xyz
  1  'x, y, z'
loop_
 _atom_site_type_symbol
 _atom_site_label
 _atom_site_symmetry_multiplicity
 _atom_site_fract_x
 _atom_site_fract_y
 _atom_site_fract_z
 _atom_site_occupancy
  Tm  Tm0  1  0.344929  0.692437  0.998885  1
  Tm  Tm1  1  0.655143  0.305918  0.500938  1
  Tm  Tm2  1  0.655143  0.305918  0.999062  1
  Tm  Tm3  1  0.344929  0.692437  0.501115  1
  Tm  Tm4  1  0.243593  0.999703  0.250000  1
  Tm  Tm5  1  0.758517  0.003358  0.750000  1
  Tm  Tm6  1  0.981473  0.225986  0.250000  1
  Tm  Tm7  1  0.757410  0.776135  0.250000  1
  Tm  Tm8  1  0.240351  0.225292  0.750000  1
  Tm  Tm9  1  0.018840  0.772473  0.750000  1
  Ga  Ga10  1  0.600754  0.998490  0.250000  1
  Ga  Ga11  1  0.397199  0.000320  0.750000  1
  Bi  Bi12  1  0.991397  0.604896  0.250000  1
  Bi  Bi13  1  0.388903  0.395782  0.250000  1
  Bi  Bi14  1  0.612530  0.604632  0.750000  1
  Pb  Pb15  1  0.008891  0.396225  0.750000  1
