# generated using pymatgen
data_Lu4Cd2PdPt3
_symmetry_space_group_name_H-M   'P 1'
_cell_length_a   7.74078355
_cell_length_b   7.74078355
_cell_length_c   3.54580500
_cell_angle_alpha   90.00000000
_cell_angle_beta   90.00000000
_cell_angle_gamma   90.04322655
_symmetry_Int_Tables_number   1
_chemical_formula_structural   Lu4Cd2PdPt3
_chemical_formula_sum   'Lu4 Cd2 Pd1 Pt3'
_cell_volume   212.46361769
_cell_formula_units_Z   1
loop_
 _symmetry_equiv_pos_site_id
 _symmetry_equiv_pos_as_xyz
  1  'x, y, z'
loop_
 _atom_site_type_symbol
 _atom_site_label
 _atom_site_symmetry_multiplicity
 _atom_site_fract_x
 _atom_site_fract_y
 _atom_site_fract_z
 _atom_site_occupancy
  Lu  Lu0  1  0.668744  0.162313  0.500000  1
  Lu  Lu1  1  0.337687  0.831256  0.500000  1
  Lu  Lu2  1  0.160399  0.339601  0.500000  1
  Lu  Lu3  1  0.834361  0.665639  0.500000  1
  Cd  Cd4  1  0.003457  0.000626  0.000000  1
  Cd  Cd5  1  0.499374  0.496543  0.000000  1
  Pd  Pd6  1  0.365737  0.134263  0.000000  1
  Pt  Pt7  1  0.133506  0.634403  0.000000  1
  Pt  Pt8  1  0.865597  0.366494  0.000000  1
  Pt  Pt9  1  0.631139  0.868861  0.000000  1
