# generated using pymatgen
data_Ho6Tm2Ti9Si16Mo3
_symmetry_space_group_name_H-M   'P 1'
_cell_length_a   6.98567102
_cell_length_b   6.98556149
_cell_length_c   12.83669145
_cell_angle_alpha   90.03561487
_cell_angle_beta   89.99876091
_cell_angle_gamma   89.99752414
_symmetry_Int_Tables_number   1
_chemical_formula_structural   Ho6Tm2Ti9Si16Mo3
_chemical_formula_sum   'Ho6 Tm2 Ti9 Si16 Mo3'
_cell_volume   626.41545960
_cell_formula_units_Z   1
loop_
 _symmetry_equiv_pos_site_id
 _symmetry_equiv_pos_as_xyz
  1  'x, y, z'
loop_
 _atom_site_type_symbol
 _atom_site_label
 _atom_site_symmetry_multiplicity
 _atom_site_fract_x
 _atom_site_fract_y
 _atom_site_fract_z
 _atom_site_occupancy
  Ho  Ho0  1  0.500235  0.158385  0.216771  1
  Ho  Ho1  1  0.842107  0.498682  0.282051  1
  Ho  Ho2  1  0.158513  0.500463  0.783244  1
  Ho  Ho3  1  0.659013  0.999469  0.966710  1
  Ho  Ho4  1  0.002289  0.340265  0.533546  1
  Ho  Ho5  1  0.999531  0.659069  0.033099  1
  Tm  Tm6  1  0.340754  0.001552  0.466477  1
  Tm  Tm7  1  0.499206  0.842597  0.717834  1
  Ti  Ti8  1  0.672697  0.673215  0.500119  1
  Ti  Ti9  1  0.152271  0.008240  0.875852  1
  Ti  Ti10  1  0.491599  0.652362  0.125086  1
  Ti  Ti11  1  0.507250  0.347082  0.626844  1
  Ti  Ti12  1  0.652165  0.491703  0.874767  1
  Ti  Ti13  1  0.346994  0.507567  0.373174  1
  Ti  Ti14  1  0.848921  0.992031  0.374886  1
  Ti  Ti15  1  0.008505  0.152119  0.124025  1
  Ti  Ti16  1  0.992169  0.848883  0.625150  1
  Si  Si17  1  0.202878  0.129841  0.683793  1
  Si  Si18  1  0.369312  0.701584  0.933875  1
  Si  Si19  1  0.630623  0.296880  0.434138  1
  Si  Si20  1  0.701371  0.369255  0.065903  1
  Si  Si21  1  0.297864  0.632087  0.566124  1
  Si  Si22  1  0.798087  0.869388  0.184522  1
  Si  Si23  1  0.130699  0.201811  0.316389  1
  Si  Si24  1  0.868707  0.798272  0.815373  1
  Si  Si25  1  0.291713  0.952645  0.064983  1
  Si  Si26  1  0.546307  0.791353  0.315301  1
  Si  Si27  1  0.452608  0.207986  0.815073  1
  Si  Si28  1  0.790560  0.547053  0.684969  1
  Si  Si29  1  0.208772  0.452471  0.184743  1
  Si  Si30  1  0.707045  0.047689  0.565917  1
  Si  Si31  1  0.952655  0.291623  0.934955  1
  Si  Si32  1  0.048588  0.708481  0.434204  1
  Mo  Mo33  1  0.327172  0.327130  0.999965  1
  Mo  Mo34  1  0.173845  0.827322  0.249588  1
  Mo  Mo35  1  0.826972  0.173444  0.750547  1
