# generated using pymatgen
data_Ho3Al3GePt2
_symmetry_space_group_name_H-M   'P 1'
_cell_length_a   7.04560700
_cell_length_b   7.04560706
_cell_length_c   4.15738400
_cell_angle_alpha   90.00000000
_cell_angle_beta   90.00000000
_cell_angle_gamma   119.99999504
_symmetry_Int_Tables_number   1
_chemical_formula_structural   Ho3Al3GePt2
_chemical_formula_sum   'Ho3 Al3 Ge1 Pt2'
_cell_volume   178.72595517
_cell_formula_units_Z   1
loop_
 _symmetry_equiv_pos_site_id
 _symmetry_equiv_pos_as_xyz
  1  'x, y, z'
loop_
 _atom_site_type_symbol
 _atom_site_label
 _atom_site_symmetry_multiplicity
 _atom_site_fract_x
 _atom_site_fract_y
 _atom_site_fract_z
 _atom_site_occupancy
  Ho  Ho0  1  0.586510  0.005090  0.500000  1
  Ho  Ho1  1  0.418580  0.413490  0.500000  1
  Ho  Ho2  1  0.994910  0.581420  0.500000  1
  Al  Al3  1  0.769043  0.754770  0.000000  1
  Al  Al4  1  0.985727  0.230957  0.000000  1
  Al  Al5  1  0.245230  0.014273  0.000000  1
  Ge  Ge6  1  0.333333  0.666667  0.000000  1
  Pt  Pt7  1  0.666667  0.333333  0.000000  1
  Pt  Pt8  1  0.000000  0.000000  0.500000  1
