# generated using pymatgen
data_Tb4Fe13Ni3(P3Ru)4
_symmetry_space_group_name_H-M   'P 1'
_cell_length_a   3.70974000
_cell_length_b   10.26102057
_cell_length_c   11.98724832
_cell_angle_alpha   89.88145763
_cell_angle_beta   90.00000000
_cell_angle_gamma   90.00000000
_symmetry_Int_Tables_number   1
_chemical_formula_structural   Tb4Fe13Ni3(P3Ru)4
_chemical_formula_sum   'Tb4 Fe13 Ni3 P12 Ru4'
_cell_volume   456.30224298
_cell_formula_units_Z   1
loop_
 _symmetry_equiv_pos_site_id
 _symmetry_equiv_pos_as_xyz
  1  'x, y, z'
loop_
 _atom_site_type_symbol
 _atom_site_label
 _atom_site_symmetry_multiplicity
 _atom_site_fract_x
 _atom_site_fract_y
 _atom_site_fract_z
 _atom_site_occupancy
  Tb  Tb0  1  0.250000  0.583087  0.707570  1
  Tb  Tb1  1  0.250000  0.917504  0.204432  1
  Tb  Tb2  1  0.750000  0.417669  0.293316  1
  Tb  Tb3  1  0.750000  0.081158  0.794618  1
  Fe  Fe4  1  0.750000  0.907481  0.012648  1
  Fe  Fe5  1  0.250000  0.221693  0.171305  1
  Fe  Fe6  1  0.250000  0.278481  0.670372  1
  Fe  Fe7  1  0.750000  0.777820  0.829896  1
  Fe  Fe8  1  0.750000  0.721332  0.328589  1
  Fe  Fe9  1  0.250000  0.883686  0.701761  1
  Fe  Fe10  1  0.250000  0.618128  0.200121  1
  Fe  Fe11  1  0.750000  0.117752  0.299666  1
  Fe  Fe12  1  0.750000  0.382687  0.799740  1
  Fe  Fe13  1  0.250000  0.462383  0.935472  1
  Fe  Fe14  1  0.250000  0.036320  0.435168  1
  Fe  Fe15  1  0.750000  0.535959  0.065709  1
  Fe  Fe16  1  0.750000  0.963805  0.565072  1
  Ni  Ni17  1  0.250000  0.409028  0.486209  1
  Ni  Ni18  1  0.250000  0.094454  0.985112  1
  Ni  Ni19  1  0.750000  0.591174  0.514097  1
  P  P20  1  0.250000  0.423611  0.113276  1
  P  P21  1  0.250000  0.076058  0.613040  1
  P  P22  1  0.750000  0.575786  0.887761  1
  P  P23  1  0.750000  0.923777  0.386464  1
  P  P24  1  0.250000  0.274853  0.856489  1
  P  P25  1  0.250000  0.224412  0.355895  1
  P  P26  1  0.750000  0.729213  0.139052  1
  P  P27  1  0.750000  0.775944  0.644538  1
  P  P28  1  0.250000  0.605077  0.384394  1
  P  P29  1  0.250000  0.897062  0.890688  1
  P  P30  1  0.750000  0.396028  0.615204  1
  P  P31  1  0.750000  0.098929  0.112635  1
  Ru  Ru32  1  0.250000  0.707386  0.990540  1
  Ru  Ru33  1  0.250000  0.791314  0.492344  1
  Ru  Ru34  1  0.750000  0.289780  0.008604  1
  Ru  Ru35  1  0.750000  0.209166  0.508202  1
