# generated using pymatgen
data_CaYPa2(Ga3Ir)6
_symmetry_space_group_name_H-M   'P 1'
_cell_length_a   7.65285617
_cell_length_b   7.64930802
_cell_length_c   9.42622800
_cell_angle_alpha   90.00000000
_cell_angle_beta   90.00000000
_cell_angle_gamma   119.93807652
_symmetry_Int_Tables_number   1
_chemical_formula_structural   CaYPa2(Ga3Ir)6
_chemical_formula_sum   'Ca1 Y1 Pa2 Ga18 Ir6'
_cell_volume   478.17286363
_cell_formula_units_Z   1
loop_
 _symmetry_equiv_pos_site_id
 _symmetry_equiv_pos_as_xyz
  1  'x, y, z'
loop_
 _atom_site_type_symbol
 _atom_site_label
 _atom_site_symmetry_multiplicity
 _atom_site_fract_x
 _atom_site_fract_y
 _atom_site_fract_z
 _atom_site_occupancy
  Ca  Ca0  1  0.668586  0.995581  0.250000  1
  Y  Y1  1  0.331770  0.004705  0.750000  1
  Pa  Pa2  1  0.998730  0.668527  0.250000  1
  Pa  Pa3  1  0.001326  0.331191  0.750000  1
  Ga  Ga4  1  0.129926  0.128462  0.250000  1
  Ga  Ga5  1  0.869978  0.871408  0.750000  1
  Ga  Ga6  1  0.998072  0.330171  0.082653  1
  Ga  Ga7  1  0.001297  0.669317  0.917680  1
  Ga  Ga8  1  0.001297  0.669317  0.582320  1
  Ga  Ga9  1  0.338415  0.001667  0.419773  1
  Ga  Ga10  1  0.998072  0.330171  0.417347  1
  Ga  Ga11  1  0.662029  0.998254  0.579621  1
  Ga  Ga12  1  0.662029  0.998254  0.920379  1
  Ga  Ga13  1  0.338415  0.001667  0.080227  1
  Ga  Ga14  1  0.334418  0.331668  0.566845  1
  Ga  Ga15  1  0.665464  0.668747  0.432852  1
  Ga  Ga16  1  0.665464  0.668747  0.067148  1
  Ga  Ga17  1  0.334418  0.331668  0.933155  1
  Ga  Ga18  1  0.340373  0.545823  0.250000  1
  Ga  Ga19  1  0.659796  0.454227  0.750000  1
  Ga  Ga20  1  0.545422  0.339736  0.250000  1
  Ga  Ga21  1  0.454754  0.660737  0.750000  1
  Ir  Ir22  1  0.676600  0.332744  0.999032  1
  Ir  Ir23  1  0.322556  0.667265  0.999185  1
  Ir  Ir24  1  0.322556  0.667265  0.500815  1
  Ir  Ir25  1  0.676600  0.332744  0.500968  1
  Ir  Ir26  1  0.000817  0.999969  0.999129  1
  Ir  Ir27  1  0.000817  0.999969  0.500871  1
