# generated using pymatgen
data_TbNi4As3Ru
_symmetry_space_group_name_H-M   'P 1'
_cell_length_a   3.86062200
_cell_length_b   10.97891500
_cell_length_c   12.25152800
_cell_angle_alpha   90.00000000
_cell_angle_beta   90.00000000
_cell_angle_gamma   90.00000000
_symmetry_Int_Tables_number   1
_chemical_formula_structural   TbNi4As3Ru
_chemical_formula_sum   'Tb4 Ni16 As12 Ru4'
_cell_volume   519.28641457
_cell_formula_units_Z   4
loop_
 _symmetry_equiv_pos_site_id
 _symmetry_equiv_pos_as_xyz
  1  'x, y, z'
loop_
 _atom_site_type_symbol
 _atom_site_label
 _atom_site_symmetry_multiplicity
 _atom_site_fract_x
 _atom_site_fract_y
 _atom_site_fract_z
 _atom_site_occupancy
  Tb  Tb0  1  0.250000  0.588398  0.703873  1
  Tb  Tb1  1  0.250000  0.911602  0.203873  1
  Tb  Tb2  1  0.750000  0.411602  0.296127  1
  Tb  Tb3  1  0.750000  0.088398  0.796127  1
  Ni  Ni4  1  0.250000  0.407534  0.488313  1
  Ni  Ni5  1  0.250000  0.092466  0.988313  1
  Ni  Ni6  1  0.750000  0.592466  0.511687  1
  Ni  Ni7  1  0.750000  0.907534  0.011687  1
  Ni  Ni8  1  0.250000  0.214617  0.179660  1
  Ni  Ni9  1  0.250000  0.285383  0.679660  1
  Ni  Ni10  1  0.750000  0.785383  0.820340  1
  Ni  Ni11  1  0.750000  0.714617  0.320340  1
  Ni  Ni12  1  0.250000  0.888549  0.699942  1
  Ni  Ni13  1  0.250000  0.611451  0.199942  1
  Ni  Ni14  1  0.750000  0.111451  0.300058  1
  Ni  Ni15  1  0.750000  0.388549  0.800058  1
  Ni  Ni16  1  0.250000  0.468769  0.928947  1
  Ni  Ni17  1  0.250000  0.031231  0.428947  1
  Ni  Ni18  1  0.750000  0.531231  0.071053  1
  Ni  Ni19  1  0.750000  0.968769  0.571053  1
  As  As20  1  0.250000  0.412245  0.112695  1
  As  As21  1  0.250000  0.087755  0.612695  1
  As  As22  1  0.750000  0.587755  0.887305  1
  As  As23  1  0.750000  0.912245  0.387305  1
  As  As24  1  0.250000  0.269659  0.873164  1
  As  As25  1  0.250000  0.230341  0.373164  1
  As  As26  1  0.750000  0.730341  0.126836  1
  As  As27  1  0.750000  0.769659  0.626836  1
  As  As28  1  0.250000  0.594523  0.389881  1
  As  As29  1  0.250000  0.905477  0.889881  1
  As  As30  1  0.750000  0.405477  0.610119  1
  As  As31  1  0.750000  0.094523  0.110119  1
  Ru  Ru32  1  0.250000  0.711116  0.986625  1
  Ru  Ru33  1  0.250000  0.788884  0.486625  1
  Ru  Ru34  1  0.750000  0.288884  0.013375  1
  Ru  Ru35  1  0.750000  0.211116  0.513375  1
