# generated using pymatgen
data_YbCe(Si2Rh3)2
_symmetry_space_group_name_H-M   'P 1'
_cell_length_a   6.66855737
_cell_length_b   6.66855691
_cell_length_c   6.66855650
_cell_angle_alpha   130.27250399
_cell_angle_beta   114.81765132
_cell_angle_gamma   86.20680442
_symmetry_Int_Tables_number   1
_chemical_formula_structural   YbCe(Si2Rh3)2
_chemical_formula_sum   'Yb1 Ce1 Si4 Rh6'
_cell_volume   196.14481265
_cell_formula_units_Z   1
loop_
 _symmetry_equiv_pos_site_id
 _symmetry_equiv_pos_as_xyz
  1  'x, y, z'
loop_
 _atom_site_type_symbol
 _atom_site_label
 _atom_site_symmetry_multiplicity
 _atom_site_fract_x
 _atom_site_fract_y
 _atom_site_fract_z
 _atom_site_occupancy
  Yb  Yb0  1  0.250000  0.958062  0.708062  1
  Ce  Ce1  1  0.750000  0.044165  0.294165  1
  Si  Si2  1  0.080134  0.275771  0.195637  1
  Si  Si3  1  0.923408  0.728741  0.805333  1
  Si  Si4  1  0.419866  0.615503  0.195637  1
  Si  Si5  1  0.576592  0.381926  0.805333  1
  Rh  Rh6  1  0.500692  0.496896  0.497588  1
  Rh  Rh7  1  0.999308  0.496896  0.996204  1
  Rh  Rh8  1  0.284973  0.000023  0.285971  1
  Rh  Rh9  1  0.714051  0.000023  0.715049  1
  Rh  Rh10  1  0.215027  0.500998  0.715049  1
  Rh  Rh11  1  0.785949  0.500998  0.285971  1
