# generated using pymatgen
data_YHo7In3Ir
_symmetry_space_group_name_H-M   'P 1'
_cell_length_a   10.39473360
_cell_length_b   10.39473283
_cell_length_c   7.04124827
_cell_angle_alpha   90.02769608
_cell_angle_beta   89.97230341
_cell_angle_gamma   119.97288485
_symmetry_Int_Tables_number   1
_chemical_formula_structural   YHo7In3Ir
_chemical_formula_sum   'Y2 Ho14 In6 Ir2'
_cell_volume   659.06084969
_cell_formula_units_Z   2
loop_
 _symmetry_equiv_pos_site_id
 _symmetry_equiv_pos_as_xyz
  1  'x, y, z'
loop_
 _atom_site_type_symbol
 _atom_site_label
 _atom_site_symmetry_multiplicity
 _atom_site_fract_x
 _atom_site_fract_y
 _atom_site_fract_z
 _atom_site_occupancy
  Y  Y0  1  0.532944  0.065880  0.506959  1
  Y  Y1  1  0.934120  0.467056  0.506959  1
  Ho  Ho2  1  0.533349  0.466651  0.506497  1
  Ho  Ho3  1  0.466570  0.933128  0.006503  1
  Ho  Ho4  1  0.066872  0.533430  0.006503  1
  Ho  Ho5  1  0.466616  0.533384  0.006499  1
  Ho  Ho6  1  0.176747  0.353171  0.713476  1
  Ho  Ho7  1  0.646829  0.823253  0.713476  1
  Ho  Ho8  1  0.176530  0.823470  0.713649  1
  Ho  Ho9  1  0.823272  0.646886  0.213150  1
  Ho  Ho10  1  0.353114  0.176728  0.213150  1
  Ho  Ho11  1  0.823458  0.176542  0.212949  1
  Ho  Ho12  1  0.666585  0.333415  0.887980  1
  Ho  Ho13  1  0.333445  0.666555  0.387432  1
  Ho  Ho14  1  0.000000  0.000000  0.493321  1
  Ho  Ho15  1  0.000003  0.999997  0.993454  1
  In  In16  1  0.837274  0.674680  0.751817  1
  In  In17  1  0.325320  0.162726  0.751817  1
  In  In18  1  0.837384  0.162616  0.751913  1
  In  In19  1  0.162657  0.325392  0.251762  1
  In  In20  1  0.674608  0.837343  0.251762  1
  In  In21  1  0.162694  0.837306  0.251735  1
  Ir  Ir22  1  0.666293  0.333707  0.282002  1
  Ir  Ir23  1  0.333316  0.666684  0.783279  1
