# generated using pymatgen
data_Na16FeNi7P8(O4F)8
_symmetry_space_group_name_H-M   'P 1'
_cell_length_a   5.26264800
_cell_length_b   13.60447666
_cell_length_c   13.86526000
_cell_angle_alpha   59.46988510
_cell_angle_beta   90.00000000
_cell_angle_gamma   90.00000000
_symmetry_Int_Tables_number   1
_chemical_formula_structural   Na16FeNi7P8(O4F)8
_chemical_formula_sum   'Na16 Fe1 Ni7 P8 O32 F8'
_cell_volume   855.06676929
_cell_formula_units_Z   1
loop_
 _symmetry_equiv_pos_site_id
 _symmetry_equiv_pos_as_xyz
  1  'x, y, z'
loop_
 _atom_site_type_symbol
 _atom_site_label
 _atom_site_symmetry_multiplicity
 _atom_site_fract_x
 _atom_site_fract_y
 _atom_site_fract_z
 _atom_site_occupancy
  Na  Na0  1  0.270491  0.919140  0.912524  1
  Na  Na1  1  0.772114  0.082905  0.586658  1
  Na  Na2  1  0.728470  0.081018  0.088165  1
  Na  Na3  1  0.228405  0.919235  0.411339  1
  Na  Na4  1  0.237554  0.170540  0.418721  1
  Na  Na5  1  0.737255  0.829461  0.081761  1
  Na  Na6  1  0.763421  0.829375  0.579324  1
  Na  Na7  1  0.262435  0.170442  0.919194  1
  Na  Na8  1  0.760297  0.580631  0.082729  1
  Na  Na9  1  0.259834  0.418676  0.418135  1
  Na  Na10  1  0.240314  0.418343  0.918377  1
  Na  Na11  1  0.740227  0.581362  0.581770  1
  Na  Na12  1  0.761481  0.329405  0.338264  1
  Na  Na13  1  0.262025  0.670722  0.161471  1
  Na  Na14  1  0.238598  0.670384  0.661702  1
  Na  Na15  1  0.738590  0.329533  0.838367  1
  Fe  Fe16  1  0.777729  0.824774  0.847236  1
  Ni  Ni17  1  0.285688  0.177458  0.648979  1
  Ni  Ni18  1  0.214229  0.176754  0.148901  1
  Ni  Ni19  1  0.714104  0.823184  0.350960  1
  Ni  Ni20  1  0.221889  0.675766  0.925860  1
  Ni  Ni21  1  0.721283  0.323490  0.575215  1
  Ni  Ni22  1  0.778529  0.323000  0.075100  1
  Ni  Ni23  1  0.278845  0.676676  0.424760  1
  P  P24  1  0.700724  0.087922  0.323118  1
  P  P25  1  0.200745  0.912112  0.176950  1
  P  P26  1  0.300163  0.913066  0.674540  1
  P  P27  1  0.797944  0.089424  0.823811  1
  P  P28  1  0.792879  0.587924  0.338922  1
  P  P29  1  0.292688  0.411572  0.161462  1
  P  P30  1  0.207084  0.412107  0.661297  1
  P  P31  1  0.708134  0.586303  0.839379  1
  O  O32  1  0.085547  0.605977  0.345671  1
  O  O33  1  0.585403  0.393596  0.154568  1
  O  O34  1  0.914512  0.394056  0.654401  1
  O  O35  1  0.416098  0.605875  0.845946  1
  O  O36  1  0.090943  0.107184  0.799535  1
  O  O37  1  0.595715  0.896466  0.693935  1
  O  O38  1  0.908061  0.892848  0.200958  1
  O  O39  1  0.408046  0.107161  0.299262  1
  O  O40  1  0.855204  0.650077  0.889572  1
  O  O41  1  0.351747  0.346067  0.612505  1
  O  O42  1  0.148083  0.345528  0.112748  1
  O  O43  1  0.648337  0.654097  0.387562  1
  O  O44  1  0.271536  0.541357  0.588384  1
  O  O45  1  0.768885  0.456639  0.910880  1
  O  O46  1  0.728604  0.458625  0.411771  1
  O  O47  1  0.227847  0.540681  0.088896  1
  O  O48  1  0.211413  0.869753  0.597357  1
  O  O49  1  0.715686  0.134184  0.900719  1
  O  O50  1  0.785436  0.130661  0.401474  1
  O  O51  1  0.285434  0.869534  0.098556  1
  O  O52  1  0.712703  0.631578  0.217282  1
  O  O53  1  0.212980  0.367824  0.283289  1
  O  O54  1  0.286953  0.368288  0.783031  1
  O  O55  1  0.788058  0.631427  0.717268  1
  O  O56  1  0.263474  0.041478  0.122301  1
  O  O57  1  0.763292  0.958483  0.377786  1
  O  O58  1  0.731089  0.960487  0.880268  1
  O  O59  1  0.234937  0.041830  0.621667  1
  O  O60  1  0.843389  0.153883  0.208085  1
  O  O61  1  0.343325  0.845963  0.292101  1
  O  O62  1  0.168368  0.845176  0.791684  1
  O  O63  1  0.656147  0.154326  0.708278  1
  F  F64  1  0.504148  0.247619  0.500884  1
  F  F65  1  0.004010  0.752031  0.999801  1
  F  F66  1  0.495668  0.752370  0.499286  1
  F  F67  1  0.996337  0.247349  0.001083  1
  F  F68  1  0.503755  0.744586  0.975582  1
  F  F69  1  0.004983  0.252618  0.530332  1
  F  F70  1  0.494720  0.252029  0.030642  1
  F  F71  1  0.994962  0.747587  0.469658  1
