# generated using pymatgen
data_Nb9Tc8Ru
_symmetry_space_group_name_H-M   'P 1'
_cell_length_a   7.81129144
_cell_length_b   7.80829143
_cell_length_c   5.55979025
_cell_angle_alpha   90.04601255
_cell_angle_beta   89.97699988
_cell_angle_gamma   119.98728978
_symmetry_Int_Tables_number   1
_chemical_formula_structural   Nb9Tc8Ru
_chemical_formula_sum   'Nb9 Tc8 Ru1'
_cell_volume   293.71313142
_cell_formula_units_Z   1
loop_
 _symmetry_equiv_pos_site_id
 _symmetry_equiv_pos_as_xyz
  1  'x, y, z'
loop_
 _atom_site_type_symbol
 _atom_site_label
 _atom_site_symmetry_multiplicity
 _atom_site_fract_x
 _atom_site_fract_y
 _atom_site_fract_z
 _atom_site_occupancy
  Nb  Nb0  1  0.666243  0.000104  0.225684  1
  Nb  Nb1  1  0.333757  0.333860  0.225684  1
  Nb  Nb2  1  0.000000  0.666274  0.224846  1
  Nb  Nb3  1  0.665053  0.331649  0.558033  1
  Nb  Nb4  1  0.334947  0.666596  0.558033  1
  Nb  Nb5  1  0.000000  0.001506  0.558905  1
  Nb  Nb6  1  0.334477  0.001679  0.892678  1
  Nb  Nb7  1  0.000000  0.331251  0.892644  1
  Nb  Nb8  1  0.665524  0.667203  0.892678  1
  Tc  Tc9  1  0.667638  0.334392  0.058227  1
  Tc  Tc10  1  0.332362  0.666754  0.058227  1
  Tc  Tc11  1  0.000000  0.999122  0.059668  1
  Tc  Tc12  1  0.332010  0.998930  0.392241  1
  Tc  Tc13  1  0.000000  0.334062  0.392109  1
  Tc  Tc14  1  0.667991  0.666921  0.392241  1
  Tc  Tc15  1  0.666393  0.999995  0.725582  1
  Tc  Tc16  1  0.333607  0.333603  0.725582  1
  Ru  Ru17  1  0.000000  0.666097  0.724782  1
