# generated using pymatgen
data_LaCe3(Si5Os3)2
_symmetry_space_group_name_H-M   'P 1'
_cell_length_a   8.21529739
_cell_length_b   8.20572367
_cell_length_c   5.86916021
_cell_angle_alpha   70.33328168
_cell_angle_beta   70.29001825
_cell_angle_gamma   93.66574403
_symmetry_Int_Tables_number   1
_chemical_formula_structural   LaCe3(Si5Os3)2
_chemical_formula_sum   'La1 Ce3 Si10 Os6'
_cell_volume   343.64816180
_cell_formula_units_Z   1
loop_
 _symmetry_equiv_pos_site_id
 _symmetry_equiv_pos_as_xyz
  1  'x, y, z'
loop_
 _atom_site_type_symbol
 _atom_site_label
 _atom_site_symmetry_multiplicity
 _atom_site_fract_x
 _atom_site_fract_y
 _atom_site_fract_z
 _atom_site_occupancy
  La  La0  1  0.866320  0.602294  0.757705  1
  Ce  Ce1  1  0.399667  0.132245  0.741134  1
  Ce  Ce2  1  0.132717  0.398658  0.241734  1
  Ce  Ce3  1  0.601394  0.866322  0.259639  1
  Si  Si4  1  0.063250  0.260716  0.835318  1
  Si  Si5  1  0.738398  0.941438  0.664171  1
  Si  Si6  1  0.938465  0.739856  0.163639  1
  Si  Si7  1  0.260551  0.060769  0.335077  1
  Si  Si8  1  0.208118  0.792861  0.749658  1
  Si  Si9  1  0.791642  0.206953  0.251589  1
  Si  Si10  1  0.511613  0.486367  0.750422  1
  Si  Si11  1  0.486482  0.511850  0.250558  1
  Si  Si12  1  0.772289  0.224851  0.749564  1
  Si  Si13  1  0.227846  0.773538  0.249499  1
  Os  Os14  1  0.257673  0.541486  0.634938  1
  Os  Os15  1  0.457119  0.745276  0.865727  1
  Os  Os16  1  0.743131  0.456821  0.367783  1
  Os  Os17  1  0.541258  0.253084  0.135838  1
  Os  Os18  1  0.004407  0.999631  0.748210  1
  Os  Os19  1  0.997660  0.004984  0.247798  1
