# generated using pymatgen
data_Tm2Ta(TiSi2)2
_symmetry_space_group_name_H-M   'P 1'
_cell_length_a   6.98619900
_cell_length_b   6.82008828
_cell_length_c   6.98081559
_cell_angle_alpha   71.11485340
_cell_angle_beta   90.00000000
_cell_angle_gamma   90.00000000
_symmetry_Int_Tables_number   1
_chemical_formula_structural   Tm2Ta(TiSi2)2
_chemical_formula_sum   'Tm4 Ta2 Ti4 Si8'
_cell_volume   314.70668368
_cell_formula_units_Z   2
loop_
 _symmetry_equiv_pos_site_id
 _symmetry_equiv_pos_as_xyz
  1  'x, y, z'
loop_
 _atom_site_type_symbol
 _atom_site_label
 _atom_site_symmetry_multiplicity
 _atom_site_fract_x
 _atom_site_fract_y
 _atom_site_fract_z
 _atom_site_occupancy
  Tm  Tm0  1  0.329761  0.566284  0.810153  1
  Tm  Tm1  1  0.829761  0.933716  0.189847  1
  Tm  Tm2  1  0.670239  0.433716  0.189847  1
  Tm  Tm3  1  0.170239  0.066284  0.810153  1
  Ta  Ta4  1  0.500000  0.000000  0.500000  1
  Ta  Ta5  1  0.000000  0.500000  0.500000  1
  Ti  Ti6  1  0.823691  0.749405  0.744044  1
  Ti  Ti7  1  0.323691  0.750595  0.255956  1
  Ti  Ti8  1  0.176309  0.250595  0.255956  1
  Ti  Ti9  1  0.676309  0.249405  0.744044  1
  Si  Si10  1  0.537728  0.869471  0.915840  1
  Si  Si11  1  0.037728  0.630529  0.084160  1
  Si  Si12  1  0.462272  0.130529  0.084160  1
  Si  Si13  1  0.962272  0.369471  0.915840  1
  Si  Si14  1  0.125512  0.870280  0.504426  1
  Si  Si15  1  0.625512  0.629720  0.495574  1
  Si  Si16  1  0.874488  0.129720  0.495574  1
  Si  Si17  1  0.374488  0.370280  0.504426  1
