# generated using pymatgen
data_YbCdGeO4
_symmetry_space_group_name_H-M   'P 1'
_cell_length_a   5.26945400
_cell_length_b   6.69355100
_cell_length_c   11.41611700
_cell_angle_alpha   90.00000000
_cell_angle_beta   90.00000000
_cell_angle_gamma   90.00000000
_symmetry_Int_Tables_number   1
_chemical_formula_structural   YbCdGeO4
_chemical_formula_sum   'Yb4 Cd4 Ge4 O16'
_cell_volume   402.66196213
_cell_formula_units_Z   4
loop_
 _symmetry_equiv_pos_site_id
 _symmetry_equiv_pos_as_xyz
  1  'x, y, z'
loop_
 _atom_site_type_symbol
 _atom_site_label
 _atom_site_symmetry_multiplicity
 _atom_site_fract_x
 _atom_site_fract_y
 _atom_site_fract_z
 _atom_site_occupancy
  Yb  Yb0  1  0.492460  0.750000  0.778030  1
  Yb  Yb1  1  0.992460  0.250000  0.721970  1
  Yb  Yb2  1  0.507540  0.250000  0.221970  1
  Yb  Yb3  1  0.007540  0.750000  0.278030  1
  Cd  Cd4  1  0.500000  0.500000  0.500000  1
  Cd  Cd5  1  0.000000  0.500000  0.000000  1
  Cd  Cd6  1  0.500000  0.000000  0.500000  1
  Cd  Cd7  1  0.000000  0.000000  0.000000  1
  Ge  Ge8  1  0.929329  0.750000  0.597491  1
  Ge  Ge9  1  0.429329  0.250000  0.902509  1
  Ge  Ge10  1  0.070671  0.250000  0.402509  1
  Ge  Ge11  1  0.570671  0.750000  0.097491  1
  O  O12  1  0.219352  0.460217  0.334402  1
  O  O13  1  0.719352  0.539783  0.165598  1
  O  O14  1  0.780648  0.960217  0.665598  1
  O  O15  1  0.280648  0.039783  0.834402  1
  O  O16  1  0.780648  0.539783  0.665598  1
  O  O17  1  0.280648  0.460217  0.834402  1
  O  O18  1  0.219352  0.039783  0.334402  1
  O  O19  1  0.719352  0.960217  0.165598  1
  O  O20  1  0.789617  0.750000  0.452545  1
  O  O21  1  0.289617  0.250000  0.047455  1
  O  O22  1  0.210383  0.250000  0.547455  1
  O  O23  1  0.710383  0.750000  0.952545  1
  O  O24  1  0.235472  0.750000  0.097897  1
  O  O25  1  0.735472  0.250000  0.402103  1
  O  O26  1  0.764528  0.250000  0.902103  1
  O  O27  1  0.264528  0.750000  0.597897  1
