# generated using pymatgen
data_LaNd15Cd4IrPd3
_symmetry_space_group_name_H-M   'P 1'
_cell_length_a   10.04923938
_cell_length_b   10.00284834
_cell_length_c   10.00284858
_cell_angle_alpha   59.91779032
_cell_angle_beta   60.13031133
_cell_angle_gamma   60.13030498
_symmetry_Int_Tables_number   1
_chemical_formula_structural   LaNd15Cd4IrPd3
_chemical_formula_sum   'La1 Nd15 Cd4 Ir1 Pd3'
_cell_volume   711.94517528
_cell_formula_units_Z   1
loop_
 _symmetry_equiv_pos_site_id
 _symmetry_equiv_pos_as_xyz
  1  'x, y, z'
loop_
 _atom_site_type_symbol
 _atom_site_label
 _atom_site_symmetry_multiplicity
 _atom_site_fract_x
 _atom_site_fract_y
 _atom_site_fract_z
 _atom_site_occupancy
  La  La0  1  0.352241  0.346186  0.346186  1
  Nd  Nd1  1  0.353727  0.349109  0.947740  1
  Nd  Nd2  1  0.353727  0.947740  0.349109  1
  Nd  Nd3  1  0.937324  0.354257  0.354257  1
  Nd  Nd4  1  0.807863  0.189580  0.189580  1
  Nd  Nd5  1  0.194054  0.807870  0.807870  1
  Nd  Nd6  1  0.194351  0.809848  0.189848  1
  Nd  Nd7  1  0.805966  0.189680  0.814308  1
  Nd  Nd8  1  0.194351  0.189848  0.809848  1
  Nd  Nd9  1  0.805966  0.814308  0.189680  1
  Nd  Nd10  1  0.939097  0.564478  0.564478  1
  Nd  Nd11  1  0.566292  0.936428  0.936428  1
  Nd  Nd12  1  0.567585  0.936690  0.561095  1
  Nd  Nd13  1  0.937204  0.563090  0.934649  1
  Nd  Nd14  1  0.567585  0.561095  0.936690  1
  Nd  Nd15  1  0.937204  0.934649  0.563090  1
  Cd  Cd16  1  0.578985  0.581103  0.581103  1
  Cd  Cd17  1  0.579845  0.581813  0.257918  1
  Cd  Cd18  1  0.579845  0.257918  0.581813  1
  Cd  Cd19  1  0.259293  0.580425  0.580425  1
  Ir  Ir20  1  0.570082  0.143211  0.143211  1
  Pd  Pd21  1  0.139872  0.145838  0.145838  1
  Pd  Pd22  1  0.138768  0.144142  0.570689  1
  Pd  Pd23  1  0.138768  0.570689  0.144142  1
