# generated using pymatgen
data_Ho6Er6GaCo4Hg
_symmetry_space_group_name_H-M   'P 1'
_cell_length_a   8.22997408
_cell_length_b   8.22666003
_cell_length_c   8.22665974
_cell_angle_alpha   111.96838937
_cell_angle_beta   109.75073537
_cell_angle_gamma   106.72175405
_symmetry_Int_Tables_number   1
_chemical_formula_structural   Ho6Er6GaCo4Hg
_chemical_formula_sum   'Ho6 Er6 Ga1 Co4 Hg1'
_cell_volume   427.94818792
_cell_formula_units_Z   1
loop_
 _symmetry_equiv_pos_site_id
 _symmetry_equiv_pos_as_xyz
  1  'x, y, z'
loop_
 _atom_site_type_symbol
 _atom_site_label
 _atom_site_symmetry_multiplicity
 _atom_site_fract_x
 _atom_site_fract_y
 _atom_site_fract_z
 _atom_site_occupancy
  Ho  Ho0  1  0.564962  0.262526  0.302436  1
  Ho  Ho1  1  0.435038  0.737474  0.697564  1
  Ho  Ho2  1  0.180081  0.780035  0.960251  1
  Ho  Ho3  1  0.819919  0.780170  0.599955  1
  Ho  Ho4  1  0.180081  0.219830  0.400045  1
  Ho  Ho5  1  0.819919  0.219965  0.039749  1
  Er  Er6  1  0.960121  0.262501  0.697620  1
  Er  Er7  1  0.039879  0.737499  0.302380  1
  Er  Er8  1  0.674032  0.860671  0.186844  1
  Er  Er9  1  0.325968  0.512812  0.186638  1
  Er  Er10  1  0.325968  0.139329  0.813156  1
  Er  Er11  1  0.674032  0.487188  0.813362  1
  Ga  Ga12  1  0.000000  0.500000  0.500000  1
  Co  Co13  1  0.114679  0.114757  0.999922  1
  Co  Co14  1  0.885321  0.885243  0.000078  1
  Co  Co15  1  0.663419  0.500038  0.163381  1
  Co  Co16  1  0.336581  0.499962  0.836619  1
  Hg  Hg17  1  0.500000  0.000000  0.500000  1
