# generated using pymatgen
data_Np2Sc2ReB12W
_symmetry_space_group_name_H-M   'P 1'
_cell_length_a   3.58223500
_cell_length_b   9.03951506
_cell_length_c   11.39533708
_cell_angle_alpha   89.98658162
_cell_angle_beta   90.00000000
_cell_angle_gamma   90.00000000
_symmetry_Int_Tables_number   1
_chemical_formula_structural   Np2Sc2ReB12W
_chemical_formula_sum   'Np4 Sc4 Re2 B24 W2'
_cell_volume   369.00000321
_cell_formula_units_Z   2
loop_
 _symmetry_equiv_pos_site_id
 _symmetry_equiv_pos_as_xyz
  1  'x, y, z'
loop_
 _atom_site_type_symbol
 _atom_site_label
 _atom_site_symmetry_multiplicity
 _atom_site_fract_x
 _atom_site_fract_y
 _atom_site_fract_z
 _atom_site_occupancy
  Np  Np0  1  0.000000  0.320325  0.414112  1
  Np  Np1  1  0.000000  0.679675  0.585888  1
  Np  Np2  1  0.000000  0.821123  0.085216  1
  Np  Np3  1  0.000000  0.178877  0.914784  1
  Sc  Sc4  1  0.000000  0.945986  0.373664  1
  Sc  Sc5  1  0.000000  0.054014  0.626336  1
  Sc  Sc6  1  0.000000  0.444939  0.125856  1
  Sc  Sc7  1  0.000000  0.555061  0.874144  1
  Re  Re8  1  0.000000  0.139303  0.179039  1
  Re  Re9  1  0.000000  0.860697  0.820961  1
  B  B10  1  0.500000  0.552146  0.434772  1
  B  B11  1  0.500000  0.447854  0.565228  1
  B  B12  1  0.500000  0.053280  0.066070  1
  B  B13  1  0.500000  0.946720  0.933930  1
  B  B14  1  0.500000  0.754834  0.421837  1
  B  B15  1  0.500000  0.245166  0.578163  1
  B  B16  1  0.500000  0.253138  0.079792  1
  B  B17  1  0.500000  0.746862  0.920208  1
  B  B18  1  0.500000  0.797481  0.263513  1
  B  B19  1  0.500000  0.202519  0.736487  1
  B  B20  1  0.500000  0.294154  0.234939  1
  B  B21  1  0.500000  0.705846  0.765061  1
  B  B22  1  0.500000  0.631027  0.180618  1
  B  B23  1  0.500000  0.368973  0.819382  1
  B  B24  1  0.500000  0.130304  0.317014  1
  B  B25  1  0.500000  0.869696  0.682986  1
  B  B26  1  0.500000  0.981080  0.213328  1
  B  B27  1  0.500000  0.018920  0.786672  1
  B  B28  1  0.500000  0.477824  0.285300  1
  B  B29  1  0.500000  0.522176  0.714700  1
  B  B30  1  0.500000  0.600594  0.026825  1
  B  B31  1  0.500000  0.399406  0.973175  1
  B  B32  1  0.500000  0.099668  0.471830  1
  B  B33  1  0.500000  0.900332  0.528170  1
  W  W34  1  0.000000  0.640030  0.319757  1
  W  W35  1  0.000000  0.359970  0.680243  1
