# generated using pymatgen
data_Hf6Al16Ir4PdPt2
_symmetry_space_group_name_H-M   'P 1'
_cell_length_a   8.73540989
_cell_length_b   8.72604296
_cell_length_c   8.73541075
_cell_angle_alpha   60.03547606
_cell_angle_beta   59.92906433
_cell_angle_gamma   60.03547987
_symmetry_Int_Tables_number   1
_chemical_formula_structural   Hf6Al16Ir4PdPt2
_chemical_formula_sum   'Hf6 Al16 Ir4 Pd1 Pt2'
_cell_volume   470.83423763
_cell_formula_units_Z   1
loop_
 _symmetry_equiv_pos_site_id
 _symmetry_equiv_pos_as_xyz
  1  'x, y, z'
loop_
 _atom_site_type_symbol
 _atom_site_label
 _atom_site_symmetry_multiplicity
 _atom_site_fract_x
 _atom_site_fract_y
 _atom_site_fract_z
 _atom_site_occupancy
  Hf  Hf0  1  0.683687  0.316313  0.316313  1
  Hf  Hf1  1  0.316313  0.683687  0.683687  1
  Hf  Hf2  1  0.321342  0.678658  0.321342  1
  Hf  Hf3  1  0.678658  0.321342  0.678658  1
  Hf  Hf4  1  0.316313  0.316313  0.683687  1
  Hf  Hf5  1  0.683687  0.683687  0.316313  1
  Al  Al6  1  0.338038  0.339904  0.338038  1
  Al  Al7  1  0.661962  0.660096  0.661962  1
  Al  Al8  1  0.339904  0.338038  0.984021  1
  Al  Al9  1  0.338038  0.984021  0.338038  1
  Al  Al10  1  0.660096  0.661962  0.015979  1
  Al  Al11  1  0.661962  0.015979  0.661962  1
  Al  Al12  1  0.984021  0.338038  0.339904  1
  Al  Al13  1  0.015979  0.661962  0.660096  1
  Al  Al14  1  0.123722  0.115226  0.123722  1
  Al  Al15  1  0.876278  0.884774  0.876278  1
  Al  Al16  1  0.115226  0.123722  0.637331  1
  Al  Al17  1  0.123722  0.637331  0.123722  1
  Al  Al18  1  0.884774  0.876278  0.362669  1
  Al  Al19  1  0.876278  0.362669  0.876278  1
  Al  Al20  1  0.637331  0.123722  0.115226  1
  Al  Al21  1  0.362669  0.876278  0.884774  1
  Ir  Ir22  1  0.500000  0.000000  0.000000  1
  Ir  Ir23  1  0.000000  0.500000  0.500000  1
  Ir  Ir24  1  0.000000  0.000000  0.500000  1
  Ir  Ir25  1  0.500000  0.500000  0.000000  1
  Pd  Pd26  1  0.000000  0.000000  0.000000  1
  Pt  Pt27  1  0.000000  0.500000  0.000000  1
  Pt  Pt28  1  0.500000  0.000000  0.500000  1
