# generated using pymatgen
data_Tb(CrTc2)4
_symmetry_space_group_name_H-M   'P 1'
_cell_length_a   4.81739782
_cell_length_b   6.77426385
_cell_length_c   6.77426433
_cell_angle_alpha   82.73681578
_cell_angle_beta   69.17184952
_cell_angle_gamma   69.17184694
_symmetry_Int_Tables_number   1
_chemical_formula_structural   Tb(CrTc2)4
_chemical_formula_sum   'Tb1 Cr4 Tc8'
_cell_volume   193.12379508
_cell_formula_units_Z   1
loop_
 _symmetry_equiv_pos_site_id
 _symmetry_equiv_pos_as_xyz
  1  'x, y, z'
loop_
 _atom_site_type_symbol
 _atom_site_label
 _atom_site_symmetry_multiplicity
 _atom_site_fract_x
 _atom_site_fract_y
 _atom_site_fract_z
 _atom_site_occupancy
  Tb  Tb0  1  0.000000  0.000000  0.000000  1
  Cr  Cr1  1  0.000000  0.000000  0.500000  1
  Cr  Cr2  1  0.500000  0.000000  0.500000  1
  Cr  Cr3  1  0.500000  0.500000  0.000000  1
  Cr  Cr4  1  0.000000  0.500000  0.000000  1
  Tc  Tc5  1  0.000000  0.356950  0.643050  1
  Tc  Tc6  1  0.000000  0.643050  0.356950  1
  Tc  Tc7  1  0.643050  0.356950  0.356950  1
  Tc  Tc8  1  0.356950  0.643050  0.643050  1
  Tc  Tc9  1  0.500000  0.779059  0.220941  1
  Tc  Tc10  1  0.500000  0.220941  0.779059  1
  Tc  Tc11  1  0.720941  0.779059  0.779059  1
  Tc  Tc12  1  0.279059  0.220941  0.220941  1
