# generated using pymatgen
data_Nb2Co20CuB6
_symmetry_space_group_name_H-M   'P 1'
_cell_length_a   7.43268113
_cell_length_b   7.43268211
_cell_length_c   7.43268200
_cell_angle_alpha   60.00000938
_cell_angle_beta   60.00000502
_cell_angle_gamma   60.00000257
_symmetry_Int_Tables_number   1
_chemical_formula_structural   Nb2Co20CuB6
_chemical_formula_sum   'Nb2 Co20 Cu1 B6'
_cell_volume   290.34989293
_cell_formula_units_Z   1
loop_
 _symmetry_equiv_pos_site_id
 _symmetry_equiv_pos_as_xyz
  1  'x, y, z'
loop_
 _atom_site_type_symbol
 _atom_site_label
 _atom_site_symmetry_multiplicity
 _atom_site_fract_x
 _atom_site_fract_y
 _atom_site_fract_z
 _atom_site_occupancy
  Nb  Nb0  1  0.750000  0.750000  0.750000  1
  Nb  Nb1  1  0.250000  0.250000  0.250000  1
  Co  Co2  1  0.616260  0.616260  0.151220  1
  Co  Co3  1  0.616260  0.151220  0.616260  1
  Co  Co4  1  0.151220  0.616260  0.616260  1
  Co  Co5  1  0.616260  0.616260  0.616260  1
  Co  Co6  1  0.383740  0.383740  0.848780  1
  Co  Co7  1  0.383740  0.848780  0.383740  1
  Co  Co8  1  0.848780  0.383740  0.383740  1
  Co  Co9  1  0.383740  0.383740  0.383740  1
  Co  Co10  1  0.000000  0.000000  0.340272  1
  Co  Co11  1  0.659728  0.000000  0.340272  1
  Co  Co12  1  0.000000  0.659728  0.340272  1
  Co  Co13  1  0.659728  0.340272  0.000000  1
  Co  Co14  1  0.000000  0.340272  0.000000  1
  Co  Co15  1  0.000000  0.340272  0.659728  1
  Co  Co16  1  0.340272  0.659728  0.000000  1
  Co  Co17  1  0.340272  0.000000  0.659728  1
  Co  Co18  1  0.340272  0.000000  0.000000  1
  Co  Co19  1  0.000000  0.000000  0.659728  1
  Co  Co20  1  0.000000  0.659728  0.000000  1
  Co  Co21  1  0.659728  0.000000  0.000000  1
  Cu  Cu22  1  0.000000  0.000000  0.000000  1
  B  B23  1  0.725418  0.725418  0.274582  1
  B  B24  1  0.274582  0.725418  0.274582  1
  B  B25  1  0.725418  0.274582  0.274582  1
  B  B26  1  0.274582  0.274582  0.725418  1
  B  B27  1  0.725418  0.274582  0.725418  1
  B  B28  1  0.274582  0.725418  0.725418  1
