# generated using pymatgen
data_Er6Al(GaNi4)3
_symmetry_space_group_name_H-M   'P 1'
_cell_length_a   7.65103340
_cell_length_b   7.67250234
_cell_length_c   7.65103377
_cell_angle_alpha   109.52807697
_cell_angle_beta   109.41431264
_cell_angle_gamma   109.52806974
_symmetry_Int_Tables_number   1
_chemical_formula_structural   Er6Al(GaNi4)3
_chemical_formula_sum   'Er6 Al1 Ga3 Ni12'
_cell_volume   345.50165464
_cell_formula_units_Z   1
loop_
 _symmetry_equiv_pos_site_id
 _symmetry_equiv_pos_as_xyz
  1  'x, y, z'
loop_
 _atom_site_type_symbol
 _atom_site_label
 _atom_site_symmetry_multiplicity
 _atom_site_fract_x
 _atom_site_fract_y
 _atom_site_fract_z
 _atom_site_occupancy
  Er  Er0  1  0.291250  0.290467  0.000000  1
  Er  Er1  1  0.708751  0.709534  0.000000  1
  Er  Er2  1  0.291250  0.000783  0.291250  1
  Er  Er3  1  0.000000  0.290467  0.291250  1
  Er  Er4  1  0.708751  0.999217  0.708751  1
  Er  Er5  1  0.000000  0.709534  0.708751  1
  Al  Al6  1  0.000000  0.500000  0.000000  1
  Ga  Ga7  1  0.500000  0.000000  0.000000  1
  Ga  Ga8  1  0.000000  0.000000  0.500000  1
  Ga  Ga9  1  0.500000  0.500000  0.500000  1
  Ni  Ni10  1  0.663529  0.338357  0.000000  1
  Ni  Ni11  1  0.336472  0.661644  0.000000  1
  Ni  Ni12  1  0.662271  0.662271  0.324540  1
  Ni  Ni13  1  0.662271  0.000000  0.337730  1
  Ni  Ni14  1  0.000000  0.661644  0.336472  1
  Ni  Ni15  1  0.675460  0.337730  0.337730  1
  Ni  Ni16  1  0.336472  0.674829  0.336472  1
  Ni  Ni17  1  0.337730  0.000000  0.662271  1
  Ni  Ni18  1  0.663529  0.325171  0.663529  1
  Ni  Ni19  1  0.000000  0.338357  0.663529  1
  Ni  Ni20  1  0.324540  0.662271  0.662271  1
  Ni  Ni21  1  0.337730  0.337730  0.675460  1
