# generated using pymatgen
data_YEr19(Cd3Ru)2
_symmetry_space_group_name_H-M   'P 1'
_cell_length_a   9.50923600
_cell_length_b   9.50872066
_cell_length_c   9.76836900
_cell_angle_alpha   90.00000000
_cell_angle_beta   90.00000000
_cell_angle_gamma   119.99817016
_symmetry_Int_Tables_number   1
_chemical_formula_structural   YEr19(Cd3Ru)2
_chemical_formula_sum   'Y1 Er19 Cd6 Ru2'
_cell_volume   764.94183164
_cell_formula_units_Z   1
loop_
 _symmetry_equiv_pos_site_id
 _symmetry_equiv_pos_as_xyz
  1  'x, y, z'
loop_
 _atom_site_type_symbol
 _atom_site_label
 _atom_site_symmetry_multiplicity
 _atom_site_fract_x
 _atom_site_fract_y
 _atom_site_fract_z
 _atom_site_occupancy
  Y  Y0  1  0.082769  0.541386  0.750000  1
  Er  Er1  1  0.999961  0.999983  0.500038  1
  Er  Er2  1  0.999961  0.999983  0.999962  1
  Er  Er3  1  0.209842  0.790526  0.440394  1
  Er  Er4  1  0.209840  0.419312  0.440393  1
  Er  Er5  1  0.580597  0.790299  0.440583  1
  Er  Er6  1  0.789930  0.209489  0.559434  1
  Er  Er7  1  0.789931  0.580440  0.559434  1
  Er  Er8  1  0.419532  0.209764  0.559565  1
  Er  Er9  1  0.789930  0.209489  0.940566  1
  Er  Er10  1  0.789931  0.580440  0.940566  1
  Er  Er11  1  0.419532  0.209764  0.940435  1
  Er  Er12  1  0.209842  0.790526  0.059606  1
  Er  Er13  1  0.209840  0.419312  0.059607  1
  Er  Er14  1  0.580597  0.790299  0.059417  1
  Er  Er15  1  0.541303  0.458734  0.250000  1
  Er  Er16  1  0.541310  0.082574  0.250000  1
  Er  Er17  1  0.917476  0.458736  0.250000  1
  Er  Er18  1  0.459093  0.541188  0.750000  1
  Er  Er19  1  0.459097  0.917906  0.750000  1
  Cd  Cd20  1  0.885238  0.114586  0.250000  1
  Cd  Cd21  1  0.885234  0.770652  0.250000  1
  Cd  Cd22  1  0.229371  0.114688  0.250000  1
  Cd  Cd23  1  0.114768  0.885734  0.750000  1
  Cd  Cd24  1  0.114765  0.229033  0.750000  1
  Cd  Cd25  1  0.770607  0.885305  0.750000  1
  Ru  Ru26  1  0.333285  0.666644  0.250000  1
  Ru  Ru27  1  0.666416  0.333206  0.750000  1
