# generated using pymatgen
data_Ce8Er11Si16Mo
_symmetry_space_group_name_H-M   'P 1'
_cell_length_a   7.40275499
_cell_length_b   14.61950400
_cell_length_c   7.73144800
_cell_angle_alpha   90.00000000
_cell_angle_beta   89.86034307
_cell_angle_gamma   90.00000000
_symmetry_Int_Tables_number   1
_chemical_formula_structural   Ce8Er11Si16Mo
_chemical_formula_sum   'Ce8 Er11 Si16 Mo1'
_cell_volume   836.73042953
_cell_formula_units_Z   1
loop_
 _symmetry_equiv_pos_site_id
 _symmetry_equiv_pos_as_xyz
  1  'x, y, z'
loop_
 _atom_site_type_symbol
 _atom_site_label
 _atom_site_symmetry_multiplicity
 _atom_site_fract_x
 _atom_site_fract_y
 _atom_site_fract_z
 _atom_site_occupancy
  Ce  Ce0  1  0.025324  0.101483  0.174388  1
  Ce  Ce1  1  0.025324  0.398517  0.174388  1
  Ce  Ce2  1  0.516284  0.102006  0.317888  1
  Ce  Ce3  1  0.516284  0.397994  0.317888  1
  Ce  Ce4  1  0.476963  0.595400  0.678390  1
  Ce  Ce5  1  0.476963  0.904600  0.678390  1
  Ce  Ce6  1  0.977808  0.596270  0.822201  1
  Ce  Ce7  1  0.977808  0.903730  0.822201  1
  Er  Er8  1  0.318936  0.619241  0.176430  1
  Er  Er9  1  0.318936  0.880758  0.176430  1
  Er  Er10  1  0.819745  0.621428  0.321204  1
  Er  Er11  1  0.819745  0.878571  0.321204  1
  Er  Er12  1  0.847426  0.250000  0.483013  1
  Er  Er13  1  0.151773  0.750000  0.513536  1
  Er  Er14  1  0.182700  0.125799  0.681445  1
  Er  Er15  1  0.182700  0.374200  0.681445  1
  Er  Er16  1  0.679906  0.127002  0.828679  1
  Er  Er17  1  0.679906  0.372997  0.828679  1
  Er  Er18  1  0.652261  0.750000  0.986181  1
  Si  Si19  1  0.648104  0.536819  0.029540  1
  Si  Si20  1  0.648104  0.963181  0.029540  1
  Si  Si21  1  0.028142  0.750000  0.110012  1
  Si  Si22  1  0.712614  0.250000  0.125399  1
  Si  Si23  1  0.229338  0.250000  0.357670  1
  Si  Si24  1  0.525328  0.750000  0.388907  1
  Si  Si25  1  0.145863  0.537149  0.470391  1
  Si  Si26  1  0.145863  0.962851  0.470391  1
  Si  Si27  1  0.850081  0.041297  0.529668  1
  Si  Si28  1  0.850081  0.458702  0.529668  1
  Si  Si29  1  0.475381  0.250000  0.615008  1
  Si  Si30  1  0.770226  0.750000  0.621889  1
  Si  Si31  1  0.270958  0.750000  0.878678  1
  Si  Si32  1  0.990322  0.250000  0.902889  1
  Si  Si33  1  0.354304  0.050339  0.974116  1
  Si  Si34  1  0.354304  0.449660  0.974116  1
  Mo  Mo35  1  0.354198  0.250000  0.008141  1
