# generated using pymatgen
data_Pr2Nd4ThPt3
_symmetry_space_group_name_H-M   'P 1'
_cell_length_a   6.50029029
_cell_length_b   10.21102752
_cell_length_c   10.21102882
_cell_angle_alpha   119.99729496
_cell_angle_beta   89.97013947
_cell_angle_gamma   90.02986000
_symmetry_Int_Tables_number   1
_chemical_formula_structural   Pr2Nd4ThPt3
_chemical_formula_sum   'Pr4 Nd8 Th2 Pt6'
_cell_volume   586.96754823
_cell_formula_units_Z   2
loop_
 _symmetry_equiv_pos_site_id
 _symmetry_equiv_pos_as_xyz
  1  'x, y, z'
loop_
 _atom_site_type_symbol
 _atom_site_label
 _atom_site_symmetry_multiplicity
 _atom_site_fract_x
 _atom_site_fract_y
 _atom_site_fract_z
 _atom_site_occupancy
  Pr  Pr0  1  0.247599  0.127700  0.872300  1
  Pr  Pr1  1  0.247788  0.744331  0.872028  1
  Pr  Pr2  1  0.247788  0.127972  0.255669  1
  Pr  Pr3  1  0.747591  0.872387  0.127613  1
  Nd  Nd4  1  0.748200  0.255629  0.127761  1
  Nd  Nd5  1  0.748200  0.872239  0.744371  1
  Nd  Nd6  1  0.445987  0.538163  0.461837  1
  Nd  Nd7  1  0.446213  0.923937  0.461990  1
  Nd  Nd8  1  0.446213  0.538010  0.076063  1
  Nd  Nd9  1  0.945600  0.461992  0.538008  1
  Nd  Nd10  1  0.946048  0.075971  0.538166  1
  Nd  Nd11  1  0.946048  0.461834  0.924029  1
  Th  Th12  1  0.464088  0.333231  0.666769  1
  Th  Th13  1  0.963938  0.666645  0.333355  1
  Pt  Pt14  1  0.182485  0.808206  0.191794  1
  Pt  Pt15  1  0.181953  0.383469  0.191648  1
  Pt  Pt16  1  0.181953  0.808352  0.616531  1
  Pt  Pt17  1  0.682754  0.191365  0.808635  1
  Pt  Pt18  1  0.682775  0.616711  0.808144  1
  Pt  Pt19  1  0.682775  0.191856  0.383289  1
