# generated using pymatgen
data_La17Ho(MgIr6)2
_symmetry_space_group_name_H-M   'P 1'
_cell_length_a   11.36046200
_cell_length_b   11.36046200
_cell_length_c   6.44103400
_cell_angle_alpha   90.00000000
_cell_angle_beta   90.00000000
_cell_angle_gamma   90.00000000
_symmetry_Int_Tables_number   1
_chemical_formula_structural   La17Ho(MgIr6)2
_chemical_formula_sum   'La17 Ho1 Mg2 Ir12'
_cell_volume   831.28047188
_cell_formula_units_Z   1
loop_
 _symmetry_equiv_pos_site_id
 _symmetry_equiv_pos_as_xyz
  1  'x, y, z'
loop_
 _atom_site_type_symbol
 _atom_site_label
 _atom_site_symmetry_multiplicity
 _atom_site_fract_x
 _atom_site_fract_y
 _atom_site_fract_z
 _atom_site_occupancy
  La  La0  1  0.280892  0.086478  0.389445  1
  La  La1  1  0.285303  0.912800  0.885411  1
  La  La2  1  0.714697  0.087200  0.885411  1
  La  La3  1  0.719108  0.913522  0.389445  1
  La  La4  1  0.587111  0.783393  0.889305  1
  La  La5  1  0.588016  0.208756  0.383933  1
  La  La6  1  0.411984  0.791244  0.383933  1
  La  La7  1  0.412889  0.216607  0.889305  1
  La  La8  1  0.208756  0.411984  0.616067  1
  La  La9  1  0.216607  0.587111  0.110695  1
  La  La10  1  0.783393  0.412889  0.110695  1
  La  La11  1  0.791244  0.588016  0.616067  1
  La  La12  1  0.912800  0.714697  0.114589  1
  La  La13  1  0.913522  0.280892  0.610555  1
  La  La14  1  0.086478  0.719108  0.610555  1
  La  La15  1  0.087200  0.285303  0.114589  1
  La  La16  1  0.500000  0.500000  0.500000  1
  Ho  Ho17  1  0.000000  0.000000  0.000000  1
  Mg  Mg18  1  0.000000  0.000000  0.500000  1
  Mg  Mg19  1  0.500000  0.500000  0.000000  1
  Ir  Ir20  1  0.850951  0.149099  0.245605  1
  Ir  Ir21  1  0.850901  0.850951  0.754395  1
  Ir  Ir22  1  0.149099  0.149049  0.754395  1
  Ir  Ir23  1  0.149049  0.850901  0.245605  1
  Ir  Ir24  1  0.654516  0.346033  0.747303  1
  Ir  Ir25  1  0.653967  0.654516  0.252697  1
  Ir  Ir26  1  0.346033  0.345484  0.252697  1
  Ir  Ir27  1  0.345484  0.653967  0.747303  1
  Ir  Ir28  1  0.500000  0.000000  0.115106  1
  Ir  Ir29  1  0.500000  0.000000  0.617784  1
  Ir  Ir30  1  0.000000  0.500000  0.884894  1
  Ir  Ir31  1  0.000000  0.500000  0.382216  1
