# generated using pymatgen
data_La3PrAl18(IrPt2)2
_symmetry_space_group_name_H-M   'P 1'
_cell_length_a   7.70935549
_cell_length_b   7.70982091
_cell_length_c   9.61566400
_cell_angle_alpha   90.00000000
_cell_angle_beta   90.00000000
_cell_angle_gamma   119.62386395
_symmetry_Int_Tables_number   1
_chemical_formula_structural   La3PrAl18(IrPt2)2
_chemical_formula_sum   'La3 Pr1 Al18 Ir2 Pt4'
_cell_volume   496.82779919
_cell_formula_units_Z   1
loop_
 _symmetry_equiv_pos_site_id
 _symmetry_equiv_pos_as_xyz
  1  'x, y, z'
loop_
 _atom_site_type_symbol
 _atom_site_label
 _atom_site_symmetry_multiplicity
 _atom_site_fract_x
 _atom_site_fract_y
 _atom_site_fract_z
 _atom_site_occupancy
  La  La0  1  0.994091  0.667797  0.250000  1
  La  La1  1  0.005790  0.332185  0.750000  1
  La  La2  1  0.667820  0.994178  0.250000  1
  Pr  Pr3  1  0.332636  0.005767  0.750000  1
  Al  Al4  1  0.130438  0.130044  0.250000  1
  Al  Al5  1  0.871424  0.870629  0.750000  1
  Al  Al6  1  0.002716  0.330638  0.073793  1
  Al  Al7  1  0.998286  0.670447  0.925591  1
  Al  Al8  1  0.998286  0.670447  0.574409  1
  Al  Al9  1  0.330539  0.002495  0.426863  1
  Al  Al10  1  0.002716  0.330638  0.426207  1
  Al  Al11  1  0.668423  0.997293  0.574286  1
  Al  Al12  1  0.668423  0.997293  0.925714  1
  Al  Al13  1  0.330539  0.002495  0.073137  1
  Al  Al14  1  0.332013  0.331230  0.551202  1
  Al  Al15  1  0.667813  0.667862  0.449808  1
  Al  Al16  1  0.667813  0.667862  0.050192  1
  Al  Al17  1  0.332013  0.331230  0.948798  1
  Al  Al18  1  0.341075  0.542767  0.250000  1
  Al  Al19  1  0.658103  0.456051  0.750000  1
  Al  Al20  1  0.542226  0.340661  0.250000  1
  Al  Al21  1  0.457004  0.659924  0.750000  1
  Ir  Ir22  1  0.999970  0.000017  0.000016  1
  Ir  Ir23  1  0.999970  0.000017  0.499984  1
  Pt  Pt24  1  0.670920  0.328959  0.000000  1
  Pt  Pt25  1  0.329016  0.671056  0.000007  1
  Pt  Pt26  1  0.329016  0.671056  0.499993  1
  Pt  Pt27  1  0.670920  0.328959  0.500000  1
