# generated using pymatgen
data_Lu4Ga4Co3Cu
_symmetry_space_group_name_H-M   'P 1'
_cell_length_a   4.34039700
_cell_length_b   6.84651008
_cell_length_c   6.96815099
_cell_angle_alpha   89.96605056
_cell_angle_beta   90.00000000
_cell_angle_gamma   90.00000000
_symmetry_Int_Tables_number   1
_chemical_formula_structural   Lu4Ga4Co3Cu
_chemical_formula_sum   'Lu4 Ga4 Co3 Cu1'
_cell_volume   207.06952283
_cell_formula_units_Z   1
loop_
 _symmetry_equiv_pos_site_id
 _symmetry_equiv_pos_as_xyz
  1  'x, y, z'
loop_
 _atom_site_type_symbol
 _atom_site_label
 _atom_site_symmetry_multiplicity
 _atom_site_fract_x
 _atom_site_fract_y
 _atom_site_fract_z
 _atom_site_occupancy
  Lu  Lu0  1  0.250000  0.491497  0.201981  1
  Lu  Lu1  1  0.750000  0.520711  0.802115  1
  Lu  Lu2  1  0.750000  0.014231  0.692258  1
  Lu  Lu3  1  0.250000  0.975932  0.303475  1
  Ga  Ga4  1  0.250000  0.797858  0.896417  1
  Ga  Ga5  1  0.750000  0.196926  0.114043  1
  Ga  Ga6  1  0.750000  0.698205  0.398865  1
  Ga  Ga7  1  0.250000  0.299192  0.592821  1
  Co  Co8  1  0.250000  0.657830  0.564328  1
  Co  Co9  1  0.750000  0.341287  0.437170  1
  Co  Co10  1  0.750000  0.834794  0.065975  1
  Cu  Cu11  1  0.250000  0.171538  0.930551  1
