# generated using pymatgen
data_Tb16MgCd3Ni3Os
_symmetry_space_group_name_H-M   'P 1'
_cell_length_a   9.67202707
_cell_length_b   9.67202643
_cell_length_c   9.67202702
_cell_angle_alpha   59.49572744
_cell_angle_beta   59.49573874
_cell_angle_gamma   59.49573005
_symmetry_Int_Tables_number   1
_chemical_formula_structural   Tb16MgCd3Ni3Os
_chemical_formula_sum   'Tb16 Mg1 Cd3 Ni3 Os1'
_cell_volume   632.45248715
_cell_formula_units_Z   1
loop_
 _symmetry_equiv_pos_site_id
 _symmetry_equiv_pos_as_xyz
  1  'x, y, z'
loop_
 _atom_site_type_symbol
 _atom_site_label
 _atom_site_symmetry_multiplicity
 _atom_site_fract_x
 _atom_site_fract_y
 _atom_site_fract_z
 _atom_site_occupancy
  Tb  Tb0  1  0.347953  0.347953  0.347953  1
  Tb  Tb1  1  0.349503  0.349503  0.956653  1
  Tb  Tb2  1  0.349503  0.956653  0.349503  1
  Tb  Tb3  1  0.956653  0.349503  0.349503  1
  Tb  Tb4  1  0.810123  0.188962  0.188962  1
  Tb  Tb5  1  0.185946  0.812102  0.812102  1
  Tb  Tb6  1  0.188962  0.810123  0.188962  1
  Tb  Tb7  1  0.812102  0.185946  0.812102  1
  Tb  Tb8  1  0.188962  0.188962  0.810123  1
  Tb  Tb9  1  0.812102  0.812102  0.185946  1
  Tb  Tb10  1  0.936325  0.566290  0.566290  1
  Tb  Tb11  1  0.557160  0.939145  0.939145  1
  Tb  Tb12  1  0.566290  0.936325  0.566290  1
  Tb  Tb13  1  0.939145  0.557160  0.939145  1
  Tb  Tb14  1  0.566290  0.566290  0.936325  1
  Tb  Tb15  1  0.939145  0.939145  0.557160  1
  Mg  Mg16  1  0.575649  0.575649  0.575649  1
  Cd  Cd17  1  0.580176  0.580176  0.255354  1
  Cd  Cd18  1  0.580176  0.255354  0.580176  1
  Cd  Cd19  1  0.255354  0.580176  0.580176  1
  Ni  Ni20  1  0.142232  0.142232  0.575017  1
  Ni  Ni21  1  0.142232  0.575017  0.142232  1
  Ni  Ni22  1  0.575017  0.142232  0.142232  1
  Os  Os23  1  0.143003  0.143003  0.143003  1
