# generated using pymatgen
data_Yb2LuTh(Al8Pt3)3
_symmetry_space_group_name_H-M   'P 1'
_cell_length_a   7.54769834
_cell_length_b   7.56897968
_cell_length_c   13.22644375
_cell_angle_alpha   84.55842634
_cell_angle_beta   79.08405243
_cell_angle_gamma   59.94536926
_symmetry_Int_Tables_number   1
_chemical_formula_structural   Yb2LuTh(Al8Pt3)3
_chemical_formula_sum   'Yb2 Lu1 Th1 Al24 Pt9'
_cell_volume   642.17912842
_cell_formula_units_Z   1
loop_
 _symmetry_equiv_pos_site_id
 _symmetry_equiv_pos_as_xyz
  1  'x, y, z'
loop_
 _atom_site_type_symbol
 _atom_site_label
 _atom_site_symmetry_multiplicity
 _atom_site_fract_x
 _atom_site_fract_y
 _atom_site_fract_z
 _atom_site_occupancy
  Yb  Yb0  1  0.605578  0.830945  0.193662  1
  Yb  Yb1  1  0.733719  0.499277  0.807811  1
  Lu  Lu2  1  0.265832  0.501396  0.194562  1
  Th  Th3  1  0.394684  0.167396  0.807848  1
  Al  Al4  1  0.687210  0.830762  0.948714  1
  Al  Al5  1  0.315522  0.167090  0.059260  1
  Al  Al6  1  0.147535  0.832161  0.559568  1
  Al  Al7  1  0.853655  0.168092  0.437759  1
  Al  Al8  1  0.480759  0.166260  0.556299  1
  Al  Al9  1  0.520751  0.832685  0.439959  1
  Al  Al10  1  0.217786  0.164814  0.328252  1
  Al  Al11  1  0.787854  0.830125  0.667123  1
  Al  Al12  1  0.438655  0.510559  0.667405  1
  Al  Al13  1  0.563164  0.494152  0.328114  1
  Al  Al14  1  0.106357  0.160414  0.665632  1
  Al  Al15  1  0.890251  0.839802  0.329758  1
  Al  Al16  1  0.351306  0.503010  0.947938  1
  Al  Al17  1  0.645167  0.501648  0.056238  1
  Al  Al18  1  0.011721  0.167208  0.958230  1
  Al  Al19  1  0.984297  0.830209  0.049664  1
  Al  Al20  1  0.186250  0.499538  0.440512  1
  Al  Al21  1  0.813482  0.500822  0.558208  1
  Al  Al22  1  0.731205  0.168451  0.183118  1
  Al  Al23  1  0.263665  0.834154  0.816916  1
  Al  Al24  1  0.060293  0.634065  0.815894  1
  Al  Al25  1  0.940571  0.368814  0.184325  1
  Al  Al26  1  0.858300  0.039741  0.816632  1
  Al  Al27  1  0.142981  0.956171  0.183576  1
  Pt  Pt28  1  0.121639  0.491156  0.638069  1
  Pt  Pt29  1  0.881190  0.507755  0.360890  1
  Pt  Pt30  1  0.656985  0.171591  0.000144  1
  Pt  Pt31  1  0.342371  0.829837  0.000335  1
  Pt  Pt32  1  0.537030  0.167659  0.360660  1
  Pt  Pt33  1  0.461738  0.834443  0.637769  1
  Pt  Pt34  1  0.778098  0.174354  0.636666  1
  Pt  Pt35  1  0.220978  0.824493  0.362161  1
  Pt  Pt36  1  0.001418  0.498952  0.000329  1
