# generated using pymatgen
data_Dy5Ho7Ni4SnAu
_symmetry_space_group_name_H-M   'P 1'
_cell_length_a   8.35419315
_cell_length_b   8.35163009
_cell_length_c   8.35419426
_cell_angle_alpha   112.69254689
_cell_angle_beta   109.11202961
_cell_angle_gamma   106.67869128
_symmetry_Int_Tables_number   1
_chemical_formula_structural   Dy5Ho7Ni4SnAu
_chemical_formula_sum   'Dy5 Ho7 Ni4 Sn1 Au1'
_cell_volume   447.37508247
_cell_formula_units_Z   1
loop_
 _symmetry_equiv_pos_site_id
 _symmetry_equiv_pos_as_xyz
  1  'x, y, z'
loop_
 _atom_site_type_symbol
 _atom_site_label
 _atom_site_symmetry_multiplicity
 _atom_site_fract_x
 _atom_site_fract_y
 _atom_site_fract_z
 _atom_site_occupancy
  Dy  Dy0  1  0.676306  0.482909  0.806602  1
  Dy  Dy1  1  0.180179  0.204739  0.385079  1
  Dy  Dy2  1  0.819661  0.204739  0.024559  1
  Dy  Dy3  1  0.180611  0.795375  0.975631  1
  Dy  Dy4  1  0.819745  0.795375  0.614762  1
  Ho  Ho5  1  0.022292  0.720578  0.301956  1
  Ho  Ho6  1  0.978204  0.279338  0.698436  1
  Ho  Ho7  1  0.580902  0.279338  0.301133  1
  Ho  Ho8  1  0.418622  0.720578  0.698287  1
  Ho  Ho9  1  0.675553  0.868549  0.192995  1
  Ho  Ho10  1  0.324099  0.516849  0.192751  1
  Ho  Ho11  1  0.324259  0.131314  0.807055  1
  Ni  Ni12  1  0.637144  0.500005  0.137495  1
  Ni  Ni13  1  0.362510  0.500005  0.862862  1
  Ni  Ni14  1  0.873560  0.873959  0.000400  1
  Ni  Ni15  1  0.126742  0.126713  0.999971  1
  Sn  Sn16  1  0.499852  0.999380  0.499528  1
  Au  Au17  1  0.999759  0.500257  0.500498  1
