# generated using pymatgen
data_Sr2Co5PdO12
_symmetry_space_group_name_H-M   'P 1'
_cell_length_a   5.01687600
_cell_length_b   6.07052883
_cell_length_c   8.70417100
_cell_angle_alpha   89.99996225
_cell_angle_beta   89.99998858
_cell_angle_gamma   73.71201973
_symmetry_Int_Tables_number   1
_chemical_formula_structural   Sr2Co5PdO12
_chemical_formula_sum   'Sr2 Co5 Pd1 O12'
_cell_volume   254.44685025
_cell_formula_units_Z   1
loop_
 _symmetry_equiv_pos_site_id
 _symmetry_equiv_pos_as_xyz
  1  'x, y, z'
loop_
 _atom_site_type_symbol
 _atom_site_label
 _atom_site_symmetry_multiplicity
 _atom_site_fract_x
 _atom_site_fract_y
 _atom_site_fract_z
 _atom_site_occupancy
  Sr  Sr0  1  0.000000  0.499999  0.169753  1
  Sr  Sr1  1  0.500001  0.500000  0.661504  1
  Co  Co2  1  0.000000  0.000000  0.662371  1
  Co  Co3  1  0.500000  0.000000  0.495142  1
  Co  Co4  1  0.500000  0.000000  0.171232  1
  Co  Co5  1  0.000000  0.000000  0.334984  1
  Co  Co6  1  0.000000  0.000000  0.003584  1
  Pd  Pd7  1  0.500000  0.000000  0.833937  1
  O  O8  1  0.780064  0.167259  0.171604  1
  O  O9  1  0.270451  0.174142  0.657755  1
  O  O10  1  0.219935  0.832741  0.171605  1
  O  O11  1  0.729549  0.825858  0.657755  1
  O  O12  1  0.269006  0.172734  0.009312  1
  O  O13  1  0.776567  0.168681  0.496599  1
  O  O14  1  0.270644  0.168433  0.333258  1
  O  O15  1  0.788261  0.176122  0.831883  1
  O  O16  1  0.729356  0.831567  0.333258  1
  O  O17  1  0.211739  0.823879  0.831883  1
  O  O18  1  0.730994  0.827265  0.009312  1
  O  O19  1  0.223433  0.831320  0.496599  1
