# generated using pymatgen
data_Li12Y5TmIn6
_symmetry_space_group_name_H-M   'P 1'
_cell_length_a   4.85116321
_cell_length_b   6.81977301
_cell_length_c   14.54604965
_cell_angle_alpha   89.99439942
_cell_angle_beta   90.03379132
_cell_angle_gamma   90.00172520
_symmetry_Int_Tables_number   1
_chemical_formula_structural   Li12Y5TmIn6
_chemical_formula_sum   'Li12 Y5 Tm1 In6'
_cell_volume   481.23897567
_cell_formula_units_Z   1
loop_
 _symmetry_equiv_pos_site_id
 _symmetry_equiv_pos_as_xyz
  1  'x, y, z'
loop_
 _atom_site_type_symbol
 _atom_site_label
 _atom_site_symmetry_multiplicity
 _atom_site_fract_x
 _atom_site_fract_y
 _atom_site_fract_z
 _atom_site_occupancy
  Li  Li0  1  0.499841  0.249741  0.000025  1
  Li  Li1  1  0.500160  0.750258  0.999974  1
  Li  Li2  1  0.000401  0.248934  0.166083  1
  Li  Li3  1  0.000652  0.751009  0.166179  1
  Li  Li4  1  0.500541  0.250796  0.333216  1
  Li  Li5  1  0.500441  0.749191  0.333201  1
  Li  Li6  1  0.000032  0.249525  0.500026  1
  Li  Li7  1  0.999968  0.750472  0.499974  1
  Li  Li8  1  0.499559  0.250818  0.666800  1
  Li  Li9  1  0.499457  0.749203  0.666788  1
  Li  Li10  1  0.999349  0.248988  0.833818  1
  Li  Li11  1  0.999602  0.751067  0.833917  1
  Y  Y12  1  0.500557  0.500060  0.166889  1
  Y  Y13  1  0.000357  0.000097  0.333310  1
  Y  Y14  1  0.500000  0.499999  0.499999  1
  Y  Y15  1  0.999642  0.999901  0.666688  1
  Y  Y16  1  0.499445  0.499939  0.833112  1
  Tm  Tm17  1  0.000000  0.999999  0.000001  1
  In  In18  1  0.000000  0.500000  0.999999  1
  In  In19  1  0.500489  0.999904  0.166026  1
  In  In20  1  0.000570  0.500012  0.333292  1
  In  In21  1  0.500000  0.000000  0.500000  1
  In  In22  1  0.999430  0.499987  0.666708  1
  In  In23  1  0.499511  0.000095  0.833974  1
