# generated using pymatgen
data_Al4Fe2CoPt
_symmetry_space_group_name_H-M   'P 1'
_cell_length_a   5.84274300
_cell_length_b   4.12696000
_cell_length_c   8.26824800
_cell_angle_alpha   90.00000000
_cell_angle_beta   90.00017834
_cell_angle_gamma   90.00000000
_symmetry_Int_Tables_number   1
_chemical_formula_structural   Al4Fe2CoPt
_chemical_formula_sum   'Al8 Fe4 Co2 Pt2'
_cell_volume   199.37033464
_cell_formula_units_Z   2
loop_
 _symmetry_equiv_pos_site_id
 _symmetry_equiv_pos_as_xyz
  1  'x, y, z'
loop_
 _atom_site_type_symbol
 _atom_site_label
 _atom_site_symmetry_multiplicity
 _atom_site_fract_x
 _atom_site_fract_y
 _atom_site_fract_z
 _atom_site_occupancy
  Al  Al0  1  0.990394  0.750001  0.114694  1
  Al  Al1  1  0.509602  0.750001  0.114695  1
  Al  Al2  1  0.009499  0.250001  0.385226  1
  Al  Al3  1  0.490489  0.250001  0.385232  1
  Al  Al4  1  0.492402  0.750001  0.633168  1
  Al  Al5  1  0.007605  0.750001  0.633167  1
  Al  Al6  1  0.507605  0.250001  0.866888  1
  Al  Al7  1  0.992401  0.250001  0.866890  1
  Fe  Fe8  1  0.749996  0.250001  0.125036  1
  Fe  Fe9  1  0.249997  0.750001  0.374875  1
  Fe  Fe10  1  0.750005  0.250001  0.624499  1
  Fe  Fe11  1  0.250003  0.750001  0.875628  1
  Co  Co12  1  0.250002  0.250001  0.627835  1
  Co  Co13  1  0.750002  0.750001  0.872145  1
  Pt  Pt14  1  0.249999  0.250001  0.124354  1
  Pt  Pt15  1  0.749997  0.750001  0.375667  1
