# generated using pymatgen
data_Tb3Al6Cu2Tc
_symmetry_space_group_name_H-M   'P 1'
_cell_length_a   9.07864393
_cell_length_b   9.07864400
_cell_length_c   9.07864430
_cell_angle_alpha   34.96608620
_cell_angle_beta   34.96608414
_cell_angle_gamma   34.96608275
_symmetry_Int_Tables_number   1
_chemical_formula_structural   Tb3Al6Cu2Tc
_chemical_formula_sum   'Tb3 Al6 Cu2 Tc1'
_cell_volume   219.42145785
_cell_formula_units_Z   1
loop_
 _symmetry_equiv_pos_site_id
 _symmetry_equiv_pos_as_xyz
  1  'x, y, z'
loop_
 _atom_site_type_symbol
 _atom_site_label
 _atom_site_symmetry_multiplicity
 _atom_site_fract_x
 _atom_site_fract_y
 _atom_site_fract_z
 _atom_site_occupancy
  Tb  Tb0  1  0.000000  0.000000  0.000000  1
  Tb  Tb1  1  0.142383  0.142383  0.142383  1
  Tb  Tb2  1  0.857617  0.857617  0.857617  1
  Al  Al3  1  0.578130  0.578130  0.083262  1
  Al  Al4  1  0.916738  0.421871  0.421870  1
  Al  Al5  1  0.421871  0.916738  0.421870  1
  Al  Al6  1  0.578130  0.083262  0.578130  1
  Al  Al7  1  0.083262  0.578130  0.578130  1
  Al  Al8  1  0.421870  0.421870  0.916738  1
  Cu  Cu9  1  0.332852  0.332852  0.332852  1
  Cu  Cu10  1  0.667148  0.667148  0.667148  1
  Tc  Tc11  1  0.500000  0.500000  0.500000  1
