# generated using pymatgen
data_Yb3Hg2Pd3Pb
_symmetry_space_group_name_H-M   'P 1'
_cell_length_a   7.73574429
_cell_length_b   7.69640144
_cell_length_c   3.94824600
_cell_angle_alpha   90.00000000
_cell_angle_beta   90.00000000
_cell_angle_gamma   119.83190135
_symmetry_Int_Tables_number   1
_chemical_formula_structural   Yb3Hg2Pd3Pb
_chemical_formula_sum   'Yb3 Hg2 Pd3 Pb1'
_cell_volume   203.91905224
_cell_formula_units_Z   1
loop_
 _symmetry_equiv_pos_site_id
 _symmetry_equiv_pos_as_xyz
  1  'x, y, z'
loop_
 _atom_site_type_symbol
 _atom_site_label
 _atom_site_symmetry_multiplicity
 _atom_site_fract_x
 _atom_site_fract_y
 _atom_site_fract_z
 _atom_site_occupancy
  Yb  Yb0  1  0.407444  0.398221  0.500000  1
  Yb  Yb1  1  0.592556  0.990778  0.500000  1
  Yb  Yb2  1  0.000000  0.613871  0.500000  1
  Hg  Hg3  1  0.731513  0.731452  0.000000  1
  Hg  Hg4  1  0.268487  0.999938  0.000000  1
  Pd  Pd5  1  0.671080  0.331066  0.000000  1
  Pd  Pd6  1  0.328920  0.659987  0.000000  1
  Pd  Pd7  1  0.000000  0.009216  0.500000  1
  Pb  Pb8  1  0.000000  0.265472  0.000000  1
