# generated using pymatgen
data_DyLu9(SiSb2)2
_symmetry_space_group_name_H-M   'P 1'
_cell_length_a   7.81700351
_cell_length_b   8.89185800
_cell_length_c   11.69488277
_cell_angle_alpha   90.00000000
_cell_angle_beta   90.09188224
_cell_angle_gamma   90.00000000
_symmetry_Int_Tables_number   1
_chemical_formula_structural   DyLu9(SiSb2)2
_chemical_formula_sum   'Dy2 Lu18 Si4 Sb8'
_cell_volume   812.88318431
_cell_formula_units_Z   2
loop_
 _symmetry_equiv_pos_site_id
 _symmetry_equiv_pos_as_xyz
  1  'x, y, z'
loop_
 _atom_site_type_symbol
 _atom_site_label
 _atom_site_symmetry_multiplicity
 _atom_site_fract_x
 _atom_site_fract_y
 _atom_site_fract_z
 _atom_site_occupancy
  Dy  Dy0  1  0.361226  0.250000  0.706639  1
  Dy  Dy1  1  0.638774  0.750000  0.293361  1
  Lu  Lu2  1  0.335424  0.750000  0.714427  1
  Lu  Lu3  1  0.664576  0.250000  0.285573  1
  Lu  Lu4  1  0.835887  0.250000  0.785822  1
  Lu  Lu5  1  0.164113  0.750000  0.214178  1
  Lu  Lu6  1  0.038884  0.750000  0.501948  1
  Lu  Lu7  1  0.961116  0.250000  0.498052  1
  Lu  Lu8  1  0.539330  0.250000  0.998537  1
  Lu  Lu9  1  0.460670  0.750000  0.001463  1
  Lu  Lu10  1  0.861073  0.750000  0.793537  1
  Lu  Lu11  1  0.138927  0.250000  0.206463  1
  Lu  Lu12  1  0.684083  0.551655  0.565758  1
  Lu  Lu13  1  0.315917  0.448345  0.434242  1
  Lu  Lu14  1  0.183819  0.448626  0.935001  1
  Lu  Lu15  1  0.315917  0.051655  0.434242  1
  Lu  Lu16  1  0.816181  0.551374  0.064999  1
  Lu  Lu17  1  0.684083  0.948345  0.565758  1
  Lu  Lu18  1  0.816181  0.948626  0.064999  1
  Lu  Lu19  1  0.183819  0.051374  0.935001  1
  Si  Si20  1  0.083547  0.750000  0.979991  1
  Si  Si21  1  0.916453  0.250000  0.020009  1
  Si  Si22  1  0.584834  0.250000  0.518333  1
  Si  Si23  1  0.415166  0.750000  0.481667  1
  Sb  Sb24  1  0.570045  0.511485  0.827332  1
  Sb  Sb25  1  0.429955  0.488515  0.172668  1
  Sb  Sb26  1  0.067594  0.490082  0.673324  1
  Sb  Sb27  1  0.429955  0.011485  0.172668  1
  Sb  Sb28  1  0.932406  0.509918  0.326676  1
  Sb  Sb29  1  0.570045  0.988515  0.827332  1
  Sb  Sb30  1  0.932406  0.990082  0.326676  1
  Sb  Sb31  1  0.067594  0.009918  0.673324  1
