# generated using pymatgen
data_CeAl5Cu6
_symmetry_space_group_name_H-M   'P 1'
_cell_length_a   10.36738183
_cell_length_b   8.20590880
_cell_length_c   7.87848069
_cell_angle_alpha   80.23747595
_cell_angle_beta   51.26517630
_cell_angle_gamma   48.49734472
_symmetry_Int_Tables_number   1
_chemical_formula_structural   CeAl5Cu6
_chemical_formula_sum   'Ce2 Al10 Cu12'
_cell_volume   355.44205693
_cell_formula_units_Z   2
loop_
 _symmetry_equiv_pos_site_id
 _symmetry_equiv_pos_as_xyz
  1  'x, y, z'
loop_
 _atom_site_type_symbol
 _atom_site_label
 _atom_site_symmetry_multiplicity
 _atom_site_fract_x
 _atom_site_fract_y
 _atom_site_fract_z
 _atom_site_occupancy
  Ce  Ce0  1  0.000000  0.000000  0.000000  1
  Ce  Ce1  1  0.250000  0.250000  0.250000  1
  Al  Al2  1  0.500000  0.500000  0.500000  1
  Al  Al3  1  0.750000  0.750000  0.750000  1
  Al  Al4  1  0.756018  0.070159  0.833329  1
  Al  Al5  1  0.833329  0.340495  0.756018  1
  Al  Al6  1  0.070159  0.756018  0.340495  1
  Al  Al7  1  0.340495  0.833329  0.070159  1
  Al  Al8  1  0.493982  0.179841  0.416671  1
  Al  Al9  1  0.416671  0.909505  0.493982  1
  Al  Al10  1  0.179841  0.493982  0.909505  1
  Al  Al11  1  0.909505  0.416671  0.179841  1
  Cu  Cu12  1  0.625000  0.125000  0.625000  1
  Cu  Cu13  1  0.625000  0.625000  0.625000  1
  Cu  Cu14  1  0.125000  0.625000  0.625000  1
  Cu  Cu15  1  0.625000  0.625000  0.125000  1
  Cu  Cu16  1  0.490586  0.435759  0.182971  1
  Cu  Cu17  1  0.182971  0.890683  0.490586  1
  Cu  Cu18  1  0.435759  0.490586  0.890683  1
  Cu  Cu19  1  0.890683  0.182971  0.435759  1
  Cu  Cu20  1  0.759414  0.814241  0.067029  1
  Cu  Cu21  1  0.067029  0.359317  0.759414  1
  Cu  Cu22  1  0.814241  0.759414  0.359317  1
  Cu  Cu23  1  0.359317  0.067029  0.814241  1
