# generated using pymatgen
data_Co5Si7Mo11WC2
_symmetry_space_group_name_H-M   'P 1'
_cell_length_a   7.75543019
_cell_length_b   7.75542943
_cell_length_c   7.75307835
_cell_angle_alpha   60.32491735
_cell_angle_beta   60.32492145
_cell_angle_gamma   60.40255018
_symmetry_Int_Tables_number   1
_chemical_formula_structural   Co5Si7Mo11WC2
_chemical_formula_sum   'Co5 Si7 Mo11 W1 C2'
_cell_volume   332.35574996
_cell_formula_units_Z   1
loop_
 _symmetry_equiv_pos_site_id
 _symmetry_equiv_pos_as_xyz
  1  'x, y, z'
loop_
 _atom_site_type_symbol
 _atom_site_label
 _atom_site_symmetry_multiplicity
 _atom_site_fract_x
 _atom_site_fract_y
 _atom_site_fract_z
 _atom_site_occupancy
  Co  Co0  1  0.830556  0.830556  0.829821  1
  Co  Co1  1  0.617324  0.617324  0.141114  1
  Co  Co2  1  0.618567  0.141562  0.616883  1
  Co  Co3  1  0.141562  0.618567  0.616883  1
  Co  Co4  1  0.627396  0.627396  0.628480  1
  Si  Si5  1  0.415534  0.415534  0.756365  1
  Si  Si6  1  0.417328  0.755126  0.415306  1
  Si  Si7  1  0.755126  0.417328  0.415306  1
  Si  Si8  1  0.413228  0.413228  0.413610  1
  Si  Si9  1  0.836384  0.836384  0.502650  1
  Si  Si10  1  0.837555  0.502629  0.837481  1
  Si  Si11  1  0.502629  0.837555  0.837481  1
  Mo  Mo12  1  0.443055  0.055295  0.443284  1
  Mo  Mo13  1  0.055295  0.443055  0.443284  1
  Mo  Mo14  1  0.441876  0.441876  0.057325  1
  Mo  Mo15  1  0.053803  0.448998  0.053754  1
  Mo  Mo16  1  0.448998  0.053803  0.053754  1
  Mo  Mo17  1  0.190850  0.190850  0.807267  1
  Mo  Mo18  1  0.807361  0.187711  0.806103  1
  Mo  Mo19  1  0.187711  0.807361  0.806103  1
  Mo  Mo20  1  0.807167  0.807167  0.186696  1
  Mo  Mo21  1  0.190327  0.808837  0.190867  1
  Mo  Mo22  1  0.808837  0.190327  0.190867  1
  W  W23  1  0.053315  0.053315  0.448697  1
  C  C24  1  0.248999  0.248999  0.251607  1
  C  C25  1  0.999216  0.999216  0.999011  1
