# generated using pymatgen
data_Th4CdCu20Hg3
_symmetry_space_group_name_H-M   'P 1'
_cell_length_a   5.10037100
_cell_length_b   8.34197256
_cell_length_c   10.59744418
_cell_angle_alpha   89.91073311
_cell_angle_beta   90.00000000
_cell_angle_gamma   90.00000000
_symmetry_Int_Tables_number   1
_chemical_formula_structural   Th4CdCu20Hg3
_chemical_formula_sum   'Th4 Cd1 Cu20 Hg3'
_cell_volume   450.89055208
_cell_formula_units_Z   1
loop_
 _symmetry_equiv_pos_site_id
 _symmetry_equiv_pos_as_xyz
  1  'x, y, z'
loop_
 _atom_site_type_symbol
 _atom_site_label
 _atom_site_symmetry_multiplicity
 _atom_site_fract_x
 _atom_site_fract_y
 _atom_site_fract_z
 _atom_site_occupancy
  Th  Th0  1  0.250000  0.254230  0.567542  1
  Th  Th1  1  0.750000  0.747107  0.434426  1
  Th  Th2  1  0.250000  0.754894  0.934930  1
  Th  Th3  1  0.750000  0.244200  0.062614  1
  Cd  Cd4  1  0.750000  0.361524  0.364246  1
  Cu  Cu5  1  0.501110  0.566091  0.186863  1
  Cu  Cu6  1  0.999617  0.433100  0.813986  1
  Cu  Cu7  1  0.999662  0.068401  0.313982  1
  Cu  Cu8  1  0.499976  0.932883  0.686018  1
  Cu  Cu9  1  0.750000  0.684504  0.757968  1
  Cu  Cu10  1  0.250000  0.315861  0.242823  1
  Cu  Cu11  1  0.750000  0.184744  0.741803  1
  Cu  Cu12  1  0.250000  0.815258  0.258246  1
  Cu  Cu13  1  0.750000  0.944601  0.889758  1
  Cu  Cu14  1  0.250000  0.055396  0.110439  1
  Cu  Cu15  1  0.750000  0.444126  0.608353  1
  Cu  Cu16  1  0.250000  0.553906  0.390267  1
  Cu  Cu17  1  0.750000  0.582533  0.985457  1
  Cu  Cu18  1  0.250000  0.417602  0.015118  1
  Cu  Cu19  1  0.750000  0.084422  0.514760  1
  Cu  Cu20  1  0.250000  0.917236  0.484920  1
  Cu  Cu21  1  0.500338  0.068401  0.313982  1
  Cu  Cu22  1  0.000024  0.932883  0.686018  1
  Cu  Cu23  1  0.998890  0.566091  0.186863  1
  Cu  Cu24  1  0.500383  0.433100  0.813986  1
  Hg  Hg25  1  0.250000  0.637193  0.634271  1
  Hg  Hg26  1  0.750000  0.862670  0.134217  1
  Hg  Hg27  1  0.250000  0.137042  0.866143  1
