# generated using pymatgen
data_Ti7(VSn2)5
_symmetry_space_group_name_H-M   'P 1'
_cell_length_a   9.17438500
_cell_length_b   9.19306781
_cell_length_c   5.57776166
_cell_angle_alpha   89.95168018
_cell_angle_beta   90.00000000
_cell_angle_gamma   119.93279933
_symmetry_Int_Tables_number   1
_chemical_formula_structural   Ti7(VSn2)5
_chemical_formula_sum   'Ti7 V5 Sn10'
_cell_volume   407.68195799
_cell_formula_units_Z   1
loop_
 _symmetry_equiv_pos_site_id
 _symmetry_equiv_pos_as_xyz
  1  'x, y, z'
loop_
 _atom_site_type_symbol
 _atom_site_label
 _atom_site_symmetry_multiplicity
 _atom_site_fract_x
 _atom_site_fract_y
 _atom_site_fract_z
 _atom_site_occupancy
  Ti  Ti0  1  0.842989  0.685978  0.747715  1
  Ti  Ti1  1  0.153435  0.840990  0.249721  1
  Ti  Ti2  1  0.687555  0.840990  0.249721  1
  Ti  Ti3  1  0.312445  0.159010  0.750279  1
  Ti  Ti4  1  0.846565  0.159010  0.750279  1
  Ti  Ti5  1  0.157011  0.314022  0.252285  1
  Ti  Ti6  1  0.500000  0.000000  0.000000  1
  V  V7  1  0.500000  0.000000  0.500000  1
  V  V8  1  0.500000  0.500000  0.000000  1
  V  V9  1  0.000000  0.500000  0.000000  1
  V  V10  1  0.000000  0.500000  0.500000  1
  V  V11  1  0.500000  0.500000  0.500000  1
  Sn  Sn12  1  0.208062  0.416125  0.751550  1
  Sn  Sn13  1  0.794695  0.208765  0.252680  1
  Sn  Sn14  1  0.414070  0.208765  0.252680  1
  Sn  Sn15  1  0.585930  0.791235  0.747320  1
  Sn  Sn16  1  0.205305  0.791235  0.747320  1
  Sn  Sn17  1  0.791938  0.583875  0.248450  1
  Sn  Sn18  1  0.667036  0.334072  0.745863  1
  Sn  Sn19  1  0.332964  0.665928  0.254137  1
  Sn  Sn20  1  0.000000  0.000000  0.500000  1
  Sn  Sn21  1  0.000000  0.000000  0.000000  1
