# generated using pymatgen
data_Tm3LuCo18(ReP6)2
_symmetry_space_group_name_H-M   'P 1'
_cell_length_a   3.66873100
_cell_length_b   10.28364016
_cell_length_c   11.72490520
_cell_angle_alpha   90.02085025
_cell_angle_beta   90.00000000
_cell_angle_gamma   90.00000000
_symmetry_Int_Tables_number   1
_chemical_formula_structural   Tm3LuCo18(ReP6)2
_chemical_formula_sum   'Tm3 Lu1 Co18 Re2 P12'
_cell_volume   442.35613260
_cell_formula_units_Z   1
loop_
 _symmetry_equiv_pos_site_id
 _symmetry_equiv_pos_as_xyz
  1  'x, y, z'
loop_
 _atom_site_type_symbol
 _atom_site_label
 _atom_site_symmetry_multiplicity
 _atom_site_fract_x
 _atom_site_fract_y
 _atom_site_fract_z
 _atom_site_occupancy
  Tm  Tm0  1  0.250000  0.582441  0.702900  1
  Tm  Tm1  1  0.250000  0.917568  0.202874  1
  Tm  Tm2  1  0.750000  0.415227  0.295223  1
  Lu  Lu3  1  0.750000  0.084712  0.795440  1
  Co  Co4  1  0.750000  0.283591  0.009176  1
  Co  Co5  1  0.750000  0.216206  0.509380  1
  Co  Co6  1  0.250000  0.406370  0.487992  1
  Co  Co7  1  0.250000  0.093863  0.987235  1
  Co  Co8  1  0.750000  0.592551  0.511581  1
  Co  Co9  1  0.750000  0.907724  0.011392  1
  Co  Co10  1  0.250000  0.220399  0.177200  1
  Co  Co11  1  0.250000  0.279145  0.677450  1
  Co  Co12  1  0.750000  0.777765  0.822467  1
  Co  Co13  1  0.750000  0.722394  0.322531  1
  Co  Co14  1  0.250000  0.887569  0.702130  1
  Co  Co15  1  0.250000  0.613005  0.201572  1
  Co  Co16  1  0.750000  0.115846  0.300559  1
  Co  Co17  1  0.750000  0.383686  0.800371  1
  Co  Co18  1  0.250000  0.464317  0.932275  1
  Co  Co19  1  0.250000  0.035473  0.432859  1
  Co  Co20  1  0.750000  0.532792  0.068563  1
  Co  Co21  1  0.750000  0.967383  0.569318  1
  Re  Re22  1  0.250000  0.710635  0.989067  1
  Re  Re23  1  0.250000  0.789569  0.489543  1
  P  P24  1  0.250000  0.416291  0.113006  1
  P  P25  1  0.250000  0.083546  0.613913  1
  P  P26  1  0.750000  0.578074  0.885562  1
  P  P27  1  0.750000  0.921860  0.385925  1
  P  P28  1  0.250000  0.267676  0.868434  1
  P  P29  1  0.250000  0.231654  0.368775  1
  P  P30  1  0.750000  0.730576  0.133326  1
  P  P31  1  0.750000  0.769450  0.633496  1
  P  P32  1  0.250000  0.593910  0.390342  1
  P  P33  1  0.250000  0.906693  0.890192  1
  P  P34  1  0.750000  0.398601  0.608948  1
  P  P35  1  0.750000  0.101438  0.108984  1
