# generated using pymatgen
data_YbYHo4(CoSn6)2
_symmetry_space_group_name_H-M   'P 1'
_cell_length_a   8.45900913
_cell_length_b   8.45900951
_cell_length_c   13.12055909
_cell_angle_alpha   90.02124676
_cell_angle_beta   89.97875390
_cell_angle_gamma   148.52118085
_symmetry_Int_Tables_number   1
_chemical_formula_structural   YbYHo4(CoSn6)2
_chemical_formula_sum   'Yb1 Y1 Ho4 Co2 Sn12'
_cell_volume   490.24629348
_cell_formula_units_Z   1
loop_
 _symmetry_equiv_pos_site_id
 _symmetry_equiv_pos_as_xyz
  1  'x, y, z'
loop_
 _atom_site_type_symbol
 _atom_site_label
 _atom_site_symmetry_multiplicity
 _atom_site_fract_x
 _atom_site_fract_y
 _atom_site_fract_z
 _atom_site_occupancy
  Yb  Yb0  1  0.899358  0.100642  0.403309  1
  Y  Y1  1  0.898569  0.101431  0.094225  1
  Ho  Ho2  1  0.101564  0.898436  0.595296  1
  Ho  Ho3  1  0.900983  0.099017  0.752204  1
  Ho  Ho4  1  0.100933  0.899067  0.905970  1
  Ho  Ho5  1  0.099503  0.900497  0.248977  1
  Co  Co6  1  0.298961  0.701039  0.250218  1
  Co  Co7  1  0.700000  0.300000  0.749633  1
  Sn  Sn8  1  0.757785  0.242215  0.572087  1
  Sn  Sn9  1  0.428179  0.571821  0.576923  1
  Sn  Sn10  1  0.573012  0.426988  0.424223  1
  Sn  Sn11  1  0.733586  0.266414  0.249026  1
  Sn  Sn12  1  0.265794  0.734206  0.750426  1
  Sn  Sn13  1  0.243137  0.756863  0.071288  1
  Sn  Sn14  1  0.243272  0.756728  0.428837  1
  Sn  Sn15  1  0.572389  0.427611  0.074767  1
  Sn  Sn16  1  0.454439  0.545561  0.248168  1
  Sn  Sn17  1  0.545716  0.454284  0.750784  1
  Sn  Sn18  1  0.756243  0.243757  0.928202  1
  Sn  Sn19  1  0.426577  0.573423  0.925438  1
