# generated using pymatgen
data_Zr5Mn7Co9(MoP4)3
_symmetry_space_group_name_H-M   'P 1'
_cell_length_a   12.00040801
_cell_length_b   12.04387330
_cell_length_c   3.68159500
_cell_angle_alpha   90.00000000
_cell_angle_beta   90.00000000
_cell_angle_gamma   119.88326739
_symmetry_Int_Tables_number   1
_chemical_formula_structural   Zr5Mn7Co9(MoP4)3
_chemical_formula_sum   'Zr5 Mn7 Co9 Mo3 P12'
_cell_volume   461.35845370
_cell_formula_units_Z   1
loop_
 _symmetry_equiv_pos_site_id
 _symmetry_equiv_pos_as_xyz
  1  'x, y, z'
loop_
 _atom_site_type_symbol
 _atom_site_label
 _atom_site_symmetry_multiplicity
 _atom_site_fract_x
 _atom_site_fract_y
 _atom_site_fract_z
 _atom_site_occupancy
  Zr  Zr0  1  0.666763  0.333715  0.000000  1
  Zr  Zr1  1  0.337692  0.667886  0.000000  1
  Zr  Zr2  1  0.818175  0.815564  0.500000  1
  Zr  Zr3  1  0.184561  0.004961  0.500000  1
  Zr  Zr4  1  0.996319  0.180698  0.500000  1
  Mn  Mn5  1  0.196062  0.379292  0.000000  1
  Mn  Mn6  1  0.182927  0.803847  0.000000  1
  Mn  Mn7  1  0.823837  0.624737  0.000000  1
  Mn  Mn8  1  0.796221  0.172452  0.000000  1
  Mn  Mn9  1  0.376588  0.202948  0.000000  1
  Mn  Mn10  1  0.123580  0.471786  0.500000  1
  Mn  Mn11  1  0.351247  0.875904  0.500000  1
  Co  Co12  1  0.520453  0.648082  0.500000  1
  Co  Co13  1  0.643912  0.516583  0.500000  1
  Co  Co14  1  0.870256  0.355436  0.500000  1
  Co  Co15  1  0.484068  0.128446  0.500000  1
  Co  Co16  1  0.000355  0.999824  0.000000  1
  Co  Co17  1  0.717965  0.994442  0.500000  1
  Co  Co18  1  0.003680  0.722082  0.500000  1
  Co  Co19  1  0.627433  0.819660  0.000000  1
  Co  Co20  1  0.278624  0.283153  0.500000  1
  Mo  Mo21  1  0.445860  0.447377  0.000000  1
  Mo  Mo22  1  0.551384  0.995136  0.000000  1
  Mo  Mo23  1  0.001991  0.555772  0.000000  1
  P  P24  1  0.646439  0.642798  0.000000  1
  P  P25  1  0.358071  0.009384  0.000000  1
  P  P26  1  0.989943  0.348929  0.000000  1
  P  P27  1  0.480597  0.313809  0.500000  1
  P  P28  1  0.686700  0.167137  0.500000  1
  P  P29  1  0.832041  0.520770  0.500000  1
  P  P30  1  0.519521  0.831915  0.500000  1
  P  P31  1  0.165414  0.679287  0.500000  1
  P  P32  1  0.823679  0.000302  0.000000  1
  P  P33  1  0.999414  0.822674  0.000000  1
  P  P34  1  0.321564  0.485398  0.500000  1
  P  P35  1  0.176666  0.177815  0.000000  1
