# generated using pymatgen
data_CeY9(Sn3N)2
_symmetry_space_group_name_H-M   'P 1'
_cell_length_a   8.93836296
_cell_length_b   8.93836374
_cell_length_c   6.45153800
_cell_angle_alpha   90.00000000
_cell_angle_beta   90.00000000
_cell_angle_gamma   120.24214522
_symmetry_Int_Tables_number   1
_chemical_formula_structural   CeY9(Sn3N)2
_chemical_formula_sum   'Ce1 Y9 Sn6 N2'
_cell_volume   445.29214672
_cell_formula_units_Z   1
loop_
 _symmetry_equiv_pos_site_id
 _symmetry_equiv_pos_as_xyz
  1  'x, y, z'
loop_
 _atom_site_type_symbol
 _atom_site_label
 _atom_site_symmetry_multiplicity
 _atom_site_fract_x
 _atom_site_fract_y
 _atom_site_fract_z
 _atom_site_occupancy
  Ce  Ce0  1  0.791689  0.791689  0.750000  1
  Y  Y1  1  0.665667  0.333298  0.000451  1
  Y  Y2  1  0.333298  0.665667  0.000451  1
  Y  Y3  1  0.333298  0.665667  0.499549  1
  Y  Y4  1  0.665667  0.333298  0.499549  1
  Y  Y5  1  0.220849  0.001974  0.750000  1
  Y  Y6  1  0.001974  0.220849  0.750000  1
  Y  Y7  1  0.216013  0.216013  0.250000  1
  Y  Y8  1  0.783257  0.000069  0.250000  1
  Y  Y9  1  0.000069  0.783257  0.250000  1
  Sn  Sn10  1  0.403370  0.403370  0.750000  1
  Sn  Sn11  1  0.595558  0.002030  0.750000  1
  Sn  Sn12  1  0.002030  0.595558  0.750000  1
  Sn  Sn13  1  0.595061  0.595061  0.250000  1
  Sn  Sn14  1  0.402551  0.999854  0.250000  1
  Sn  Sn15  1  0.999854  0.402551  0.250000  1
  N  N16  1  0.994898  0.994898  0.998527  1
  N  N17  1  0.994898  0.994898  0.501473  1
