# generated using pymatgen
data_Zr6Al5GaPd6
_symmetry_space_group_name_H-M   'P 1'
_cell_length_a   7.23557100
_cell_length_b   7.26657489
_cell_length_c   7.10888800
_cell_angle_alpha   89.99999727
_cell_angle_beta   89.85351640
_cell_angle_gamma   120.14183322
_symmetry_Int_Tables_number   1
_chemical_formula_structural   Zr6Al5GaPd6
_chemical_formula_sum   'Zr6 Al5 Ga1 Pd6'
_cell_volume   323.22913288
_cell_formula_units_Z   1
loop_
 _symmetry_equiv_pos_site_id
 _symmetry_equiv_pos_as_xyz
  1  'x, y, z'
loop_
 _atom_site_type_symbol
 _atom_site_label
 _atom_site_symmetry_multiplicity
 _atom_site_fract_x
 _atom_site_fract_y
 _atom_site_fract_z
 _atom_site_occupancy
  Zr  Zr0  1  0.608905  0.589017  0.249804  1
  Zr  Zr1  1  0.018529  0.412432  0.750148  1
  Zr  Zr2  1  0.411007  0.018971  0.250154  1
  Zr  Zr3  1  0.981471  0.393902  0.249852  1
  Zr  Zr4  1  0.391095  0.980112  0.750196  1
  Zr  Zr5  1  0.588993  0.607966  0.749846  1
  Al  Al6  1  0.256361  0.257792  0.500026  1
  Al  Al7  1  0.743639  0.001430  0.499974  1
  Al  Al8  1  0.000000  0.743225  0.500000  1
  Al  Al9  1  0.739493  0.003950  0.999862  1
  Al  Al10  1  0.260507  0.264457  0.000138  1
  Ga  Ga11  1  0.000000  0.730134  0.000000  1
  Pd  Pd12  1  0.333267  0.666698  0.471966  1
  Pd  Pd13  1  0.999874  0.000046  0.754301  1
  Pd  Pd14  1  0.000126  0.000172  0.245699  1
  Pd  Pd15  1  0.338699  0.667484  0.028976  1
  Pd  Pd16  1  0.666733  0.333429  0.528034  1
  Pd  Pd17  1  0.661301  0.328783  0.971024  1
