# generated using pymatgen
data_Tb2Fe2P6Ru5Rh3
_symmetry_space_group_name_H-M   'P 1'
_cell_length_a   3.86395500
_cell_length_b   10.67343200
_cell_length_c   12.29402300
_cell_angle_alpha   90.00000000
_cell_angle_beta   90.00000000
_cell_angle_gamma   90.00000000
_symmetry_Int_Tables_number   1
_chemical_formula_structural   Tb2Fe2P6Ru5Rh3
_chemical_formula_sum   'Tb4 Fe4 P12 Ru10 Rh6'
_cell_volume   507.02592820
_cell_formula_units_Z   2
loop_
 _symmetry_equiv_pos_site_id
 _symmetry_equiv_pos_as_xyz
  1  'x, y, z'
loop_
 _atom_site_type_symbol
 _atom_site_label
 _atom_site_symmetry_multiplicity
 _atom_site_fract_x
 _atom_site_fract_y
 _atom_site_fract_z
 _atom_site_occupancy
  Tb  Tb0  1  0.250000  0.582281  0.706644  1
  Tb  Tb1  1  0.250000  0.917719  0.206644  1
  Tb  Tb2  1  0.750000  0.414796  0.292234  1
  Tb  Tb3  1  0.750000  0.085204  0.792234  1
  Fe  Fe4  1  0.250000  0.464229  0.936555  1
  Fe  Fe5  1  0.250000  0.035771  0.436555  1
  Fe  Fe6  1  0.750000  0.539491  0.065093  1
  Fe  Fe7  1  0.750000  0.960509  0.565093  1
  P  P8  1  0.250000  0.425221  0.108297  1
  P  P9  1  0.250000  0.074779  0.608297  1
  P  P10  1  0.750000  0.572450  0.893173  1
  P  P11  1  0.750000  0.927550  0.393173  1
  P  P12  1  0.250000  0.270783  0.870625  1
  P  P13  1  0.250000  0.229217  0.370625  1
  P  P14  1  0.750000  0.731794  0.126315  1
  P  P15  1  0.750000  0.768206  0.626315  1
  P  P16  1  0.250000  0.596825  0.395701  1
  P  P17  1  0.250000  0.903175  0.895701  1
  P  P18  1  0.750000  0.396405  0.605369  1
  P  P19  1  0.750000  0.103595  0.105369  1
  Ru  Ru20  1  0.250000  0.707262  0.986060  1
  Ru  Ru21  1  0.250000  0.792738  0.486060  1
  Ru  Ru22  1  0.750000  0.296387  0.014384  1
  Ru  Ru23  1  0.750000  0.203613  0.514384  1
  Ru  Ru24  1  0.250000  0.402170  0.486693  1
  Ru  Ru25  1  0.250000  0.097830  0.986693  1
  Ru  Ru26  1  0.750000  0.593874  0.512295  1
  Ru  Ru27  1  0.750000  0.906126  0.012295  1
  Ru  Ru28  1  0.250000  0.229146  0.177537  1
  Ru  Ru29  1  0.250000  0.270854  0.677537  1
  Rh  Rh30  1  0.750000  0.767928  0.821624  1
  Rh  Rh31  1  0.750000  0.732072  0.321624  1
  Rh  Rh32  1  0.250000  0.885424  0.702564  1
  Rh  Rh33  1  0.250000  0.614576  0.202564  1
  Rh  Rh34  1  0.750000  0.112946  0.298838  1
  Rh  Rh35  1  0.750000  0.387054  0.798838  1
