# generated using pymatgen
data_Ba3B2Rh6Pb
_symmetry_space_group_name_H-M   'P 1'
_cell_length_a   8.33234500
_cell_length_b   8.33234558
_cell_length_c   8.33234547
_cell_angle_alpha   41.49671414
_cell_angle_beta   41.49670892
_cell_angle_gamma   41.49671363
_symmetry_Int_Tables_number   1
_chemical_formula_structural   Ba3B2Rh6Pb
_chemical_formula_sum   'Ba3 B2 Rh6 Pb1'
_cell_volume   229.49935194
_cell_formula_units_Z   1
loop_
 _symmetry_equiv_pos_site_id
 _symmetry_equiv_pos_as_xyz
  1  'x, y, z'
loop_
 _atom_site_type_symbol
 _atom_site_label
 _atom_site_symmetry_multiplicity
 _atom_site_fract_x
 _atom_site_fract_y
 _atom_site_fract_z
 _atom_site_occupancy
  Ba  Ba0  1  0.356132  0.356132  0.356132  1
  Ba  Ba1  1  0.500000  0.500000  0.500000  1
  Ba  Ba2  1  0.643868  0.643868  0.643868  1
  B  B3  1  0.169527  0.169527  0.169527  1
  B  B4  1  0.830473  0.830473  0.830473  1
  Rh  Rh5  1  0.568330  0.057982  0.057982  1
  Rh  Rh6  1  0.057982  0.568330  0.057982  1
  Rh  Rh7  1  0.942018  0.942018  0.431669  1
  Rh  Rh8  1  0.057982  0.057982  0.568331  1
  Rh  Rh9  1  0.942018  0.431670  0.942018  1
  Rh  Rh10  1  0.431670  0.942018  0.942018  1
  Pb  Pb11  1  0.000000  0.000000  0.000000  1
