# generated using pymatgen
data_Ce6Pa2TiS17
_symmetry_space_group_name_H-M   'P 1'
_cell_length_a   7.88210071
_cell_length_b   7.88210086
_cell_length_c   10.48507500
_cell_angle_alpha   80.80062332
_cell_angle_beta   80.80061579
_cell_angle_gamma   65.39135255
_symmetry_Int_Tables_number   1
_chemical_formula_structural   Ce6Pa2TiS17
_chemical_formula_sum   'Ce6 Pa2 Ti1 S17'
_cell_volume   581.46104952
_cell_formula_units_Z   1
loop_
 _symmetry_equiv_pos_site_id
 _symmetry_equiv_pos_as_xyz
  1  'x, y, z'
loop_
 _atom_site_type_symbol
 _atom_site_label
 _atom_site_symmetry_multiplicity
 _atom_site_fract_x
 _atom_site_fract_y
 _atom_site_fract_z
 _atom_site_occupancy
  Ce  Ce0  1  0.814928  0.301299  0.298884  1
  Ce  Ce1  1  0.301299  0.814928  0.298884  1
  Ce  Ce2  1  0.185072  0.698701  0.701116  1
  Ce  Ce3  1  0.698701  0.185072  0.701116  1
  Ce  Ce4  1  0.206249  0.206249  0.543355  1
  Ce  Ce5  1  0.793751  0.793751  0.456645  1
  Pa  Pa6  1  0.681992  0.681992  0.981059  1
  Pa  Pa7  1  0.318008  0.318008  0.018941  1
  Ti  Ti8  1  0.000000  0.000000  0.000000  1
  S  S9  1  0.821317  0.431728  0.532823  1
  S  S10  1  0.431728  0.821317  0.532823  1
  S  S11  1  0.178683  0.568272  0.467177  1
  S  S12  1  0.568272  0.178683  0.467177  1
  S  S13  1  0.941193  0.326707  0.021502  1
  S  S14  1  0.326707  0.941193  0.021502  1
  S  S15  1  0.058807  0.673293  0.978498  1
  S  S16  1  0.673293  0.058807  0.978498  1
  S  S17  1  0.215419  0.215419  0.268194  1
  S  S18  1  0.784581  0.784581  0.731806  1
  S  S19  1  0.060204  0.060204  0.774966  1
  S  S20  1  0.939796  0.939796  0.225034  1
  S  S21  1  0.301419  0.301419  0.765916  1
  S  S22  1  0.698581  0.698581  0.234084  1
  S  S23  1  0.521271  0.521271  0.843395  1
  S  S24  1  0.478729  0.478729  0.156605  1
  S  S25  1  0.000000  0.000000  0.500000  1
