# generated using pymatgen
data_DyY3(AsS)2
_symmetry_space_group_name_H-M   'P 1'
_cell_length_a   6.96102750
_cell_length_b   6.96102740
_cell_length_c   5.69722705
_cell_angle_alpha   66.12334508
_cell_angle_beta   66.12334618
_cell_angle_gamma   48.39221596
_symmetry_Int_Tables_number   1
_chemical_formula_structural   DyY3(AsS)2
_chemical_formula_sum   'Dy1 Y3 As2 S2'
_cell_volume   184.97894672
_cell_formula_units_Z   1
loop_
 _symmetry_equiv_pos_site_id
 _symmetry_equiv_pos_as_xyz
  1  'x, y, z'
loop_
 _atom_site_type_symbol
 _atom_site_label
 _atom_site_symmetry_multiplicity
 _atom_site_fract_x
 _atom_site_fract_y
 _atom_site_fract_z
 _atom_site_occupancy
  Dy  Dy0  1  0.625301  0.625301  0.626833  1
  Y  Y1  1  0.875082  0.875082  0.875492  1
  Y  Y2  1  0.374702  0.374702  0.373161  1
  Y  Y3  1  0.124908  0.124908  0.124517  1
  As  As4  1  0.624697  0.624697  0.127201  1
  As  As5  1  0.375375  0.375375  0.872727  1
  S  S6  1  0.125360  0.125360  0.623952  1
  S  S7  1  0.874576  0.874576  0.376117  1
