# generated using pymatgen
data_Er16Al4IrPd3
_symmetry_space_group_name_H-M   'P 1'
_cell_length_a   9.52902395
_cell_length_b   9.49303656
_cell_length_c   9.49303800
_cell_angle_alpha   59.99999498
_cell_angle_beta   60.12484576
_cell_angle_gamma   60.12484259
_symmetry_Int_Tables_number   1
_chemical_formula_structural   Er16Al4IrPd3
_chemical_formula_sum   'Er16 Al4 Ir1 Pd3'
_cell_volume   608.36010531
_cell_formula_units_Z   1
loop_
 _symmetry_equiv_pos_site_id
 _symmetry_equiv_pos_as_xyz
  1  'x, y, z'
loop_
 _atom_site_type_symbol
 _atom_site_label
 _atom_site_symmetry_multiplicity
 _atom_site_fract_x
 _atom_site_fract_y
 _atom_site_fract_z
 _atom_site_occupancy
  Er  Er0  1  0.608663  0.602508  0.602508  1
  Er  Er1  1  0.608663  0.602508  0.186320  1
  Er  Er2  1  0.608663  0.186320  0.602508  1
  Er  Er3  1  0.180590  0.606470  0.606470  1
  Er  Er4  1  0.054819  0.441420  0.441420  1
  Er  Er5  1  0.442436  0.057337  0.057337  1
  Er  Er6  1  0.442436  0.057337  0.442891  1
  Er  Er7  1  0.054819  0.441420  0.062342  1
  Er  Er8  1  0.442436  0.442891  0.057337  1
  Er  Er9  1  0.054819  0.062342  0.441420  1
  Er  Er10  1  0.186087  0.814882  0.814882  1
  Er  Er11  1  0.816530  0.186093  0.186093  1
  Er  Er12  1  0.816530  0.186093  0.811284  1
  Er  Er13  1  0.186087  0.814882  0.184151  1
  Er  Er14  1  0.816530  0.811284  0.186093  1
  Er  Er15  1  0.186087  0.184151  0.814882  1
  Al  Al16  1  0.827559  0.828719  0.828719  1
  Al  Al17  1  0.827559  0.828719  0.515002  1
  Al  Al18  1  0.827559  0.515002  0.828719  1
  Al  Al19  1  0.514215  0.828595  0.828595  1
  Ir  Ir20  1  0.819213  0.393596  0.393596  1
  Pd  Pd21  1  0.392567  0.394915  0.394915  1
  Pd  Pd22  1  0.392567  0.394915  0.817601  1
  Pd  Pd23  1  0.392567  0.817601  0.394915  1
