# generated using pymatgen
data_Yb11Sm(CuGe)12
_symmetry_space_group_name_H-M   'P 1'
_cell_length_a   4.32038900
_cell_length_b   7.37209608
_cell_length_c   20.90765700
_cell_angle_alpha   89.99163735
_cell_angle_beta   90.00000000
_cell_angle_gamma   90.00000000
_symmetry_Int_Tables_number   1
_chemical_formula_structural   Yb11Sm(CuGe)12
_chemical_formula_sum   'Yb11 Sm1 Cu12 Ge12'
_cell_volume   665.91561744
_cell_formula_units_Z   1
loop_
 _symmetry_equiv_pos_site_id
 _symmetry_equiv_pos_as_xyz
  1  'x, y, z'
loop_
 _atom_site_type_symbol
 _atom_site_label
 _atom_site_symmetry_multiplicity
 _atom_site_fract_x
 _atom_site_fract_y
 _atom_site_fract_z
 _atom_site_occupancy
  Yb  Yb0  1  0.250000  0.720027  0.003896  1
  Yb  Yb1  1  0.750000  0.281180  0.998937  1
  Yb  Yb2  1  0.750000  0.217446  0.497545  1
  Yb  Yb3  1  0.250000  0.783059  0.501742  1
  Yb  Yb4  1  0.250000  0.790695  0.166419  1
  Yb  Yb5  1  0.750000  0.214336  0.833413  1
  Yb  Yb6  1  0.750000  0.290393  0.333569  1
  Yb  Yb7  1  0.250000  0.710953  0.664884  1
  Yb  Yb8  1  0.250000  0.708918  0.333355  1
  Yb  Yb9  1  0.750000  0.289301  0.665575  1
  Yb  Yb10  1  0.750000  0.208495  0.166605  1
  Sm  Sm11  1  0.250000  0.791798  0.833709  1
  Cu  Cu12  1  0.250000  0.415368  0.096148  1
  Cu  Cu13  1  0.750000  0.580568  0.904516  1
  Cu  Cu14  1  0.750000  0.915560  0.403986  1
  Cu  Cu15  1  0.250000  0.084897  0.595956  1
  Cu  Cu16  1  0.250000  0.412985  0.236654  1
  Cu  Cu17  1  0.750000  0.584466  0.762740  1
  Cu  Cu18  1  0.750000  0.913694  0.263659  1
  Cu  Cu19  1  0.250000  0.088795  0.735539  1
  Cu  Cu20  1  0.250000  0.418075  0.435474  1
  Cu  Cu21  1  0.750000  0.581982  0.564129  1
  Cu  Cu22  1  0.750000  0.918404  0.066023  1
  Cu  Cu23  1  0.250000  0.082888  0.939048  1
  Ge  Ge24  1  0.250000  0.088937  0.068523  1
  Ge  Ge25  1  0.750000  0.909950  0.927389  1
  Ge  Ge26  1  0.750000  0.588288  0.431769  1
  Ge  Ge27  1  0.250000  0.411422  0.568503  1
  Ge  Ge28  1  0.250000  0.081423  0.269512  1
  Ge  Ge29  1  0.750000  0.918015  0.731296  1
  Ge  Ge30  1  0.750000  0.580881  0.230374  1
  Ge  Ge31  1  0.250000  0.418006  0.768448  1
  Ge  Ge32  1  0.250000  0.084014  0.398783  1
  Ge  Ge33  1  0.750000  0.916405  0.601151  1
  Ge  Ge34  1  0.750000  0.585088  0.101709  1
  Ge  Ge35  1  0.250000  0.413287  0.899018  1
