# generated using pymatgen
data_Yb2Co2PtO8
_symmetry_space_group_name_H-M   'P 1'
_cell_length_a   6.18487443
_cell_length_b   6.18487365
_cell_length_c   4.98361260
_cell_angle_alpha   72.41334564
_cell_angle_beta   72.41333509
_cell_angle_gamma   58.39171806
_symmetry_Int_Tables_number   1
_chemical_formula_structural   Yb2Co2PtO8
_chemical_formula_sum   'Yb2 Co2 Pt1 O8'
_cell_volume   152.32061072
_cell_formula_units_Z   1
loop_
 _symmetry_equiv_pos_site_id
 _symmetry_equiv_pos_as_xyz
  1  'x, y, z'
loop_
 _atom_site_type_symbol
 _atom_site_label
 _atom_site_symmetry_multiplicity
 _atom_site_fract_x
 _atom_site_fract_y
 _atom_site_fract_z
 _atom_site_occupancy
  Yb  Yb0  1  0.721286  0.727136  0.341490  1
  Yb  Yb1  1  0.272864  0.278714  0.658510  1
  Co  Co2  1  0.008954  0.991046  0.500000  1
  Co  Co3  1  0.255568  0.744432  0.000000  1
  Pt  Pt4  1  0.748219  0.251781  0.000000  1
  O  O5  1  0.377978  0.412038  0.955349  1
  O  O6  1  0.587962  0.622022  0.044651  1
  O  O7  1  0.912591  0.888464  0.905676  1
  O  O8  1  0.111536  0.087409  0.094324  1
  O  O9  1  0.317467  0.884403  0.609469  1
  O  O10  1  0.890880  0.320903  0.580379  1
  O  O11  1  0.115597  0.682533  0.390531  1
  O  O12  1  0.679097  0.109120  0.419621  1
