# generated using pymatgen
data_Pr18Y2Si15Ru
_symmetry_space_group_name_H-M   'P 1'
_cell_length_a   7.87430334
_cell_length_b   7.88485891
_cell_length_c   15.29815924
_cell_angle_alpha   90.24421448
_cell_angle_beta   89.80503604
_cell_angle_gamma   90.00454809
_symmetry_Int_Tables_number   1
_chemical_formula_structural   Pr18Y2Si15Ru
_chemical_formula_sum   'Pr18 Y2 Si15 Ru1'
_cell_volume   949.81447576
_cell_formula_units_Z   1
loop_
 _symmetry_equiv_pos_site_id
 _symmetry_equiv_pos_as_xyz
  1  'x, y, z'
loop_
 _atom_site_type_symbol
 _atom_site_label
 _atom_site_symmetry_multiplicity
 _atom_site_fract_x
 _atom_site_fract_y
 _atom_site_fract_z
 _atom_site_occupancy
  Pr  Pr0  1  0.827845  0.188494  0.749356  1
  Pr  Pr1  1  0.697004  0.691956  0.500791  1
  Pr  Pr2  1  0.371408  0.012529  0.448539  1
  Pr  Pr3  1  0.485420  0.881388  0.697583  1
  Pr  Pr4  1  0.513253  0.124138  0.197289  1
  Pr  Pr5  1  0.877203  0.485687  0.300342  1
  Pr  Pr6  1  0.127621  0.505281  0.801075  1
  Pr  Pr7  1  0.624599  0.987086  0.948074  1
  Pr  Pr8  1  0.006328  0.379614  0.551246  1
  Pr  Pr9  1  0.987383  0.625253  0.051896  1
  Pr  Pr10  1  0.133580  0.980199  0.875653  1
  Pr  Pr11  1  0.520928  0.629655  0.126527  1
  Pr  Pr12  1  0.470238  0.362494  0.630956  1
  Pr  Pr13  1  0.627354  0.516128  0.874410  1
  Pr  Pr14  1  0.374997  0.481233  0.371109  1
  Pr  Pr15  1  0.871742  0.024821  0.375812  1
  Pr  Pr16  1  0.979223  0.126748  0.123871  1
  Pr  Pr17  1  0.028060  0.879496  0.625505  1
  Y  Y18  1  0.309022  0.308145  0.000209  1
  Y  Y19  1  0.188783  0.810212  0.249983  1
  Si  Si20  1  0.331150  0.689720  0.955487  1
  Si  Si21  1  0.662681  0.304913  0.454116  1
  Si  Si22  1  0.692772  0.330824  0.046205  1
  Si  Si23  1  0.306792  0.668714  0.543887  1
  Si  Si24  1  0.810333  0.829272  0.206075  1
  Si  Si25  1  0.171405  0.191798  0.293534  1
  Si  Si26  1  0.832386  0.802353  0.798772  1
  Si  Si27  1  0.286721  0.921978  0.062413  1
  Si  Si28  1  0.574873  0.789054  0.309577  1
  Si  Si29  1  0.416216  0.212107  0.816287  1
  Si  Si30  1  0.778486  0.582735  0.690719  1
  Si  Si31  1  0.213136  0.423313  0.186781  1
  Si  Si32  1  0.703736  0.075321  0.559372  1
  Si  Si33  1  0.925432  0.287288  0.941975  1
  Si  Si34  1  0.082565  0.717497  0.436331  1
  Ru  Ru35  1  0.189326  0.172556  0.698246  1
