# generated using pymatgen
data_La4ErTl2InBr
_symmetry_space_group_name_H-M   'P 1'
_cell_length_a   9.68265751
_cell_length_b   9.68265675
_cell_length_c   6.93483009
_cell_angle_alpha   90.05423967
_cell_angle_beta   90.05423777
_cell_angle_gamma   119.91897125
_symmetry_Int_Tables_number   1
_chemical_formula_structural   La4ErTl2InBr
_chemical_formula_sum   'La8 Er2 Tl4 In2 Br2'
_cell_volume   563.51931900
_cell_formula_units_Z   2
loop_
 _symmetry_equiv_pos_site_id
 _symmetry_equiv_pos_as_xyz
  1  'x, y, z'
loop_
 _atom_site_type_symbol
 _atom_site_label
 _atom_site_symmetry_multiplicity
 _atom_site_fract_x
 _atom_site_fract_y
 _atom_site_fract_z
 _atom_site_occupancy
  La  La0  1  0.732535  0.732535  0.253479  1
  La  La1  1  0.999803  0.732411  0.745898  1
  La  La2  1  0.732411  0.999803  0.745898  1
  La  La3  1  0.267465  0.267465  0.746521  1
  La  La4  1  0.000197  0.267589  0.254102  1
  La  La5  1  0.267589  0.000197  0.254102  1
  La  La6  1  0.334052  0.665948  0.000000  1
  La  La7  1  0.665948  0.334052  0.000000  1
  Er  Er8  1  0.334187  0.665813  0.500000  1
  Er  Er9  1  0.665813  0.334187  0.500000  1
  Tl  Tl10  1  0.392719  0.999853  0.742300  1
  Tl  Tl11  1  0.000147  0.607281  0.257700  1
  Tl  Tl12  1  0.607281  0.000147  0.257700  1
  Tl  Tl13  1  0.999853  0.392719  0.742300  1
  In  In14  1  0.392663  0.392663  0.258799  1
  In  In15  1  0.607337  0.607337  0.741201  1
  Br  Br16  1  0.000000  0.000000  0.500000  1
  Br  Br17  1  0.000000  0.000000  0.000000  1
