# generated using pymatgen
data_Ho13Th3MgCd(InIr2)2
_symmetry_space_group_name_H-M   'P 1'
_cell_length_a   9.70625534
_cell_length_b   9.70590199
_cell_length_c   9.70590200
_cell_angle_alpha   59.89307452
_cell_angle_beta   59.88971899
_cell_angle_gamma   59.88972401
_symmetry_Int_Tables_number   1
_chemical_formula_structural   Ho13Th3MgCd(InIr2)2
_chemical_formula_sum   'Ho13 Th3 Mg1 Cd1 In2 Ir4'
_cell_volume   644.95823163
_cell_formula_units_Z   1
loop_
 _symmetry_equiv_pos_site_id
 _symmetry_equiv_pos_as_xyz
  1  'x, y, z'
loop_
 _atom_site_type_symbol
 _atom_site_label
 _atom_site_symmetry_multiplicity
 _atom_site_fract_x
 _atom_site_fract_y
 _atom_site_fract_z
 _atom_site_occupancy
  Ho  Ho0  1  0.199706  0.600807  0.600807  1
  Ho  Ho1  1  0.060428  0.440812  0.440812  1
  Ho  Ho2  1  0.437318  0.063963  0.063963  1
  Ho  Ho3  1  0.438804  0.062124  0.438097  1
  Ho  Ho4  1  0.062455  0.438435  0.060431  1
  Ho  Ho5  1  0.438804  0.438097  0.062124  1
  Ho  Ho6  1  0.062455  0.060431  0.438435  1
  Ho  Ho7  1  0.188677  0.815050  0.815050  1
  Ho  Ho8  1  0.813628  0.186163  0.186163  1
  Ho  Ho9  1  0.816246  0.184973  0.815177  1
  Ho  Ho10  1  0.188663  0.812769  0.186456  1
  Ho  Ho11  1  0.816246  0.815177  0.184973  1
  Ho  Ho12  1  0.188663  0.186456  0.812769  1
  Th  Th13  1  0.595801  0.598639  0.598639  1
  Th  Th14  1  0.596891  0.600601  0.203202  1
  Th  Th15  1  0.596891  0.203202  0.600601  1
  Mg  Mg16  1  0.829359  0.827382  0.827382  1
  Cd  Cd17  1  0.499640  0.832877  0.832877  1
  In  In18  1  0.833890  0.832157  0.501222  1
  In  In19  1  0.833890  0.501222  0.832157  1
  Ir  Ir20  1  0.393924  0.391389  0.391389  1
  Ir  Ir21  1  0.392893  0.390671  0.823855  1
  Ir  Ir22  1  0.392893  0.823855  0.390671  1
  Ir  Ir23  1  0.821835  0.392750  0.392750  1
