# generated using pymatgen
data_Cs3KMgCoH9
_symmetry_space_group_name_H-M   'P 1'
_cell_length_a   8.99331975
_cell_length_b   8.99331609
_cell_length_c   8.99331676
_cell_angle_alpha   41.84991584
_cell_angle_beta   41.84991007
_cell_angle_gamma   41.84993500
_symmetry_Int_Tables_number   1
_chemical_formula_structural   Cs3KMgCoH9
_chemical_formula_sum   'Cs3 K1 Mg1 Co1 H9'
_cell_volume   292.79262684
_cell_formula_units_Z   1
loop_
 _symmetry_equiv_pos_site_id
 _symmetry_equiv_pos_as_xyz
  1  'x, y, z'
loop_
 _atom_site_type_symbol
 _atom_site_label
 _atom_site_symmetry_multiplicity
 _atom_site_fract_x
 _atom_site_fract_y
 _atom_site_fract_z
 _atom_site_occupancy
  Cs  Cs0  1  0.030208  0.030208  0.030208  1
  Cs  Cs1  1  0.782832  0.782832  0.782832  1
  Cs  Cs2  1  0.210955  0.210955  0.210955  1
  K  K3  1  0.619328  0.619328  0.619328  1
  Mg  Mg4  1  0.385402  0.385402  0.385402  1
  Co  Co5  1  0.488809  0.488809  0.488809  1
  H  H6  1  0.049046  0.498184  0.498184  1
  H  H7  1  0.498184  0.049046  0.498184  1
  H  H8  1  0.498184  0.498184  0.049046  1
  H  H9  1  0.691398  0.334940  0.334940  1
  H  H10  1  0.334940  0.691398  0.334940  1
  H  H11  1  0.334940  0.334940  0.691398  1
  H  H12  1  0.639608  0.639608  0.296560  1
  H  H13  1  0.639608  0.296560  0.639608  1
  H  H14  1  0.296560  0.639608  0.639608  1
