# generated using pymatgen
data_Er16In4RuPt3
_symmetry_space_group_name_H-M   'P 1'
_cell_length_a   9.61428594
_cell_length_b   9.61433600
_cell_length_c   9.61398965
_cell_angle_alpha   60.03441771
_cell_angle_beta   60.03351456
_cell_angle_gamma   60.03993447
_symmetry_Int_Tables_number   1
_chemical_formula_structural   Er16In4RuPt3
_chemical_formula_sum   'Er16 In4 Ru1 Pt3'
_cell_volume   628.89594298
_cell_formula_units_Z   1
loop_
 _symmetry_equiv_pos_site_id
 _symmetry_equiv_pos_as_xyz
  1  'x, y, z'
loop_
 _atom_site_type_symbol
 _atom_site_label
 _atom_site_symmetry_multiplicity
 _atom_site_fract_x
 _atom_site_fract_y
 _atom_site_fract_z
 _atom_site_occupancy
  Er  Er0  1  0.190643  0.190781  0.808751  1
  Er  Er1  1  0.440298  0.061446  0.061336  1
  Er  Er2  1  0.437383  0.064133  0.437395  1
  Er  Er3  1  0.061365  0.440317  0.061374  1
  Er  Er4  1  0.651359  0.050551  0.651307  1
  Er  Er5  1  0.185789  0.810547  0.810665  1
  Er  Er6  1  0.061308  0.061430  0.440334  1
  Er  Er7  1  0.808754  0.190769  0.190665  1
  Er  Er8  1  0.810675  0.810523  0.185811  1
  Er  Er9  1  0.651459  0.651288  0.050473  1
  Er  Er10  1  0.648791  0.648619  0.648805  1
  Er  Er11  1  0.064071  0.437364  0.437403  1
  Er  Er12  1  0.050450  0.651323  0.651459  1
  Er  Er13  1  0.810578  0.185937  0.810563  1
  Er  Er14  1  0.437411  0.437383  0.064056  1
  Er  Er15  1  0.190660  0.808739  0.190665  1
  In  In16  1  0.416654  0.749681  0.416662  1
  In  In17  1  0.416625  0.416618  0.749656  1
  In  In18  1  0.749659  0.416614  0.416626  1
  In  In19  1  0.415990  0.415966  0.415922  1
  Ru  Ru20  1  0.858200  0.858118  0.858195  1
  Pt  Pt21  1  0.857304  0.427282  0.857298  1
  Pt  Pt22  1  0.857300  0.857294  0.427267  1
  Pt  Pt23  1  0.427276  0.857279  0.857315  1
