# generated using pymatgen
data_La5BiRu2
_symmetry_space_group_name_H-M   'P 1'
_cell_length_a   9.10234169
_cell_length_b   9.10234061
_cell_length_c   9.10234073
_cell_angle_alpha   126.71086950
_cell_angle_beta   126.71086884
_cell_angle_gamma   78.72288557
_symmetry_Int_Tables_number   1
_chemical_formula_structural   La5BiRu2
_chemical_formula_sum   'La10 Bi2 Ru4'
_cell_volume   469.05700809
_cell_formula_units_Z   2
loop_
 _symmetry_equiv_pos_site_id
 _symmetry_equiv_pos_as_xyz
  1  'x, y, z'
loop_
 _atom_site_type_symbol
 _atom_site_label
 _atom_site_symmetry_multiplicity
 _atom_site_fract_x
 _atom_site_fract_y
 _atom_site_fract_z
 _atom_site_occupancy
  La  La0  1  0.000000  0.000000  0.000000  1
  La  La1  1  0.500000  0.500000  0.000000  1
  La  La2  1  0.786240  0.286240  0.812410  1
  La  La3  1  0.213760  0.713760  0.187590  1
  La  La4  1  0.473831  0.973831  0.187590  1
  La  La5  1  0.286240  0.473831  0.500000  1
  La  La6  1  0.026169  0.213760  0.500000  1
  La  La7  1  0.526169  0.026169  0.812410  1
  La  La8  1  0.713760  0.526169  0.500000  1
  La  La9  1  0.973831  0.786240  0.500000  1
  Bi  Bi10  1  0.250000  0.250000  0.000000  1
  Bi  Bi11  1  0.750000  0.750000  0.000000  1
  Ru  Ru12  1  0.144029  0.644029  0.788057  1
  Ru  Ru13  1  0.855971  0.355971  0.211943  1
  Ru  Ru14  1  0.644029  0.855971  0.500000  1
  Ru  Ru15  1  0.355971  0.144029  0.500000  1
