# generated using pymatgen
data_Tm3Lu9(TcOs)2
_symmetry_space_group_name_H-M   'P 1'
_cell_length_a   7.31501025
_cell_length_b   8.86326373
_cell_length_c   6.15698270
_cell_angle_alpha   90.04606629
_cell_angle_beta   90.02922480
_cell_angle_gamma   90.00516974
_symmetry_Int_Tables_number   1
_chemical_formula_structural   Tm3Lu9(TcOs)2
_chemical_formula_sum   'Tm3 Lu9 Tc2 Os2'
_cell_volume   399.18695917
_cell_formula_units_Z   1
loop_
 _symmetry_equiv_pos_site_id
 _symmetry_equiv_pos_as_xyz
  1  'x, y, z'
loop_
 _atom_site_type_symbol
 _atom_site_label
 _atom_site_symmetry_multiplicity
 _atom_site_fract_x
 _atom_site_fract_y
 _atom_site_fract_z
 _atom_site_occupancy
  Tm  Tm0  1  0.675132  0.061078  0.337938  1
  Tm  Tm1  1  0.539009  0.250217  0.875958  1
  Tm  Tm2  1  0.039435  0.250159  0.624210  1
  Lu  Lu3  1  0.174787  0.438960  0.161660  1
  Lu  Lu4  1  0.325144  0.562931  0.664100  1
  Lu  Lu5  1  0.825132  0.936994  0.835678  1
  Lu  Lu6  1  0.324733  0.936989  0.664414  1
  Lu  Lu7  1  0.825048  0.562869  0.835862  1
  Lu  Lu8  1  0.674710  0.439319  0.337950  1
  Lu  Lu9  1  0.174839  0.061065  0.161652  1
  Lu  Lu10  1  0.459276  0.749753  0.128679  1
  Lu  Lu11  1  0.959732  0.749830  0.371408  1
  Tc  Tc12  1  0.883591  0.250278  0.039566  1
  Tc  Tc13  1  0.382856  0.250189  0.460414  1
  Os  Os14  1  0.118296  0.749994  0.960704  1
  Os  Os15  1  0.618277  0.749377  0.539809  1
