# generated using pymatgen
data_Ti4InSe8
_symmetry_space_group_name_H-M   'P 1'
_cell_length_a   8.93158751
_cell_length_b   8.93158787
_cell_length_c   8.93158800
_cell_angle_alpha   46.75188154
_cell_angle_beta   46.75187821
_cell_angle_gamma   46.75187999
_symmetry_Int_Tables_number   1
_chemical_formula_structural   Ti4InSe8
_chemical_formula_sum   'Ti4 In1 Se8'
_cell_volume   345.36672721
_cell_formula_units_Z   1
loop_
 _symmetry_equiv_pos_site_id
 _symmetry_equiv_pos_as_xyz
  1  'x, y, z'
loop_
 _atom_site_type_symbol
 _atom_site_label
 _atom_site_symmetry_multiplicity
 _atom_site_fract_x
 _atom_site_fract_y
 _atom_site_fract_z
 _atom_site_occupancy
  Ti  Ti0  1  0.000000  0.500000  0.500000  1
  Ti  Ti1  1  0.500000  0.000000  0.500000  1
  Ti  Ti2  1  0.500000  0.500000  0.000000  1
  Ti  Ti3  1  0.000000  0.000000  0.000000  1
  In  In4  1  0.500000  0.500000  0.500000  1
  Se  Se5  1  0.266779  0.767972  0.767972  1
  Se  Se6  1  0.232028  0.232028  0.733221  1
  Se  Se7  1  0.733221  0.232028  0.232028  1
  Se  Se8  1  0.232028  0.733221  0.232028  1
  Se  Se9  1  0.267860  0.267860  0.267860  1
  Se  Se10  1  0.732140  0.732140  0.732140  1
  Se  Se11  1  0.767972  0.266779  0.767972  1
  Se  Se12  1  0.767972  0.767972  0.266779  1
