# generated using pymatgen
data_Sc5FeB4(RuRh4)2
_symmetry_space_group_name_H-M   'P 1'
_cell_length_a   9.48125700
_cell_length_b   9.48125700
_cell_length_c   3.05039900
_cell_angle_alpha   90.00000000
_cell_angle_beta   90.00000000
_cell_angle_gamma   90.00000000
_symmetry_Int_Tables_number   1
_chemical_formula_structural   Sc5FeB4(RuRh4)2
_chemical_formula_sum   'Sc5 Fe1 B4 Ru2 Rh8'
_cell_volume   274.21328241
_cell_formula_units_Z   1
loop_
 _symmetry_equiv_pos_site_id
 _symmetry_equiv_pos_as_xyz
  1  'x, y, z'
loop_
 _atom_site_type_symbol
 _atom_site_label
 _atom_site_symmetry_multiplicity
 _atom_site_fract_x
 _atom_site_fract_y
 _atom_site_fract_z
 _atom_site_occupancy
  Sc  Sc0  1  0.828266  0.325190  0.000000  1
  Sc  Sc1  1  0.325190  0.171734  0.000000  1
  Sc  Sc2  1  0.674810  0.828266  0.000000  1
  Sc  Sc3  1  0.171734  0.674810  0.000000  1
  Sc  Sc4  1  0.500000  0.500000  0.000000  1
  Fe  Fe5  1  0.000000  0.000000  0.000000  1
  B  B6  1  0.624735  0.118509  0.000000  1
  B  B7  1  0.118509  0.375265  0.000000  1
  B  B8  1  0.881491  0.624735  0.000000  1
  B  B9  1  0.375265  0.881491  0.000000  1
  Ru  Ru10  1  0.500000  0.000000  0.500000  1
  Ru  Ru11  1  0.000000  0.500000  0.500000  1
  Rh  Rh12  1  0.068711  0.213730  0.500000  1
  Rh  Rh13  1  0.213730  0.931289  0.500000  1
  Rh  Rh14  1  0.786270  0.068711  0.500000  1
  Rh  Rh15  1  0.931289  0.786270  0.500000  1
  Rh  Rh16  1  0.422234  0.721831  0.500000  1
  Rh  Rh17  1  0.577766  0.278169  0.500000  1
  Rh  Rh18  1  0.721831  0.577766  0.500000  1
  Rh  Rh19  1  0.278169  0.422234  0.500000  1
