# generated using pymatgen
data_Cs6ErNpBr12
_symmetry_space_group_name_H-M   'P 1'
_cell_length_a   10.09467826
_cell_length_b   10.09339347
_cell_length_c   8.37111600
_cell_angle_alpha   90.00000000
_cell_angle_beta   90.00000000
_cell_angle_gamma   89.67165115
_symmetry_Int_Tables_number   1
_chemical_formula_structural   Cs6ErNpBr12
_chemical_formula_sum   'Cs6 Er1 Np1 Br12'
_cell_volume   852.91531721
_cell_formula_units_Z   1
loop_
 _symmetry_equiv_pos_site_id
 _symmetry_equiv_pos_as_xyz
  1  'x, y, z'
loop_
 _atom_site_type_symbol
 _atom_site_label
 _atom_site_symmetry_multiplicity
 _atom_site_fract_x
 _atom_site_fract_y
 _atom_site_fract_z
 _atom_site_occupancy
  Cs  Cs0  1  0.000000  0.000000  0.500000  1
  Cs  Cs1  1  0.000000  0.000000  0.000000  1
  Cs  Cs2  1  0.233013  0.585637  0.500000  1
  Cs  Cs3  1  0.766987  0.414363  0.500000  1
  Cs  Cs4  1  0.414384  0.236660  0.000000  1
  Cs  Cs5  1  0.585616  0.763340  0.000000  1
  Er  Er6  1  0.000000  0.500000  0.000000  1
  Np  Np7  1  0.500000  0.000000  0.500000  1
  Br  Br8  1  0.696362  0.060448  0.743886  1
  Br  Br9  1  0.303638  0.939552  0.743886  1
  Br  Br10  1  0.942634  0.689629  0.237570  1
  Br  Br11  1  0.057366  0.310371  0.237570  1
  Br  Br12  1  0.303638  0.939552  0.256114  1
  Br  Br13  1  0.696362  0.060448  0.256114  1
  Br  Br14  1  0.057366  0.310371  0.762430  1
  Br  Br15  1  0.942634  0.689629  0.762430  1
  Br  Br16  1  0.568883  0.722637  0.500000  1
  Br  Br17  1  0.431117  0.277363  0.500000  1
  Br  Br18  1  0.267566  0.568472  0.000000  1
  Br  Br19  1  0.732434  0.431528  0.000000  1
