# generated using pymatgen
data_Dy2UAlGa2Ir3
_symmetry_space_group_name_H-M   'P 1'
_cell_length_a   7.18841224
_cell_length_b   7.23169056
_cell_length_c   3.84439500
_cell_angle_alpha   90.00000000
_cell_angle_beta   90.00000000
_cell_angle_gamma   120.19935972
_symmetry_Int_Tables_number   1
_chemical_formula_structural   Dy2UAlGa2Ir3
_chemical_formula_sum   'Dy2 U1 Al1 Ga2 Ir3'
_cell_volume   172.72511442
_cell_formula_units_Z   1
loop_
 _symmetry_equiv_pos_site_id
 _symmetry_equiv_pos_as_xyz
  1  'x, y, z'
loop_
 _atom_site_type_symbol
 _atom_site_label
 _atom_site_symmetry_multiplicity
 _atom_site_fract_x
 _atom_site_fract_y
 _atom_site_fract_z
 _atom_site_occupancy
  Dy  Dy0  1  0.411120  0.413275  0.500000  1
  Dy  Dy1  1  0.588880  0.002154  0.500000  1
  U  U2  1  0.000000  0.583302  0.500000  1
  Al  Al3  1  0.000000  0.230217  0.000000  1
  Ga  Ga4  1  0.739910  0.751456  0.000000  1
  Ga  Ga5  1  0.260090  0.011547  0.000000  1
  Ir  Ir6  1  0.704560  0.361434  0.000000  1
  Ir  Ir7  1  0.295440  0.656875  0.000000  1
  Ir  Ir8  1  0.000000  0.989741  0.500000  1
