# generated using pymatgen
data_Ho4Zr3AlIr4
_symmetry_space_group_name_H-M   'P 1'
_cell_length_a   4.46436200
_cell_length_b   7.07149958
_cell_length_c   8.21677191
_cell_angle_alpha   93.66876330
_cell_angle_beta   90.00000000
_cell_angle_gamma   90.00000000
_symmetry_Int_Tables_number   1
_chemical_formula_structural   Ho4Zr3AlIr4
_chemical_formula_sum   'Ho4 Zr3 Al1 Ir4'
_cell_volume   258.86969995
_cell_formula_units_Z   1
loop_
 _symmetry_equiv_pos_site_id
 _symmetry_equiv_pos_as_xyz
  1  'x, y, z'
loop_
 _atom_site_type_symbol
 _atom_site_label
 _atom_site_symmetry_multiplicity
 _atom_site_fract_x
 _atom_site_fract_y
 _atom_site_fract_z
 _atom_site_occupancy
  Ho  Ho0  1  0.250000  0.983300  0.315610  1
  Ho  Ho1  1  0.250000  0.462075  0.167078  1
  Ho  Ho2  1  0.750000  0.032902  0.686520  1
  Ho  Ho3  1  0.750000  0.505720  0.837287  1
  Zr  Zr4  1  0.250000  0.366413  0.572658  1
  Zr  Zr5  1  0.250000  0.858625  0.936250  1
  Zr  Zr6  1  0.750000  0.641557  0.425230  1
  Al  Al7  1  0.750000  0.141104  0.071053  1
  Ir  Ir8  1  0.250000  0.229365  0.881564  1
  Ir  Ir9  1  0.250000  0.743692  0.599778  1
  Ir  Ir10  1  0.750000  0.771224  0.113166  1
  Ir  Ir11  1  0.750000  0.264024  0.393805  1
