# generated using pymatgen
data_Ce6MgCd22Ru
_symmetry_space_group_name_H-M   'P 1'
_cell_length_a   10.07063907
_cell_length_b   10.07064008
_cell_length_c   10.07063900
_cell_angle_alpha   60.00000027
_cell_angle_beta   59.99999695
_cell_angle_gamma   59.99999559
_symmetry_Int_Tables_number   1
_chemical_formula_structural   Ce6MgCd22Ru
_chemical_formula_sum   'Ce6 Mg1 Cd22 Ru1'
_cell_volume   722.19771970
_cell_formula_units_Z   1
loop_
 _symmetry_equiv_pos_site_id
 _symmetry_equiv_pos_as_xyz
  1  'x, y, z'
loop_
 _atom_site_type_symbol
 _atom_site_label
 _atom_site_symmetry_multiplicity
 _atom_site_fract_x
 _atom_site_fract_y
 _atom_site_fract_z
 _atom_site_occupancy
  Ce  Ce0  1  0.800416  0.800416  0.199584  1
  Ce  Ce1  1  0.199584  0.800416  0.199584  1
  Ce  Ce2  1  0.800416  0.199584  0.199584  1
  Ce  Ce3  1  0.199584  0.199584  0.800416  1
  Ce  Ce4  1  0.800416  0.199584  0.800416  1
  Ce  Ce5  1  0.199584  0.800416  0.800416  1
  Mg  Mg6  1  0.500000  0.500000  0.500000  1
  Cd  Cd7  1  0.832573  0.832573  0.502280  1
  Cd  Cd8  1  0.832573  0.502280  0.832573  1
  Cd  Cd9  1  0.502280  0.832573  0.832573  1
  Cd  Cd10  1  0.832573  0.832573  0.832573  1
  Cd  Cd11  1  0.167427  0.167427  0.497720  1
  Cd  Cd12  1  0.167427  0.497720  0.167427  1
  Cd  Cd13  1  0.497720  0.167427  0.167427  1
  Cd  Cd14  1  0.167427  0.167427  0.167427  1
  Cd  Cd15  1  0.620230  0.620230  0.139309  1
  Cd  Cd16  1  0.620230  0.139309  0.620230  1
  Cd  Cd17  1  0.139309  0.620230  0.620230  1
  Cd  Cd18  1  0.620230  0.620230  0.620230  1
  Cd  Cd19  1  0.379770  0.379770  0.860691  1
  Cd  Cd20  1  0.379770  0.860691  0.379770  1
  Cd  Cd21  1  0.860691  0.379770  0.379770  1
  Cd  Cd22  1  0.379770  0.379770  0.379770  1
  Cd  Cd23  1  0.000000  0.000000  0.500000  1
  Cd  Cd24  1  0.500000  0.000000  0.500000  1
  Cd  Cd25  1  0.000000  0.500000  0.500000  1
  Cd  Cd26  1  0.500000  0.500000  0.000000  1
  Cd  Cd27  1  0.000000  0.500000  0.000000  1
  Cd  Cd28  1  0.500000  0.000000  0.000000  1
  Ru  Ru29  1  0.000000  0.000000  0.000000  1
