# generated using pymatgen
data_Y17Th3Sn16
_symmetry_space_group_name_H-M   'P 1'
_cell_length_a   8.10434087
_cell_length_b   8.21967010
_cell_length_c   15.51694543
_cell_angle_alpha   90.08040594
_cell_angle_beta   90.17798510
_cell_angle_gamma   89.94153784
_symmetry_Int_Tables_number   1
_chemical_formula_structural   Y17Th3Sn16
_chemical_formula_sum   'Y17 Th3 Sn16'
_cell_volume   1033.65490990
_cell_formula_units_Z   1
loop_
 _symmetry_equiv_pos_site_id
 _symmetry_equiv_pos_as_xyz
  1  'x, y, z'
loop_
 _atom_site_type_symbol
 _atom_site_label
 _atom_site_symmetry_multiplicity
 _atom_site_fract_x
 _atom_site_fract_y
 _atom_site_fract_z
 _atom_site_occupancy
  Y  Y0  1  0.367017  0.835129  0.878272  1
  Y  Y1  1  0.866661  0.664631  0.622601  1
  Y  Y2  1  0.633615  0.163733  0.376921  1
  Y  Y3  1  0.132836  0.336704  0.122543  1
  Y  Y4  1  0.633094  0.162799  0.122632  1
  Y  Y5  1  0.133940  0.337325  0.377327  1
  Y  Y6  1  0.366417  0.837063  0.622635  1
  Y  Y7  1  0.867452  0.662846  0.877742  1
  Y  Y8  1  0.525549  0.322287  0.900560  1
  Y  Y9  1  0.024819  0.177420  0.599771  1
  Y  Y10  1  0.476164  0.677617  0.400913  1
  Y  Y11  1  0.976423  0.821528  0.100015  1
  Y  Y12  1  0.478549  0.677519  0.097698  1
  Y  Y13  1  0.196645  0.500553  0.750526  1
  Y  Y14  1  0.696111  0.999243  0.749745  1
  Y  Y15  1  0.802804  0.500288  0.249573  1
  Y  Y16  1  0.303165  0.001781  0.248869  1
  Th  Th17  1  0.981327  0.819332  0.402363  1
  Th  Th18  1  0.518569  0.320467  0.596639  1
  Th  Th19  1  0.019131  0.179701  0.903972  1
  Sn  Sn20  1  0.291514  0.032872  0.042521  1
  Sn  Sn21  1  0.791678  0.466581  0.457290  1
  Sn  Sn22  1  0.709145  0.967249  0.542270  1
  Sn  Sn23  1  0.210995  0.533014  0.957729  1
  Sn  Sn24  1  0.705666  0.962249  0.958771  1
  Sn  Sn25  1  0.204803  0.539511  0.540620  1
  Sn  Sn26  1  0.294747  0.038719  0.459468  1
  Sn  Sn27  1  0.792176  0.463116  0.041068  1
  Sn  Sn28  1  0.563755  0.621249  0.749069  1
  Sn  Sn29  1  0.064156  0.879492  0.751268  1
  Sn  Sn30  1  0.435927  0.380007  0.249780  1
  Sn  Sn31  1  0.935501  0.120686  0.250985  1
  Sn  Sn32  1  0.328302  0.144736  0.751568  1
  Sn  Sn33  1  0.828986  0.355318  0.748367  1
  Sn  Sn34  1  0.668777  0.852940  0.249704  1
  Sn  Sn35  1  0.173586  0.644292  0.248206  1
