# generated using pymatgen
data_Yb3Er(Al3Pt4)2
_symmetry_space_group_name_H-M   'P 1'
_cell_length_a   8.15336308
_cell_length_b   8.15336246
_cell_length_c   7.47724056
_cell_angle_alpha   90.10428152
_cell_angle_beta   89.89571604
_cell_angle_gamma   139.46743024
_symmetry_Int_Tables_number   1
_chemical_formula_structural   Yb3Er(Al3Pt4)2
_chemical_formula_sum   'Yb3 Er1 Al6 Pt8'
_cell_volume   323.03335694
_cell_formula_units_Z   1
loop_
 _symmetry_equiv_pos_site_id
 _symmetry_equiv_pos_as_xyz
  1  'x, y, z'
loop_
 _atom_site_type_symbol
 _atom_site_label
 _atom_site_symmetry_multiplicity
 _atom_site_fract_x
 _atom_site_fract_y
 _atom_site_fract_z
 _atom_site_occupancy
  Yb  Yb0  1  0.104414  0.895586  0.409935  1
  Yb  Yb1  1  0.895299  0.104701  0.588924  1
  Yb  Yb2  1  0.393725  0.606275  0.910419  1
  Er  Er3  1  0.606268  0.393732  0.089395  1
  Al  Al4  1  0.000692  0.999308  0.002032  1
  Al  Al5  1  0.501578  0.498422  0.498959  1
  Al  Al6  1  0.021591  0.478433  0.251607  1
  Al  Al7  1  0.479077  0.022242  0.748256  1
  Al  Al8  1  0.977758  0.520923  0.748256  1
  Al  Al9  1  0.521567  0.978409  0.251607  1
  Pt  Pt10  1  0.191223  0.312341  0.248251  1
  Pt  Pt11  1  0.312538  0.189731  0.752242  1
  Pt  Pt12  1  0.810269  0.687462  0.752242  1
  Pt  Pt13  1  0.687659  0.808777  0.248251  1
  Pt  Pt14  1  0.183271  0.816729  0.029742  1
  Pt  Pt15  1  0.814391  0.185609  0.973661  1
  Pt  Pt16  1  0.317727  0.682273  0.526733  1
  Pt  Pt17  1  0.680951  0.319049  0.469487  1
