# generated using pymatgen
data_Hf8TaNbSi8
_symmetry_space_group_name_H-M   'P 1'
_cell_length_a   6.99670427
_cell_length_b   6.99670427
_cell_length_c   12.79925700
_cell_angle_alpha   90.00000000
_cell_angle_beta   90.00000000
_cell_angle_gamma   89.96804665
_symmetry_Int_Tables_number   1
_chemical_formula_structural   Hf8TaNbSi8
_chemical_formula_sum   'Hf16 Ta2 Nb2 Si16'
_cell_volume   626.57307441
_cell_formula_units_Z   2
loop_
 _symmetry_equiv_pos_site_id
 _symmetry_equiv_pos_as_xyz
  1  'x, y, z'
loop_
 _atom_site_type_symbol
 _atom_site_label
 _atom_site_symmetry_multiplicity
 _atom_site_fract_x
 _atom_site_fract_y
 _atom_site_fract_z
 _atom_site_occupancy
  Hf  Hf0  1  0.497825  0.152901  0.531761  1
  Hf  Hf1  1  0.502175  0.847099  0.031761  1
  Hf  Hf2  1  0.653226  0.002045  0.281970  1
  Hf  Hf3  1  0.346774  0.997955  0.781970  1
  Hf  Hf4  1  0.847099  0.502175  0.968239  1
  Hf  Hf5  1  0.152901  0.497825  0.468239  1
  Hf  Hf6  1  0.002045  0.653226  0.718030  1
  Hf  Hf7  1  0.997955  0.346774  0.218030  1
  Hf  Hf8  1  0.497510  0.354482  0.126052  1
  Hf  Hf9  1  0.502490  0.645518  0.626052  1
  Hf  Hf10  1  0.854552  0.002568  0.876062  1
  Hf  Hf11  1  0.145448  0.997432  0.376062  1
  Hf  Hf12  1  0.645518  0.502490  0.373948  1
  Hf  Hf13  1  0.354482  0.497510  0.873948  1
  Hf  Hf14  1  0.002568  0.854552  0.123938  1
  Hf  Hf15  1  0.997432  0.145448  0.623938  1
  Ta  Ta16  1  0.824866  0.824866  0.500000  1
  Ta  Ta17  1  0.175134  0.175134  0.000000  1
  Nb  Nb18  1  0.675170  0.324830  0.750000  1
  Nb  Nb19  1  0.324830  0.675170  0.250000  1
  Si  Si20  1  0.797894  0.147192  0.071930  1
  Si  Si21  1  0.202106  0.852808  0.571930  1
  Si  Si22  1  0.647078  0.702476  0.822032  1
  Si  Si23  1  0.352922  0.297524  0.322032  1
  Si  Si24  1  0.852808  0.202106  0.428070  1
  Si  Si25  1  0.147192  0.797894  0.928070  1
  Si  Si26  1  0.702476  0.647078  0.177968  1
  Si  Si27  1  0.297524  0.352922  0.677968  1
  Si  Si28  1  0.547401  0.197830  0.935350  1
  Si  Si29  1  0.452599  0.802170  0.435350  1
  Si  Si30  1  0.698102  0.952064  0.685068  1
  Si  Si31  1  0.301898  0.047936  0.185068  1
  Si  Si32  1  0.802170  0.452599  0.564650  1
  Si  Si33  1  0.197830  0.547401  0.064650  1
  Si  Si34  1  0.952064  0.698102  0.314932  1
  Si  Si35  1  0.047936  0.301898  0.814932  1
