# generated using pymatgen
data_Th2Fe10Ni2P7
_symmetry_space_group_name_H-M   'P 1'
_cell_length_a   9.09788586
_cell_length_b   9.07966049
_cell_length_c   3.70631200
_cell_angle_alpha   90.00000000
_cell_angle_beta   90.00000000
_cell_angle_gamma   120.17199145
_symmetry_Int_Tables_number   1
_chemical_formula_structural   Th2Fe10Ni2P7
_chemical_formula_sum   'Th2 Fe10 Ni2 P7'
_cell_volume   264.68383198
_cell_formula_units_Z   1
loop_
 _symmetry_equiv_pos_site_id
 _symmetry_equiv_pos_as_xyz
  1  'x, y, z'
loop_
 _atom_site_type_symbol
 _atom_site_label
 _atom_site_symmetry_multiplicity
 _atom_site_fract_x
 _atom_site_fract_y
 _atom_site_fract_z
 _atom_site_occupancy
  Th  Th0  1  0.333846  0.666947  0.000000  1
  Th  Th1  1  0.669137  0.335570  0.500000  1
  Fe  Fe2  1  0.936686  0.572436  0.000000  1
  Fe  Fe3  1  0.149449  0.877933  0.000000  1
  Fe  Fe4  1  0.119835  0.272048  0.000000  1
  Fe  Fe5  1  0.728312  0.849114  0.000000  1
  Fe  Fe6  1  0.381694  0.949964  0.500000  1
  Fe  Fe7  1  0.049548  0.433585  0.500000  1
  Fe  Fe8  1  0.566391  0.615273  0.500000  1
  Fe  Fe9  1  0.212565  0.114759  0.500000  1
  Fe  Fe10  1  0.884706  0.097781  0.500000  1
  Fe  Fe11  1  0.901469  0.783330  0.500000  1
  Ni  Ni12  1  0.431195  0.366256  0.000000  1
  Ni  Ni13  1  0.634180  0.064240  0.000000  1
  P  P14  1  0.402034  0.098790  0.000000  1
  P  P15  1  0.901645  0.306647  0.000000  1
  P  P16  1  0.703513  0.601461  0.000000  1
  P  P17  1  0.103321  0.710127  0.500000  1
  P  P18  1  0.285423  0.393725  0.500000  1
  P  P19  1  0.606059  0.890567  0.500000  1
  P  P20  1  0.998995  0.999445  0.000000  1
