# generated using pymatgen
data_Sr4TiCr(BrO4)2
_symmetry_space_group_name_H-M   'P 1'
_cell_length_a   6.67422900
_cell_length_b   7.62631700
_cell_length_c   11.82582100
_cell_angle_alpha   90.00000000
_cell_angle_beta   90.00000000
_cell_angle_gamma   90.00000000
_symmetry_Int_Tables_number   1
_chemical_formula_structural   Sr4TiCr(BrO4)2
_chemical_formula_sum   'Sr8 Ti2 Cr2 Br4 O16'
_cell_volume   601.93175917
_cell_formula_units_Z   2
loop_
 _symmetry_equiv_pos_site_id
 _symmetry_equiv_pos_as_xyz
  1  'x, y, z'
loop_
 _atom_site_type_symbol
 _atom_site_label
 _atom_site_symmetry_multiplicity
 _atom_site_fract_x
 _atom_site_fract_y
 _atom_site_fract_z
 _atom_site_occupancy
  Sr  Sr0  1  0.121916  0.467570  0.243022  1
  Sr  Sr1  1  0.619434  0.250000  0.000000  1
  Sr  Sr2  1  0.373874  0.750000  0.000000  1
  Sr  Sr3  1  0.626126  0.250000  0.500000  1
  Sr  Sr4  1  0.121916  0.032430  0.756978  1
  Sr  Sr5  1  0.878084  0.967570  0.256978  1
  Sr  Sr6  1  0.878084  0.532430  0.743022  1
  Sr  Sr7  1  0.380566  0.750000  0.500000  1
  Ti  Ti8  1  0.876855  0.750000  0.500000  1
  Ti  Ti9  1  0.123145  0.250000  0.000000  1
  Cr  Cr10  1  0.872974  0.750000  0.000000  1
  Cr  Cr11  1  0.127026  0.250000  0.500000  1
  Br  Br12  1  0.534425  0.834591  0.753159  1
  Br  Br13  1  0.465575  0.334591  0.746841  1
  Br  Br14  1  0.534425  0.665409  0.246841  1
  Br  Br15  1  0.465575  0.165409  0.253159  1
  O  O16  1  0.043371  0.728031  0.375671  1
  O  O17  1  0.978697  0.273406  0.613117  1
  O  O18  1  0.288170  0.064948  0.967286  1
  O  O19  1  0.956629  0.228031  0.124329  1
  O  O20  1  0.725805  0.579084  0.975426  1
  O  O21  1  0.725805  0.920916  0.024574  1
  O  O22  1  0.043371  0.771969  0.624329  1
  O  O23  1  0.978697  0.226594  0.386883  1
  O  O24  1  0.711830  0.935052  0.467286  1
  O  O25  1  0.956629  0.271969  0.875671  1
  O  O26  1  0.288170  0.435052  0.032714  1
  O  O27  1  0.711830  0.564948  0.532714  1
  O  O28  1  0.274195  0.420916  0.475426  1
  O  O29  1  0.021303  0.726594  0.113117  1
  O  O30  1  0.274195  0.079084  0.524574  1
  O  O31  1  0.021303  0.773406  0.886883  1
