# generated using pymatgen
data_YbPr(TmS2)4
_symmetry_space_group_name_H-M   'P 1'
_cell_length_a   3.85807800
_cell_length_b   12.87108400
_cell_length_c   13.13054800
_cell_angle_alpha   90.00000000
_cell_angle_beta   90.00000000
_cell_angle_gamma   90.00000000
_symmetry_Int_Tables_number   1
_chemical_formula_structural   YbPr(TmS2)4
_chemical_formula_sum   'Yb2 Pr2 Tm8 S16'
_cell_volume   652.03210459
_cell_formula_units_Z   2
loop_
 _symmetry_equiv_pos_site_id
 _symmetry_equiv_pos_as_xyz
  1  'x, y, z'
loop_
 _atom_site_type_symbol
 _atom_site_label
 _atom_site_symmetry_multiplicity
 _atom_site_fract_x
 _atom_site_fract_y
 _atom_site_fract_z
 _atom_site_occupancy
  Yb  Yb0  1  0.750000  0.631359  0.411530  1
  Yb  Yb1  1  0.750000  0.131359  0.088470  1
  Pr  Pr2  1  0.250000  0.371184  0.586925  1
  Pr  Pr3  1  0.250000  0.871184  0.913075  1
  Tm  Tm4  1  0.250000  0.107946  0.420318  1
  Tm  Tm5  1  0.250000  0.607946  0.079682  1
  Tm  Tm6  1  0.750000  0.891636  0.575706  1
  Tm  Tm7  1  0.750000  0.391636  0.924294  1
  Tm  Tm8  1  0.250000  0.147275  0.800055  1
  Tm  Tm9  1  0.250000  0.647275  0.699945  1
  Tm  Tm10  1  0.750000  0.851295  0.202149  1
  Tm  Tm11  1  0.750000  0.351295  0.297851  1
  S  S12  1  0.250000  0.214353  0.239947  1
  S  S13  1  0.250000  0.714353  0.260053  1
  S  S14  1  0.750000  0.785981  0.759019  1
  S  S15  1  0.750000  0.285981  0.740981  1
  S  S16  1  0.250000  0.255016  0.977132  1
  S  S17  1  0.250000  0.755016  0.522868  1
  S  S18  1  0.750000  0.742447  0.024604  1
  S  S19  1  0.750000  0.242447  0.475396  1
  S  S20  1  0.250000  0.469104  0.383895  1
  S  S21  1  0.250000  0.969104  0.116105  1
  S  S22  1  0.750000  0.534415  0.615856  1
  S  S23  1  0.750000  0.034415  0.884144  1
  S  S24  1  0.250000  0.032013  0.619267  1
  S  S25  1  0.250000  0.532013  0.880733  1
  S  S26  1  0.750000  0.965975  0.379361  1
  S  S27  1  0.750000  0.465975  0.120639  1
