# generated using pymatgen
data_Dy9Er(Lu5Sn8)2
_symmetry_space_group_name_H-M   'P 1'
_cell_length_a   7.95282307
_cell_length_b   8.08005236
_cell_length_c   15.27414700
_cell_angle_alpha   90.02622258
_cell_angle_beta   89.99249295
_cell_angle_gamma   90.06054654
_symmetry_Int_Tables_number   1
_chemical_formula_structural   Dy9Er(Lu5Sn8)2
_chemical_formula_sum   'Dy9 Er1 Lu10 Sn16'
_cell_volume   981.50421675
_cell_formula_units_Z   1
loop_
 _symmetry_equiv_pos_site_id
 _symmetry_equiv_pos_as_xyz
  1  'x, y, z'
loop_
 _atom_site_type_symbol
 _atom_site_label
 _atom_site_symmetry_multiplicity
 _atom_site_fract_x
 _atom_site_fract_y
 _atom_site_fract_z
 _atom_site_occupancy
  Dy  Dy0  1  0.865920  0.663566  0.877607  1
  Dy  Dy1  1  0.520172  0.321036  0.904144  1
  Dy  Dy2  1  0.020378  0.178846  0.595516  1
  Dy  Dy3  1  0.479409  0.678592  0.403977  1
  Dy  Dy4  1  0.979266  0.822355  0.097348  1
  Dy  Dy5  1  0.480850  0.678021  0.096337  1
  Dy  Dy6  1  0.979555  0.821521  0.403593  1
  Dy  Dy7  1  0.519558  0.320945  0.595368  1
  Dy  Dy8  1  0.020191  0.178541  0.903759  1
  Er  Er9  1  0.364557  0.837368  0.876104  1
  Lu  Lu10  1  0.865158  0.661941  0.623003  1
  Lu  Lu11  1  0.634996  0.161582  0.376573  1
  Lu  Lu12  1  0.135086  0.337982  0.123763  1
  Lu  Lu13  1  0.633877  0.161942  0.124650  1
  Lu  Lu14  1  0.134832  0.337563  0.376579  1
  Lu  Lu15  1  0.365850  0.838136  0.622776  1
  Lu  Lu16  1  0.196708  0.504676  0.749549  1
  Lu  Lu17  1  0.696150  0.995714  0.749195  1
  Lu  Lu18  1  0.803823  0.494795  0.250415  1
  Lu  Lu19  1  0.303373  0.004793  0.250082  1
  Sn  Sn20  1  0.296440  0.040075  0.042235  1
  Sn  Sn21  1  0.796697  0.460201  0.458665  1
  Sn  Sn22  1  0.702948  0.960584  0.541374  1
  Sn  Sn23  1  0.205702  0.536748  0.959083  1
  Sn  Sn24  1  0.702558  0.964360  0.959118  1
  Sn  Sn25  1  0.203072  0.539880  0.541091  1
  Sn  Sn26  1  0.296326  0.039815  0.458281  1
  Sn  Sn27  1  0.796729  0.458589  0.042894  1
  Sn  Sn28  1  0.561839  0.619477  0.748403  1
  Sn  Sn29  1  0.061918  0.881175  0.748575  1
  Sn  Sn30  1  0.438113  0.380291  0.250618  1
  Sn  Sn31  1  0.938114  0.119830  0.250271  1
  Sn  Sn32  1  0.330345  0.150270  0.749436  1
  Sn  Sn33  1  0.829878  0.349496  0.749438  1
  Sn  Sn34  1  0.669576  0.850017  0.250154  1
  Sn  Sn35  1  0.170040  0.649283  0.250028  1
