# generated using pymatgen
data_Ce3Nd5Te8
_symmetry_space_group_name_H-M   'P 1'
_cell_length_a   9.00926357
_cell_length_b   9.09838014
_cell_length_c   9.00926300
_cell_angle_alpha   60.32348144
_cell_angle_beta   59.99999843
_cell_angle_gamma   60.32348405
_symmetry_Int_Tables_number   1
_chemical_formula_structural   Ce3Nd5Te8
_chemical_formula_sum   'Ce3 Nd5 Te8'
_cell_volume   524.72756005
_cell_formula_units_Z   1
loop_
 _symmetry_equiv_pos_site_id
 _symmetry_equiv_pos_as_xyz
  1  'x, y, z'
loop_
 _atom_site_type_symbol
 _atom_site_label
 _atom_site_symmetry_multiplicity
 _atom_site_fract_x
 _atom_site_fract_y
 _atom_site_fract_z
 _atom_site_occupancy
  Ce  Ce0  1  0.125000  0.125000  0.625000  1
  Ce  Ce1  1  0.625000  0.125000  0.125000  1
  Ce  Ce2  1  0.125000  0.125000  0.125000  1
  Nd  Nd3  1  0.125000  0.625000  0.125000  1
  Nd  Nd4  1  0.625000  0.125000  0.625000  1
  Nd  Nd5  1  0.625000  0.625000  0.625000  1
  Nd  Nd6  1  0.125000  0.625000  0.625000  1
  Nd  Nd7  1  0.625000  0.625000  0.125000  1
  Te  Te8  1  0.375183  0.874449  0.375183  1
  Te  Te9  1  0.874817  0.375551  0.874817  1
  Te  Te10  1  0.875005  0.875647  0.374345  1
  Te  Te11  1  0.875005  0.875647  0.875005  1
  Te  Te12  1  0.875655  0.374353  0.374995  1
  Te  Te13  1  0.374995  0.374353  0.875655  1
  Te  Te14  1  0.374995  0.374353  0.374995  1
  Te  Te15  1  0.374345  0.875647  0.875005  1
