# generated using pymatgen
data_YbSmBPd6
_symmetry_space_group_name_H-M   'P 1'
_cell_length_a   5.93761711
_cell_length_b   5.93761716
_cell_length_c   5.93761700
_cell_angle_alpha   59.99999529
_cell_angle_beta   59.99999505
_cell_angle_gamma   60.00000016
_symmetry_Int_Tables_number   1
_chemical_formula_structural   YbSmBPd6
_chemical_formula_sum   'Yb1 Sm1 B1 Pd6'
_cell_volume   148.02038580
_cell_formula_units_Z   1
loop_
 _symmetry_equiv_pos_site_id
 _symmetry_equiv_pos_as_xyz
  1  'x, y, z'
loop_
 _atom_site_type_symbol
 _atom_site_label
 _atom_site_symmetry_multiplicity
 _atom_site_fract_x
 _atom_site_fract_y
 _atom_site_fract_z
 _atom_site_occupancy
  Yb  Yb0  1  0.750000  0.750000  0.750000  1
  Sm  Sm1  1  0.250000  0.250000  0.250000  1
  B  B2  1  0.000000  0.000000  0.000000  1
  Pd  Pd3  1  0.743940  0.256060  0.256060  1
  Pd  Pd4  1  0.256060  0.743940  0.256060  1
  Pd  Pd5  1  0.743940  0.743940  0.256060  1
  Pd  Pd6  1  0.256060  0.256060  0.743940  1
  Pd  Pd7  1  0.743940  0.256060  0.743940  1
  Pd  Pd8  1  0.256060  0.743940  0.743940  1
