# generated using pymatgen
data_TbEr3(CuSi3)2
_symmetry_space_group_name_H-M   'P 1'
_cell_length_a   7.98528088
_cell_length_b   7.98733309
_cell_length_c   5.65038022
_cell_angle_alpha   69.26342461
_cell_angle_beta   69.30234951
_cell_angle_gamma   41.43423078
_symmetry_Int_Tables_number   1
_chemical_formula_structural   TbEr3(CuSi3)2
_chemical_formula_sum   'Tb1 Er3 Cu2 Si6'
_cell_volume   220.77479809
_cell_formula_units_Z   1
loop_
 _symmetry_equiv_pos_site_id
 _symmetry_equiv_pos_as_xyz
  1  'x, y, z'
loop_
 _atom_site_type_symbol
 _atom_site_label
 _atom_site_symmetry_multiplicity
 _atom_site_fract_x
 _atom_site_fract_y
 _atom_site_fract_z
 _atom_site_occupancy
  Tb  Tb0  1  0.756356  0.243644  0.243643  1
  Er  Er1  1  0.250008  0.249993  0.249992  1
  Er  Er2  1  0.750007  0.749993  0.749992  1
  Er  Er3  1  0.243679  0.756321  0.756321  1
  Cu  Cu4  1  0.666652  0.666838  0.333348  1
  Cu  Cu5  1  0.333162  0.333348  0.666837  1
  Si  Si6  1  0.831573  0.831412  0.168426  1
  Si  Si7  1  0.339999  0.828866  0.171149  1
  Si  Si8  1  0.171134  0.660001  0.340014  1
  Si  Si9  1  0.828851  0.340015  0.660000  1
  Si  Si10  1  0.659985  0.171149  0.828865  1
  Si  Si11  1  0.168588  0.168427  0.831412  1
