# generated using pymatgen
data_TbHoNi6(BIr)2
_symmetry_space_group_name_H-M   'P 1'
_cell_length_a   5.15812875
_cell_length_b   5.15812782
_cell_length_c   7.08756100
_cell_angle_alpha   90.00000000
_cell_angle_beta   90.00000000
_cell_angle_gamma   122.16431234
_symmetry_Int_Tables_number   1
_chemical_formula_structural   TbHoNi6(BIr)2
_chemical_formula_sum   'Tb1 Ho1 Ni6 B2 Ir2'
_cell_volume   159.63232223
_cell_formula_units_Z   1
loop_
 _symmetry_equiv_pos_site_id
 _symmetry_equiv_pos_as_xyz
  1  'x, y, z'
loop_
 _atom_site_type_symbol
 _atom_site_label
 _atom_site_symmetry_multiplicity
 _atom_site_fract_x
 _atom_site_fract_y
 _atom_site_fract_z
 _atom_site_occupancy
  Tb  Tb0  1  0.000000  0.000000  0.000000  1
  Ho  Ho1  1  0.000000  0.000000  0.500000  1
  Ni  Ni2  1  0.332743  0.667257  0.000000  1
  Ni  Ni3  1  0.667257  0.332743  0.000000  1
  Ni  Ni4  1  0.500000  0.000000  0.292296  1
  Ni  Ni5  1  0.000000  0.500000  0.292296  1
  Ni  Ni6  1  0.500000  0.000000  0.707704  1
  Ni  Ni7  1  0.000000  0.500000  0.707704  1
  B  B8  1  0.672879  0.327121  0.500000  1
  B  B9  1  0.327121  0.672879  0.500000  1
  Ir  Ir10  1  0.500000  0.500000  0.290493  1
  Ir  Ir11  1  0.500000  0.500000  0.709507  1
