# generated using pymatgen
data_LiCa3Mg(AsO4)3
_symmetry_space_group_name_H-M   'P 1'
_cell_length_a   10.84855208
_cell_length_b   10.84855175
_cell_length_c   10.84855200
_cell_angle_alpha   109.47122110
_cell_angle_beta   109.47122048
_cell_angle_gamma   109.47122404
_symmetry_Int_Tables_number   1
_chemical_formula_structural   LiCa3Mg(AsO4)3
_chemical_formula_sum   'Li4 Ca12 Mg4 As12 O48'
_cell_volume   982.86395380
_cell_formula_units_Z   4
loop_
 _symmetry_equiv_pos_site_id
 _symmetry_equiv_pos_as_xyz
  1  'x, y, z'
loop_
 _atom_site_type_symbol
 _atom_site_label
 _atom_site_symmetry_multiplicity
 _atom_site_fract_x
 _atom_site_fract_y
 _atom_site_fract_z
 _atom_site_occupancy
  Li  Li0  1  0.500000  0.000000  0.000000  1
  Li  Li1  1  0.500000  0.500000  0.500000  1
  Li  Li2  1  0.000000  0.000000  0.500000  1
  Li  Li3  1  0.000000  0.500000  0.000000  1
  Ca  Ca4  1  0.250000  0.380239  0.130239  1
  Ca  Ca5  1  0.750000  0.619761  0.869761  1
  Ca  Ca6  1  0.750000  0.119761  0.369761  1
  Ca  Ca7  1  0.130239  0.250000  0.380239  1
  Ca  Ca8  1  0.369761  0.750000  0.119761  1
  Ca  Ca9  1  0.250000  0.880239  0.630239  1
  Ca  Ca10  1  0.869761  0.750000  0.619761  1
  Ca  Ca11  1  0.630239  0.250000  0.880239  1
  Ca  Ca12  1  0.380239  0.130239  0.250000  1
  Ca  Ca13  1  0.619761  0.869761  0.750000  1
  Ca  Ca14  1  0.119761  0.369761  0.750000  1
  Ca  Ca15  1  0.880239  0.630239  0.250000  1
  Mg  Mg16  1  0.000000  0.000000  0.000000  1
  Mg  Mg17  1  0.500000  0.000000  0.500000  1
  Mg  Mg18  1  0.000000  0.500000  0.500000  1
  Mg  Mg19  1  0.500000  0.500000  0.000000  1
  As  As20  1  0.250000  0.627414  0.377414  1
  As  As21  1  0.750000  0.372586  0.622586  1
  As  As22  1  0.750000  0.872586  0.122586  1
  As  As23  1  0.377414  0.250000  0.627414  1
  As  As24  1  0.622586  0.750000  0.372586  1
  As  As25  1  0.250000  0.127414  0.877414  1
  As  As26  1  0.122586  0.750000  0.872586  1
  As  As27  1  0.877414  0.250000  0.127414  1
  As  As28  1  0.627414  0.377414  0.250000  1
  As  As29  1  0.372586  0.622586  0.750000  1
  As  As30  1  0.872586  0.122586  0.750000  1
  As  As31  1  0.127414  0.877414  0.250000  1
  O  O32  1  0.486277  0.383480  0.286574  1
  O  O33  1  0.513723  0.616520  0.713426  1
  O  O34  1  0.596907  0.199704  0.213426  1
  O  O35  1  0.903093  0.116520  0.602797  1
  O  O36  1  0.286574  0.486277  0.383480  1
  O  O37  1  0.310413  0.915701  0.291951  1
  O  O38  1  0.403093  0.800296  0.786574  1
  O  O39  1  0.096907  0.883480  0.397203  1
  O  O40  1  0.713426  0.513723  0.616520  1
  O  O41  1  0.689587  0.084299  0.708049  1
  O  O42  1  0.013723  0.300296  0.897203  1
  O  O43  1  0.213426  0.596907  0.199704  1
  O  O44  1  0.123750  0.018462  0.208049  1
  O  O45  1  0.986277  0.699704  0.102797  1
  O  O46  1  0.786574  0.403093  0.800296  1
  O  O47  1  0.876250  0.981538  0.791951  1
  O  O48  1  0.602797  0.903093  0.116520  1
  O  O49  1  0.189587  0.481538  0.605288  1
  O  O50  1  0.397203  0.096907  0.883480  1
  O  O51  1  0.810413  0.518462  0.394712  1
  O  O52  1  0.897203  0.013723  0.300296  1
  O  O53  1  0.376250  0.584299  0.894712  1
  O  O54  1  0.102797  0.986277  0.699704  1
  O  O55  1  0.623750  0.415701  0.105288  1
  O  O56  1  0.383480  0.286574  0.486277  1
  O  O57  1  0.584299  0.894712  0.376250  1
  O  O58  1  0.616520  0.713426  0.513723  1
  O  O59  1  0.415701  0.105288  0.623750  1
  O  O60  1  0.116520  0.602797  0.903093  1
  O  O61  1  0.018462  0.208049  0.123750  1
  O  O62  1  0.883480  0.397203  0.096907  1
  O  O63  1  0.981538  0.791951  0.876250  1
  O  O64  1  0.300296  0.897203  0.013723  1
  O  O65  1  0.915701  0.291951  0.310413  1
  O  O66  1  0.699704  0.102797  0.986277  1
  O  O67  1  0.084299  0.708049  0.689587  1
  O  O68  1  0.199704  0.213426  0.596907  1
  O  O69  1  0.481538  0.605288  0.189587  1
  O  O70  1  0.800296  0.786574  0.403093  1
  O  O71  1  0.518462  0.394712  0.810413  1
  O  O72  1  0.291951  0.310413  0.915701  1
  O  O73  1  0.708049  0.689587  0.084299  1
  O  O74  1  0.208049  0.123750  0.018462  1
  O  O75  1  0.791951  0.876250  0.981538  1
  O  O76  1  0.894712  0.376250  0.584299  1
  O  O77  1  0.105288  0.623750  0.415701  1
  O  O78  1  0.605288  0.189587  0.481538  1
  O  O79  1  0.394712  0.810413  0.518462  1
