# generated using pymatgen
data_HoLuCo12Ge2P5
_symmetry_space_group_name_H-M   'P 1'
_cell_length_a   9.07419806
_cell_length_b   9.12190821
_cell_length_c   3.57818600
_cell_angle_alpha   90.00000000
_cell_angle_beta   90.00000000
_cell_angle_gamma   119.56367437
_symmetry_Int_Tables_number   1
_chemical_formula_structural   HoLuCo12Ge2P5
_chemical_formula_sum   'Ho1 Lu1 Co12 Ge2 P5'
_cell_volume   257.62038176
_cell_formula_units_Z   1
loop_
 _symmetry_equiv_pos_site_id
 _symmetry_equiv_pos_as_xyz
  1  'x, y, z'
loop_
 _atom_site_type_symbol
 _atom_site_label
 _atom_site_symmetry_multiplicity
 _atom_site_fract_x
 _atom_site_fract_y
 _atom_site_fract_z
 _atom_site_occupancy
  Ho  Ho0  1  0.666686  0.338774  0.500000  1
  Lu  Lu1  1  0.332939  0.667861  0.000000  1
  Co  Co2  1  0.122892  0.839328  0.000000  1
  Co  Co3  1  0.384548  0.438962  0.500000  1
  Co  Co4  1  0.711444  0.861979  0.000000  1
  Co  Co5  1  0.551985  0.933266  0.500000  1
  Co  Co6  1  0.246379  0.111696  0.500000  1
  Co  Co7  1  0.856518  0.743053  0.500000  1
  Co  Co8  1  0.905756  0.140641  0.500000  1
  Co  Co9  1  0.952891  0.391455  0.000000  1
  Co  Co10  1  0.619866  0.558266  0.000000  1
  Co  Co11  1  0.427547  0.057488  0.000000  1
  Co  Co12  1  0.057587  0.619545  0.500000  1
  Co  Co13  1  0.163383  0.290605  0.000000  1
  Ge  Ge14  1  0.998931  0.002763  0.000000  1
  Ge  Ge15  1  0.712587  0.116359  0.000000  1
  P  P16  1  0.592499  0.704745  0.500000  1
  P  P17  1  0.886917  0.596490  0.000000  1
  P  P18  1  0.403753  0.290654  0.000000  1
  P  P19  1  0.289839  0.888555  0.500000  1
  P  P20  1  0.115050  0.407517  0.500000  1
