# generated using pymatgen
data_Ba2ErTcO6
_symmetry_space_group_name_H-M   'P 1'
_cell_length_a   5.96379677
_cell_length_b   5.96388033
_cell_length_c   5.96382000
_cell_angle_alpha   59.99865018
_cell_angle_beta   60.00007669
_cell_angle_gamma   89.99941402
_symmetry_Int_Tables_number   1
_chemical_formula_structural   Ba2ErTcO6
_chemical_formula_sum   'Ba2 Er1 Tc1 O6'
_cell_volume   149.98752854
_cell_formula_units_Z   1
loop_
 _symmetry_equiv_pos_site_id
 _symmetry_equiv_pos_as_xyz
  1  'x, y, z'
loop_
 _atom_site_type_symbol
 _atom_site_label
 _atom_site_symmetry_multiplicity
 _atom_site_fract_x
 _atom_site_fract_y
 _atom_site_fract_z
 _atom_site_occupancy
  Ba  Ba0  1  0.249996  0.749983  0.500005  1
  Ba  Ba1  1  0.750003  0.250000  0.500002  1
  Er  Er2  1  0.500011  0.500059  0.999973  1
  Tc  Tc3  1  0.000004  0.000004  0.999993  1
  O  O4  1  0.763688  0.236293  0.000007  1
  O  O5  1  0.236307  0.236301  0.999998  1
  O  O6  1  0.236301  0.763684  0.000004  1
  O  O7  1  0.763691  0.763686  0.000012  1
  O  O8  1  0.763691  0.763683  0.472619  1
  O  O9  1  0.236310  0.236300  0.527388  1
