# generated using pymatgen
data_TbTm2Lu5(CdIr)2
_symmetry_space_group_name_H-M   'P 1'
_cell_length_a   9.49238349
_cell_length_b   9.49238376
_cell_length_c   9.48544700
_cell_angle_alpha   60.02417426
_cell_angle_beta   60.02417332
_cell_angle_gamma   59.95165192
_symmetry_Int_Tables_number   1
_chemical_formula_structural   TbTm2Lu5(CdIr)2
_chemical_formula_sum   'Tb2 Tm4 Lu10 Cd4 Ir4'
_cell_volume   604.35608850
_cell_formula_units_Z   2
loop_
 _symmetry_equiv_pos_site_id
 _symmetry_equiv_pos_as_xyz
  1  'x, y, z'
loop_
 _atom_site_type_symbol
 _atom_site_label
 _atom_site_symmetry_multiplicity
 _atom_site_fract_x
 _atom_site_fract_y
 _atom_site_fract_z
 _atom_site_occupancy
  Tb  Tb0  1  0.811614  0.811614  0.188386  1
  Tb  Tb1  1  0.188386  0.188386  0.811614  1
  Tm  Tm2  1  0.189598  0.810402  0.810402  1
  Tm  Tm3  1  0.810402  0.189598  0.189598  1
  Tm  Tm4  1  0.810402  0.189598  0.810402  1
  Tm  Tm5  1  0.189598  0.810402  0.189598  1
  Lu  Lu6  1  0.598601  0.598601  0.598843  1
  Lu  Lu7  1  0.598601  0.598601  0.203958  1
  Lu  Lu8  1  0.598843  0.203958  0.598601  1
  Lu  Lu9  1  0.203958  0.598843  0.598601  1
  Lu  Lu10  1  0.061615  0.438385  0.438385  1
  Lu  Lu11  1  0.438385  0.061615  0.061615  1
  Lu  Lu12  1  0.438385  0.061615  0.438385  1
  Lu  Lu13  1  0.061615  0.438385  0.061615  1
  Lu  Lu14  1  0.438492  0.438492  0.061508  1
  Lu  Lu15  1  0.061508  0.061508  0.438492  1
  Cd  Cd16  1  0.830784  0.830784  0.830038  1
  Cd  Cd17  1  0.830784  0.830784  0.508397  1
  Cd  Cd18  1  0.830038  0.508397  0.830784  1
  Cd  Cd19  1  0.508397  0.830038  0.830784  1
  Ir  Ir20  1  0.391952  0.391952  0.391289  1
  Ir  Ir21  1  0.391952  0.391952  0.824809  1
  Ir  Ir22  1  0.391289  0.824809  0.391952  1
  Ir  Ir23  1  0.824809  0.391289  0.391952  1
