# generated using pymatgen
data_Zn22Pt2Rh
_symmetry_space_group_name_H-M   'P 1'
_cell_length_a   7.79905471
_cell_length_b   7.79905523
_cell_length_c   7.83485297
_cell_angle_alpha   72.14087403
_cell_angle_beta   72.14087062
_cell_angle_gamma   58.26595206
_symmetry_Int_Tables_number   1
_chemical_formula_structural   Zn22Pt2Rh
_chemical_formula_sum   'Zn22 Pt2 Rh1'
_cell_volume   379.50908241
_cell_formula_units_Z   1
loop_
 _symmetry_equiv_pos_site_id
 _symmetry_equiv_pos_as_xyz
  1  'x, y, z'
loop_
 _atom_site_type_symbol
 _atom_site_label
 _atom_site_symmetry_multiplicity
 _atom_site_fract_x
 _atom_site_fract_y
 _atom_site_fract_z
 _atom_site_occupancy
  Zn  Zn0  1  0.341183  0.734380  0.316830  1
  Zn  Zn1  1  0.658817  0.265620  0.683170  1
  Zn  Zn2  1  0.265620  0.658817  0.683170  1
  Zn  Zn3  1  0.734380  0.341183  0.316830  1
  Zn  Zn4  1  0.682741  0.317259  0.000000  1
  Zn  Zn5  1  0.317259  0.682741  0.000000  1
  Zn  Zn6  1  0.832279  0.832279  0.779970  1
  Zn  Zn7  1  0.167721  0.167721  0.220030  1
  Zn  Zn8  1  0.975345  0.975345  0.173745  1
  Zn  Zn9  1  0.024655  0.024655  0.826255  1
  Zn  Zn10  1  0.353660  0.353660  0.277488  1
  Zn  Zn11  1  0.646340  0.646340  0.722512  1
  Zn  Zn12  1  0.684942  0.684942  0.382020  1
  Zn  Zn13  1  0.315058  0.315058  0.617980  1
  Zn  Zn14  1  0.659210  0.023206  0.458457  1
  Zn  Zn15  1  0.340790  0.976794  0.541543  1
  Zn  Zn16  1  0.976794  0.340790  0.541543  1
  Zn  Zn17  1  0.023206  0.659210  0.458457  1
  Zn  Zn18  1  0.622779  0.998217  0.107811  1
  Zn  Zn19  1  0.377221  0.001783  0.892189  1
  Zn  Zn20  1  0.001783  0.377221  0.892189  1
  Zn  Zn21  1  0.998217  0.622779  0.107811  1
  Pt  Pt22  1  0.658754  0.658754  0.054817  1
  Pt  Pt23  1  0.341246  0.341246  0.945183  1
  Rh  Rh24  1  0.000000  0.000000  0.500000  1
