# generated using pymatgen
data_Zr9Sc9(Re4P)2
_symmetry_space_group_name_H-M   'P 1'
_cell_length_a   8.66025900
_cell_length_b   8.66025936
_cell_length_c   8.62841400
_cell_angle_alpha   90.00000000
_cell_angle_beta   90.00000000
_cell_angle_gamma   119.99999481
_symmetry_Int_Tables_number   1
_chemical_formula_structural   Zr9Sc9(Re4P)2
_chemical_formula_sum   'Zr9 Sc9 Re8 P2'
_cell_volume   560.43262362
_cell_formula_units_Z   1
loop_
 _symmetry_equiv_pos_site_id
 _symmetry_equiv_pos_as_xyz
  1  'x, y, z'
loop_
 _atom_site_type_symbol
 _atom_site_label
 _atom_site_symmetry_multiplicity
 _atom_site_fract_x
 _atom_site_fract_y
 _atom_site_fract_z
 _atom_site_occupancy
  Zr  Zr0  1  0.803929  0.196071  0.545532  1
  Zr  Zr1  1  0.803929  0.607858  0.545532  1
  Zr  Zr2  1  0.392142  0.196071  0.545532  1
  Zr  Zr3  1  0.803074  0.196926  0.954424  1
  Zr  Zr4  1  0.803074  0.606148  0.954424  1
  Zr  Zr5  1  0.393852  0.196926  0.954424  1
  Zr  Zr6  1  0.196402  0.803598  0.046190  1
  Zr  Zr7  1  0.196402  0.392805  0.046190  1
  Zr  Zr8  1  0.607195  0.803598  0.046190  1
  Sc  Sc9  1  0.196554  0.803446  0.453107  1
  Sc  Sc10  1  0.196554  0.393108  0.453107  1
  Sc  Sc11  1  0.606892  0.803446  0.453107  1
  Sc  Sc12  1  0.539522  0.460478  0.251227  1
  Sc  Sc13  1  0.539522  0.079044  0.251227  1
  Sc  Sc14  1  0.920956  0.460478  0.251227  1
  Sc  Sc15  1  0.461719  0.538281  0.750706  1
  Sc  Sc16  1  0.461719  0.923437  0.750706  1
  Sc  Sc17  1  0.076563  0.538281  0.750706  1
  Re  Re18  1  0.892226  0.107774  0.249676  1
  Re  Re19  1  0.892226  0.784452  0.249676  1
  Re  Re20  1  0.215548  0.107774  0.249676  1
  Re  Re21  1  0.107609  0.892391  0.750027  1
  Re  Re22  1  0.107609  0.215219  0.750027  1
  Re  Re23  1  0.784781  0.892391  0.750027  1
  Re  Re24  1  0.000000  0.000000  0.497875  1
  Re  Re25  1  0.000000  0.000000  0.999685  1
  P  P26  1  0.333333  0.666667  0.250937  1
  P  P27  1  0.666667  0.333333  0.748832  1
