# generated using pymatgen
data_DyLu3(HfRh)4
_symmetry_space_group_name_H-M   'P 1'
_cell_length_a   4.56663100
_cell_length_b   6.91238838
_cell_length_c   8.20952118
_cell_angle_alpha   90.08341446
_cell_angle_beta   90.00000000
_cell_angle_gamma   90.00000000
_symmetry_Int_Tables_number   1
_chemical_formula_structural   DyLu3(HfRh)4
_chemical_formula_sum   'Dy1 Lu3 Hf4 Rh4'
_cell_volume   259.14415599
_cell_formula_units_Z   1
loop_
 _symmetry_equiv_pos_site_id
 _symmetry_equiv_pos_as_xyz
  1  'x, y, z'
loop_
 _atom_site_type_symbol
 _atom_site_label
 _atom_site_symmetry_multiplicity
 _atom_site_fract_x
 _atom_site_fract_y
 _atom_site_fract_z
 _atom_site_occupancy
  Dy  Dy0  1  0.250000  0.014951  0.322350  1
  Lu  Lu1  1  0.250000  0.516261  0.176954  1
  Lu  Lu2  1  0.750000  0.483652  0.822533  1
  Lu  Lu3  1  0.750000  0.984011  0.678420  1
  Hf  Hf4  1  0.250000  0.641555  0.574569  1
  Hf  Hf5  1  0.750000  0.359458  0.426461  1
  Hf  Hf6  1  0.750000  0.857590  0.071642  1
  Hf  Hf7  1  0.250000  0.142371  0.925687  1
  Rh  Rh8  1  0.250000  0.764075  0.908671  1
  Rh  Rh9  1  0.750000  0.236254  0.090495  1
  Rh  Rh10  1  0.750000  0.734489  0.409576  1
  Rh  Rh11  1  0.250000  0.265335  0.592641  1
