# generated using pymatgen
data_HfMnI6
_symmetry_space_group_name_H-M   'P 1'
_cell_length_a   7.65482900
_cell_length_b   7.65482806
_cell_length_c   6.90288100
_cell_angle_alpha   90.00000000
_cell_angle_beta   90.00000000
_cell_angle_gamma   120.00000839
_symmetry_Int_Tables_number   1
_chemical_formula_structural   HfMnI6
_chemical_formula_sum   'Hf1 Mn1 I6'
_cell_volume   350.29336811
_cell_formula_units_Z   1
loop_
 _symmetry_equiv_pos_site_id
 _symmetry_equiv_pos_as_xyz
  1  'x, y, z'
loop_
 _atom_site_type_symbol
 _atom_site_label
 _atom_site_symmetry_multiplicity
 _atom_site_fract_x
 _atom_site_fract_y
 _atom_site_fract_z
 _atom_site_occupancy
  Hf  Hf0  1  0.000000  0.000000  0.500000  1
  Mn  Mn1  1  0.000000  0.000000  0.000000  1
  I  I2  1  0.301039  0.000000  0.254984  1
  I  I3  1  0.698961  0.000000  0.745016  1
  I  I4  1  0.000000  0.301039  0.254984  1
  I  I5  1  0.301039  0.301039  0.745016  1
  I  I6  1  0.000000  0.698961  0.745016  1
  I  I7  1  0.698961  0.698961  0.254984  1
