# generated using pymatgen
data_YbTmSc2(Ga3Ir)6
_symmetry_space_group_name_H-M   'P 1'
_cell_length_a   7.52546906
_cell_length_b   7.53277790
_cell_length_c   9.46958500
_cell_angle_alpha   90.00000000
_cell_angle_beta   90.00000000
_cell_angle_gamma   119.84035968
_symmetry_Int_Tables_number   1
_chemical_formula_structural   YbTmSc2(Ga3Ir)6
_chemical_formula_sum   'Yb1 Tm1 Sc2 Ga18 Ir6'
_cell_volume   465.63615508
_cell_formula_units_Z   1
loop_
 _symmetry_equiv_pos_site_id
 _symmetry_equiv_pos_as_xyz
  1  'x, y, z'
loop_
 _atom_site_type_symbol
 _atom_site_label
 _atom_site_symmetry_multiplicity
 _atom_site_fract_x
 _atom_site_fract_y
 _atom_site_fract_z
 _atom_site_occupancy
  Yb  Yb0  1  0.996442  0.668334  0.750000  1
  Tm  Tm1  1  0.668573  0.998011  0.750000  1
  Sc  Sc2  1  0.999976  0.331296  0.250000  1
  Sc  Sc3  1  0.330372  0.999306  0.250000  1
  Ga  Ga4  1  0.127372  0.128710  0.750000  1
  Ga  Ga5  1  0.877876  0.877459  0.250000  1
  Ga  Ga6  1  0.000941  0.336159  0.577232  1
  Ga  Ga7  1  0.004107  0.664928  0.414526  1
  Ga  Ga8  1  0.004107  0.664928  0.085474  1
  Ga  Ga9  1  0.333212  0.999116  0.923398  1
  Ga  Ga10  1  0.000941  0.336159  0.922768  1
  Ga  Ga11  1  0.665438  0.004760  0.086752  1
  Ga  Ga12  1  0.665438  0.004760  0.413248  1
  Ga  Ga13  1  0.333212  0.999116  0.576602  1
  Ga  Ga14  1  0.328738  0.328512  0.073376  1
  Ga  Ga15  1  0.668756  0.667454  0.938968  1
  Ga  Ga16  1  0.668756  0.667454  0.561032  1
  Ga  Ga17  1  0.328738  0.328512  0.426624  1
  Ga  Ga18  1  0.339494  0.546773  0.750000  1
  Ga  Ga19  1  0.661084  0.448053  0.250000  1
  Ga  Ga20  1  0.544854  0.336327  0.750000  1
  Ga  Ga21  1  0.448100  0.660477  0.250000  1
  Ir  Ir22  1  0.671322  0.328466  0.499259  1
  Ir  Ir23  1  0.330173  0.672256  0.498864  1
  Ir  Ir24  1  0.330173  0.672256  0.001136  1
  Ir  Ir25  1  0.671322  0.328466  0.000741  1
  Ir  Ir26  1  0.000243  0.000975  0.498574  1
  Ir  Ir27  1  0.000243  0.000975  0.001426  1
