# generated using pymatgen
data_LiSm6Cd22As
_symmetry_space_group_name_H-M   'P 1'
_cell_length_a   9.98358145
_cell_length_b   9.98358128
_cell_length_c   9.98358100
_cell_angle_alpha   59.99999762
_cell_angle_beta   59.99999818
_cell_angle_gamma   60.00000205
_symmetry_Int_Tables_number   1
_chemical_formula_structural   LiSm6Cd22As
_chemical_formula_sum   'Li1 Sm6 Cd22 As1'
_cell_volume   703.62954131
_cell_formula_units_Z   1
loop_
 _symmetry_equiv_pos_site_id
 _symmetry_equiv_pos_as_xyz
  1  'x, y, z'
loop_
 _atom_site_type_symbol
 _atom_site_label
 _atom_site_symmetry_multiplicity
 _atom_site_fract_x
 _atom_site_fract_y
 _atom_site_fract_z
 _atom_site_occupancy
  Li  Li0  1  0.500000  0.500000  0.500000  1
  Sm  Sm1  1  0.794666  0.794666  0.205334  1
  Sm  Sm2  1  0.205334  0.794666  0.205334  1
  Sm  Sm3  1  0.794666  0.205334  0.205334  1
  Sm  Sm4  1  0.205334  0.205334  0.794666  1
  Sm  Sm5  1  0.794666  0.205334  0.794666  1
  Sm  Sm6  1  0.205334  0.794666  0.794666  1
  Cd  Cd7  1  0.834079  0.834079  0.497765  1
  Cd  Cd8  1  0.834079  0.497765  0.834079  1
  Cd  Cd9  1  0.497765  0.834079  0.834079  1
  Cd  Cd10  1  0.834079  0.834079  0.834079  1
  Cd  Cd11  1  0.165921  0.165921  0.502235  1
  Cd  Cd12  1  0.165921  0.502235  0.165921  1
  Cd  Cd13  1  0.502235  0.165921  0.165921  1
  Cd  Cd14  1  0.165921  0.165921  0.165921  1
  Cd  Cd15  1  0.617093  0.617093  0.148723  1
  Cd  Cd16  1  0.617093  0.148723  0.617093  1
  Cd  Cd17  1  0.148723  0.617093  0.617093  1
  Cd  Cd18  1  0.617093  0.617093  0.617093  1
  Cd  Cd19  1  0.382907  0.382907  0.851277  1
  Cd  Cd20  1  0.382907  0.851277  0.382907  1
  Cd  Cd21  1  0.851277  0.382907  0.382907  1
  Cd  Cd22  1  0.382907  0.382907  0.382907  1
  Cd  Cd23  1  0.000000  0.000000  0.500000  1
  Cd  Cd24  1  0.500000  0.000000  0.500000  1
  Cd  Cd25  1  0.000000  0.500000  0.500000  1
  Cd  Cd26  1  0.500000  0.500000  0.000000  1
  Cd  Cd27  1  0.000000  0.500000  0.000000  1
  Cd  Cd28  1  0.500000  0.000000  0.000000  1
  As  As29  1  0.000000  0.000000  0.000000  1
