# generated using pymatgen
data_NdAgIrRhO7
_symmetry_space_group_name_H-M   'P 1'
_cell_length_a   7.47781617
_cell_length_b   7.28827746
_cell_length_c   7.28827617
_cell_angle_alpha   59.00033820
_cell_angle_beta   59.13593022
_cell_angle_gamma   59.13593207
_symmetry_Int_Tables_number   1
_chemical_formula_structural   NdAgIrRhO7
_chemical_formula_sum   'Nd2 Ag2 Ir2 Rh2 O14'
_cell_volume   275.04920262
_cell_formula_units_Z   2
loop_
 _symmetry_equiv_pos_site_id
 _symmetry_equiv_pos_as_xyz
  1  'x, y, z'
loop_
 _atom_site_type_symbol
 _atom_site_label
 _atom_site_symmetry_multiplicity
 _atom_site_fract_x
 _atom_site_fract_y
 _atom_site_fract_z
 _atom_site_occupancy
  Nd  Nd0  1  0.625000  0.125000  0.125000  1
  Nd  Nd1  1  0.125000  0.125000  0.125000  1
  Ag  Ag2  1  0.125000  0.625000  0.125000  1
  Ag  Ag3  1  0.125000  0.125000  0.625000  1
  Ir  Ir4  1  0.125000  0.625000  0.625000  1
  Ir  Ir5  1  0.625000  0.625000  0.625000  1
  Rh  Rh6  1  0.625000  0.125000  0.625000  1
  Rh  Rh7  1  0.625000  0.625000  0.125000  1
  O  O8  1  0.700626  0.701072  0.300729  1
  O  O9  1  0.297573  0.300729  0.701072  1
  O  O10  1  0.700626  0.300729  0.701072  1
  O  O11  1  0.297573  0.701072  0.300729  1
  O  O12  1  0.309106  0.690894  0.690894  1
  O  O13  1  0.714886  0.285114  0.285114  1
  O  O14  1  0.549374  0.548928  0.949271  1
  O  O15  1  0.952427  0.949271  0.548928  1
  O  O16  1  0.549374  0.949271  0.548928  1
  O  O17  1  0.952427  0.548928  0.949271  1
  O  O18  1  0.940894  0.559106  0.559106  1
  O  O19  1  0.535114  0.964886  0.964886  1
  O  O20  1  0.234147  0.265853  0.265853  1
  O  O21  1  0.015853  0.984147  0.984147  1
