# generated using pymatgen
data_Ho(Lu2Ru)2
_symmetry_space_group_name_H-M   'P 1'
_cell_length_a   6.20348227
_cell_length_b   7.20805526
_cell_length_c   8.29676573
_cell_angle_alpha   97.12871316
_cell_angle_beta   111.85524597
_cell_angle_gamma   89.87628191
_symmetry_Int_Tables_number   1
_chemical_formula_structural   Ho(Lu2Ru)2
_chemical_formula_sum   'Ho2 Lu8 Ru4'
_cell_volume   341.27364448
_cell_formula_units_Z   2
loop_
 _symmetry_equiv_pos_site_id
 _symmetry_equiv_pos_as_xyz
  1  'x, y, z'
loop_
 _atom_site_type_symbol
 _atom_site_label
 _atom_site_symmetry_multiplicity
 _atom_site_fract_x
 _atom_site_fract_y
 _atom_site_fract_z
 _atom_site_occupancy
  Ho  Ho0  1  0.522217  0.084005  0.811976  1
  Ho  Ho1  1  0.477783  0.915995  0.188024  1
  Lu  Lu2  1  0.708271  0.416412  0.186639  1
  Lu  Lu3  1  0.291729  0.583588  0.813361  1
  Lu  Lu4  1  0.298832  0.314825  0.433618  1
  Lu  Lu5  1  0.701168  0.685175  0.566382  1
  Lu  Lu6  1  0.865485  0.185980  0.566140  1
  Lu  Lu7  1  0.134515  0.814020  0.433860  1
  Lu  Lu8  1  0.080061  0.251343  0.000270  1
  Lu  Lu9  1  0.919939  0.748657  0.999730  1
  Ru  Ru10  1  0.321533  0.576051  0.220978  1
  Ru  Ru11  1  0.678467  0.423949  0.779022  1
  Ru  Ru12  1  0.098920  0.921684  0.778241  1
  Ru  Ru13  1  0.901080  0.078316  0.221759  1
