# generated using pymatgen
data_Pm4H9
_symmetry_space_group_name_H-M   'P 1'
_cell_length_a   6.62512895
_cell_length_b   5.41206597
_cell_length_c   5.40976776
_cell_angle_alpha   89.92116994
_cell_angle_beta   114.05431062
_cell_angle_gamma   65.91389350
_symmetry_Int_Tables_number   1
_chemical_formula_structural   Pm4H9
_chemical_formula_sum   'Pm4 H9'
_cell_volume   158.39787096
_cell_formula_units_Z   1
loop_
 _symmetry_equiv_pos_site_id
 _symmetry_equiv_pos_as_xyz
  1  'x, y, z'
loop_
 _atom_site_type_symbol
 _atom_site_label
 _atom_site_symmetry_multiplicity
 _atom_site_fract_x
 _atom_site_fract_y
 _atom_site_fract_z
 _atom_site_occupancy
  Pm  Pm0  1  0.262189  0.561438  0.785453  1
  Pm  Pm1  1  0.770519  0.314270  0.541201  1
  Pm  Pm2  1  0.752683  0.823021  0.032024  1
  Pm  Pm3  1  0.262088  0.066985  0.279670  1
  H  H4  1  0.515209  0.680375  0.169899  1
  H  H5  1  0.004506  0.457244  0.917854  1
  H  H6  1  0.008157  0.934046  0.916521  1
  H  H7  1  0.518927  0.200160  0.175234  1
  H  H8  1  0.513058  0.684940  0.654048  1
  H  H9  1  0.263272  0.084338  0.803619  1
  H  H10  1  0.008071  0.452322  0.397884  1
  H  H11  1  0.515306  0.198678  0.651662  1
  H  H12  1  0.010759  0.936020  0.402998  1
