# generated using pymatgen
data_Gd8NbSi16Tc11
_symmetry_space_group_name_H-M   'P 1'
_cell_length_a   6.86573200
_cell_length_b   6.79780358
_cell_length_c   12.71718300
_cell_angle_alpha   90.00000000
_cell_angle_beta   90.00000000
_cell_angle_gamma   89.88977106
_symmetry_Int_Tables_number   1
_chemical_formula_structural   Gd8NbSi16Tc11
_chemical_formula_sum   'Gd8 Nb1 Si16 Tc11'
_cell_volume   593.53396395
_cell_formula_units_Z   1
loop_
 _symmetry_equiv_pos_site_id
 _symmetry_equiv_pos_as_xyz
  1  'x, y, z'
loop_
 _atom_site_type_symbol
 _atom_site_label
 _atom_site_symmetry_multiplicity
 _atom_site_fract_x
 _atom_site_fract_y
 _atom_site_fract_z
 _atom_site_occupancy
  Gd  Gd0  1  0.487556  0.659873  0.594404  1
  Gd  Gd1  1  0.002681  0.835806  0.903398  1
  Gd  Gd2  1  0.501131  0.336268  0.093630  1
  Gd  Gd3  1  0.005595  0.161934  0.405634  1
  Gd  Gd4  1  0.501131  0.336268  0.406370  1
  Gd  Gd5  1  0.005595  0.161934  0.094366  1
  Gd  Gd6  1  0.487556  0.659873  0.905596  1
  Gd  Gd7  1  0.002681  0.835806  0.596602  1
  Nb  Nb8  1  0.674863  0.999110  0.250000  1
  Si  Si9  1  0.663476  0.956820  0.458372  1
  Si  Si10  1  0.146675  0.559978  0.055657  1
  Si  Si11  1  0.352541  0.056939  0.947501  1
  Si  Si12  1  0.834836  0.456090  0.546873  1
  Si  Si13  1  0.352541  0.056939  0.552499  1
  Si  Si14  1  0.834836  0.456090  0.953127  1
  Si  Si15  1  0.663476  0.956820  0.041628  1
  Si  Si16  1  0.146675  0.559978  0.444343  1
  Si  Si17  1  0.461009  0.341029  0.750000  1
  Si  Si18  1  0.981975  0.156534  0.750000  1
  Si  Si19  1  0.525835  0.631867  0.250000  1
  Si  Si20  1  0.046792  0.847742  0.250000  1
  Si  Si21  1  0.691672  0.864410  0.750000  1
  Si  Si22  1  0.188399  0.595673  0.750000  1
  Si  Si23  1  0.301499  0.127443  0.250000  1
  Si  Si24  1  0.805099  0.373733  0.250000  1
  Tc  Tc25  1  0.692138  0.153309  0.629146  1
  Tc  Tc26  1  0.151118  0.343028  0.892500  1
  Tc  Tc27  1  0.351803  0.848204  0.124474  1
  Tc  Tc28  1  0.811482  0.660549  0.375584  1
  Tc  Tc29  1  0.351803  0.848204  0.375526  1
  Tc  Tc30  1  0.811482  0.660549  0.124416  1
  Tc  Tc31  1  0.692138  0.153309  0.870854  1
  Tc  Tc32  1  0.151118  0.343028  0.607500  1
  Tc  Tc33  1  0.824079  0.506012  0.750000  1
  Tc  Tc34  1  0.332749  0.998946  0.750000  1
  Tc  Tc35  1  0.163958  0.499903  0.250000  1
