# generated using pymatgen
data_Ho16MgCo4Hg3
_symmetry_space_group_name_H-M   'P 1'
_cell_length_a   9.42908822
_cell_length_b   9.43224223
_cell_length_c   9.42908800
_cell_angle_alpha   60.01106154
_cell_angle_beta   60.00000078
_cell_angle_gamma   60.01106331
_symmetry_Int_Tables_number   1
_chemical_formula_structural   Ho16MgCo4Hg3
_chemical_formula_sum   'Ho16 Mg1 Co4 Hg3'
_cell_volume   593.07816557
_cell_formula_units_Z   1
loop_
 _symmetry_equiv_pos_site_id
 _symmetry_equiv_pos_as_xyz
  1  'x, y, z'
loop_
 _atom_site_type_symbol
 _atom_site_label
 _atom_site_symmetry_multiplicity
 _atom_site_fract_x
 _atom_site_fract_y
 _atom_site_fract_z
 _atom_site_occupancy
  Ho  Ho0  1  0.938593  0.936419  0.562494  1
  Ho  Ho1  1  0.813943  0.185144  0.186969  1
  Ho  Ho2  1  0.937623  0.561647  0.563108  1
  Ho  Ho3  1  0.937623  0.561647  0.937623  1
  Ho  Ho4  1  0.811663  0.810946  0.188696  1
  Ho  Ho5  1  0.345711  0.347836  0.345711  1
  Ho  Ho6  1  0.562494  0.936419  0.938593  1
  Ho  Ho7  1  0.562494  0.936419  0.562494  1
  Ho  Ho8  1  0.188696  0.810946  0.811663  1
  Ho  Ho9  1  0.186969  0.185144  0.813943  1
  Ho  Ho10  1  0.345711  0.347836  0.960744  1
  Ho  Ho11  1  0.349095  0.952714  0.349095  1
  Ho  Ho12  1  0.813943  0.185144  0.813943  1
  Ho  Ho13  1  0.563108  0.561647  0.937623  1
  Ho  Ho14  1  0.188696  0.810946  0.188696  1
  Ho  Ho15  1  0.960744  0.347836  0.345711  1
  Mg  Mg16  1  0.572085  0.283746  0.572085  1
  Co  Co17  1  0.576171  0.139534  0.142147  1
  Co  Co18  1  0.142147  0.139534  0.142147  1
  Co  Co19  1  0.141438  0.575688  0.141438  1
  Co  Co20  1  0.142147  0.139534  0.576171  1
  Hg  Hg21  1  0.585434  0.581092  0.248041  1
  Hg  Hg22  1  0.248041  0.581092  0.585434  1
  Hg  Hg23  1  0.585434  0.581092  0.585434  1
