# generated using pymatgen
data_Yb9Pr8Tm3Sn16
_symmetry_space_group_name_H-M   'P 1'
_cell_length_a   7.97904369
_cell_length_b   8.43830762
_cell_length_c   15.95434838
_cell_angle_alpha   89.88697342
_cell_angle_beta   89.87497980
_cell_angle_gamma   90.00933255
_symmetry_Int_Tables_number   1
_chemical_formula_structural   Yb9Pr8Tm3Sn16
_chemical_formula_sum   'Yb9 Pr8 Tm3 Sn16'
_cell_volume   1074.19563347
_cell_formula_units_Z   1
loop_
 _symmetry_equiv_pos_site_id
 _symmetry_equiv_pos_as_xyz
  1  'x, y, z'
loop_
 _atom_site_type_symbol
 _atom_site_label
 _atom_site_symmetry_multiplicity
 _atom_site_fract_x
 _atom_site_fract_y
 _atom_site_fract_z
 _atom_site_occupancy
  Yb  Yb0  1  0.329096  0.830836  0.876812  1
  Yb  Yb1  1  0.828896  0.668925  0.622518  1
  Yb  Yb2  1  0.670292  0.170146  0.378201  1
  Yb  Yb3  1  0.170805  0.331121  0.123131  1
  Yb  Yb4  1  0.670097  0.169509  0.123004  1
  Yb  Yb5  1  0.161681  0.502399  0.748894  1
  Yb  Yb6  1  0.661619  0.997363  0.750678  1
  Yb  Yb7  1  0.838197  0.495223  0.248341  1
  Yb  Yb8  1  0.341980  0.003316  0.250299  1
  Pr  Pr9  1  0.491510  0.315610  0.904331  1
  Pr  Pr10  1  0.991489  0.183747  0.595970  1
  Pr  Pr11  1  0.508819  0.684052  0.405286  1
  Pr  Pr12  1  0.008444  0.816059  0.096212  1
  Pr  Pr13  1  0.507446  0.685457  0.096394  1
  Pr  Pr14  1  0.005741  0.815988  0.404335  1
  Pr  Pr15  1  0.493394  0.316157  0.596237  1
  Pr  Pr16  1  0.992643  0.183052  0.903250  1
  Tm  Tm17  1  0.167611  0.328666  0.376170  1
  Tm  Tm18  1  0.330672  0.829405  0.623930  1
  Tm  Tm19  1  0.830263  0.670182  0.874993  1
  Sn  Sn20  1  0.330304  0.037101  0.039466  1
  Sn  Sn21  1  0.835436  0.462017  0.459235  1
  Sn  Sn22  1  0.664468  0.962012  0.541421  1
  Sn  Sn23  1  0.164466  0.538629  0.958338  1
  Sn  Sn24  1  0.673999  0.959391  0.959761  1
  Sn  Sn25  1  0.178227  0.539536  0.537276  1
  Sn  Sn26  1  0.322054  0.039329  0.462406  1
  Sn  Sn27  1  0.827455  0.465116  0.036876  1
  Sn  Sn28  1  0.531470  0.614106  0.752373  1
  Sn  Sn29  1  0.031656  0.886497  0.747169  1
  Sn  Sn30  1  0.465998  0.391286  0.253813  1
  Sn  Sn31  1  0.971241  0.110494  0.250659  1
  Sn  Sn32  1  0.287461  0.137344  0.748402  1
  Sn  Sn33  1  0.787081  0.362480  0.750768  1
  Sn  Sn34  1  0.716024  0.859500  0.250761  1
  Sn  Sn35  1  0.211964  0.637947  0.252287  1
