# generated using pymatgen
data_SmThSn5Rh3
_symmetry_space_group_name_H-M   'P 1'
_cell_length_a   13.63493236
_cell_length_b   13.63493299
_cell_length_c   7.32121600
_cell_angle_alpha   90.00000000
_cell_angle_beta   90.00000000
_cell_angle_gamma   161.02227345
_symmetry_Int_Tables_number   1
_chemical_formula_structural   SmThSn5Rh3
_chemical_formula_sum   'Sm2 Th2 Sn10 Rh6'
_cell_volume   442.62965418
_cell_formula_units_Z   2
loop_
 _symmetry_equiv_pos_site_id
 _symmetry_equiv_pos_as_xyz
  1  'x, y, z'
loop_
 _atom_site_type_symbol
 _atom_site_label
 _atom_site_symmetry_multiplicity
 _atom_site_fract_x
 _atom_site_fract_y
 _atom_site_fract_z
 _atom_site_occupancy
  Sm  Sm0  1  0.173643  0.826357  0.753088  1
  Sm  Sm1  1  0.826357  0.173643  0.253088  1
  Th  Th2  1  0.474214  0.525786  0.737051  1
  Th  Th3  1  0.525786  0.474214  0.237051  1
  Sn  Sn4  1  0.877100  0.122900  0.734597  1
  Sn  Sn5  1  0.122900  0.877100  0.234597  1
  Sn  Sn6  1  0.704110  0.295890  0.048625  1
  Sn  Sn7  1  0.295890  0.704110  0.548625  1
  Sn  Sn8  1  0.598191  0.401809  0.613648  1
  Sn  Sn9  1  0.401809  0.598191  0.113648  1
  Sn  Sn10  1  0.950297  0.049703  0.394469  1
  Sn  Sn11  1  0.049703  0.950297  0.894469  1
  Sn  Sn12  1  0.289538  0.710462  0.975596  1
  Sn  Sn13  1  0.710462  0.289538  0.475596  1
  Rh  Rh14  1  0.050428  0.949572  0.514056  1
  Rh  Rh15  1  0.949572  0.050428  0.014056  1
  Rh  Rh16  1  0.776222  0.223778  0.766614  1
  Rh  Rh17  1  0.223778  0.776222  0.266614  1
  Rh  Rh18  1  0.396116  0.603884  0.490256  1
  Rh  Rh19  1  0.603884  0.396116  0.990256  1
