# generated using pymatgen
data_PrY11(GaRu)8
_symmetry_space_group_name_H-M   'P 1'
_cell_length_a   5.60920214
_cell_length_b   7.73975600
_cell_length_c   13.85758300
_cell_angle_alpha   90.00000000
_cell_angle_beta   90.00000000
_cell_angle_gamma   89.82787884
_symmetry_Int_Tables_number   1
_chemical_formula_structural   PrY11(GaRu)8
_chemical_formula_sum   'Pr1 Y11 Ga8 Ru8'
_cell_volume   601.60839663
_cell_formula_units_Z   1
loop_
 _symmetry_equiv_pos_site_id
 _symmetry_equiv_pos_as_xyz
  1  'x, y, z'
loop_
 _atom_site_type_symbol
 _atom_site_label
 _atom_site_symmetry_multiplicity
 _atom_site_fract_x
 _atom_site_fract_y
 _atom_site_fract_z
 _atom_site_occupancy
  Pr  Pr0  1  0.621923  0.757773  0.750000  1
  Y  Y1  1  0.153445  0.901327  0.594733  1
  Y  Y2  1  0.847523  0.100948  0.096790  1
  Y  Y3  1  0.151632  0.601366  0.403861  1
  Y  Y4  1  0.848849  0.396404  0.905769  1
  Y  Y5  1  0.847523  0.100948  0.403210  1
  Y  Y6  1  0.153445  0.901327  0.905267  1
  Y  Y7  1  0.848849  0.396404  0.594231  1
  Y  Y8  1  0.151632  0.601366  0.096139  1
  Y  Y9  1  0.380149  0.256463  0.750000  1
  Y  Y10  1  0.622716  0.742024  0.250000  1
  Y  Y11  1  0.377494  0.241807  0.250000  1
  Ga  Ga12  1  0.875104  0.109336  0.750000  1
  Ga  Ga13  1  0.127725  0.896568  0.250000  1
  Ga  Ga14  1  0.871644  0.396918  0.250000  1
  Ga  Ga15  1  0.125910  0.596414  0.750000  1
  Ga  Ga16  1  0.366105  0.250043  0.499392  1
  Ga  Ga17  1  0.632573  0.750063  0.001448  1
  Ga  Ga18  1  0.632573  0.750063  0.498552  1
  Ga  Ga19  1  0.366105  0.250043  0.000608  1
  Ru  Ru20  1  0.649327  0.037672  0.592641  1
  Ru  Ru21  1  0.353280  0.964315  0.093872  1
  Ru  Ru22  1  0.645087  0.463225  0.406162  1
  Ru  Ru23  1  0.350848  0.535986  0.907653  1
  Ru  Ru24  1  0.353280  0.964315  0.406128  1
  Ru  Ru25  1  0.649327  0.037672  0.907359  1
  Ru  Ru26  1  0.350848  0.535986  0.592347  1
  Ru  Ru27  1  0.645087  0.463225  0.093838  1
