# generated using pymatgen
data_LiHf2InRh4
_symmetry_space_group_name_H-M   'P 1'
_cell_length_a   6.14933103
_cell_length_b   6.14420103
_cell_length_c   6.81247503
_cell_angle_alpha   90.00048973
_cell_angle_beta   90.00049414
_cell_angle_gamma   89.99363448
_symmetry_Int_Tables_number   1
_chemical_formula_structural   LiHf2InRh4
_chemical_formula_sum   'Li2 Hf4 In2 Rh8'
_cell_volume   257.39387644
_cell_formula_units_Z   2
loop_
 _symmetry_equiv_pos_site_id
 _symmetry_equiv_pos_as_xyz
  1  'x, y, z'
loop_
 _atom_site_type_symbol
 _atom_site_label
 _atom_site_symmetry_multiplicity
 _atom_site_fract_x
 _atom_site_fract_y
 _atom_site_fract_z
 _atom_site_occupancy
  Li  Li0  1  0.250013  0.250059  0.999998  1
  Li  Li1  1  0.749988  0.749940  0.999992  1
  Hf  Hf2  1  0.749991  0.249981  0.000003  1
  Hf  Hf3  1  0.250010  0.750019  0.000003  1
  Hf  Hf4  1  0.250012  0.750006  0.499997  1
  Hf  Hf5  1  0.749988  0.249994  0.499998  1
  In  In6  1  0.750004  0.749969  0.500019  1
  In  In7  1  0.249996  0.250031  0.499986  1
  Rh  Rh8  1  0.999998  0.999999  0.242638  1
  Rh  Rh9  1  0.000000  0.500003  0.242649  1
  Rh  Rh10  1  0.500012  0.499997  0.242639  1
  Rh  Rh11  1  0.500005  0.999994  0.242644  1
  Rh  Rh12  1  0.499995  0.000006  0.757357  1
  Rh  Rh13  1  0.499989  0.500003  0.757361  1
  Rh  Rh14  1  0.999999  0.499998  0.757352  1
  Rh  Rh15  1  0.000002  0.000001  0.757363  1
