# generated using pymatgen
data_Sm8Sc12Si15Pt
_symmetry_space_group_name_H-M   'P 1'
_cell_length_a   7.15640574
_cell_length_b   7.52189166
_cell_length_c   14.08349600
_cell_angle_alpha   90.00000000
_cell_angle_beta   90.00000000
_cell_angle_gamma   90.04999040
_symmetry_Int_Tables_number   1
_chemical_formula_structural   Sm8Sc12Si15Pt
_chemical_formula_sum   'Sm8 Sc12 Si15 Pt1'
_cell_volume   758.11019751
_cell_formula_units_Z   1
loop_
 _symmetry_equiv_pos_site_id
 _symmetry_equiv_pos_as_xyz
  1  'x, y, z'
loop_
 _atom_site_type_symbol
 _atom_site_label
 _atom_site_symmetry_multiplicity
 _atom_site_fract_x
 _atom_site_fract_y
 _atom_site_fract_z
 _atom_site_occupancy
  Sm  Sm0  1  0.012210  0.176502  0.097210  1
  Sm  Sm1  1  0.990556  0.823352  0.904675  1
  Sm  Sm2  1  0.488138  0.675499  0.903839  1
  Sm  Sm3  1  0.990556  0.823352  0.595325  1
  Sm  Sm4  1  0.511442  0.324453  0.097101  1
  Sm  Sm5  1  0.012210  0.176502  0.402790  1
  Sm  Sm6  1  0.511442  0.324453  0.402899  1
  Sm  Sm7  1  0.488138  0.675499  0.596161  1
  Sc  Sc8  1  0.157837  0.499593  0.750000  1
  Sc  Sc9  1  0.838742  0.499267  0.250000  1
  Sc  Sc10  1  0.339127  0.002360  0.250000  1
  Sc  Sc11  1  0.665916  0.001748  0.750000  1
  Sc  Sc12  1  0.323831  0.173363  0.625444  1
  Sc  Sc13  1  0.671757  0.826024  0.373624  1
  Sc  Sc14  1  0.171547  0.676346  0.373701  1
  Sc  Sc15  1  0.671757  0.826024  0.126376  1
  Sc  Sc16  1  0.829378  0.323504  0.625392  1
  Sc  Sc17  1  0.323831  0.173363  0.874556  1
  Sc  Sc18  1  0.829378  0.323504  0.874608  1
  Sc  Sc19  1  0.171547  0.676346  0.126299  1
  Si  Si20  1  0.969105  0.879793  0.250000  1
  Si  Si21  1  0.468541  0.619319  0.250000  1
  Si  Si22  1  0.531062  0.383444  0.750000  1
  Si  Si23  1  0.288012  0.874105  0.750000  1
  Si  Si24  1  0.711925  0.124488  0.250000  1
  Si  Si25  1  0.211564  0.376561  0.250000  1
  Si  Si26  1  0.781867  0.621907  0.750000  1
  Si  Si27  1  0.155855  0.465400  0.538006  1
  Si  Si28  1  0.845662  0.536530  0.460527  1
  Si  Si29  1  0.347721  0.964076  0.460349  1
  Si  Si30  1  0.845662  0.536530  0.039473  1
  Si  Si31  1  0.655359  0.035169  0.538804  1
  Si  Si32  1  0.155855  0.465400  0.961994  1
  Si  Si33  1  0.655359  0.035169  0.961196  1
  Si  Si34  1  0.347721  0.964076  0.039651  1
  Pt  Pt35  1  0.029391  0.116979  0.750000  1
