# generated using pymatgen
data_Nd4CdSn11
_symmetry_space_group_name_H-M   'P 1'
_cell_length_a   9.76503100
_cell_length_b   6.72126700
_cell_length_c   6.71678900
_cell_angle_alpha   89.95579168
_cell_angle_beta   90.00000000
_cell_angle_gamma   90.00000000
_symmetry_Int_Tables_number   1
_chemical_formula_structural   Nd4CdSn11
_chemical_formula_sum   'Nd4 Cd1 Sn11'
_cell_volume   440.84543776
_cell_formula_units_Z   1
loop_
 _symmetry_equiv_pos_site_id
 _symmetry_equiv_pos_as_xyz
  1  'x, y, z'
loop_
 _atom_site_type_symbol
 _atom_site_label
 _atom_site_symmetry_multiplicity
 _atom_site_fract_x
 _atom_site_fract_y
 _atom_site_fract_z
 _atom_site_occupancy
  Nd  Nd0  1  0.250000  0.004548  0.001509  1
  Nd  Nd1  1  0.250000  0.497487  0.502807  1
  Nd  Nd2  1  0.750000  0.997042  0.999102  1
  Nd  Nd3  1  0.750000  0.503613  0.498727  1
  Cd  Cd4  1  0.750000  0.495956  0.997256  1
  Sn  Sn5  1  0.996582  0.247080  0.747111  1
  Sn  Sn6  1  0.503904  0.253827  0.246594  1
  Sn  Sn7  1  0.501707  0.751108  0.250936  1
  Sn  Sn8  1  0.997501  0.746014  0.754176  1
  Sn  Sn9  1  0.998293  0.751108  0.250936  1
  Sn  Sn10  1  0.502499  0.746014  0.754176  1
  Sn  Sn11  1  0.503418  0.247080  0.747111  1
  Sn  Sn12  1  0.996096  0.253827  0.246594  1
  Sn  Sn13  1  0.250000  0.998500  0.501233  1
  Sn  Sn14  1  0.250000  0.504092  0.002640  1
  Sn  Sn15  1  0.750000  0.002700  0.499093  1
