# generated using pymatgen
data_TbHo(Si7Rh3)2
_symmetry_space_group_name_H-M   'P 1'
_cell_length_a   7.98678406
_cell_length_b   7.98678545
_cell_length_c   7.98678500
_cell_angle_alpha   57.13054677
_cell_angle_beta   57.13054036
_cell_angle_gamma   57.13054090
_symmetry_Int_Tables_number   1
_chemical_formula_structural   TbHo(Si7Rh3)2
_chemical_formula_sum   'Tb1 Ho1 Si14 Rh6'
_cell_volume   336.42787425
_cell_formula_units_Z   1
loop_
 _symmetry_equiv_pos_site_id
 _symmetry_equiv_pos_as_xyz
  1  'x, y, z'
loop_
 _atom_site_type_symbol
 _atom_site_label
 _atom_site_symmetry_multiplicity
 _atom_site_fract_x
 _atom_site_fract_y
 _atom_site_fract_z
 _atom_site_occupancy
  Tb  Tb0  1  0.500000  0.500000  0.500000  1
  Ho  Ho1  1  0.000000  0.000000  0.000000  1
  Si  Si2  1  0.749793  0.749793  0.749793  1
  Si  Si3  1  0.250207  0.250207  0.250207  1
  Si  Si4  1  0.851855  0.064989  0.672410  1
  Si  Si5  1  0.672410  0.851855  0.064989  1
  Si  Si6  1  0.064989  0.672410  0.851855  1
  Si  Si7  1  0.648636  0.827819  0.434394  1
  Si  Si8  1  0.434394  0.648636  0.827819  1
  Si  Si9  1  0.827819  0.434394  0.648636  1
  Si  Si10  1  0.172181  0.565606  0.351364  1
  Si  Si11  1  0.565606  0.351364  0.172181  1
  Si  Si12  1  0.351364  0.172181  0.565606  1
  Si  Si13  1  0.935011  0.327590  0.148145  1
  Si  Si14  1  0.327590  0.148145  0.935011  1
  Si  Si15  1  0.148145  0.935011  0.327590  1
  Rh  Rh16  1  0.069879  0.429740  0.750520  1
  Rh  Rh17  1  0.249480  0.930121  0.570260  1
  Rh  Rh18  1  0.570260  0.249480  0.930121  1
  Rh  Rh19  1  0.930121  0.570260  0.249480  1
  Rh  Rh20  1  0.429740  0.750520  0.069879  1
  Rh  Rh21  1  0.750520  0.069879  0.429740  1
