# generated using pymatgen
data_HoThInCu2
_symmetry_space_group_name_H-M   'P 1'
_cell_length_a   7.58699100
_cell_length_b   7.58365600
_cell_length_c   3.85300800
_cell_angle_alpha   90.00000000
_cell_angle_beta   90.00000000
_cell_angle_gamma   90.00000000
_symmetry_Int_Tables_number   1
_chemical_formula_structural   HoThInCu2
_chemical_formula_sum   'Ho2 Th2 In2 Cu4'
_cell_volume   221.69102149
_cell_formula_units_Z   2
loop_
 _symmetry_equiv_pos_site_id
 _symmetry_equiv_pos_as_xyz
  1  'x, y, z'
loop_
 _atom_site_type_symbol
 _atom_site_label
 _atom_site_symmetry_multiplicity
 _atom_site_fract_x
 _atom_site_fract_y
 _atom_site_fract_z
 _atom_site_occupancy
  Ho  Ho0  1  0.173612  0.323590  0.500000  1
  Ho  Ho1  1  0.673612  0.176410  0.500000  1
  Th  Th2  1  0.325552  0.827223  0.500000  1
  Th  Th3  1  0.825552  0.672777  0.500000  1
  In  In4  1  0.997850  0.009482  0.000000  1
  In  In5  1  0.497850  0.490518  0.000000  1
  Cu  Cu6  1  0.378821  0.124031  0.000000  1
  Cu  Cu7  1  0.878821  0.375969  0.000000  1
  Cu  Cu8  1  0.124166  0.613102  0.000000  1
  Cu  Cu9  1  0.624166  0.886898  0.000000  1
