# generated using pymatgen
data_Tb2Dy2Ga12Ag
_symmetry_space_group_name_H-M   'P 1'
_cell_length_a   7.57249581
_cell_length_b   7.56856906
_cell_length_c   7.56856912
_cell_angle_alpha   109.45123778
_cell_angle_beta   109.47070782
_cell_angle_gamma   109.47070047
_symmetry_Int_Tables_number   1
_chemical_formula_structural   Tb2Dy2Ga12Ag
_chemical_formula_sum   'Tb2 Dy2 Ga12 Ag1'
_cell_volume   334.00832143
_cell_formula_units_Z   1
loop_
 _symmetry_equiv_pos_site_id
 _symmetry_equiv_pos_as_xyz
  1  'x, y, z'
loop_
 _atom_site_type_symbol
 _atom_site_label
 _atom_site_symmetry_multiplicity
 _atom_site_fract_x
 _atom_site_fract_y
 _atom_site_fract_z
 _atom_site_occupancy
  Tb  Tb0  1  0.000000  0.000000  0.500000  1
  Tb  Tb1  1  0.000000  0.500000  0.000000  1
  Dy  Dy2  1  0.500000  0.500000  0.500000  1
  Dy  Dy3  1  0.500000  0.000000  0.000000  1
  Ga  Ga4  1  0.500000  0.750000  0.250000  1
  Ga  Ga5  1  0.500000  0.250000  0.750000  1
  Ga  Ga6  1  0.250142  0.500143  0.749998  1
  Ga  Ga7  1  0.749858  0.499857  0.250002  1
  Ga  Ga8  1  0.749858  0.250002  0.499857  1
  Ga  Ga9  1  0.250142  0.749998  0.500143  1
  Ga  Ga10  1  0.000000  0.305601  0.305601  1
  Ga  Ga11  1  0.000000  0.694399  0.694399  1
  Ga  Ga12  1  0.305726  0.000125  0.305601  1
  Ga  Ga13  1  0.694274  0.999875  0.694399  1
  Ga  Ga14  1  0.305726  0.305601  0.000125  1
  Ga  Ga15  1  0.694274  0.694399  0.999875  1
  Ag  Ag16  1  0.000000  0.000000  0.000000  1
