# generated using pymatgen
data_Yb3Sc5(B6Ru)4
_symmetry_space_group_name_H-M   'P 1'
_cell_length_a   3.52460000
_cell_length_b   8.95200306
_cell_length_c   11.30550470
_cell_angle_alpha   89.99227727
_cell_angle_beta   90.00000000
_cell_angle_gamma   90.00000000
_symmetry_Int_Tables_number   1
_chemical_formula_structural   Yb3Sc5(B6Ru)4
_chemical_formula_sum   'Yb3 Sc5 B24 Ru4'
_cell_volume   356.71388083
_cell_formula_units_Z   1
loop_
 _symmetry_equiv_pos_site_id
 _symmetry_equiv_pos_as_xyz
  1  'x, y, z'
loop_
 _atom_site_type_symbol
 _atom_site_label
 _atom_site_symmetry_multiplicity
 _atom_site_fract_x
 _atom_site_fract_y
 _atom_site_fract_z
 _atom_site_occupancy
  Yb  Yb0  1  0.000000  0.322810  0.414590  1
  Yb  Yb1  1  0.000000  0.676916  0.585331  1
  Yb  Yb2  1  0.000000  0.822118  0.085307  1
  Sc  Sc3  1  0.000000  0.177440  0.915075  1
  Sc  Sc4  1  0.000000  0.942352  0.368073  1
  Sc  Sc5  1  0.000000  0.057408  0.631249  1
  Sc  Sc6  1  0.000000  0.443290  0.130028  1
  Sc  Sc7  1  0.000000  0.556565  0.870161  1
  B  B8  1  0.500000  0.553935  0.432965  1
  B  B9  1  0.500000  0.444835  0.568332  1
  B  B10  1  0.500000  0.054981  0.064801  1
  B  B11  1  0.500000  0.947404  0.933545  1
  B  B12  1  0.500000  0.752596  0.417588  1
  B  B13  1  0.500000  0.247245  0.583063  1
  B  B14  1  0.500000  0.252433  0.079488  1
  B  B15  1  0.500000  0.747965  0.917899  1
  B  B16  1  0.500000  0.794069  0.263628  1
  B  B17  1  0.500000  0.205276  0.738110  1
  B  B18  1  0.500000  0.294065  0.234372  1
  B  B19  1  0.500000  0.707037  0.764715  1
  B  B20  1  0.500000  0.629183  0.182968  1
  B  B21  1  0.500000  0.369114  0.819001  1
  B  B22  1  0.500000  0.129767  0.315520  1
  B  B23  1  0.500000  0.871452  0.683293  1
  B  B24  1  0.500000  0.981710  0.211778  1
  B  B25  1  0.500000  0.020179  0.788252  1
  B  B26  1  0.500000  0.481460  0.286741  1
  B  B27  1  0.500000  0.517668  0.714171  1
  B  B28  1  0.500000  0.595854  0.026024  1
  B  B29  1  0.500000  0.401521  0.973280  1
  B  B30  1  0.500000  0.095127  0.473970  1
  B  B31  1  0.500000  0.905274  0.525714  1
  Ru  Ru32  1  0.000000  0.640357  0.318222  1
  Ru  Ru33  1  0.000000  0.357642  0.684313  1
  Ru  Ru34  1  0.000000  0.140283  0.179124  1
  Ru  Ru35  1  0.000000  0.862671  0.819304  1
