# generated using pymatgen
data_UTi5(AlRu2)6
_symmetry_space_group_name_H-M   'P 1'
_cell_length_a   4.34127501
_cell_length_b   6.18196101
_cell_length_c   12.98823800
_cell_angle_alpha   89.99983718
_cell_angle_beta   90.00001761
_cell_angle_gamma   90.00555203
_symmetry_Int_Tables_number   1
_chemical_formula_structural   UTi5(AlRu2)6
_chemical_formula_sum   'U1 Ti5 Al6 Ru12'
_cell_volume   348.57304104
_cell_formula_units_Z   1
loop_
 _symmetry_equiv_pos_site_id
 _symmetry_equiv_pos_as_xyz
  1  'x, y, z'
loop_
 _atom_site_type_symbol
 _atom_site_label
 _atom_site_symmetry_multiplicity
 _atom_site_fract_x
 _atom_site_fract_y
 _atom_site_fract_z
 _atom_site_occupancy
  U  U0  1  0.000000  0.499999  0.000000  1
  Ti  Ti1  1  0.499913  0.999999  0.174712  1
  Ti  Ti2  1  0.999908  0.500000  0.339135  1
  Ti  Ti3  1  0.500000  0.000000  0.500000  1
  Ti  Ti4  1  0.000093  0.499998  0.660865  1
  Ti  Ti5  1  0.500088  0.000001  0.825288  1
  Al  Al6  1  0.000000  0.000000  0.000000  1
  Al  Al7  1  0.499906  0.499999  0.177243  1
  Al  Al8  1  0.999886  0.000003  0.336790  1
  Al  Al9  1  0.500000  0.499999  0.500000  1
  Al  Al10  1  0.000115  0.999997  0.663210  1
  Al  Al11  1  0.500094  0.499999  0.822757  1
  Ru  Ru12  1  0.500273  0.244059  0.999999  1
  Ru  Ru13  1  0.499727  0.755940  0.000001  1
  Ru  Ru14  1  0.999912  0.249989  0.165173  1
  Ru  Ru15  1  0.999923  0.750009  0.165171  1
  Ru  Ru16  1  0.499935  0.248952  0.333099  1
  Ru  Ru17  1  0.499884  0.751048  0.333097  1
  Ru  Ru18  1  0.999967  0.250971  0.500001  1
  Ru  Ru19  1  0.000033  0.749029  0.499999  1
  Ru  Ru20  1  0.500114  0.248953  0.666903  1
  Ru  Ru21  1  0.500063  0.751049  0.666901  1
  Ru  Ru22  1  0.000078  0.249991  0.834829  1
  Ru  Ru23  1  0.000089  0.750011  0.834827  1
