# generated using pymatgen
data_Lu(ZrPd4)3
_symmetry_space_group_name_H-M   'P 1'
_cell_length_a   5.68801400
_cell_length_b   5.68801433
_cell_length_c   9.36408100
_cell_angle_alpha   90.00000000
_cell_angle_beta   90.00000000
_cell_angle_gamma   119.99999809
_symmetry_Int_Tables_number   1
_chemical_formula_structural   Lu(ZrPd4)3
_chemical_formula_sum   'Lu1 Zr3 Pd12'
_cell_volume   262.37179116
_cell_formula_units_Z   1
loop_
 _symmetry_equiv_pos_site_id
 _symmetry_equiv_pos_as_xyz
  1  'x, y, z'
loop_
 _atom_site_type_symbol
 _atom_site_label
 _atom_site_symmetry_multiplicity
 _atom_site_fract_x
 _atom_site_fract_y
 _atom_site_fract_z
 _atom_site_occupancy
  Lu  Lu0  1  0.333333  0.666667  0.250000  1
  Zr  Zr1  1  0.666667  0.333333  0.750000  1
  Zr  Zr2  1  0.000000  0.000000  0.499106  1
  Zr  Zr3  1  0.000000  0.000000  0.000894  1
  Pd  Pd4  1  0.169469  0.338938  0.750000  1
  Pd  Pd5  1  0.830230  0.169770  0.250000  1
  Pd  Pd6  1  0.339539  0.169770  0.250000  1
  Pd  Pd7  1  0.661062  0.830531  0.750000  1
  Pd  Pd8  1  0.500904  0.001807  0.998022  1
  Pd  Pd9  1  0.500904  0.499096  0.501978  1
  Pd  Pd10  1  0.998193  0.499096  0.501978  1
  Pd  Pd11  1  0.998193  0.499096  0.998022  1
  Pd  Pd12  1  0.500904  0.499096  0.998022  1
  Pd  Pd13  1  0.500904  0.001807  0.501978  1
  Pd  Pd14  1  0.830230  0.660461  0.250000  1
  Pd  Pd15  1  0.169469  0.830531  0.750000  1
