# generated using pymatgen
data_La4Zr3IrF28
_symmetry_space_group_name_H-M   'P 1'
_cell_length_a   5.88520006
_cell_length_b   9.42057419
_cell_length_c   12.64485800
_cell_angle_alpha   62.15552632
_cell_angle_beta   89.99180265
_cell_angle_gamma   89.94176180
_symmetry_Int_Tables_number   1
_chemical_formula_structural   La4Zr3IrF28
_chemical_formula_sum   'La4 Zr3 Ir1 F28'
_cell_volume   619.88624390
_cell_formula_units_Z   1
loop_
 _symmetry_equiv_pos_site_id
 _symmetry_equiv_pos_as_xyz
  1  'x, y, z'
loop_
 _atom_site_type_symbol
 _atom_site_label
 _atom_site_symmetry_multiplicity
 _atom_site_fract_x
 _atom_site_fract_y
 _atom_site_fract_z
 _atom_site_occupancy
  La  La0  1  0.759306  0.811236  0.260984  1
  La  La1  1  0.257931  0.188644  0.233967  1
  La  La2  1  0.242609  0.186645  0.734813  1
  La  La3  1  0.742244  0.811317  0.769250  1
  Zr  Zr4  1  0.245361  0.725803  0.543151  1
  Zr  Zr5  1  0.745746  0.274734  0.956776  1
  Zr  Zr6  1  0.754867  0.274160  0.456722  1
  Ir  Ir7  1  0.256883  0.725671  0.043881  1
  F  F8  1  0.960085  0.717683  0.452953  1
  F  F9  1  0.457270  0.285396  0.043717  1
  F  F10  1  0.042862  0.283682  0.544587  1
  F  F11  1  0.534049  0.716710  0.957567  1
  F  F12  1  0.060767  0.709120  0.923643  1
  F  F13  1  0.548187  0.290387  0.579616  1
  F  F14  1  0.951182  0.289697  0.080366  1
  F  F15  1  0.454206  0.711558  0.420093  1
  F  F16  1  0.734868  0.518312  0.860562  1
  F  F17  1  0.230765  0.481870  0.639750  1
  F  F18  1  0.263538  0.492563  0.138000  1
  F  F19  1  0.769286  0.517673  0.359667  1
  F  F20  1  0.737182  0.031422  0.053031  1
  F  F21  1  0.239104  0.969721  0.444637  1
  F  F22  1  0.258665  0.958981  0.953184  1
  F  F23  1  0.762287  0.031211  0.556750  1
  F  F24  1  0.043455  0.745103  0.668450  1
  F  F25  1  0.546448  0.254186  0.831436  1
  F  F26  1  0.952391  0.254691  0.330578  1
  F  F27  1  0.449532  0.741410  0.166122  1
  F  F28  1  0.021974  0.266347  0.862401  1
  F  F29  1  0.517952  0.732102  0.640697  1
  F  F30  1  0.984461  0.730690  0.133855  1
  F  F31  1  0.479674  0.269444  0.360234  1
  F  F32  1  0.083352  0.970220  0.231580  1
  F  F33  1  0.584230  0.030510  0.265362  1
  F  F34  1  0.913148  0.032402  0.770020  1
  F  F35  1  0.414130  0.968702  0.731595  1
