# generated using pymatgen
data_Rb3LiMgAlH9
_symmetry_space_group_name_H-M   'P 1'
_cell_length_a   7.95938699
_cell_length_b   7.95938760
_cell_length_c   7.95938672
_cell_angle_alpha   44.19268752
_cell_angle_beta   44.19268342
_cell_angle_gamma   44.19270928
_symmetry_Int_Tables_number   1
_chemical_formula_structural   Rb3LiMgAlH9
_chemical_formula_sum   'Rb3 Li1 Mg1 Al1 H9'
_cell_volume   222.63132560
_cell_formula_units_Z   1
loop_
 _symmetry_equiv_pos_site_id
 _symmetry_equiv_pos_as_xyz
  1  'x, y, z'
loop_
 _atom_site_type_symbol
 _atom_site_label
 _atom_site_symmetry_multiplicity
 _atom_site_fract_x
 _atom_site_fract_y
 _atom_site_fract_z
 _atom_site_occupancy
  Rb  Rb0  1  0.995322  0.995322  0.995322  1
  Rb  Rb1  1  0.781864  0.781864  0.781864  1
  Rb  Rb2  1  0.216538  0.216538  0.216538  1
  Li  Li3  1  0.622646  0.622646  0.622646  1
  Mg  Mg4  1  0.377139  0.377139  0.377139  1
  Al  Al5  1  0.502660  0.502660  0.502660  1
  H  H6  1  0.007973  0.499338  0.499338  1
  H  H7  1  0.499338  0.007973  0.499338  1
  H  H8  1  0.499338  0.499338  0.007973  1
  H  H9  1  0.717943  0.315151  0.315151  1
  H  H10  1  0.315151  0.717943  0.315151  1
  H  H11  1  0.315151  0.315151  0.717943  1
  H  H12  1  0.687015  0.687015  0.274906  1
  H  H13  1  0.687015  0.274906  0.687015  1
  H  H14  1  0.274906  0.687015  0.687015  1
