# generated using pymatgen
data_GdHo2Mn3O9
_symmetry_space_group_name_H-M   'P 1'
_cell_length_a   6.23345002
_cell_length_b   6.23344871
_cell_length_c   11.56242200
_cell_angle_alpha   90.00000000
_cell_angle_beta   90.00000000
_cell_angle_gamma   120.00000780
_symmetry_Int_Tables_number   1
_chemical_formula_structural   GdHo2Mn3O9
_chemical_formula_sum   'Gd2 Ho4 Mn6 O18'
_cell_volume   389.07765118
_cell_formula_units_Z   2
loop_
 _symmetry_equiv_pos_site_id
 _symmetry_equiv_pos_as_xyz
  1  'x, y, z'
loop_
 _atom_site_type_symbol
 _atom_site_label
 _atom_site_symmetry_multiplicity
 _atom_site_fract_x
 _atom_site_fract_y
 _atom_site_fract_z
 _atom_site_occupancy
  Gd  Gd0  1  0.666667  0.333333  0.232887  1
  Gd  Gd1  1  0.333333  0.666667  0.732887  1
  Ho  Ho2  1  0.666667  0.333333  0.728868  1
  Ho  Ho3  1  0.333333  0.666667  0.228868  1
  Ho  Ho4  1  0.000000  0.000000  0.774071  1
  Ho  Ho5  1  0.000000  0.000000  0.274071  1
  Mn  Mn6  1  0.666811  0.998147  0.499336  1
  Mn  Mn7  1  0.668663  0.666811  0.999336  1
  Mn  Mn8  1  0.998147  0.331337  0.999336  1
  Mn  Mn9  1  0.001853  0.668663  0.499336  1
  Mn  Mn10  1  0.331337  0.333189  0.499336  1
  Mn  Mn11  1  0.333189  0.001853  0.999336  1
  O  O12  1  0.666667  0.333333  0.020688  1
  O  O13  1  0.333333  0.666667  0.520688  1
  O  O14  1  0.666667  0.333333  0.517827  1
  O  O15  1  0.333333  0.666667  0.017827  1
  O  O16  1  0.000000  0.000000  0.974462  1
  O  O17  1  0.000000  0.000000  0.474462  1
  O  O18  1  0.359974  0.007388  0.835106  1
  O  O19  1  0.352586  0.359974  0.335106  1
  O  O20  1  0.007388  0.647414  0.335106  1
  O  O21  1  0.992612  0.352586  0.835106  1
  O  O22  1  0.647414  0.640026  0.835106  1
  O  O23  1  0.640026  0.992612  0.335106  1
  O  O24  1  0.302408  0.995429  0.163624  1
  O  O25  1  0.306979  0.302408  0.663624  1
  O  O26  1  0.995429  0.693021  0.663624  1
  O  O27  1  0.004571  0.306979  0.163624  1
  O  O28  1  0.693021  0.697592  0.163624  1
  O  O29  1  0.697592  0.004571  0.663624  1
