# generated using pymatgen
data_MgZr6Nb(Ir2N)2
_symmetry_space_group_name_H-M   'P 1'
_cell_length_a   8.70316860
_cell_length_b   8.70316869
_cell_length_c   8.66583300
_cell_angle_alpha   60.14180366
_cell_angle_beta   60.14180332
_cell_angle_gamma   60.09600699
_symmetry_Int_Tables_number   1
_chemical_formula_structural   MgZr6Nb(Ir2N)2
_chemical_formula_sum   'Mg2 Zr12 Nb2 Ir8 N4'
_cell_volume   465.47152101
_cell_formula_units_Z   2
loop_
 _symmetry_equiv_pos_site_id
 _symmetry_equiv_pos_as_xyz
  1  'x, y, z'
loop_
 _atom_site_type_symbol
 _atom_site_label
 _atom_site_symmetry_multiplicity
 _atom_site_fract_x
 _atom_site_fract_y
 _atom_site_fract_z
 _atom_site_occupancy
  Mg  Mg0  1  0.125000  0.625000  0.625000  1
  Mg  Mg1  1  0.625000  0.125000  0.625000  1
  Zr  Zr2  1  0.813036  0.813036  0.186964  1
  Zr  Zr3  1  0.185811  0.185811  0.814189  1
  Zr  Zr4  1  0.811295  0.185488  0.811380  1
  Zr  Zr5  1  0.185488  0.811295  0.191836  1
  Zr  Zr6  1  0.185488  0.811295  0.811380  1
  Zr  Zr7  1  0.811295  0.185488  0.191836  1
  Zr  Zr8  1  0.436964  0.436964  0.063036  1
  Zr  Zr9  1  0.064189  0.064189  0.435811  1
  Zr  Zr10  1  0.438705  0.064512  0.438620  1
  Zr  Zr11  1  0.064512  0.438705  0.058164  1
  Zr  Zr12  1  0.064512  0.438705  0.438620  1
  Zr  Zr13  1  0.438705  0.064512  0.058164  1
  Nb  Nb14  1  0.625000  0.625000  0.125000  1
  Nb  Nb15  1  0.625000  0.625000  0.625000  1
  Ir  Ir16  1  0.758249  0.419424  0.411164  1
  Ir  Ir17  1  0.419424  0.758249  0.411164  1
  Ir  Ir18  1  0.417281  0.417281  0.754779  1
  Ir  Ir19  1  0.417281  0.417281  0.410658  1
  Ir  Ir20  1  0.491751  0.830576  0.838836  1
  Ir  Ir21  1  0.830576  0.491751  0.838836  1
  Ir  Ir22  1  0.832719  0.832719  0.495221  1
  Ir  Ir23  1  0.832719  0.832719  0.839342  1
  N  N24  1  0.625000  0.125000  0.125000  1
  N  N25  1  0.125000  0.625000  0.125000  1
  N  N26  1  0.125000  0.125000  0.625000  1
  N  N27  1  0.125000  0.125000  0.125000  1
