# generated using pymatgen
data_Pr3Dy5MgHgIr2
_symmetry_space_group_name_H-M   'P 1'
_cell_length_a   9.77146449
_cell_length_b   9.77146598
_cell_length_c   9.77768600
_cell_angle_alpha   59.97894767
_cell_angle_beta   59.97894260
_cell_angle_gamma   60.34169897
_symmetry_Int_Tables_number   1
_chemical_formula_structural   Pr3Dy5MgHgIr2
_chemical_formula_sum   'Pr6 Dy10 Mg2 Hg2 Ir4'
_cell_volume   661.62277533
_cell_formula_units_Z   2
loop_
 _symmetry_equiv_pos_site_id
 _symmetry_equiv_pos_as_xyz
  1  'x, y, z'
loop_
 _atom_site_type_symbol
 _atom_site_label
 _atom_site_symmetry_multiplicity
 _atom_site_fract_x
 _atom_site_fract_y
 _atom_site_fract_z
 _atom_site_occupancy
  Pr  Pr0  1  0.940328  0.557530  0.559761  1
  Pr  Pr1  1  0.557530  0.940328  0.942381  1
  Pr  Pr2  1  0.557530  0.940328  0.559761  1
  Pr  Pr3  1  0.940328  0.557530  0.942381  1
  Pr  Pr4  1  0.558427  0.558427  0.941573  1
  Pr  Pr5  1  0.940423  0.940423  0.559577  1
  Dy  Dy6  1  0.346240  0.346240  0.344272  1
  Dy  Dy7  1  0.346240  0.346240  0.963248  1
  Dy  Dy8  1  0.347828  0.958794  0.346689  1
  Dy  Dy9  1  0.958794  0.347828  0.346689  1
  Dy  Dy10  1  0.812185  0.185117  0.188437  1
  Dy  Dy11  1  0.185117  0.812185  0.814262  1
  Dy  Dy12  1  0.185117  0.812185  0.188437  1
  Dy  Dy13  1  0.812185  0.185117  0.814262  1
  Dy  Dy14  1  0.185604  0.185604  0.814396  1
  Dy  Dy15  1  0.809314  0.809314  0.190686  1
  Mg  Mg16  1  0.580296  0.275005  0.572350  1
  Mg  Mg17  1  0.275005  0.580296  0.572350  1
  Hg  Hg18  1  0.580199  0.580199  0.585871  1
  Hg  Hg19  1  0.580199  0.580199  0.253731  1
  Ir  Ir20  1  0.141735  0.141735  0.140564  1
  Ir  Ir21  1  0.141735  0.141735  0.575966  1
  Ir  Ir22  1  0.140920  0.576721  0.141179  1
  Ir  Ir23  1  0.576721  0.140920  0.141179  1
