# generated using pymatgen
data_La7Nd5Ru(PtBr4)3
_symmetry_space_group_name_H-M   'P 1'
_cell_length_a   10.58737148
_cell_length_b   10.60507705
_cell_length_c   10.56064206
_cell_angle_alpha   108.62598215
_cell_angle_beta   109.91568236
_cell_angle_gamma   109.00538468
_symmetry_Int_Tables_number   1
_chemical_formula_structural   La7Nd5Ru(PtBr4)3
_chemical_formula_sum   'La7 Nd5 Ru1 Pt3 Br12'
_cell_volume   922.32918351
_cell_formula_units_Z   1
loop_
 _symmetry_equiv_pos_site_id
 _symmetry_equiv_pos_as_xyz
  1  'x, y, z'
loop_
 _atom_site_type_symbol
 _atom_site_label
 _atom_site_symmetry_multiplicity
 _atom_site_fract_x
 _atom_site_fract_y
 _atom_site_fract_z
 _atom_site_occupancy
  La  La0  1  0.018093  0.486117  0.753185  1
  La  La1  1  0.476219  0.240940  0.470815  1
  La  La2  1  0.262849  0.018072  0.029856  1
  La  La3  1  0.750101  0.236010  0.262672  1
  La  La4  1  0.748568  0.012845  0.484932  1
  La  La5  1  0.468833  0.483208  0.234654  1
  La  La6  1  0.030578  0.258961  0.023016  1
  Nd  Nd7  1  0.266032  0.751877  0.235630  1
  Nd  Nd8  1  0.484371  0.749034  0.014397  1
  Nd  Nd9  1  0.237274  0.468126  0.480864  1
  Nd  Nd10  1  0.019753  0.031718  0.264872  1
  Nd  Nd11  1  0.235712  0.264001  0.747734  1
  Ru  Ru12  1  0.251780  0.249925  0.248078  1
  Pt  Pt13  1  0.500602  0.001859  0.250883  1
  Pt  Pt14  1  0.249409  0.497853  0.999453  1
  Pt  Pt15  1  0.000170  0.249535  0.498653  1
  Br  Br16  1  0.246231  0.992568  0.502699  1
  Br  Br17  1  0.505788  0.506839  0.756840  1
  Br  Br18  1  0.253601  0.750983  0.745111  1
  Br  Br19  1  0.992712  0.747225  0.001009  1
  Br  Br20  1  0.001345  0.509994  0.254577  1
  Br  Br21  1  0.743905  0.989525  0.992726  1
  Br  Br22  1  0.754168  0.748427  0.246264  1
  Br  Br23  1  0.499087  0.753321  0.507764  1
  Br  Br24  1  0.503045  0.249616  0.990182  1
  Br  Br25  1  0.754561  0.508899  0.504834  1
  Br  Br26  1  0.746985  0.250150  0.754264  1
  Br  Br27  1  0.998229  0.992373  0.744035  1
